# generated using pymatgen
data_KBaCr2(PO4)3
_symmetry_space_group_name_H-M   'P 1'
_cell_length_a   9.96085620
_cell_length_b   9.96085620
_cell_length_c   9.96085620
_cell_angle_alpha   90.00000000
_cell_angle_beta   90.00000000
_cell_angle_gamma   90.00000000
_symmetry_Int_Tables_number   1
_chemical_formula_structural   KBaCr2(PO4)3
_chemical_formula_sum   'K4 Ba4 Cr8 P12 O48'
_cell_volume   988.30276713
_cell_formula_units_Z   4
loop_
 _symmetry_equiv_pos_site_id
 _symmetry_equiv_pos_as_xyz
  1  'x, y, z'
loop_
 _atom_site_type_symbol
 _atom_site_label
 _atom_site_symmetry_multiplicity
 _atom_site_fract_x
 _atom_site_fract_y
 _atom_site_fract_z
 _atom_site_occupancy
  K  K0  1  0.70328276  0.79671724  0.20328276  1
  K  K1  1  0.79671724  0.20328276  0.70328276  1
  K  K2  1  0.20328276  0.70328276  0.79671724  1
  K  K3  1  0.29671724  0.29671724  0.29671724  1
  Ba  Ba4  1  0.93249111  0.56750889  0.43249111  1
  Ba  Ba5  1  0.56750889  0.43249111  0.93249111  1
  Ba  Ba6  1  0.43249111  0.93249111  0.56750889  1
  Ba  Ba7  1  0.06750889  0.06750889  0.06750889  1
  Cr  Cr8  1  0.41334527  0.08665473  0.91334527  1
  Cr  Cr9  1  0.08665473  0.91334527  0.41334527  1
  Cr  Cr10  1  0.91334527  0.41334527  0.08665473  1
  Cr  Cr11  1  0.58665473  0.58665473  0.58665473  1
  Cr  Cr12  1  0.14825027  0.35174973  0.64825027  1
  Cr  Cr13  1  0.35174973  0.64825027  0.14825027  1
  Cr  Cr14  1  0.64825027  0.14825027  0.35174973  1
  Cr  Cr15  1  0.85174973  0.85174973  0.85174973  1
  P  P16  1  0.37407524  0.95972059  0.22588089  1
  P  P17  1  0.72588089  0.12592476  0.04027941  1
  P  P18  1  0.54027941  0.77411911  0.87407524  1
  P  P19  1  0.12592476  0.04027941  0.72588089  1
  P  P20  1  0.77411911  0.87407524  0.54027941  1
  P  P21  1  0.95972059  0.22588089  0.37407524  1
  P  P22  1  0.87407524  0.54027941  0.77411911  1
  P  P23  1  0.22588089  0.37407524  0.95972059  1
  P  P24  1  0.04027941  0.72588089  0.12592476  1
  P  P25  1  0.62592476  0.45972059  0.27411911  1
  P  P26  1  0.27411911  0.62592476  0.45972059  1
  P  P27  1  0.45972059  0.27411911  0.62592476  1
  O  O28  1  0.23902743  0.98582032  0.30109874  1
  O  O29  1  0.80109874  0.26097257  0.01417968  1
  O  O30  1  0.51417968  0.69890126  0.73902743  1
  O  O31  1  0.26097257  0.01417968  0.80109874  1
  O  O32  1  0.69890126  0.73902743  0.51417968  1
  O  O33  1  0.98582032  0.30109874  0.23902743  1
  O  O34  1  0.73902743  0.51417968  0.69890126  1
  O  O35  1  0.30109874  0.23902743  0.98582032  1
  O  O36  1  0.01417968  0.80109874  0.26097257  1
  O  O37  1  0.76097257  0.48582032  0.19890126  1
  O  O38  1  0.19890126  0.76097257  0.48582032  1
  O  O39  1  0.48582032  0.19890126  0.76097257  1
  O  O40  1  0.34601855  0.99476096  0.07749535  1
  O  O41  1  0.57749535  0.15398145  0.00523904  1
  O  O42  1  0.50523904  0.92250465  0.84601855  1
  O  O43  1  0.15398145  0.00523904  0.57749535  1
  O  O44  1  0.92250465  0.84601855  0.50523904  1
  O  O45  1  0.99476096  0.07749535  0.34601855  1
  O  O46  1  0.84601855  0.50523904  0.92250465  1
  O  O47  1  0.07749535  0.34601855  0.99476096  1
  O  O48  1  0.00523904  0.57749535  0.15398145  1
  O  O49  1  0.65398145  0.49476096  0.42250465  1
  O  O50  1  0.42250465  0.65398145  0.49476096  1
  O  O51  1  0.49476096  0.42250465  0.65398145  1
  O  O52  1  0.42208110  0.81228713  0.24158058  1
  O  O53  1  0.74158058  0.07791890  0.18771287  1
  O  O54  1  0.68771287  0.75841942  0.92208110  1
  O  O55  1  0.07791890  0.18771287  0.74158058  1
  O  O56  1  0.75841942  0.92208110  0.68771287  1
  O  O57  1  0.81228713  0.24158058  0.42208110  1
  O  O58  1  0.92208110  0.68771287  0.75841942  1
  O  O59  1  0.24158058  0.42208110  0.81228713  1
  O  O60  1  0.18771287  0.74158058  0.07791890  1
  O  O61  1  0.57791890  0.31228713  0.25841942  1
  O  O62  1  0.25841942  0.57791890  0.31228713  1
  O  O63  1  0.31228713  0.25841942  0.57791890  1
  O  O64  1  0.47698244  0.05059904  0.29727400  1
  O  O65  1  0.79727400  0.02301756  0.94940096  1
  O  O66  1  0.44940096  0.70272600  0.97698244  1
  O  O67  1  0.02301756  0.94940096  0.79727400  1
  O  O68  1  0.70272600  0.97698244  0.44940096  1
  O  O69  1  0.05059904  0.29727400  0.47698244  1
  O  O70  1  0.97698244  0.44940096  0.70272600  1
  O  O71  1  0.29727400  0.47698244  0.05059904  1
  O  O72  1  0.94940096  0.79727400  0.02301756  1
  O  O73  1  0.52301756  0.55059904  0.20272600  1
  O  O74  1  0.20272600  0.52301756  0.55059904  1
  O  O75  1  0.55059904  0.20272600  0.52301756  1
