# generated using pymatgen
data_La20Mn8Te7C12
_symmetry_space_group_name_H-M   'P 1'
_cell_length_a   11.57654115
_cell_length_b   11.57654115
_cell_length_c   11.57654115
_cell_angle_alpha   90.00000000
_cell_angle_beta   60.00000000
_cell_angle_gamma   120.00000000
_symmetry_Int_Tables_number   1
_chemical_formula_structural   La20Mn8Te7C12
_chemical_formula_sum   'La20 Mn8 Te7 C12'
_cell_volume   1097.03747082
_cell_formula_units_Z   1
loop_
 _symmetry_equiv_pos_site_id
 _symmetry_equiv_pos_as_xyz
  1  'x, y, z'
loop_
 _atom_site_type_symbol
 _atom_site_label
 _atom_site_symmetry_multiplicity
 _atom_site_fract_x
 _atom_site_fract_y
 _atom_site_fract_z
 _atom_site_occupancy
  La  La0  1  -0.00000000  -0.00000000  0.65847486  1
  La  La1  1  0.34152514  0.34152514  0.65847486  1
  La  La2  1  0.34152514  -0.00000000  0.65847486  1
  La  La3  1  -0.00000000  0.34152514  -0.00000000  1
  La  La4  1  0.65847486  0.00000000  -0.00000000  1
  La  La5  1  0.65847486  0.00000000  0.34152514  1
  La  La6  1  -0.00000000  0.65847486  0.00000000  1
  La  La7  1  0.65847486  0.65847486  0.34152514  1
  La  La8  1  0.65847486  0.65847486  -0.00000000  1
  La  La9  1  -0.00000000  0.00000000  0.34152514  1
  La  La10  1  0.34152514  -0.00000000  0.00000000  1
  La  La11  1  0.34152514  0.34152514  0.00000000  1
  La  La12  1  0.72905784  0.36452892  0.90641324  1
  La  La13  1  0.27094216  0.36452892  0.36452892  1
  La  La14  1  0.27094216  0.90641324  0.36452892  1
  La  La15  1  0.72905784  0.36452892  0.36452892  1
  La  La16  1  0.27094216  0.63547108  0.09358676  1
  La  La17  1  0.72905784  0.63547108  0.63547108  1
  La  La18  1  0.72905784  0.09358676  0.63547108  1
  La  La19  1  0.27094216  0.63547108  0.63547108  1
  Mn  Mn20  1  0.39260463  0.19630232  0.41109305  1
  Mn  Mn21  1  0.60739537  0.19630232  0.19630232  1
  Mn  Mn22  1  0.60739537  0.41109305  0.19630232  1
  Mn  Mn23  1  0.39260463  0.19630232  0.19630232  1
  Mn  Mn24  1  0.60739537  0.80369768  0.58890695  1
  Mn  Mn25  1  0.39260463  0.80369768  0.80369768  1
  Mn  Mn26  1  0.39260463  0.58890695  0.80369768  1
  Mn  Mn27  1  0.60739537  0.80369768  0.80369768  1
  Te  Te28  1  0.57179477  0.28589739  0.71410261  1
  Te  Te29  1  -0.00000000  0.71410261  0.71410261  1
  Te  Te30  1  -0.00000000  0.28589739  0.71410261  1
  Te  Te31  1  0.42820523  0.71410261  0.28589739  1
  Te  Te32  1  -0.00000000  0.28589739  0.28589739  1
  Te  Te33  1  -0.00000000  0.71410261  0.28589739  1
  Te  Te34  1  -0.00000000  -0.00000000  0.00000000  1
  C  C35  1  0.21143433  0.10571717  0.39428283  1
  C  C36  1  0.50000000  0.39428283  0.39428283  1
  C  C37  1  0.50000000  0.10571717  0.39428283  1
  C  C38  1  0.78856567  0.39428283  0.10571717  1
  C  C39  1  0.50000000  0.10571717  0.10571717  1
  C  C40  1  0.50000000  0.39428283  0.10571717  1
  C  C41  1  0.78856567  0.89428283  0.60571717  1
  C  C42  1  0.50000000  0.60571717  0.60571717  1
  C  C43  1  0.50000000  0.89428283  0.60571717  1
  C  C44  1  0.21143433  0.60571717  0.89428283  1
  C  C45  1  0.50000000  0.89428283  0.89428283  1
  C  C46  1  0.50000000  0.60571717  0.89428283  1
