# generated using pymatgen
data_K2ThF6
_symmetry_space_group_name_H-M   'P 1'
_cell_length_a   4.21072641
_cell_length_b   6.19275006
_cell_length_c   7.35631839
_cell_angle_alpha   65.10771475
_cell_angle_beta   73.36953123
_cell_angle_gamma   90.00000000
_symmetry_Int_Tables_number   1
_chemical_formula_structural   K2ThF6
_chemical_formula_sum   'K2 Th1 F6'
_cell_volume   165.11535418
_cell_formula_units_Z   1
loop_
 _symmetry_equiv_pos_site_id
 _symmetry_equiv_pos_as_xyz
  1  'x, y, z'
loop_
 _atom_site_type_symbol
 _atom_site_label
 _atom_site_symmetry_multiplicity
 _atom_site_fract_x
 _atom_site_fract_y
 _atom_site_fract_z
 _atom_site_occupancy
  K  K0  1  0.33015236  0.33015236  0.33969427  1
  K  K1  1  0.66984764  0.66984764  0.66030573  1
  Th  Th2  1  0.00000000  -0.00000000  -0.00000000  1
  F  F3  1  0.50000000  0.20429130  -0.00000000  1
  F  F4  1  0.85800368  0.63196975  0.28399165  1
  F  F5  1  0.14199632  0.91596239  0.71600835  1
  F  F6  1  0.50000000  0.79570870  -0.00000000  1
  F  F7  1  0.85800368  0.08403761  0.28399165  1
  F  F8  1  0.14199632  0.36803025  0.71600835  1
