# generated using pymatgen
data_KNaCaSi8Ni5O24
_symmetry_space_group_name_H-M   'P 1'
_cell_length_a   5.29636239
_cell_length_b   10.12953139
_cell_length_c   10.34593173
_cell_angle_alpha   119.28521669
_cell_angle_beta   97.59056344
_cell_angle_gamma   74.35440544
_symmetry_Int_Tables_number   1
_chemical_formula_structural   KNaCaSi8Ni5O24
_chemical_formula_sum   'K1 Na1 Ca1 Si8 Ni5 O24'
_cell_volume   466.17979688
_cell_formula_units_Z   1
loop_
 _symmetry_equiv_pos_site_id
 _symmetry_equiv_pos_as_xyz
  1  'x, y, z'
loop_
 _atom_site_type_symbol
 _atom_site_label
 _atom_site_symmetry_multiplicity
 _atom_site_fract_x
 _atom_site_fract_y
 _atom_site_fract_z
 _atom_site_occupancy
  K  K0  1  0.96170724  0.51959817  0.00251231  1
  Na  Na1  1  0.50010638  0.72538393  0.45162531  1
  Ca  Ca2  1  0.49994907  0.27538132  0.55155865  1
  Si  Si3  1  0.69763636  0.18878694  0.83014351  1
  Si  Si4  1  0.69631081  0.35994230  0.17040143  1
  Si  Si5  1  0.30347398  0.81110711  0.17067781  1
  Si  Si6  1  0.30219273  0.64166107  0.82979377  1
  Si  Si7  1  0.19240272  0.11289001  0.65910423  1
  Si  Si8  1  0.19244054  0.45631499  0.34132408  1
  Si  Si9  1  0.80758178  0.88608851  0.34224617  1
  Si  Si10  1  0.80745289  0.54644442  0.65808923  1
  Ni  Ni11  1  0.00022394  0.82074197  0.64117950  1
  Ni  Ni12  1  0.99994638  0.17691596  0.35336842  1
  Ni  Ni13  1  0.50005137  0.91461981  0.82900363  1
  Ni  Ni14  1  0.50019995  0.08445285  0.16865094  1
  Ni  Ni15  1  0.99983119  0.99985917  0.99918836  1
  O  O16  1  0.89255400  0.21313950  0.73470839  1
  O  O17  1  0.89805703  0.47375764  0.26149425  1
  O  O18  1  0.10088370  0.78813058  0.26102702  1
  O  O19  1  0.10632740  0.52247832  0.73528344  1
  O  O20  1  0.40023483  0.22511247  0.76664180  1
  O  O21  1  0.39708569  0.45355892  0.22932849  1
  O  O22  1  0.60335394  0.77629569  0.22923005  1
  O  O23  1  0.60032994  0.54230752  0.76698677  1
  O  O24  1  0.20547485  0.11593674  0.50602479  1
  O  O25  1  0.20299493  0.60504385  0.49850310  1
  O  O26  1  0.79660830  0.89303650  0.49851738  1
  O  O27  1  0.79410969  0.38984486  0.50609102  1
  O  O28  1  0.70012374  0.33107940  0.99959038  1
  O  O29  1  0.30289534  0.66853556  0.99963023  1
  O  O30  1  0.78609215  0.02123519  0.82439148  1
  O  O31  1  0.78589896  0.19661227  0.17547935  1
  O  O32  1  0.21402373  0.97925999  0.17574003  1
  O  O33  1  0.21358697  0.80332329  0.82412440  1
  O  O34  1  0.27681856  0.95024717  0.66819542  1
  O  O35  1  0.28022138  0.28484136  0.33863780  1
  O  O36  1  0.71956047  0.05421092  0.33884990  1
  O  O37  1  0.72271517  0.71818521  0.66771433  1
  O  O38  1  0.30645211  0.09124928  0.99755645  1
  O  O39  1  0.69408981  0.90548928  0.99738635  1
