# generated using pymatgen
data_K2Mo2P2O11
_symmetry_space_group_name_H-M   'P 1'
_cell_length_a   10.03835411
_cell_length_b   10.06067269
_cell_length_c   10.30039993
_cell_angle_alpha   90.00000000
_cell_angle_beta   90.00000000
_cell_angle_gamma   98.19772822
_symmetry_Int_Tables_number   1
_chemical_formula_structural   K2Mo2P2O11
_chemical_formula_sum   'K8 Mo8 P8 O44'
_cell_volume   1029.63458181
_cell_formula_units_Z   4
loop_
 _symmetry_equiv_pos_site_id
 _symmetry_equiv_pos_as_xyz
  1  'x, y, z'
loop_
 _atom_site_type_symbol
 _atom_site_label
 _atom_site_symmetry_multiplicity
 _atom_site_fract_x
 _atom_site_fract_y
 _atom_site_fract_z
 _atom_site_occupancy
  K  K0  1  0.23187622  0.20340669  0.67993445  1
  K  K1  1  0.76812378  0.29659331  0.17993445  1
  K  K2  1  0.76431368  0.80774707  0.32375775  1
  K  K3  1  0.23568632  0.69225293  0.82375775  1
  K  K4  1  0.99961049  0.49995173  0.50000244  1
  K  K5  1  0.00038951  0.00004827  0.00000244  1
  K  K6  1  0.49750911  0.99046465  0.58011361  1
  K  K7  1  0.50249089  0.50953535  0.08011361  1
  Mo  Mo8  1  0.65208228  0.36040486  0.58497001  1
  Mo  Mo9  1  0.34791772  0.13959514  0.08497001  1
  Mo  Mo10  1  0.34738732  0.64102171  0.41598858  1
  Mo  Mo11  1  0.65261268  0.85897829  0.91598858  1
  Mo  Mo12  1  0.92703068  0.35077137  0.82036450  1
  Mo  Mo13  1  0.07296932  0.14922863  0.32036450  1
  Mo  Mo14  1  0.07222922  0.64952667  0.18009463  1
  Mo  Mo15  1  0.92777078  0.85047333  0.68009463  1
  P  P16  1  0.87268310  0.14341675  0.57532392  1
  P  P17  1  0.12731690  0.35658325  0.07532392  1
  P  P18  1  0.12796132  0.85680666  0.42533192  1
  P  P19  1  0.87203868  0.64319334  0.92533192  1
  P  P20  1  0.60710641  0.18387815  0.87822251  1
  P  P21  1  0.39289359  0.31612185  0.37822251  1
  P  P22  1  0.39245338  0.81656135  0.12148042  1
  P  P23  1  0.60754662  0.68343865  0.62148042  1
  O  O24  1  0.08054538  0.43164744  0.75989326  1
  O  O25  1  0.91945462  0.06835256  0.25989326  1
  O  O26  1  0.91847222  0.56842600  0.23967480  1
  O  O27  1  0.08152778  0.93157400  0.73967480  1
  O  O28  1  0.03336880  0.27318714  0.97531247  1
  O  O29  1  0.96663120  0.22681286  0.47531247  1
  O  O30  1  0.96686338  0.72671780  0.02462167  1
  O  O31  1  0.03313662  0.77328220  0.52462167  1
  O  O32  1  0.46589122  0.27441847  0.50307345  1
  O  O33  1  0.53410878  0.22558153  0.00307345  1
  O  O34  1  0.53381357  0.72590425  0.49670282  1
  O  O35  1  0.46618643  0.77409575  0.99670282  1
  O  O36  1  0.80427827  0.41490127  0.69753466  1
  O  O37  1  0.19572173  0.08509873  0.19753466  1
  O  O38  1  0.19593066  0.58573687  0.30237742  1
  O  O39  1  0.80406934  0.91426313  0.80237742  1
  O  O40  1  0.93431615  0.17918470  0.71207585  1
  O  O41  1  0.06568385  0.32081530  0.21207585  1
  O  O42  1  0.06705748  0.82096902  0.28840122  1
  O  O43  1  0.93294252  0.67903098  0.78840122  1
  O  O44  1  0.75886616  0.22607227  0.90625201  1
  O  O45  1  0.24113384  0.27392773  0.40625201  1
  O  O46  1  0.24075727  0.77396010  0.09340258  1
  O  O47  1  0.75924273  0.72603990  0.59340258  1
  O  O48  1  0.86999155  0.49095996  0.94890514  1
  O  O49  1  0.13000845  0.00904004  0.44890514  1
  O  O50  1  0.13034019  0.50905566  0.05177073  1
  O  O51  1  0.86965981  0.99094434  0.55177073  1
  O  O52  1  0.72602206  0.17342797  0.56085342  1
  O  O53  1  0.27397794  0.32657203  0.06085342  1
  O  O54  1  0.27484413  0.82692902  0.44157739  1
  O  O55  1  0.72515587  0.67307098  0.94157739  1
  O  O56  1  0.57376967  0.52953957  0.64301836  1
  O  O57  1  0.42623033  0.97046043  0.14301836  1
  O  O58  1  0.42631543  0.47115273  0.35572444  1
  O  O59  1  0.57368457  0.02884727  0.85572444  1
  O  O60  1  0.55698509  0.25261445  0.75649367  1
  O  O61  1  0.44301491  0.24738555  0.25649367  1
  O  O62  1  0.44258967  0.74078206  0.23903766  1
  O  O63  1  0.55741033  0.75921794  0.73903766  1
  O  O64  1  0.71490405  0.41651678  0.43435606  1
  O  O65  1  0.28509595  0.08348322  0.93435606  1
  O  O66  1  0.28444828  0.58219248  0.56565618  1
  O  O67  1  0.71555172  0.91780752  0.06565618  1
