# generated using pymatgen
data_La9In(SiS7)3
_symmetry_space_group_name_H-M   'P 1'
_cell_length_a   11.92809950
_cell_length_b   11.92808677
_cell_length_c   11.92871616
_cell_angle_alpha   98.27413684
_cell_angle_beta   81.72109058
_cell_angle_gamma   81.72828664
_symmetry_Int_Tables_number   1
_chemical_formula_structural   La9In(SiS7)3
_chemical_formula_sum   'La18 In2 Si6 S42'
_cell_volume   1638.39829554
_cell_formula_units_Z   2
loop_
 _symmetry_equiv_pos_site_id
 _symmetry_equiv_pos_as_xyz
  1  'x, y, z'
loop_
 _atom_site_type_symbol
 _atom_site_label
 _atom_site_symmetry_multiplicity
 _atom_site_fract_x
 _atom_site_fract_y
 _atom_site_fract_z
 _atom_site_occupancy
  La  La0  1  0.91565587  0.21016795  0.44748426  1
  La  La1  1  0.56975588  0.54849049  0.77562819  1
  La  La2  1  0.24026693  0.88387063  0.12187152  1
  La  La3  1  0.22440344  0.43024583  0.54843512  1
  La  La4  1  0.87819502  0.75965023  0.88396459  1
  La  La5  1  0.55241363  0.08436970  0.21014192  1
  La  La6  1  0.11601517  0.12177831  0.75973558  1
  La  La7  1  0.78979077  0.44757086  0.08434148  1
  La  La8  1  0.45154577  0.77570191  0.43031251  1
  La  La9  1  0.76059288  0.12061656  0.89417823  1
  La  La10  1  0.41603335  0.45954475  0.22158011  1
  La  La11  1  0.08971818  0.78510156  0.54717597  1
  La  La12  1  0.45277475  0.91033924  0.78523254  1
  La  La13  1  0.10579039  0.23937425  0.12063521  1
  La  La14  1  0.77843374  0.58398550  0.45953550  1
  La  La15  1  0.54041365  0.22162233  0.58397724  1
  La  La16  1  0.21490187  0.54720297  0.91035550  1
  La  La17  1  0.87947160  0.89419771  0.23939943  1
  In  In18  1  0.16139360  0.83866288  0.83863125  1
  In  In19  1  0.66138210  0.33862752  0.33861892  1
  Si  Si20  1  0.77690469  0.88898983  0.55515883  1
  Si  Si21  1  0.44482519  0.22312162  0.88896387  1
  Si  Si22  1  0.11101939  0.55518793  0.22308833  1
  Si  Si23  1  0.61078430  0.72211378  0.05591957  1
  Si  Si24  1  0.27787368  0.05588389  0.38920885  1
  Si  Si25  1  0.94408971  0.38920480  0.72213629  1
  S  S26  1  0.35074150  0.73457887  0.89684214  1
  S  S27  1  0.02528685  0.06201358  0.23166624  1
  S  S28  1  0.69103991  0.39184480  0.55627660  1
  S  S29  1  0.76828738  0.97468493  0.06200120  1
  S  S30  1  0.44371394  0.30893467  0.39183488  1
  S  S31  1  0.10311574  0.64924253  0.73458144  1
  S  S32  1  0.60816285  0.55623708  0.30895480  1
  S  S33  1  0.26541115  0.89687618  0.64925192  1
  S  S34  1  0.93799196  0.23169221  0.97469419  1
  S  S35  1  0.97109980  0.94652211  0.78181134  1
  S  S36  1  0.62875309  0.28575409  0.12353425  1
  S  S37  1  0.29564176  0.61681431  0.44734908  1
  S  S38  1  0.55268533  0.70437494  0.61682918  1
  S  S39  1  0.21822196  0.02889822  0.94650877  1
  S  S40  1  0.87644824  0.37125059  0.28577247  1
  S  S41  1  0.71421216  0.12350635  0.37125422  1
  S  S42  1  0.38319699  0.44733085  0.70433396  1
  S  S43  1  0.05347100  0.78179927  0.02888539  1
  S  S44  1  0.98881669  0.67837539  0.34224348  1
  S  S45  1  0.65774873  0.01119111  0.67834846  1
  S  S46  1  0.32164317  0.34228240  0.01115305  1
  S  S47  1  0.48917261  0.84230206  0.17865226  1
  S  S48  1  0.15769093  0.17861333  0.51084197  1
  S  S49  1  0.82135835  0.51082757  0.84232535  1
  S  S50  1  0.63285159  0.77132681  0.88864010  1
  S  S51  1  0.30304577  0.10658871  0.22233387  1
  S  S52  1  0.97095721  0.44049189  0.55639332  1
  S  S53  1  0.77766568  0.69696105  0.10659209  1
  S  S54  1  0.44363244  0.02906737  0.44047163  1
  S  S55  1  0.11139462  0.36713454  0.77131584  1
  S  S56  1  0.55951602  0.55635659  0.02903472  1
  S  S57  1  0.22869238  0.88860235  0.36715478  1
  S  S58  1  0.89340470  0.22232317  0.69697913  1
  S  S59  1  0.84830478  0.74611972  0.62913100  1
  S  S60  1  0.51445129  0.07914865  0.96178921  1
  S  S61  1  0.17793696  0.40906811  0.29431955  1
  S  S62  1  0.70564094  0.82207962  0.40906472  1
  S  S63  1  0.37088046  0.15168592  0.74609446  1
  S  S64  1  0.03819486  0.48554380  0.07912618  1
  S  S65  1  0.92089041  0.96178705  0.48551351  1
  S  S66  1  0.59094725  0.29436228  0.82205047  1
  S  S67  1  0.25390102  0.62911589  0.15167197  1
