# generated using pymatgen
data_HfAlMo
_symmetry_space_group_name_H-M   'P 1'
_cell_length_a   5.31451765
_cell_length_b   5.31451433
_cell_length_c   8.75583483
_cell_angle_alpha   90.00000000
_cell_angle_beta   90.00000000
_cell_angle_gamma   59.57273688
_symmetry_Int_Tables_number   1
_chemical_formula_structural   HfAlMo
_chemical_formula_sum   'Hf4 Al4 Mo4'
_cell_volume   213.24049179
_cell_formula_units_Z   4
loop_
 _symmetry_equiv_pos_site_id
 _symmetry_equiv_pos_as_xyz
  1  'x, y, z'
loop_
 _atom_site_type_symbol
 _atom_site_label
 _atom_site_symmetry_multiplicity
 _atom_site_fract_x
 _atom_site_fract_y
 _atom_site_fract_z
 _atom_site_occupancy
  Hf  Hf0  1  0.33463791  0.33462339  0.56347288  1
  Hf  Hf1  1  0.67073687  0.67074579  0.43485175  1
  Hf  Hf2  1  0.67073687  0.67074579  0.06514825  1
  Hf  Hf3  1  0.33463791  0.33462339  0.93652712  1
  Al  Al4  1  0.99628242  0.99627973  0.50090712  1
  Al  Al5  1  0.99628242  0.99627973  0.99909288  1
  Al  Al6  1  0.82907138  0.34111263  0.75000000  1
  Al  Al7  1  0.34111634  0.82905850  0.75000000  1
  Mo  Mo8  1  0.83070600  0.83070827  0.75000000  1
  Mo  Mo9  1  0.17027002  0.65584623  0.25000000  1
  Mo  Mo10  1  0.65583570  0.17028204  0.25000000  1
  Mo  Mo11  1  0.16968613  0.16969450  0.25000000  1
