# generated using pymatgen
data_Hf2Te3
_symmetry_space_group_name_H-M   'P 1'
_cell_length_a   6.99294275
_cell_length_b   7.79200057
_cell_length_c   6.99236261
_cell_angle_alpha   63.34026873
_cell_angle_beta   59.99283615
_cell_angle_gamma   89.98903367
_symmetry_Int_Tables_number   1
_chemical_formula_structural   Hf2Te3
_chemical_formula_sum   'Hf4 Te6'
_cell_volume   282.21633410
_cell_formula_units_Z   2
loop_
 _symmetry_equiv_pos_site_id
 _symmetry_equiv_pos_as_xyz
  1  'x, y, z'
loop_
 _atom_site_type_symbol
 _atom_site_label
 _atom_site_symmetry_multiplicity
 _atom_site_fract_x
 _atom_site_fract_y
 _atom_site_fract_z
 _atom_site_occupancy
  Hf  Hf0  1  0.66666700  -0.00000000  0.66666700  1
  Hf  Hf1  1  0.32679030  0.98040076  0.34629680  1
  Hf  Hf2  1  0.00654270  0.01959924  0.98703620  1
  Hf  Hf3  1  0.16666700  0.50000000  0.66666700  1
  Te  Te4  1  0.73895332  0.26377401  0.17028189  1
  Te  Te5  1  0.09050256  0.26372053  0.47539106  1
  Te  Te6  1  0.43400812  0.26368988  0.82686326  1
  Te  Te7  1  0.89932488  0.73631012  0.50646974  1
  Te  Te8  1  0.24283044  0.73627947  0.85794194  1
  Te  Te9  1  0.59438068  0.73622599  0.16305211  1
