# generated using pymatgen
data_K4Ba2SnP4
_symmetry_space_group_name_H-M   'P 1'
_cell_length_a   7.89018627
_cell_length_b   10.45974139
_cell_length_c   10.39649180
_cell_angle_alpha   120.20151052
_cell_angle_beta   89.25477161
_cell_angle_gamma   91.48197937
_symmetry_Int_Tables_number   1
_chemical_formula_structural   K4Ba2SnP4
_chemical_formula_sum   'K8 Ba4 Sn2 P8'
_cell_volume   741.30155927
_cell_formula_units_Z   2
loop_
 _symmetry_equiv_pos_site_id
 _symmetry_equiv_pos_as_xyz
  1  'x, y, z'
loop_
 _atom_site_type_symbol
 _atom_site_label
 _atom_site_symmetry_multiplicity
 _atom_site_fract_x
 _atom_site_fract_y
 _atom_site_fract_z
 _atom_site_occupancy
  K  K0  1  0.38284334  0.52590837  0.47249107  1
  K  K1  1  0.88284807  0.05341786  0.52751397  1
  K  K2  1  0.19202999  0.13750447  0.85918156  1
  K  K3  1  0.21552852  0.71801636  0.85261622  1
  K  K4  1  0.20368071  0.14777520  0.28587613  1
  K  K5  1  0.71552321  0.86539109  0.14736572  1
  K  K6  1  0.69203729  0.27834619  0.14082986  1
  K  K7  1  0.70368111  0.86187888  0.71410692  1
  Ba  Ba8  1  0.38279081  0.94340439  0.47471743  1
  Ba  Ba9  1  0.38143062  0.52345037  0.05690273  1
  Ba  Ba10  1  0.88280523  0.46868613  0.52528995  1
  Ba  Ba11  1  0.88142639  0.46654303  0.94309783  1
  Sn  Sn12  1  0.49747949  0.33661291  0.66553156  1
  Sn  Sn13  1  0.99748618  0.67108080  0.33446658  1
  P  P14  1  0.16838952  0.34146816  0.67684151  1
  P  P15  1  0.66838708  0.66463902  0.32315501  1
  P  P16  1  0.11715548  0.79772211  0.19229936  1
  P  P17  1  0.08922392  0.39581996  0.19466541  1
  P  P18  1  0.10069963  0.80014957  0.60455024  1
  P  P19  1  0.58922617  0.20115942  0.80535193  1
  P  P20  1  0.61714117  0.60541508  0.80769875  1
  P  P21  1  0.60070605  0.19561064  0.39545026  1
