# generated using pymatgen
data_Ho2Ga3Cu
_symmetry_space_group_name_H-M   'P 1'
_cell_length_a   4.37291882
_cell_length_b   4.37370682
_cell_length_c   7.17024039
_cell_angle_alpha   90.00000000
_cell_angle_beta   89.99435656
_cell_angle_gamma   59.99404644
_symmetry_Int_Tables_number   1
_chemical_formula_structural   Ho2Ga3Cu
_chemical_formula_sum   'Ho2 Ga3 Cu1'
_cell_volume   118.75704184
_cell_formula_units_Z   1
loop_
 _symmetry_equiv_pos_site_id
 _symmetry_equiv_pos_as_xyz
  1  'x, y, z'
loop_
 _atom_site_type_symbol
 _atom_site_label
 _atom_site_symmetry_multiplicity
 _atom_site_fract_x
 _atom_site_fract_y
 _atom_site_fract_z
 _atom_site_occupancy
  Ho  Ho0  1  0.00001194  0.99999403  0.73113834  1
  Ho  Ho1  1  0.99992410  0.00003795  0.26037283  1
  Ga  Ga2  1  0.66673643  0.66663178  0.47521613  1
  Ga  Ga3  1  0.66673485  0.66663258  0.04598748  1
  Ga  Ga4  1  0.33321403  0.33339298  0.94990992  1
  Cu  Cu5  1  0.33337865  0.33331068  0.53737531  1
