# generated using pymatgen
data_K(Zr3Te4)4
_symmetry_space_group_name_H-M   'P 1'
_cell_length_a   7.93898083
_cell_length_b   11.88003498
_cell_length_c   11.20662039
_cell_angle_alpha   118.28554208
_cell_angle_beta   90.09497427
_cell_angle_gamma   70.52419782
_symmetry_Int_Tables_number   1
_chemical_formula_structural   K(Zr3Te4)4
_chemical_formula_sum   'K1 Zr12 Te16'
_cell_volume   861.79926248
_cell_formula_units_Z   1
loop_
 _symmetry_equiv_pos_site_id
 _symmetry_equiv_pos_as_xyz
  1  'x, y, z'
loop_
 _atom_site_type_symbol
 _atom_site_label
 _atom_site_symmetry_multiplicity
 _atom_site_fract_x
 _atom_site_fract_y
 _atom_site_fract_z
 _atom_site_occupancy
  K  K0  1  0.75000000  0.00000000  0.00000000  1
  Zr  Zr1  1  0.37214737  0.50739568  0.63403094  1
  Zr  Zr2  1  0.87003915  0.50730699  0.63311841  1
  Zr  Zr3  1  0.56080854  0.12630958  0.49325873  1
  Zr  Zr4  1  0.06167251  0.12735608  0.49317498  1
  Zr  Zr5  1  0.44076111  0.36694434  0.87428648  1
  Zr  Zr6  1  0.94331432  0.36608349  0.87354994  1
  Zr  Zr7  1  0.62996085  0.49269301  0.36688159  1
  Zr  Zr8  1  0.12785263  0.49260432  0.36596906  1
  Zr  Zr9  1  0.43832749  0.87264392  0.50682502  1
  Zr  Zr10  1  0.93919146  0.87369042  0.50674127  1
  Zr  Zr11  1  0.55668568  0.63391651  0.12645006  1
  Zr  Zr12  1  0.05923889  0.63305566  0.12571352  1
  Te  Te13  1  0.98015732  0.28999150  0.34489807  1
  Te  Te14  1  0.47813742  0.29070085  0.34596237  1
  Te  Te15  1  0.09780747  0.05528885  0.71000463  1
  Te  Te16  1  0.59628735  0.05530609  0.70987348  1
  Te  Te17  1  0.79685138  0.65434256  0.94451930  1
  Te  Te18  1  0.29801107  0.65537270  0.94475446  1
  Te  Te19  1  0.02186258  0.70929915  0.65403763  1
  Te  Te20  1  0.51984268  0.71000850  0.65510193  1
  Te  Te21  1  0.90371265  0.94469391  0.29012652  1
  Te  Te22  1  0.40219253  0.94471115  0.28999537  1
  Te  Te23  1  0.20198893  0.34462730  0.05524554  1
  Te  Te24  1  0.70314862  0.34565744  0.05548070  1
  Te  Te25  1  0.20801999  0.33375242  0.66663439  1
  Te  Te26  1  0.70811444  0.33326514  0.66686183  1
  Te  Te27  1  0.79188556  0.66673486  0.33313817  1
  Te  Te28  1  0.29198001  0.66624758  0.33336561  1
