# generated using pymatgen
data_K2VOF4
_symmetry_space_group_name_H-M   'P 1'
_cell_length_a   5.76081542
_cell_length_b   7.55452785
_cell_length_c   11.68263216
_cell_angle_alpha   90.00000000
_cell_angle_beta   90.00000000
_cell_angle_gamma   90.00000000
_symmetry_Int_Tables_number   1
_chemical_formula_structural   K2VOF4
_chemical_formula_sum   'K8 V4 O4 F16'
_cell_volume   508.43096162
_cell_formula_units_Z   4
loop_
 _symmetry_equiv_pos_site_id
 _symmetry_equiv_pos_as_xyz
  1  'x, y, z'
loop_
 _atom_site_type_symbol
 _atom_site_label
 _atom_site_symmetry_multiplicity
 _atom_site_fract_x
 _atom_site_fract_y
 _atom_site_fract_z
 _atom_site_occupancy
  K  K0  1  0.75984100  0.33162934  0.91147420  1
  K  K1  1  0.25984100  0.66837066  0.08852580  1
  K  K2  1  0.25984100  0.16837066  0.41147420  1
  K  K3  1  0.75984100  0.83162934  0.58852580  1
  K  K4  1  0.25967158  0.48826098  0.72496135  1
  K  K5  1  0.75967158  0.51173902  0.27503865  1
  K  K6  1  0.75967158  0.01173902  0.22496135  1
  K  K7  1  0.25967158  0.98826098  0.77503865  1
  V  V8  1  0.73903557  0.31761783  0.56544021  1
  V  V9  1  0.23903557  0.68238217  0.43455979  1
  V  V10  1  0.23903557  0.18238217  0.06544021  1
  V  V11  1  0.73903557  0.81761783  0.93455979  1
  O  O12  1  0.52922801  0.18705193  0.61322323  1
  O  O13  1  0.02922801  0.81294807  0.38677677  1
  O  O14  1  0.02922801  0.31294807  0.11322323  1
  O  O15  1  0.52922801  0.68705193  0.88677677  1
  F  F16  1  0.77247292  0.22499136  0.40862419  1
  F  F17  1  0.27247292  0.77500864  0.59137581  1
  F  F18  1  0.27247292  0.27500864  0.90862419  1
  F  F19  1  0.77247292  0.72499136  0.09137581  1
  F  F20  1  0.03365007  0.49420775  0.50009890  1
  F  F21  1  0.53365007  0.50579225  0.49990110  1
  F  F22  1  0.53365007  0.00579225  0.00009890  1
  F  F23  1  0.03365007  0.99420775  0.99990110  1
  F  F24  1  0.77745537  0.47150177  0.69583370  1
  F  F25  1  0.27745537  0.52849823  0.30416630  1
  F  F26  1  0.27745537  0.02849823  0.19583370  1
  F  F27  1  0.77745537  0.97150177  0.80416630  1
  F  F28  1  0.00594547  0.17987095  0.61123865  1
  F  F29  1  0.50594547  0.82012905  0.38876135  1
  F  F30  1  0.50594547  0.32012905  0.11123865  1
  F  F31  1  0.00594547  0.67987095  0.88876135  1
