# generated using pymatgen
data_Er2CrSbO7
_symmetry_space_group_name_H-M   'P 1'
_cell_length_a   7.23299103
_cell_length_b   7.21411662
_cell_length_c   7.29350522
_cell_angle_alpha   90.00000000
_cell_angle_beta   59.72285321
_cell_angle_gamma   119.91371627
_symmetry_Int_Tables_number   1
_chemical_formula_structural   Er2CrSbO7
_chemical_formula_sum   'Er4 Cr2 Sb2 O14'
_cell_volume   268.32447315
_cell_formula_units_Z   2
loop_
 _symmetry_equiv_pos_site_id
 _symmetry_equiv_pos_as_xyz
  1  'x, y, z'
loop_
 _atom_site_type_symbol
 _atom_site_label
 _atom_site_symmetry_multiplicity
 _atom_site_fract_x
 _atom_site_fract_y
 _atom_site_fract_z
 _atom_site_occupancy
  Er  Er0  1  0.50000000  0.50000000  0.00000000  1
  Er  Er1  1  0.50000000  0.00000000  0.00000000  1
  Er  Er2  1  -0.00000000  0.00000000  0.50000000  1
  Er  Er3  1  -0.00000000  0.00000000  0.00000000  1
  Cr  Cr4  1  0.50000000  0.00000000  0.50000000  1
  Cr  Cr5  1  0.50000000  0.50000000  0.50000000  1
  Sb  Sb6  1  -0.00000000  0.50000000  0.00000000  1
  Sb  Sb7  1  -0.00000000  0.50000000  0.50000000  1
  O  O8  1  0.25569833  0.12784916  0.12215084  1
  O  O9  1  0.74430167  0.87215084  0.87784916  1
  O  O10  1  0.68463343  0.84231671  0.40768329  1
  O  O11  1  0.83227167  0.41613583  0.83386417  1
  O  O12  1  0.25195317  0.83307920  0.83764164  1
  O  O13  1  0.25195317  0.41887397  0.41040519  1
  O  O14  1  0.25195317  0.41887397  0.83764164  1
  O  O15  1  0.25195317  0.83307920  0.41040519  1
  O  O16  1  0.31536657  0.15768329  0.59231671  1
  O  O17  1  0.16772833  0.58386417  0.16613583  1
  O  O18  1  0.74804683  0.16692080  0.16235836  1
  O  O19  1  0.74804683  0.58112603  0.58959481  1
  O  O20  1  0.74804683  0.58112603  0.16235836  1
  O  O21  1  0.74804683  0.16692080  0.58959481  1
