# generated using pymatgen
data_Gd2CrSbO7
_symmetry_space_group_name_H-M   'P 1'
_cell_length_a   7.33843434
_cell_length_b   7.32718592
_cell_length_c   7.38460599
_cell_angle_alpha   90.00000000
_cell_angle_beta   59.79165117
_cell_angle_gamma   119.94930802
_symmetry_Int_Tables_number   1
_chemical_formula_structural   Gd2CrSbO7
_chemical_formula_sum   'Gd4 Cr2 Sb2 O14'
_cell_volume   280.09962026
_cell_formula_units_Z   2
loop_
 _symmetry_equiv_pos_site_id
 _symmetry_equiv_pos_as_xyz
  1  'x, y, z'
loop_
 _atom_site_type_symbol
 _atom_site_label
 _atom_site_symmetry_multiplicity
 _atom_site_fract_x
 _atom_site_fract_y
 _atom_site_fract_z
 _atom_site_occupancy
  Gd  Gd0  1  0.50000000  0.50000000  -0.00000000  1
  Gd  Gd1  1  0.50000000  0.00000000  -0.00000000  1
  Gd  Gd2  1  -0.00000000  0.00000000  0.50000000  1
  Gd  Gd3  1  0.00000000  0.00000000  -0.00000000  1
  Cr  Cr4  1  0.50000000  0.00000000  0.50000000  1
  Cr  Cr5  1  0.50000000  0.50000000  0.50000000  1
  Sb  Sb6  1  -0.00000000  0.50000000  -0.00000000  1
  Sb  Sb7  1  0.00000000  0.50000000  0.50000000  1
  O  O8  1  0.67508599  0.83754300  0.41245700  1
  O  O9  1  0.83943070  0.41971535  0.83028465  1
  O  O10  1  0.25076171  0.82865891  0.83515601  1
  O  O11  1  0.25076171  0.42210280  0.41408229  1
  O  O12  1  0.25076171  0.42210280  0.83515601  1
  O  O13  1  0.25076171  0.82865891  0.41408229  1
  O  O14  1  0.32491401  0.16245700  0.58754300  1
  O  O15  1  0.16056930  0.58028465  0.16971535  1
  O  O16  1  0.74923829  0.17134109  0.16484399  1
  O  O17  1  0.74923829  0.57789720  0.58591771  1
  O  O18  1  0.74923829  0.57789720  0.16484399  1
  O  O19  1  0.74923829  0.17134109  0.58591771  1
  O  O20  1  0.25511951  0.12755976  0.12244024  1
  O  O21  1  0.74488049  0.87244024  0.87755976  1
