# generated using pymatgen
data_Er20Si12C
_symmetry_space_group_name_H-M   'P 1'
_cell_length_a   6.29623291
_cell_length_b   8.32902720
_cell_length_c   14.50292031
_cell_angle_alpha   90.00000023
_cell_angle_beta   90.00000001
_cell_angle_gamma   89.86102740
_symmetry_Int_Tables_number   1
_chemical_formula_structural   Er20Si12C
_chemical_formula_sum   'Er20 Si12 C1'
_cell_volume   760.55258797
_cell_formula_units_Z   1
loop_
 _symmetry_equiv_pos_site_id
 _symmetry_equiv_pos_as_xyz
  1  'x, y, z'
loop_
 _atom_site_type_symbol
 _atom_site_label
 _atom_site_symmetry_multiplicity
 _atom_site_fract_x
 _atom_site_fract_y
 _atom_site_fract_z
 _atom_site_occupancy
  Er  Er0  1  0.49999955  0.99999158  0.33468865  1
  Er  Er1  1  0.49999431  0.50000544  0.83182965  1
  Er  Er2  1  0.49999431  0.50000544  0.16817035  1
  Er  Er3  1  0.49999955  0.99999158  0.66531135  1
  Er  Er4  1  0.00000364  0.50000662  0.16287818  1
  Er  Er5  1  0.99999912  0.00000088  0.66937944  1
  Er  Er6  1  0.99999912  0.00000088  0.33062056  1
  Er  Er7  1  0.00000364  0.50000662  0.83712182  1
  Er  Er8  1  0.72513975  0.23564769  1.00000000  1
  Er  Er9  1  0.75038383  0.74762845  0.50000000  1
  Er  Er10  1  0.75128308  0.37685869  0.37799826  1
  Er  Er11  1  0.72706016  0.87934715  0.88152900  1
  Er  Er12  1  0.72706016  0.87934715  0.11847100  1
  Er  Er13  1  0.75128308  0.37685869  0.62200174  1
  Er  Er14  1  0.27485122  0.76434690  0.00000000  1
  Er  Er15  1  0.24958599  0.25237863  0.50000000  1
  Er  Er16  1  0.27294447  0.12064897  0.11846982  1
  Er  Er17  1  0.24872878  0.62315444  0.62200290  1
  Er  Er18  1  0.24872878  0.62315444  0.37799710  1
  Er  Er19  1  0.27294447  0.12064897  0.88153018  1
  Si  Si20  1  0.74271858  0.60041858  1.00000000  1
  Si  Si21  1  0.75131747  0.10552052  0.50000000  1
  Si  Si22  1  0.74619772  0.19917107  0.19890372  1
  Si  Si23  1  0.75178825  0.69754971  0.69714061  1
  Si  Si24  1  0.75178825  0.69754971  0.30285939  1
  Si  Si25  1  0.74619772  0.19917107  0.80109628  1
  Si  Si26  1  0.25727560  0.39957988  0.00000000  1
  Si  Si27  1  0.24868290  0.89447788  0.50000000  1
  Si  Si28  1  0.24822780  0.30244202  0.30285858  1
  Si  Si29  1  0.25380062  0.80082730  0.80109978  1
  Si  Si30  1  0.25380062  0.80082730  0.19890022  1
  Si  Si31  1  0.24822780  0.30244202  0.69714142  1
  C  C32  1  0.49998965  0.99999375  0.00000000  1
