# generated using pymatgen
data_GaAgSnSe4
_symmetry_space_group_name_H-M   'P 1'
_cell_length_a   6.03834087
_cell_length_b   6.03834087
_cell_length_c   6.95057485
_cell_angle_alpha   64.25433668
_cell_angle_beta   64.25433668
_cell_angle_gamma   90.00000000
_symmetry_Int_Tables_number   1
_chemical_formula_structural   GaAgSnSe4
_chemical_formula_sum   'Ga1 Ag1 Sn1 Se4'
_cell_volume   199.97332991
_cell_formula_units_Z   1
loop_
 _symmetry_equiv_pos_site_id
 _symmetry_equiv_pos_as_xyz
  1  'x, y, z'
loop_
 _atom_site_type_symbol
 _atom_site_label
 _atom_site_symmetry_multiplicity
 _atom_site_fract_x
 _atom_site_fract_y
 _atom_site_fract_z
 _atom_site_occupancy
  Ga  Ga0  1  0.50000000  0.50000000  0.00000000  1
  Ag  Ag1  1  0.75000000  0.25000000  0.50000000  1
  Sn  Sn2  1  0.25000000  0.75000000  0.50000000  1
  Se  Se3  1  0.35289725  0.85327624  0.78132488  1
  Se  Se4  1  0.86577787  0.36539888  0.78132488  1
  Se  Se5  1  0.14672376  0.13422213  0.21867512  1
  Se  Se6  1  0.63460112  0.64710275  0.21867512  1
