# generated using pymatgen
data_EuMgGa3
_symmetry_space_group_name_H-M   'P 1'
_cell_length_a   4.34455051
_cell_length_b   4.34455051
_cell_length_c   6.47963468
_cell_angle_alpha   70.41246806
_cell_angle_beta   70.41246806
_cell_angle_gamma   90.00000000
_symmetry_Int_Tables_number   1
_chemical_formula_structural   EuMgGa3
_chemical_formula_sum   'Eu1 Mg1 Ga3'
_cell_volume   107.68434308
_cell_formula_units_Z   1
loop_
 _symmetry_equiv_pos_site_id
 _symmetry_equiv_pos_as_xyz
  1  'x, y, z'
loop_
 _atom_site_type_symbol
 _atom_site_label
 _atom_site_symmetry_multiplicity
 _atom_site_fract_x
 _atom_site_fract_y
 _atom_site_fract_z
 _atom_site_occupancy
  Eu  Eu0  1  0.00000000  -0.00000000  0.00000000  1
  Mg  Mg1  1  0.75000000  0.25000000  0.50000000  1
  Ga  Ga2  1  0.39037130  0.39037130  0.21925741  1
  Ga  Ga3  1  0.60962870  0.60962870  0.78074259  1
  Ga  Ga4  1  0.25000000  0.75000000  0.50000000  1
