# generated using pymatgen
data_Hf2Se3
_symmetry_space_group_name_H-M   'P 1'
_cell_length_a   6.44652532
_cell_length_b   13.24854546
_cell_length_c   6.43793939
_cell_angle_alpha   75.99992232
_cell_angle_beta   120.00571963
_cell_angle_gamma   104.03913021
_symmetry_Int_Tables_number   1
_chemical_formula_structural   Hf2Se3
_chemical_formula_sum   'Hf8 Se12'
_cell_volume   457.14511805
_cell_formula_units_Z   4
loop_
 _symmetry_equiv_pos_site_id
 _symmetry_equiv_pos_as_xyz
  1  'x, y, z'
loop_
 _atom_site_type_symbol
 _atom_site_label
 _atom_site_symmetry_multiplicity
 _atom_site_fract_x
 _atom_site_fract_y
 _atom_site_fract_z
 _atom_site_occupancy
  Hf  Hf0  1  0.74406449  0.23184800  0.92392858  1
  Hf  Hf1  1  0.91339831  0.73236409  0.42432117  1
  Hf  Hf2  1  0.83342809  0.49832135  0.83873443  1
  Hf  Hf3  1  0.16768940  0.49860040  0.49983688  1
  Hf  Hf4  1  0.49687805  0.49859811  0.16414325  1
  Hf  Hf5  1  0.66523293  0.99877876  0.66446904  1
  Hf  Hf6  1  0.00303824  0.99811653  0.33861336  1
  Hf  Hf7  1  0.33135735  0.99869617  0.00008158  1
  Se  Se8  1  0.62132829  0.86996200  0.04088067  1
  Se  Se9  1  0.28959245  0.86721035  0.37604052  1
  Se  Se10  1  0.95417695  0.86722372  0.71171196  1
  Se  Se11  1  0.45369861  0.36726219  0.87538879  1
  Se  Se12  1  0.12480488  0.36714311  0.21194990  1
  Se  Se13  1  0.78982699  0.37024287  0.54177969  1
  Se  Se14  1  0.70829786  0.12745141  0.30295622  1
  Se  Se15  1  0.36399718  0.12748858  0.61256240  1
  Se  Se16  1  0.05502887  0.12756121  0.95734916  1
  Se  Se17  1  0.87567217  0.62736728  0.11291273  1
  Se  Se18  1  0.52962403  0.62761851  0.45617172  1
  Se  Se19  1  0.22199789  0.62754536  0.80303496  1
