# generated using pymatgen
data_Er4Zr3O12
_symmetry_space_group_name_H-M   'P 1'
_cell_length_a   6.37793988
_cell_length_b   6.39262177
_cell_length_c   6.48635162
_cell_angle_alpha   99.58674798
_cell_angle_beta   98.64304117
_cell_angle_gamma   99.74978158
_symmetry_Int_Tables_number   1
_chemical_formula_structural   Er4Zr3O12
_chemical_formula_sum   'Er4 Zr3 O12'
_cell_volume   252.62863617
_cell_formula_units_Z   1
loop_
 _symmetry_equiv_pos_site_id
 _symmetry_equiv_pos_as_xyz
  1  'x, y, z'
loop_
 _atom_site_type_symbol
 _atom_site_label
 _atom_site_symmetry_multiplicity
 _atom_site_fract_x
 _atom_site_fract_y
 _atom_site_fract_z
 _atom_site_occupancy
  Er  Er0  1  0.38943854  0.69860613  0.86305142  1
  Er  Er1  1  0.69211711  0.86189843  0.39063465  1
  Er  Er2  1  0.61056146  0.30139387  0.13694858  1
  Er  Er3  1  0.30788289  0.13810157  0.60936535  1
  Zr  Zr4  1  -0.00000000  0.00000000  0.00000000  1
  Zr  Zr5  1  0.85397366  0.39325966  0.67918644  1
  Zr  Zr6  1  0.14602634  0.60674034  0.32081356  1
  O  O7  1  0.03706801  0.67755530  0.89864389  1
  O  O8  1  0.68356741  0.92855002  0.05900458  1
  O  O9  1  0.92123523  0.07753040  0.68903608  1
  O  O10  1  0.96293199  0.32244470  0.10135611  1
  O  O11  1  0.31643259  0.07144998  0.94099542  1
  O  O12  1  0.07876477  0.92246960  0.31096392  1
  O  O13  1  0.59176206  0.18546465  0.43675255  1
  O  O14  1  0.17261453  0.42905741  0.57168934  1
  O  O15  1  0.41448783  0.57717781  0.17934660  1
  O  O16  1  0.40823794  0.81453535  0.56324745  1
  O  O17  1  0.82738547  0.57094259  0.42831066  1
  O  O18  1  0.58551217  0.42282219  0.82065340  1
