# generated using pymatgen
data_Fe2Te2(PbO4)3
_symmetry_space_group_name_H-M   'P 1'
_cell_length_a   7.31896906
_cell_length_b   9.28978591
_cell_length_c   9.28978591
_cell_angle_alpha   114.57205559
_cell_angle_beta   101.41098406
_cell_angle_gamma   101.41098406
_symmetry_Int_Tables_number   1
_chemical_formula_structural   Fe2Te2(PbO4)3
_chemical_formula_sum   'Fe4 Te4 Pb6 O24'
_cell_volume   534.55273351
_cell_formula_units_Z   2
loop_
 _symmetry_equiv_pos_site_id
 _symmetry_equiv_pos_as_xyz
  1  'x, y, z'
loop_
 _atom_site_type_symbol
 _atom_site_label
 _atom_site_symmetry_multiplicity
 _atom_site_fract_x
 _atom_site_fract_y
 _atom_site_fract_z
 _atom_site_occupancy
  Fe  Fe0  1  0.12298255  0.47925533  0.47180098  1
  Fe  Fe1  1  0.62298255  0.47180098  0.47925533  1
  Fe  Fe2  1  0.66249054  0.82153044  0.14443260  1
  Fe  Fe3  1  0.16249054  0.14443260  0.82153044  1
  Te  Te4  1  0.39506321  0.09021386  0.09879989  1
  Te  Te5  1  0.89506321  0.09879989  0.09021386  1
  Te  Te6  1  0.86497705  0.75494582  0.42939971  1
  Te  Te7  1  0.36497705  0.42939971  0.75494582  1
  Pb  Pb8  1  0.00768880  0.69819874  0.82988427  1
  Pb  Pb9  1  0.50768880  0.82988427  0.69819874  1
  Pb  Pb10  1  0.23867311  0.02660751  0.40874062  1
  Pb  Pb11  1  0.73867311  0.40874062  0.02660751  1
  Pb  Pb12  1  0.31412918  0.55034977  0.19864276  1
  Pb  Pb13  1  0.81412918  0.19864276  0.55034977  1
  O  O14  1  0.19265817  0.29285840  0.52205374  1
  O  O15  1  0.69265817  0.52205374  0.29285840  1
  O  O16  1  0.51753602  0.57321369  0.99388747  1
  O  O17  1  0.01753602  0.99388747  0.57321369  1
  O  O18  1  0.84249557  0.06381902  0.27289743  1
  O  O19  1  0.34249557  0.27289743  0.06381902  1
  O  O20  1  0.63594079  0.14089776  0.03595877  1
  O  O21  1  0.13594079  0.03595877  0.14089776  1
  O  O22  1  0.01093888  0.33640385  0.22393847  1
  O  O23  1  0.51093888  0.22393847  0.33640385  1
  O  O24  1  0.91110373  0.75797414  0.22905836  1
  O  O25  1  0.41110373  0.22905836  0.75797414  1
  O  O26  1  0.39189416  0.54908839  0.44859211  1
  O  O27  1  0.89189416  0.44859211  0.54908839  1
  O  O28  1  0.42019074  0.89349538  0.11044606  1
  O  O29  1  0.92019074  0.11044606  0.89349538  1
  O  O30  1  0.29228815  0.61399240  0.73393326  1
  O  O31  1  0.79228815  0.73393326  0.61399240  1
  O  O32  1  0.10183720  0.69391909  0.47066720  1
  O  O33  1  0.60183720  0.47066720  0.69391909  1
  O  O34  1  0.74740239  0.85979194  0.95943315  1
  O  O35  1  0.24740239  0.95943315  0.85979194  1
  O  O36  1  0.63292977  0.82090347  0.36149416  1
  O  O37  1  0.13292977  0.36149416  0.82090347  1
