# generated using pymatgen
data_ErGa2Ni3
_symmetry_space_group_name_H-M   'P 1'
_cell_length_a   4.07280340
_cell_length_b   8.70205346
_cell_length_c   8.70205296
_cell_angle_alpha   60.10223357
_cell_angle_beta   90.00000000
_cell_angle_gamma   90.00000000
_symmetry_Int_Tables_number   1
_chemical_formula_structural   ErGa2Ni3
_chemical_formula_sum   'Er3 Ga6 Ni9'
_cell_volume   267.37083025
_cell_formula_units_Z   3
loop_
 _symmetry_equiv_pos_site_id
 _symmetry_equiv_pos_as_xyz
  1  'x, y, z'
loop_
 _atom_site_type_symbol
 _atom_site_label
 _atom_site_symmetry_multiplicity
 _atom_site_fract_x
 _atom_site_fract_y
 _atom_site_fract_z
 _atom_site_occupancy
  Er  Er0  1  0.50000000  0.33364555  0.33343417  1
  Er  Er1  1  0.50000000  0.66656583  0.66635445  1
  Er  Er2  1  -0.00000000  0.00020955  0.99979045  1
  Ga  Ga3  1  -0.00000000  0.51509791  0.48490209  1
  Ga  Ga4  1  -0.00000000  0.48473660  0.00011379  1
  Ga  Ga5  1  -0.00000000  0.99988621  0.51526340  1
  Ga  Ga6  1  0.50000000  0.27174418  0.72825582  1
  Ga  Ga7  1  0.50000000  0.72898238  0.00001848  1
  Ga  Ga8  1  0.50000000  0.99998152  0.27101762  1
  Ni  Ni9  1  0.00000000  0.17707096  0.19521993  1
  Ni  Ni10  1  -0.00000000  0.19488434  0.62788701  1
  Ni  Ni11  1  -0.00000000  0.62793188  0.17713509  1
  Ni  Ni12  1  0.00000000  0.80478007  0.82292904  1
  Ni  Ni13  1  -0.00000000  0.37211299  0.80511566  1
  Ni  Ni14  1  -0.00000000  0.82286491  0.37206812  1
  Ni  Ni15  1  0.50000000  0.70433739  0.29566261  1
  Ni  Ni16  1  0.50000000  0.29523174  0.00016400  1
  Ni  Ni17  1  0.50000000  0.99983600  0.70476826  1
