# generated using pymatgen
data_Dy5Sc5(Si5Ir2)4
_symmetry_space_group_name_H-M   'P 1'
_cell_length_a   4.17137767
_cell_length_b   12.51131882
_cell_length_c   12.51131882
_cell_angle_alpha   89.92582998
_cell_angle_beta   90.00000000
_cell_angle_gamma   90.00000000
_symmetry_Int_Tables_number   1
_chemical_formula_structural   Dy5Sc5(Si5Ir2)4
_chemical_formula_sum   'Dy5 Sc5 Si20 Ir8'
_cell_volume   652.95812516
_cell_formula_units_Z   1
loop_
 _symmetry_equiv_pos_site_id
 _symmetry_equiv_pos_as_xyz
  1  'x, y, z'
loop_
 _atom_site_type_symbol
 _atom_site_label
 _atom_site_symmetry_multiplicity
 _atom_site_fract_x
 _atom_site_fract_y
 _atom_site_fract_z
 _atom_site_occupancy
  Dy  Dy0  1  0.50000000  0.61580768  0.11580768  1
  Dy  Dy1  1  0.50000000  0.11579110  0.38420227  1
  Dy  Dy2  1  0.50000000  0.88420227  0.61579110  1
  Dy  Dy3  1  0.00000000  0.49991245  0.50016581  1
  Dy  Dy4  1  0.00000000  0.00016581  0.99991245  1
  Sc  Sc5  1  0.50000000  0.17467140  0.67467140  1
  Sc  Sc6  1  0.50000000  0.82552799  0.32552799  1
  Sc  Sc7  1  0.50000000  0.32570780  0.17392404  1
  Sc  Sc8  1  0.50000000  0.67392404  0.82570780  1
  Sc  Sc9  1  0.50000000  0.38406164  0.88406164  1
  Si  Si10  1  -0.00000000  0.06658974  0.56658974  1
  Si  Si11  1  0.00000000  0.93338960  0.43338960  1
  Si  Si12  1  -0.00000000  0.43321732  0.06546994  1
  Si  Si13  1  0.00000000  0.56546994  0.93321732  1
  Si  Si14  1  0.00000000  0.69939971  0.66548111  1
  Si  Si15  1  -0.00000000  0.30023848  0.33467878  1
  Si  Si16  1  0.00000000  0.80021455  0.16514420  1
  Si  Si17  1  0.00000000  0.20084174  0.83525139  1
  Si  Si18  1  -0.00000000  0.66514420  0.30021455  1
  Si  Si19  1  0.00000000  0.33525139  0.70084174  1
  Si  Si20  1  -0.00000000  0.16548111  0.19939971  1
  Si  Si21  1  0.00000000  0.83467878  0.80023848  1
  Si  Si22  1  0.50000000  0.50457503  0.65761668  1
  Si  Si23  1  0.50000000  0.49505565  0.34316521  1
  Si  Si24  1  0.50000000  0.99482981  0.15671604  1
  Si  Si25  1  0.50000000  0.00525846  0.84328963  1
  Si  Si26  1  0.50000000  0.65671604  0.49482981  1
  Si  Si27  1  0.50000000  0.34328963  0.50525846  1
  Si  Si28  1  0.50000000  0.15761668  0.00457503  1
  Si  Si29  1  0.50000000  0.84316521  0.99505565  1
  Ir  Ir30  1  -0.00000000  0.52032751  0.74827983  1
  Ir  Ir31  1  -0.00000000  0.47820157  0.25256009  1
  Ir  Ir32  1  -0.00000000  0.97865126  0.24697782  1
  Ir  Ir33  1  -0.00000000  0.02173025  0.75307642  1
  Ir  Ir34  1  0.00000000  0.74697782  0.47865126  1
  Ir  Ir35  1  0.00000000  0.25307642  0.52173025  1
  Ir  Ir36  1  0.00000000  0.24827983  0.02032751  1
  Ir  Ir37  1  0.00000000  0.75256009  0.97820157  1
