# generated using pymatgen
data_Er6Si11N20O
_symmetry_space_group_name_H-M   'P 1'
_cell_length_a   9.83236664
_cell_length_b   9.83234062
_cell_length_c   10.67765311
_cell_angle_alpha   90.00008089
_cell_angle_beta   89.99983826
_cell_angle_gamma   120.00009157
_symmetry_Int_Tables_number   1
_chemical_formula_structural   Er6Si11N20O
_chemical_formula_sum   'Er12 Si22 N40 O2'
_cell_volume   893.96603444
_cell_formula_units_Z   2
loop_
 _symmetry_equiv_pos_site_id
 _symmetry_equiv_pos_as_xyz
  1  'x, y, z'
loop_
 _atom_site_type_symbol
 _atom_site_label
 _atom_site_symmetry_multiplicity
 _atom_site_fract_x
 _atom_site_fract_y
 _atom_site_fract_z
 _atom_site_occupancy
  Er  Er0  1  0.12864786  0.26223060  0.17412066  1
  Er  Er1  1  0.13356289  0.87134842  0.17411796  1
  Er  Er2  1  0.73776753  0.86642455  0.17412079  1
  Er  Er3  1  0.86641726  0.73776940  0.67412066  1
  Er  Er4  1  0.26221447  0.12865158  0.67411796  1
  Er  Er5  1  0.87134299  0.13357545  0.67412079  1
  Er  Er6  1  0.20315150  0.40054616  0.50036252  1
  Er  Er7  1  0.19737274  0.79685591  0.50036283  1
  Er  Er8  1  0.59945809  0.80261202  0.50035865  1
  Er  Er9  1  0.80260534  0.59945384  0.00036252  1
  Er  Er10  1  0.40051683  0.20314409  0.00036283  1
  Er  Er11  1  0.79684607  0.19738798  0.00035865  1
  Si  Si12  1  0.99999613  -0.00000018  0.43381610  1
  Si  Si13  1  -0.00000369  0.00000018  0.93381610  1
  Si  Si14  1  0.53607784  0.01044415  0.24546944  1
  Si  Si15  1  0.47435919  0.46392400  0.24547101  1
  Si  Si16  1  0.98955576  0.52563812  0.24547502  1
  Si  Si17  1  0.52563369  0.98955585  0.74546944  1
  Si  Si18  1  0.01043519  0.53607600  0.74547101  1
  Si  Si19  1  0.46391764  0.47436188  0.74547502  1
  Si  Si20  1  0.13185804  0.57376325  0.00725363  1
  Si  Si21  1  0.44190032  0.86814732  0.00725182  1
  Si  Si22  1  0.42624060  0.55810499  0.00725397  1
  Si  Si23  1  0.55809478  0.42623675  0.50725363  1
  Si  Si24  1  0.57375301  0.13185268  0.50725182  1
  Si  Si25  1  0.86813560  0.44189501  0.50725397  1
  Si  Si26  1  0.33332596  0.66667731  0.30841563  1
  Si  Si27  1  0.66664865  0.33332269  0.80841563  1
  Si  Si28  1  0.34119918  0.15798458  0.35682294  1
  Si  Si29  1  0.81678161  0.65880024  0.35682209  1
  Si  Si30  1  0.84201590  0.18321570  0.35682338  1
  Si  Si31  1  0.18321460  0.84201542  0.85682294  1
  Si  Si32  1  0.15798137  0.34119976  0.85682209  1
  Si  Si33  1  0.65880020  0.81678430  0.85682338  1
  N  N34  1  0.01448955  0.17593727  0.37715515  1
  N  N35  1  0.16144779  0.98550861  0.37714948  1
  N  N36  1  0.82406230  0.83855900  0.37715902  1
  N  N37  1  0.83855228  0.82406273  0.87715515  1
  N  N38  1  0.17593918  0.01449139  0.87714948  1
  N  N39  1  0.98550329  0.16144100  0.87715902  1
  N  N40  1  0.36542570  0.25773817  0.21507529  1
  N  N41  1  0.89229357  0.63456713  0.21507224  1
  N  N42  1  0.74227339  0.10770227  0.21506482  1
  N  N43  1  0.10768753  0.74226183  0.71507529  1
  N  N44  1  0.25772644  0.36543287  0.71507224  1
  N  N45  1  0.63457112  0.89229773  0.71506482  1
  N  N46  1  0.00000049  0.00000064  0.09752137  1
  N  N47  1  -0.00000016  -0.00000064  0.59752137  1
  N  N48  1  0.33333886  0.66667100  0.04289165  1
  N  N49  1  0.66666786  0.33332900  0.54289165  1
  N  N50  1  0.31499641  0.48605387  0.28910033  1
  N  N51  1  0.17103936  0.68500365  0.28909223  1
  N  N52  1  0.51395267  0.82894634  0.28909798  1
  N  N53  1  0.82894254  0.51394613  0.78910033  1
  N  N54  1  0.48603572  0.31499635  0.78909223  1
  N  N55  1  0.68500633  0.17105366  0.78909798  1
  N  N56  1  0.36445429  0.27714549  0.48705772  1
  N  N57  1  0.91268202  0.63552950  0.48705943  1
  N  N58  1  0.72285478  0.08731163  0.48705307  1
  N  N59  1  0.08730880  0.72285451  0.98705772  1
  N  N60  1  0.27715251  0.36447050  0.98705943  1
  N  N61  1  0.63554315  0.91268837  0.98705307  1
  N  N62  1  0.47983871  0.09588035  0.36269114  1
  N  N63  1  0.61602359  0.52015038  0.36269051  1
  N  N64  1  0.90412980  0.38397523  0.36269227  1
  N  N65  1  0.38395835  0.90411965  0.86269114  1
  N  N66  1  0.09587321  0.47984962  0.86269051  1
  N  N67  1  0.52015457  0.61602477  0.86269227  1
  N  N68  1  0.00816381  0.42973341  0.11333333  1
  N  N69  1  0.42156831  0.99184390  0.11333347  1
  N  N70  1  0.57026806  0.57844377  0.11333438  1
  N  N71  1  0.57843039  0.57026659  0.61333333  1
  N  N72  1  0.42972440  0.00815610  0.61333347  1
  N  N73  1  0.99182429  0.42155623  0.61333438  1
  O  O74  1  0.33332283  0.66667610  0.47909670  1
  O  O75  1  0.66664673  0.33332390  0.97909670  1
