# generated using pymatgen
data_Dy2CO5
_symmetry_space_group_name_H-M   'P 1'
_cell_length_a   3.83875193
_cell_length_b   3.88798552
_cell_length_c   15.24767955
_cell_angle_alpha   90.00000000
_cell_angle_beta   90.00000000
_cell_angle_gamma   119.58038014
_symmetry_Int_Tables_number   1
_chemical_formula_structural   Dy2CO5
_chemical_formula_sum   'Dy4 C2 O10'
_cell_volume   197.91100557
_cell_formula_units_Z   2
loop_
 _symmetry_equiv_pos_site_id
 _symmetry_equiv_pos_as_xyz
  1  'x, y, z'
loop_
 _atom_site_type_symbol
 _atom_site_label
 _atom_site_symmetry_multiplicity
 _atom_site_fract_x
 _atom_site_fract_y
 _atom_site_fract_z
 _atom_site_occupancy
  Dy  Dy0  1  0.66491486  0.32979923  0.59301858  1
  Dy  Dy1  1  0.33508514  0.67020077  0.40698142  1
  Dy  Dy2  1  0.33508514  0.67020077  0.09301858  1
  Dy  Dy3  1  0.66491486  0.32979923  0.90698142  1
  C  C4  1  0.91443938  0.82886509  0.75000000  1
  C  C5  1  0.08556062  0.17113491  0.25000000  1
  O  O6  1  0.00384275  0.00767519  0.67428821  1
  O  O7  1  0.99615725  0.99232481  0.32571179  1
  O  O8  1  0.99615725  0.99232481  0.17428821  1
  O  O9  1  0.00384275  0.00767519  0.82571179  1
  O  O10  1  0.66725993  0.33450789  0.05721078  1
  O  O11  1  0.33274007  0.66549211  0.94278922  1
  O  O12  1  0.33274007  0.66549211  0.55721078  1
  O  O13  1  0.66725993  0.33450789  0.44278922  1
  O  O14  1  0.72504574  0.45008228  0.75000000  1
  O  O15  1  0.27495426  0.54991772  0.25000000  1
