# generated using pymatgen
data_Dy2P7Rh12
_symmetry_space_group_name_H-M   'P 1'
_cell_length_a   3.87808454
_cell_length_b   9.62868742
_cell_length_c   9.63265430
_cell_angle_alpha   59.99392002
_cell_angle_beta   89.99599057
_cell_angle_gamma   89.99933611
_symmetry_Int_Tables_number   1
_chemical_formula_structural   Dy2P7Rh12
_chemical_formula_sum   'Dy2 P7 Rh12'
_cell_volume   311.48300450
_cell_formula_units_Z   1
loop_
 _symmetry_equiv_pos_site_id
 _symmetry_equiv_pos_as_xyz
  1  'x, y, z'
loop_
 _atom_site_type_symbol
 _atom_site_label
 _atom_site_symmetry_multiplicity
 _atom_site_fract_x
 _atom_site_fract_y
 _atom_site_fract_z
 _atom_site_occupancy
  Dy  Dy0  1  0.74864255  0.33350633  0.33316922  1
  Dy  Dy1  1  0.25135745  0.66649367  0.66683078  1
  P  P2  1  0.50000000  0.00000000  -0.00000000  1
  P  P3  1  0.75364070  0.88133141  0.71365968  1
  P  P4  1  0.75341988  0.40505088  0.88126732  1
  P  P5  1  0.75419333  0.71376537  0.40523282  1
  P  P6  1  0.24635930  0.11866859  0.28634032  1
  P  P7  1  0.24658012  0.59494912  0.11873268  1
  P  P8  1  0.24580667  0.28623463  0.59476718  1
  Rh  Rh9  1  0.75110179  0.61799736  0.93139900  1
  Rh  Rh10  1  0.75075229  0.45034695  0.61787188  1
  Rh  Rh11  1  0.75104016  0.93146821  0.45050665  1
  Rh  Rh12  1  0.24889821  0.38200264  0.06860100  1
  Rh  Rh13  1  0.24924771  0.54965305  0.38212812  1
  Rh  Rh14  1  0.24895984  0.06853179  0.54949335  1
  Rh  Rh15  1  0.74893660  0.11154548  0.73876295  1
  Rh  Rh16  1  0.74924142  0.15007526  0.11133179  1
  Rh  Rh17  1  0.74962301  0.73830329  0.15016285  1
  Rh  Rh18  1  0.25106340  0.88845452  0.26123705  1
  Rh  Rh19  1  0.25075858  0.84992474  0.88866821  1
  Rh  Rh20  1  0.25037699  0.26169671  0.84983715  1
