# generated using pymatgen
data_CsCNO
_symmetry_space_group_name_H-M   'P 1'
_cell_length_a   6.21725745
_cell_length_b   6.21725745
_cell_length_c   6.21725745
_cell_angle_alpha   64.84804398
_cell_angle_beta   65.04474764
_cell_angle_gamma   98.80483717
_symmetry_Int_Tables_number   1
_chemical_formula_structural   CsCNO
_chemical_formula_sum   'Cs2 C2 N2 O2'
_cell_volume   180.32640296
_cell_formula_units_Z   2
loop_
 _symmetry_equiv_pos_site_id
 _symmetry_equiv_pos_as_xyz
  1  'x, y, z'
loop_
 _atom_site_type_symbol
 _atom_site_label
 _atom_site_symmetry_multiplicity
 _atom_site_fract_x
 _atom_site_fract_y
 _atom_site_fract_z
 _atom_site_occupancy
  Cs  Cs0  1  0.75081193  0.75000000  0.99918807  1
  Cs  Cs1  1  0.25081193  0.25000000  0.99918807  1
  C  C2  1  0.99894773  0.50164701  0.49940526  1
  C  C3  1  0.49894773  0.99835299  0.50269929  1
  N  N4  1  0.87118035  0.62777480  0.50104485  1
  N  N5  1  0.37118035  0.87222520  0.75659445  1
  O  O6  1  0.12905999  0.37046724  0.50047277  1
  O  O7  1  0.62905999  0.12953276  0.24140725  1
