# generated using pymatgen
data_CsW3Br7
_symmetry_space_group_name_H-M   'P 1'
_cell_length_a   10.54306715
_cell_length_b   10.54306725
_cell_length_c   15.98054181
_cell_angle_alpha   89.99968637
_cell_angle_beta   90.00031361
_cell_angle_gamma   60.00188997
_symmetry_Int_Tables_number   1
_chemical_formula_structural   CsW3Br7
_chemical_formula_sum   'Cs4 W12 Br28'
_cell_volume   1538.38257223
_cell_formula_units_Z   4
loop_
 _symmetry_equiv_pos_site_id
 _symmetry_equiv_pos_as_xyz
  1  'x, y, z'
loop_
 _atom_site_type_symbol
 _atom_site_label
 _atom_site_symmetry_multiplicity
 _atom_site_fract_x
 _atom_site_fract_y
 _atom_site_fract_z
 _atom_site_occupancy
  Cs  Cs0  1  0.99999522  0.00000304  0.49951747  1
  Cs  Cs1  1  -0.00000304  0.00000478  0.99951747  1
  Cs  Cs2  1  0.33331652  0.33331542  0.73884747  1
  Cs  Cs3  1  0.66668458  0.66668348  0.23884747  1
  W  W4  1  0.66502615  0.52177520  0.68228993  1
  W  W5  1  0.81320533  0.66503219  0.68227846  1
  W  W6  1  0.52178348  0.81320734  0.68228421  1
  W  W7  1  0.47822480  0.33497385  0.18228993  1
  W  W8  1  0.18679266  0.47821652  0.18228421  1
  W  W9  1  0.33496781  0.18679467  0.18227846  1
  W  W10  1  0.33401547  0.47872124  0.31773900  1
  W  W11  1  0.18725434  0.33400663  0.31774241  1
  W  W12  1  0.47871988  0.18724604  0.31773921  1
  W  W13  1  0.52127876  0.66598453  0.81773900  1
  W  W14  1  0.81275396  0.52128012  0.81773921  1
  W  W15  1  0.66599337  0.81274566  0.81774241  1
  Br  Br16  1  0.66661821  0.66663889  0.54682718  1
  Br  Br17  1  0.33336111  0.33338179  0.04682718  1
  Br  Br18  1  0.33336780  0.33335542  0.45321928  1
  Br  Br19  1  0.66664458  0.66663220  0.95321928  1
  Br  Br20  1  0.95487271  0.37219408  0.67978190  1
  Br  Br21  1  0.67293864  0.95488959  0.67977840  1
  Br  Br22  1  0.37220529  0.67293667  0.67979000  1
  Br  Br23  1  0.62780592  0.04512729  0.17978190  1
  Br  Br24  1  0.32706333  0.62779471  0.17979000  1
  Br  Br25  1  0.04511041  0.32706136  0.17977840  1
  Br  Br26  1  0.04379717  0.62679888  0.32006592  1
  Br  Br27  1  0.32942294  0.04376464  0.32007358  1
  Br  Br28  1  0.62677596  0.32944017  0.32007432  1
  Br  Br29  1  0.37320112  0.95620283  0.82006592  1
  Br  Br30  1  0.67055983  0.37322404  0.82007432  1
  Br  Br31  1  0.95623536  0.67057706  0.82007358  1
  Br  Br32  1  0.65531177  0.31809213  0.59186286  1
  Br  Br33  1  0.02663229  0.65533237  0.59186457  1
  Br  Br34  1  0.31804109  0.02660692  0.59187019  1
  Br  Br35  1  0.68190787  0.34468823  0.09186286  1
  Br  Br36  1  0.97339308  0.68195891  0.09187019  1
  Br  Br37  1  0.34466763  0.97336771  0.09186457  1
  Br  Br38  1  0.34405150  0.68158377  0.40769852  1
  Br  Br39  1  0.97433199  0.34402645  0.40768047  1
  Br  Br40  1  0.68163073  0.97434742  0.40767466  1
  Br  Br41  1  0.31841623  0.65594850  0.90769852  1
  Br  Br42  1  0.02565258  0.31836927  0.90767466  1
  Br  Br43  1  0.65597355  0.02566801  0.90768047  1
