# generated using pymatgen
data_Cs4Mn3O6
_symmetry_space_group_name_H-M   'P 1'
_cell_length_a   8.56908658
_cell_length_b   12.52110920
_cell_length_c   12.54615319
_cell_angle_alpha   117.42602247
_cell_angle_beta   89.99970556
_cell_angle_gamma   89.99984455
_symmetry_Int_Tables_number   1
_chemical_formula_structural   Cs4Mn3O6
_chemical_formula_sum   'Cs16 Mn12 O24'
_cell_volume   1194.83596494
_cell_formula_units_Z   4
loop_
 _symmetry_equiv_pos_site_id
 _symmetry_equiv_pos_as_xyz
  1  'x, y, z'
loop_
 _atom_site_type_symbol
 _atom_site_label
 _atom_site_symmetry_multiplicity
 _atom_site_fract_x
 _atom_site_fract_y
 _atom_site_fract_z
 _atom_site_occupancy
  Cs  Cs0  1  0.00024001  0.65847165  0.34217138  1
  Cs  Cs1  1  0.00023816  0.34153697  0.65782488  1
  Cs  Cs2  1  0.60516683  0.82275735  0.66674981  1
  Cs  Cs3  1  0.60516403  0.17723950  0.33324537  1
  Cs  Cs4  1  0.39659199  0.66674053  0.82250772  1
  Cs  Cs5  1  0.39658984  0.33325557  0.17748510  1
  Cs  Cs6  1  0.49985946  0.67473150  0.32566884  1
  Cs  Cs7  1  0.49985939  0.32526791  0.67433218  1
  Cs  Cs8  1  0.11809962  0.84335616  0.66545018  1
  Cs  Cs9  1  0.11809540  0.15663507  0.33455434  1
  Cs  Cs10  1  0.87942551  0.66665151  0.84087354  1
  Cs  Cs11  1  0.87942157  0.33335625  0.15914996  1
  Cs  Cs12  1  0.25482449  0.82451313  0.16436307  1
  Cs  Cs13  1  0.25482409  0.17549304  0.83563702  1
  Cs  Cs14  1  0.74599101  0.16194695  0.82316821  1
  Cs  Cs15  1  0.74598977  0.83805211  0.17683202  1
  Mn  Mn16  1  0.64829070  0.00000012  0.49999936  1
  Mn  Mn17  1  0.35146217  0.49999874  0.00000173  1
  Mn  Mn18  1  0.31502195  -0.00000286  0.49999936  1
  Mn  Mn19  1  0.68501924  0.50000076  0.99999798  1
  Mn  Mn20  1  0.16581090  0.00000264  -0.00000442  1
  Mn  Mn21  1  0.83324463  0.00000255  0.99999880  1
  Mn  Mn22  1  0.50046544  0.49999997  0.49999702  1
  Mn  Mn23  1  0.83201025  0.50000413  0.50000251  1
  Mn  Mn24  1  0.16885744  0.50000241  0.50000155  1
  Mn  Mn25  1  0.49828740  0.99999583  0.99999886  1
  Mn  Mn26  1  0.97899274  -0.00000002  0.50000337  1
  Mn  Mn27  1  0.02089433  0.49999681  0.99999818  1
  O  O28  1  0.99994105  0.59990853  0.60094475  1
  O  O29  1  0.99994233  0.40009222  0.39905028  1
  O  O30  1  0.14798851  0.89102349  0.41064612  1
  O  O31  1  0.14798673  0.10897839  0.58936031  1
  O  O32  1  0.85217946  0.41038534  0.89092781  1
  O  O33  1  0.85217774  0.58960759  0.10906630  1
  O  O34  1  0.46923803  0.94519916  0.37447858  1
  O  O35  1  0.46923956  0.05479821  0.62552218  1
  O  O36  1  0.53109451  0.37451451  0.94519400  1
  O  O37  1  0.53109138  0.62548449  0.05480703  1
  O  O38  1  0.82576659  0.88875379  0.50149303  1
  O  O39  1  0.82576671  0.11124939  0.49851375  1
  O  O40  1  0.17368159  0.50298628  0.88947416  1
  O  O41  1  0.17367856  0.49701050  0.11052217  1
  O  O42  1  0.67837025  0.47350899  0.37796626  1
  O  O43  1  0.67837048  0.52649182  0.62203311  1
  O  O44  1  0.32275818  0.37845297  0.47396149  1
  O  O45  1  0.32275809  0.62154877  0.52604291  1
  O  O46  1  0.33296503  0.06853157  0.11807459  1
  O  O47  1  0.33296777  0.93146754  0.88192181  1
  O  O48  1  0.65204960  0.12408992  0.07447318  1
  O  O49  1  0.65205395  0.87591196  0.92552440  1
  O  O50  1  0.01259670  0.96407444  0.09010340  1
  O  O51  1  0.01259881  0.03592385  0.90989046  1
