# generated using pymatgen
data_CsMgGaF6
_symmetry_space_group_name_H-M   'P 1'
_cell_length_a   7.36418890
_cell_length_b   7.33756202
_cell_length_c   7.38392675
_cell_angle_alpha   90.00000000
_cell_angle_beta   59.91129842
_cell_angle_gamma   119.88046468
_symmetry_Int_Tables_number   1
_chemical_formula_structural   CsMgGaF6
_chemical_formula_sum   'Cs2 Mg2 Ga2 F12'
_cell_volume   282.26038605
_cell_formula_units_Z   2
loop_
 _symmetry_equiv_pos_site_id
 _symmetry_equiv_pos_as_xyz
  1  'x, y, z'
loop_
 _atom_site_type_symbol
 _atom_site_label
 _atom_site_symmetry_multiplicity
 _atom_site_fract_x
 _atom_site_fract_y
 _atom_site_fract_z
 _atom_site_occupancy
  Cs  Cs0  1  0.75718477  0.37859238  0.37140762  1
  Cs  Cs1  1  0.24281523  0.62140762  0.62859238  1
  Mg  Mg2  1  0.50000000  0.50000000  -0.00000000  1
  Mg  Mg3  1  0.50000000  -0.00000000  -0.00000000  1
  Ga  Ga4  1  0.00000000  -0.00000000  0.50000000  1
  Ga  Ga5  1  0.00000000  -0.00000000  -0.00000000  1
  F  F6  1  0.86774786  0.93387393  0.31612607  1
  F  F7  1  0.63659343  0.31829672  0.93170328  1
  F  F8  1  0.24199948  0.93485794  0.93229473  1
  F  F9  1  0.24199948  0.30714155  0.32570579  1
  F  F10  1  0.24199948  0.30714155  0.93229473  1
  F  F11  1  0.24199948  0.93485794  0.32570579  1
  F  F12  1  0.13225214  0.06612607  0.68387393  1
  F  F13  1  0.36340657  0.68170328  0.06829672  1
  F  F14  1  0.75800052  0.06514206  0.06770527  1
  F  F15  1  0.75800052  0.69285845  0.67429421  1
  F  F16  1  0.75800052  0.69285845  0.06770527  1
  F  F17  1  0.75800052  0.06514206  0.67429421  1
