# generated using pymatgen
data_Eu(GaP)2
_symmetry_space_group_name_H-M   'P 1'
_cell_length_a   3.95677290
_cell_length_b   9.40404338
_cell_length_c   12.19232616
_cell_angle_alpha   95.64046924
_cell_angle_beta   90.00000000
_cell_angle_gamma   90.00000000
_symmetry_Int_Tables_number   1
_chemical_formula_structural   Eu(GaP)2
_chemical_formula_sum   'Eu4 Ga8 P8'
_cell_volume   451.47578133
_cell_formula_units_Z   4
loop_
 _symmetry_equiv_pos_site_id
 _symmetry_equiv_pos_as_xyz
  1  'x, y, z'
loop_
 _atom_site_type_symbol
 _atom_site_label
 _atom_site_symmetry_multiplicity
 _atom_site_fract_x
 _atom_site_fract_y
 _atom_site_fract_z
 _atom_site_occupancy
  Eu  Eu0  1  -0.00000000  0.19491196  0.27945770  1
  Eu  Eu1  1  0.00000000  0.80508804  0.72054230  1
  Eu  Eu2  1  0.50000000  -0.00000000  -0.00000000  1
  Eu  Eu3  1  0.50000000  0.50000000  0.50000000  1
  Ga  Ga4  1  0.50000000  0.39509229  0.05634074  1
  Ga  Ga5  1  0.50000000  0.60490771  0.94365926  1
  Ga  Ga6  1  0.50000000  0.88746180  0.43419773  1
  Ga  Ga7  1  0.50000000  0.11253820  0.56580227  1
  Ga  Ga8  1  -0.00000000  0.59743554  0.27959320  1
  Ga  Ga9  1  -0.00000000  0.40256446  0.72040680  1
  Ga  Ga10  1  -0.00000000  0.80272057  0.17262300  1
  Ga  Ga11  1  0.00000000  0.19727943  0.82737700  1
  P  P12  1  0.50000000  0.44242102  0.25665008  1
  P  P13  1  0.50000000  0.55757898  0.74334992  1
  P  P14  1  -0.00000000  0.26423005  0.53728615  1
  P  P15  1  -0.00000000  0.73576995  0.46271385  1
  P  P16  1  0.50000000  0.94494475  0.23920267  1
  P  P17  1  0.50000000  0.05505525  0.76079733  1
  P  P18  1  0.00000000  0.23921766  0.02691010  1
  P  P19  1  -0.00000000  0.76078234  0.97308990  1
