# generated using pymatgen
data_CrCu(PSe3)2
_symmetry_space_group_name_H-M   'P 1'
_cell_length_a   6.25319359
_cell_length_b   6.25319359
_cell_length_c   7.16310468
_cell_angle_alpha   98.08716053
_cell_angle_beta   98.08716053
_cell_angle_gamma   119.96478427
_symmetry_Int_Tables_number   1
_chemical_formula_structural   CrCu(PSe3)2
_chemical_formula_sum   'Cr1 Cu1 P2 Se6'
_cell_volume   232.86326189
_cell_formula_units_Z   1
loop_
 _symmetry_equiv_pos_site_id
 _symmetry_equiv_pos_as_xyz
  1  'x, y, z'
loop_
 _atom_site_type_symbol
 _atom_site_label
 _atom_site_symmetry_multiplicity
 _atom_site_fract_x
 _atom_site_fract_y
 _atom_site_fract_z
 _atom_site_occupancy
  Cr  Cr0  1  0.33289793  0.66710207  0.00000000  1
  Cu  Cu1  1  0.67036555  0.32963445  0.00000000  1
  P  P2  1  0.05157162  0.05256017  0.16138242  1
  P  P3  1  0.94743983  0.94842838  0.83861758  1
  Se  Se4  1  0.09224840  0.43088414  0.23830615  1
  Se  Se5  1  0.41382762  0.06112575  0.23856385  1
  Se  Se6  1  0.93887425  0.58617238  0.76143615  1
  Se  Se7  1  0.56911586  0.90775160  0.76169385  1
  Se  Se8  1  0.72218912  0.73853018  0.23806881  1
  Se  Se9  1  0.26146982  0.27781088  0.76193119  1
