# generated using pymatgen
data_CoP2H36C12Br2(N3O)2
_symmetry_space_group_name_H-M   'P 1'
_cell_length_a   8.65116416
_cell_length_b   13.20659251
_cell_length_c   13.97514534
_cell_angle_alpha   75.59179591
_cell_angle_beta   71.96971530
_cell_angle_gamma   70.88095185
_symmetry_Int_Tables_number   1
_chemical_formula_structural   CoP2H36C12Br2(N3O)2
_chemical_formula_sum   'Co2 P4 H72 C24 Br4 N12 O4'
_cell_volume   1415.08520453
_cell_formula_units_Z   2
loop_
 _symmetry_equiv_pos_site_id
 _symmetry_equiv_pos_as_xyz
  1  'x, y, z'
loop_
 _atom_site_type_symbol
 _atom_site_label
 _atom_site_symmetry_multiplicity
 _atom_site_fract_x
 _atom_site_fract_y
 _atom_site_fract_z
 _atom_site_occupancy
  Co  Co0  1  0.32459060  0.75000000  0.25000000  1
  Co  Co1  1  0.67540940  0.25000000  0.75000000  1
  P  P2  1  0.65912556  0.75378634  0.04613600  1
  P  P3  1  0.45904789  0.74621366  0.45386400  1
  P  P4  1  0.34087444  0.24621366  0.95386400  1
  P  P5  1  0.54095211  0.25378634  0.54613600  1
  H  H6  1  0.91862047  0.52498336  0.17369382  1
  H  H7  1  0.61729765  0.97501664  0.32630618  1
  H  H8  1  0.08137953  0.47501664  0.82630618  1
  H  H9  1  0.38270235  0.02498336  0.67369382  1
  H  H10  1  0.81826607  0.65877551  0.20079124  1
  H  H11  1  0.67783281  0.84122449  0.29920876  1
  H  H12  1  0.18173393  0.34122449  0.79920876  1
  H  H13  1  0.32216719  0.15877551  0.70079124  1
  H  H14  1  0.69645380  0.56339848  0.23255693  1
  H  H15  1  0.49240921  0.93660152  0.26744307  1
  H  H16  1  0.30354620  0.43660152  0.76744307  1
  H  H17  1  0.50759079  0.06339848  0.73255693  1
  H  H18  1  0.62465898  0.51760533  0.08291248  1
  H  H19  1  0.22517679  0.98239467  0.41708752  1
  H  H20  1  0.37534102  0.48239467  0.91708752  1
  H  H21  1  0.77482321  0.01760533  0.58291248  1
  H  H22  1  0.74361114  0.55927931  0.95771379  1
  H  H23  1  0.26060424  0.94072069  0.54228621  1
  H  H24  1  0.25638886  0.44072069  0.04228621  1
  H  H25  1  0.73939576  0.05927931  0.45771379  1
  H  H26  1  0.84949224  0.46562198  0.04737802  1
  H  H27  1  0.36249224  0.03437802  0.45262198  1
  H  H28  1  0.15050776  0.53437802  0.95262198  1
  H  H29  1  0.63750776  0.96562198  0.54737802  1
  H  H30  1  0.75813744  0.98920528  0.96153353  1
  H  H31  1  0.70887625  0.51079472  0.53846647  1
  H  H32  1  0.24186256  0.01079472  0.03846647  1
  H  H33  1  0.29112375  0.48920528  0.46153353  1
  H  H34  1  0.58504801  0.96594316  0.06640248  1
  H  H35  1  0.61739365  0.53405684  0.43359752  1
  H  H36  1  0.41495199  0.03405684  0.93359752  1
  H  H37  1  0.38260635  0.46594316  0.56640248  1
  H  H38  1  0.77734428  0.96475456  0.08946546  1
  H  H39  1  0.83156430  0.53524544  0.41053454  1
  H  H40  1  0.22265572  0.03524544  0.91053454  1
  H  H41  1  0.16843570  0.46475456  0.58946546  1
  H  H42  1  0.02257221  0.81653139  0.05870933  1
  H  H43  1  0.89781292  0.68346861  0.44129067  1
  H  H44  1  0.97742779  0.18346861  0.94129067  1
  H  H45  1  0.10218708  0.31653139  0.55870933  1
  H  H46  1  0.01832866  0.70188150  0.01540466  1
  H  H47  1  0.73561481  0.79811850  0.48459534  1
  H  H48  1  0.98167134  0.29811850  0.98459534  1
  H  H49  1  0.26438519  0.20188150  0.51540466  1
  H  H50  1  0.02174404  0.82739526  0.92899395  1
  H  H51  1  0.77813325  0.67260474  0.57100605  1
  H  H52  1  0.97825596  0.17260474  0.07100605  1
  H  H53  1  0.22186675  0.32739526  0.42899395  1
  H  H54  1  0.70063170  0.83427707  0.77967447  1
  H  H55  1  0.31458324  0.66572293  0.72032553  1
  H  H56  1  0.29936830  0.16572293  0.22032553  1
  H  H57  1  0.68541676  0.33427707  0.27967447  1
  H  H58  1  0.85742470  0.79359066  0.84884823  1
  H  H59  1  0.49986359  0.70640934  0.65115177  1
  H  H60  1  0.14257530  0.20640934  0.15115177  1
  H  H61  1  0.50013641  0.29359066  0.34884823  1
  H  H62  1  0.80066425  0.69313941  0.81150429  1
  H  H63  1  0.30530794  0.80686059  0.68849571  1
  H  H64  1  0.19933575  0.30686059  0.18849571  1
  H  H65  1  0.69469206  0.19313941  0.31150429  1
  H  H66  1  0.49548919  0.67202507  0.90025231  1
  H  H67  1  0.06776658  0.82797493  0.59974769  1
  H  H68  1  0.50451081  0.32797493  0.09974769  1
  H  H69  1  0.93223342  0.17202507  0.40025231  1
  H  H70  1  0.37103971  0.75525370  0.99521834  1
  H  H71  1  0.12151175  0.74474630  0.50478166  1
  H  H72  1  0.62896029  0.24474630  0.00478166  1
  H  H73  1  0.87848825  0.25525370  0.49521834  1
  H  H74  1  0.41928997  0.81530891  0.86383943  1
  H  H75  1  0.09843830  0.68469109  0.63616057  1
  H  H76  1  0.58071003  0.18469109  0.13616057  1
  H  H77  1  0.90156170  0.31530891  0.36383943  1
  C  C78  1  0.80144748  0.59145155  0.17608436  1
  C  C79  1  0.56898339  0.90854845  0.32391564  1
  C  C80  1  0.19855252  0.40854845  0.82391564  1
  C  C81  1  0.43101661  0.09145155  0.67608436  1
  C  C82  1  0.74348883  0.53816831  0.03863589  1
  C  C83  1  0.32029303  0.96183169  0.46136411  1
  C  C84  1  0.25651117  0.46183169  0.96136411  1
  C  C85  1  0.67970697  0.03816831  0.53863589  1
  C  C86  1  0.72275768  0.94290774  0.03849049  1
  C  C87  1  0.70415591  0.55709226  0.46150951  1
  C  C88  1  0.27724232  0.05709226  0.96150951  1
  C  C89  1  0.29584409  0.44290774  0.53849049  1
  C  C90  1  0.97262517  0.79033357  0.00822015  1
  C  C91  1  0.77117889  0.70966643  0.49177985  1
  C  C92  1  0.02737483  0.20966643  0.99177985  1
  C  C93  1  0.22882111  0.29033357  0.50822015  1
  C  C94  1  0.75201257  0.77200436  0.83908466  1
  C  C95  1  0.36310160  0.72799564  0.66091534  1
  C  C96  1  0.24798743  0.22799564  0.16091534  1
  C  C97  1  0.63689840  0.27200436  0.33908466  1
  C  C98  1  0.46841196  0.75152292  0.92318794  1
  C  C99  1  0.14312281  0.74847708  0.57681206  1
  C  C100  1  0.53158804  0.24847708  0.07681206  1
  C  C101  1  0.85687719  0.25152292  0.42318794  1
  Br  Br102  1  0.08425402  0.90857304  0.26889866  1
  Br  Br103  1  0.26172573  0.59142696  0.23110134  1
  Br  Br104  1  0.91574598  0.09142696  0.73110134  1
  Br  Br105  1  0.73827427  0.40857304  0.76889866  1
  N  N106  1  0.76893917  0.62546872  0.07433276  1
  N  N107  1  0.46874065  0.87453128  0.42566724  1
  N  N108  1  0.23106083  0.37453128  0.92566724  1
  N  N109  1  0.53125935  0.12546872  0.57433276  1
  N  N110  1  0.78833148  0.82554901  0.03824297  1
  N  N111  1  0.65212346  0.67445099  0.46175703  1
  N  N112  1  0.21166852  0.17445099  0.96175703  1
  N  N113  1  0.34787654  0.32554901  0.53824297  1
  N  N114  1  0.61971376  0.76954414  0.93357675  1
  N  N115  1  0.32283465  0.73045586  0.56642325  1
  N  N116  1  0.38028624  0.23045586  0.06642325  1
  N  N117  1  0.67716535  0.26954414  0.43357675  1
  O  O118  1  0.49306116  0.79123718  0.12226604  1
  O  O119  1  0.40656439  0.70876282  0.37773396  1
  O  O120  1  0.50693884  0.20876282  0.87773396  1
  O  O121  1  0.59343561  0.29123718  0.62226604  1
