# generated using pymatgen
data_Ce3UO8
_symmetry_space_group_name_H-M   'P 1'
_cell_length_a   3.87837484
_cell_length_b   3.87837484
_cell_length_c   12.74175890
_cell_angle_alpha   90.00000000
_cell_angle_beta   81.24605129
_cell_angle_gamma   120.00000000
_symmetry_Int_Tables_number   1
_chemical_formula_structural   Ce3UO8
_chemical_formula_sum   'Ce3 U1 O8'
_cell_volume   163.39835559
_cell_formula_units_Z   1
loop_
 _symmetry_equiv_pos_site_id
 _symmetry_equiv_pos_as_xyz
  1  'x, y, z'
loop_
 _atom_site_type_symbol
 _atom_site_label
 _atom_site_symmetry_multiplicity
 _atom_site_fract_x
 _atom_site_fract_y
 _atom_site_fract_z
 _atom_site_occupancy
  Ce  Ce0  1  0.49997160  0.24998580  0.25004260  1
  Ce  Ce1  1  0.00000000  0.50000000  0.50000000  1
  Ce  Ce2  1  0.50002840  0.75001420  0.74995740  1
  U  U3  1  0.00000000  -0.00000000  -0.00000000  1
  O  O4  1  0.62322666  0.81161333  0.56516001  1
  O  O5  1  0.11416581  0.05708290  0.82875129  1
  O  O6  1  0.63186943  0.31593471  0.05219586  1
  O  O7  1  0.12962050  0.56481025  0.30556925  1
  O  O8  1  0.87037950  0.43518975  0.69443075  1
  O  O9  1  0.36813057  0.68406529  0.94780414  1
  O  O10  1  0.88583419  0.94291710  0.17124871  1
  O  O11  1  0.37677334  0.18838667  0.43483999  1
