# generated using pymatgen
data_Ca2PtAu
_symmetry_space_group_name_H-M   'P 1'
_cell_length_a   4.08843505
_cell_length_b   4.44696604
_cell_length_c   5.79179508
_cell_angle_alpha   90.00000000
_cell_angle_beta   69.33210123
_cell_angle_gamma   90.00000000
_symmetry_Int_Tables_number   1
_chemical_formula_structural   Ca2PtAu
_chemical_formula_sum   'Ca2 Pt1 Au1'
_cell_volume   98.52439514
_cell_formula_units_Z   1
loop_
 _symmetry_equiv_pos_site_id
 _symmetry_equiv_pos_as_xyz
  1  'x, y, z'
loop_
 _atom_site_type_symbol
 _atom_site_label
 _atom_site_symmetry_multiplicity
 _atom_site_fract_x
 _atom_site_fract_y
 _atom_site_fract_z
 _atom_site_occupancy
  Ca  Ca0  1  0.86020362  0.75000000  0.27959276  1
  Ca  Ca1  1  0.14094409  0.25000000  0.71811182  1
  Pt  Pt2  1  0.42001711  0.25000000  0.15996579  1
  Au  Au3  1  0.57883518  0.75000000  0.84232963  1
