# generated using pymatgen
data_Ca2NdTaO6
_symmetry_space_group_name_H-M   'P 1'
_cell_length_a   5.65928538
_cell_length_b   5.93604686
_cell_length_c   8.20816463
_cell_angle_alpha   90.00000000
_cell_angle_beta   90.21613628
_cell_angle_gamma   90.00000000
_symmetry_Int_Tables_number   1
_chemical_formula_structural   Ca2NdTaO6
_chemical_formula_sum   'Ca4 Nd2 Ta2 O12'
_cell_volume   275.74134118
_cell_formula_units_Z   2
loop_
 _symmetry_equiv_pos_site_id
 _symmetry_equiv_pos_as_xyz
  1  'x, y, z'
loop_
 _atom_site_type_symbol
 _atom_site_label
 _atom_site_symmetry_multiplicity
 _atom_site_fract_x
 _atom_site_fract_y
 _atom_site_fract_z
 _atom_site_occupancy
  Ca  Ca0  1  0.99931111  0.99704677  0.49953699  1
  Ca  Ca1  1  0.49931111  0.50295323  0.99953699  1
  Ca  Ca2  1  0.51402198  0.94539636  0.24481136  1
  Ca  Ca3  1  0.01402198  0.55460364  0.74481136  1
  Nd  Nd4  1  0.48497495  0.05664579  0.75550847  1
  Nd  Nd5  1  0.98497495  0.44335421  0.25550847  1
  Ta  Ta6  1  0.49981328  0.50102164  0.50136004  1
  Ta  Ta7  1  0.99981328  0.99897836  0.00136004  1
  O  O8  1  0.37962827  0.55683433  0.27074678  1
  O  O9  1  0.87962827  0.94316567  0.77074678  1
  O  O10  1  0.61586066  0.44245977  0.72931102  1
  O  O11  1  0.11586066  0.05754023  0.22931102  1
  O  O12  1  0.83203835  0.71405376  0.07212917  1
  O  O13  1  0.33203835  0.78594624  0.57212917  1
  O  O14  1  0.17214063  0.28111061  0.92858592  1
  O  O15  1  0.67214063  0.21888939  0.42858592  1
  O  O16  1  0.79209264  0.67501062  0.44616128  1
  O  O17  1  0.29209264  0.82498938  0.94616128  1
  O  O18  1  0.21011812  0.32215078  0.55184897  1
  O  O19  1  0.71011812  0.17784922  0.05184897  1
