# generated using pymatgen
data_CaLa2Mn3O9
_symmetry_space_group_name_H-M   'P 1'
_cell_length_a   5.55609423
_cell_length_b   7.74046742
_cell_length_c   16.62937472
_cell_angle_alpha   90.00000000
_cell_angle_beta   90.00000000
_cell_angle_gamma   90.00000000
_symmetry_Int_Tables_number   1
_chemical_formula_structural   CaLa2Mn3O9
_chemical_formula_sum   'Ca4 La8 Mn12 O36'
_cell_volume   715.17563346
_cell_formula_units_Z   4
loop_
 _symmetry_equiv_pos_site_id
 _symmetry_equiv_pos_as_xyz
  1  'x, y, z'
loop_
 _atom_site_type_symbol
 _atom_site_label
 _atom_site_symmetry_multiplicity
 _atom_site_fract_x
 _atom_site_fract_y
 _atom_site_fract_z
 _atom_site_occupancy
  Ca  Ca0  1  0.49269019  0.75000000  0.15744691  1
  Ca  Ca1  1  0.00730981  0.75000000  0.65744691  1
  Ca  Ca2  1  0.50730981  0.25000000  0.84255309  1
  Ca  Ca3  1  0.99269019  0.25000000  0.34255309  1
  La  La4  1  0.49679142  0.75000000  0.49410771  1
  La  La5  1  0.49334309  0.75000000  0.82384073  1
  La  La6  1  0.00665691  0.75000000  0.32384073  1
  La  La7  1  0.00320858  0.75000000  0.99410771  1
  La  La8  1  0.50665691  0.25000000  0.17615927  1
  La  La9  1  0.50320858  0.25000000  0.50589229  1
  La  La10  1  0.99679142  0.25000000  0.00589229  1
  La  La11  1  0.99334309  0.25000000  0.67615927  1
  Mn  Mn12  1  0.00051470  0.99905678  0.16745519  1
  Mn  Mn13  1  -0.00000000  0.00000000  0.50000000  1
  Mn  Mn14  1  0.99948530  0.00094322  0.83254481  1
  Mn  Mn15  1  0.50051470  0.49905678  0.33254481  1
  Mn  Mn16  1  0.49948530  0.50094322  0.66745519  1
  Mn  Mn17  1  0.50000000  0.50000000  -0.00000000  1
  Mn  Mn18  1  0.00051470  0.50094322  0.16745519  1
  Mn  Mn19  1  -0.00000000  0.50000000  0.50000000  1
  Mn  Mn20  1  0.99948530  0.49905678  0.83254481  1
  Mn  Mn21  1  0.50000000  0.00000000  0.00000000  1
  Mn  Mn22  1  0.50051470  0.00094322  0.33254481  1
  Mn  Mn23  1  0.49948530  0.99905678  0.66745519  1
  O  O24  1  0.78056587  0.04063007  0.26059674  1
  O  O25  1  0.77194236  0.03895419  0.59179734  1
  O  O26  1  0.77825271  0.03325526  0.92644555  1
  O  O27  1  0.72805764  0.46104581  0.09179734  1
  O  O28  1  0.72174729  0.46674474  0.42644555  1
  O  O29  1  0.71943413  0.45936993  0.76059674  1
  O  O30  1  0.22174729  0.53325526  0.07355445  1
  O  O31  1  0.22805764  0.53895419  0.40820266  1
  O  O32  1  0.21943413  0.54063007  0.73940326  1
  O  O33  1  0.28056587  0.95936993  0.23940326  1
  O  O34  1  0.27825271  0.96674474  0.57355445  1
  O  O35  1  0.27194236  0.96104581  0.90820266  1
  O  O36  1  0.22174729  0.96674474  0.07355445  1
  O  O37  1  0.22805764  0.96104581  0.40820266  1
  O  O38  1  0.21943413  0.95936993  0.73940326  1
  O  O39  1  0.28056587  0.54063007  0.23940326  1
  O  O40  1  0.27825271  0.53325526  0.57355445  1
  O  O41  1  0.27194236  0.53895419  0.90820266  1
  O  O42  1  0.78056587  0.45936993  0.26059674  1
  O  O43  1  0.77194236  0.46104581  0.59179734  1
  O  O44  1  0.77825271  0.46674474  0.92644555  1
  O  O45  1  0.72805764  0.03895419  0.09179734  1
  O  O46  1  0.72174729  0.03325526  0.42644555  1
  O  O47  1  0.71943413  0.04063007  0.76059674  1
  O  O48  1  0.56680046  0.75000000  0.00277074  1
  O  O49  1  0.57068661  0.75000000  0.33954044  1
  O  O50  1  0.57803379  0.75000000  0.67070433  1
  O  O51  1  0.92196621  0.75000000  0.17070433  1
  O  O52  1  0.93319954  0.75000000  0.50277074  1
  O  O53  1  0.92931339  0.75000000  0.83954044  1
  O  O54  1  0.42196621  0.25000000  0.32929567  1
  O  O55  1  0.42931339  0.25000000  0.66045956  1
  O  O56  1  0.43319954  0.25000000  0.99722926  1
  O  O57  1  0.07068661  0.25000000  0.16045956  1
  O  O58  1  0.06680046  0.25000000  0.49722926  1
  O  O59  1  0.07803379  0.25000000  0.82929567  1
