# generated using pymatgen
data_Te4MoW3(SeS)2
_symmetry_space_group_name_H-M   'P 1'
_cell_length_a   3.40008895
_cell_length_b   3.40012110
_cell_length_c   38.82667331
_cell_angle_alpha   90.00000988
_cell_angle_beta   90.00000000
_cell_angle_gamma   119.99968714
_symmetry_Int_Tables_number   1
_chemical_formula_structural   Te4MoW3(SeS)2
_chemical_formula_sum   'Te4 Mo1 W3 Se2 S2'
_cell_volume   388.72891511
_cell_formula_units_Z   1
loop_
 _symmetry_equiv_pos_site_id
 _symmetry_equiv_pos_as_xyz
  1  'x, y, z'
loop_
 _atom_site_type_symbol
 _atom_site_label
 _atom_site_symmetry_multiplicity
 _atom_site_fract_x
 _atom_site_fract_y
 _atom_site_fract_z
 _atom_site_occupancy
  Te  Te0  1  0.33335098  0.66670296  0.70613229  1
  Te  Te1  1  0.66664174  0.33328249  0.42105059  1
  Te  Te2  1  0.66663283  0.33326466  0.51801293  1
  Te  Te3  1  0.33335711  0.66671521  0.60918972  1
  Mo  Mo4  1  0.66669023  0.33338046  0.28178082  1
  W  W5  1  0.33331233  0.66662467  0.09392563  1
  W  W6  1  0.33330191  0.66660383  0.46951542  1
  W  W7  1  0.66668956  0.33337912  0.65768298  1
  Se  Se8  1  0.66665067  0.33330034  0.05125060  1
  Se  Se9  1  0.66664676  0.33329251  0.13661468  1
  S  S10  1  0.33335699  0.66671498  0.32049491  1
  S  S11  1  0.33336888  0.66673877  0.24309742  1
