# generated using pymatgen
data_CaSmMgNbO6
_symmetry_space_group_name_H-M   'P 1'
_cell_length_a   5.50178607
_cell_length_b   5.72762514
_cell_length_c   7.89615101
_cell_angle_alpha   90.00000000
_cell_angle_beta   90.23712740
_cell_angle_gamma   90.00000000
_symmetry_Int_Tables_number   1
_chemical_formula_structural   CaSmMgNbO6
_chemical_formula_sum   'Ca2 Sm2 Mg2 Nb2 O12'
_cell_volume   248.82270782
_cell_formula_units_Z   2
loop_
 _symmetry_equiv_pos_site_id
 _symmetry_equiv_pos_as_xyz
  1  'x, y, z'
loop_
 _atom_site_type_symbol
 _atom_site_label
 _atom_site_symmetry_multiplicity
 _atom_site_fract_x
 _atom_site_fract_y
 _atom_site_fract_z
 _atom_site_occupancy
  Ca  Ca0  1  0.51189079  0.94780033  0.24868704  1
  Ca  Ca1  1  0.01189079  0.55219967  0.74868704  1
  Sm  Sm2  1  0.48508756  0.06178778  0.75280717  1
  Sm  Sm3  1  0.98508756  0.43821222  0.25280717  1
  Mg  Mg4  1  0.99853663  0.99684132  0.50026906  1
  Mg  Mg5  1  0.49853663  0.50315868  0.00026906  1
  Nb  Nb6  1  0.49943432  0.50454709  0.50084542  1
  Nb  Nb7  1  0.99943432  0.99545291  0.00084542  1
  O  O8  1  0.81376175  0.70136246  0.05700697  1
  O  O9  1  0.31376175  0.79863754  0.55700697  1
  O  O10  1  0.19531632  0.28798437  0.94466092  1
  O  O11  1  0.69531632  0.21201563  0.44466092  1
  O  O12  1  0.80037204  0.69108535  0.44718200  1
  O  O13  1  0.30037204  0.80891465  0.94718200  1
  O  O14  1  0.20663597  0.30374062  0.54853506  1
  O  O15  1  0.70663597  0.19625938  0.04853506  1
  O  O16  1  0.39241561  0.53665591  0.25513380  1
  O  O17  1  0.89241561  0.96334409  0.75513380  1
  O  O18  1  0.59654902  0.46285636  0.74487256  1
  O  O19  1  0.09654902  0.03714364  0.24487256  1
