# generated using pymatgen
data_Ca5(Si2Au3)2
_symmetry_space_group_name_H-M   'P 1'
_cell_length_a   4.48181205
_cell_length_b   5.77013616
_cell_length_c   26.65309018
_cell_angle_alpha   84.27594857
_cell_angle_beta   94.82293829
_cell_angle_gamma   112.85266411
_symmetry_Int_Tables_number   1
_chemical_formula_structural   Ca5(Si2Au3)2
_chemical_formula_sum   'Ca10 Si8 Au12'
_cell_volume   631.22347008
_cell_formula_units_Z   2
loop_
 _symmetry_equiv_pos_site_id
 _symmetry_equiv_pos_as_xyz
  1  'x, y, z'
loop_
 _atom_site_type_symbol
 _atom_site_label
 _atom_site_symmetry_multiplicity
 _atom_site_fract_x
 _atom_site_fract_y
 _atom_site_fract_z
 _atom_site_occupancy
  Ca  Ca0  1  0.02466423  0.20291088  0.84641757  1
  Ca  Ca1  1  0.82270718  0.20500806  0.44040630  1
  Ca  Ca2  1  0.42105000  0.19862652  0.64347347  1
  Ca  Ca3  1  0.62467738  0.20588463  0.04347014  1
  Ca  Ca4  1  0.22287827  0.20430885  0.24144770  1
  Ca  Ca5  1  0.77487208  0.62492179  0.92482238  1
  Ca  Ca6  1  0.57325799  0.62338420  0.52313179  1
  Ca  Ca7  1  0.17150203  0.62161254  0.72139152  1
  Ca  Ca8  1  0.37566973  0.62471338  0.12662609  1
  Ca  Ca9  1  0.97818518  0.63044175  0.32592861  1
  Si  Si10  1  0.33425908  0.65902301  0.00949516  1
  Si  Si11  1  0.93032936  0.65709084  0.20356788  1
  Si  Si12  1  0.53079451  0.65934076  0.40224827  1
  Si  Si13  1  0.12764729  0.65675906  0.59853551  1
  Si  Si14  1  0.73590036  0.66626386  0.80553687  1
  Si  Si15  1  0.07193578  0.01082703  0.13304452  1
  Si  Si16  1  0.67302124  0.01407429  0.33196819  1
  Si  Si17  1  0.27244711  0.01482656  0.53006766  1
  Au  Au18  1  0.86887137  0.00937437  0.72836837  1
  Au  Au19  1  0.46833014  0.00490589  0.93175440  1
  Au  Au20  1  0.68976181  0.22070353  0.15882008  1
  Au  Au21  1  0.29137393  0.22655495  0.35619291  1
  Au  Au22  1  0.88986631  0.22489735  0.55483526  1
  Au  Au23  1  0.51349882  0.26328119  0.76371644  1
  Au  Au24  1  0.11162500  0.25853746  0.96471254  1
  Au  Au25  1  0.91680121  0.78683446  0.04676797  1
  Au  Au26  1  0.51358412  0.78165445  0.24551379  1
  Au  Au27  1  0.11365165  0.78322498  0.44407832  1
  Au  Au28  1  0.70200471  0.76845120  0.63555822  1
  Au  Au29  1  0.30703210  0.77856214  0.83550207  1
