# generated using pymatgen
data_CaGaBiB2O7
_symmetry_space_group_name_H-M   'P 1'
_cell_length_a   4.83304198
_cell_length_b   7.48629614
_cell_length_c   7.48629614
_cell_angle_alpha   89.97110145
_cell_angle_beta   90.01869695
_cell_angle_gamma   90.01869695
_symmetry_Int_Tables_number   1
_chemical_formula_structural   CaGaBiB2O7
_chemical_formula_sum   'Ca2 Ga2 Bi2 B4 O14'
_cell_volume   270.86598551
_cell_formula_units_Z   2
loop_
 _symmetry_equiv_pos_site_id
 _symmetry_equiv_pos_as_xyz
  1  'x, y, z'
loop_
 _atom_site_type_symbol
 _atom_site_label
 _atom_site_symmetry_multiplicity
 _atom_site_fract_x
 _atom_site_fract_y
 _atom_site_fract_z
 _atom_site_occupancy
  Ca  Ca0  1  0.49405419  0.83537359  0.33537359  1
  Ca  Ca1  1  0.49076030  0.16065579  0.66065579  1
  Ga  Ga2  1  0.99700784  0.49863156  0.49775556  1
  Ga  Ga3  1  0.99700784  0.99775556  0.99863156  1
  Bi  Bi4  1  0.50097214  0.33071554  0.16514189  1
  Bi  Bi5  1  0.50097214  0.66514189  0.83071554  1
  B  B6  1  0.05268020  0.63275582  0.13275582  1
  B  B7  1  0.94233720  0.86828956  0.62924655  1
  B  B8  1  0.05072739  0.36431649  0.86431649  1
  B  B9  1  0.94233720  0.12924655  0.36828956  1
  O  O10  1  0.15143118  0.49840819  0.99840819  1
  O  O11  1  0.83891523  0.99913178  0.49913178  1
  O  O12  1  0.76077406  0.64597928  0.14597928  1
  O  O13  1  0.23763081  0.85585815  0.64247111  1
  O  O14  1  0.75795404  0.35168153  0.85168153  1
  O  O15  1  0.23763081  0.14247111  0.35585815  1
  O  O16  1  0.79082660  0.30433514  0.41999994  1
  O  O17  1  0.20165992  0.19204075  0.92009628  1
  O  O18  1  0.79194202  0.69314100  0.57625989  1
  O  O19  1  0.20457518  0.80494527  0.07706933  1
  O  O20  1  0.20457518  0.57706933  0.30494527  1
  O  O21  1  0.79082660  0.91999994  0.80433514  1
  O  O22  1  0.20165992  0.42009628  0.69204075  1
  O  O23  1  0.79194202  0.07625989  0.19314100  1
