# generated using pymatgen
data_Ca3Mg2Fe(CO3)6
_symmetry_space_group_name_H-M   'P 1'
_cell_length_a   4.89074706
_cell_length_b   6.09229168
_cell_length_c   12.49030424
_cell_angle_alpha   80.03377294
_cell_angle_beta   89.84001816
_cell_angle_gamma   113.55337214
_symmetry_Int_Tables_number   1
_chemical_formula_structural   Ca3Mg2Fe(CO3)6
_chemical_formula_sum   'Ca3 Mg2 Fe1 C6 O18'
_cell_volume   334.93737723
_cell_formula_units_Z   1
loop_
 _symmetry_equiv_pos_site_id
 _symmetry_equiv_pos_as_xyz
  1  'x, y, z'
loop_
 _atom_site_type_symbol
 _atom_site_label
 _atom_site_symmetry_multiplicity
 _atom_site_fract_x
 _atom_site_fract_y
 _atom_site_fract_z
 _atom_site_occupancy
  Ca  Ca0  1  0.99999257  0.99929738  0.99972848  1
  Ca  Ca1  1  0.33334043  0.66736962  0.33360452  1
  Ca  Ca2  1  0.66666700  0.33333300  0.66666700  1
  Mg  Mg3  1  -0.00004155  0.99969887  0.49995405  1
  Mg  Mg4  1  0.33337455  0.66696813  0.83337895  1
  Fe  Fe5  1  0.66666700  0.33333300  0.16666700  1
  C  C6  1  0.00752998  0.01584220  0.25262459  1
  C  C7  1  0.34276488  0.68534045  0.58570426  1
  C  C8  1  0.67573419  0.35199861  0.91845495  1
  C  C9  1  0.99056912  0.98132555  0.74762974  1
  C  C10  1  0.32580302  0.65082480  0.08070841  1
  C  C11  1  0.65759881  0.31466839  0.41487805  1
  O  O12  1  0.54005675  0.76547171  0.50259991  1
  O  O13  1  0.87293764  0.43262468  0.83539520  1
  O  O14  1  0.19884676  0.09513257  0.16819063  1
  O  O15  1  0.07197060  0.92369854  0.34557389  1
  O  O16  1  0.40170975  0.58871536  0.67917531  1
  O  O17  1  0.73548312  0.25315319  0.01110217  1
  O  O18  1  0.08230417  0.69335868  0.57438399  1
  O  O19  1  0.41648374  0.36078013  0.90789347  1
  O  O20  1  0.74602682  0.02000590  0.24323382  1
  O  O21  1  0.46039536  0.23404232  0.49793780  1
  O  O22  1  0.79327725  0.90119429  0.83073409  1
  O  O23  1  0.13448624  0.57153443  0.16514237  1
  O  O24  1  0.93162325  0.07795164  0.65415769  1
  O  O25  1  0.26136240  0.74296846  0.98775911  1
  O  O26  1  0.59785088  0.41351281  0.32223183  1
  O  O27  1  0.91684926  0.30588687  0.42543953  1
  O  O28  1  0.25102883  0.97330832  0.75894901  1
  O  O29  1  0.58730718  0.64666010  0.09010018  1
