# generated using pymatgen
data_Te4MoW3(SeS)2
_symmetry_space_group_name_H-M   'P 1'
_cell_length_a   3.40119435
_cell_length_b   3.40118139
_cell_length_c   38.74681208
_cell_angle_alpha   89.99997293
_cell_angle_beta   90.00000000
_cell_angle_gamma   120.00012594
_symmetry_Int_Tables_number   1
_chemical_formula_structural   Te4MoW3(SeS)2
_chemical_formula_sum   'Te4 Mo1 W3 Se2 S2'
_cell_volume   388.17476636
_cell_formula_units_Z   1
loop_
 _symmetry_equiv_pos_site_id
 _symmetry_equiv_pos_as_xyz
  1  'x, y, z'
loop_
 _atom_site_type_symbol
 _atom_site_label
 _atom_site_symmetry_multiplicity
 _atom_site_fract_x
 _atom_site_fract_y
 _atom_site_fract_z
 _atom_site_occupancy
  Te  Te0  1  0.33335442  0.66670983  0.70610951  1
  Te  Te1  1  0.66664433  0.33328766  0.04532469  1
  Te  Te2  1  0.66664724  0.33329347  0.14253827  1
  Te  Te3  1  0.33335475  0.66671049  0.60898136  1
  Mo  Mo4  1  0.66669124  0.33338248  0.28179454  1
  W  W5  1  0.33331039  0.66662078  0.09390476  1
  W  W6  1  0.33331126  0.66662252  0.46964923  1
  W  W7  1  0.66668887  0.33337774  0.65756481  1
  Se  Se8  1  0.66665129  0.33330157  0.42696556  1
  Se  Se9  1  0.66663427  0.33326753  0.51232533  1
  S  S10  1  0.33335647  0.66671394  0.32054273  1
  S  S11  1  0.33335549  0.66671199  0.24304721  1
