# generated using pymatgen
data_CsRe2OsSe4Cl3
_symmetry_space_group_name_H-M   'P 1'
_cell_length_a   10.51436986
_cell_length_b   10.52393027
_cell_length_c   15.57382257
_cell_angle_alpha   90.20770288
_cell_angle_beta   90.40562910
_cell_angle_gamma   60.02408419
_symmetry_Int_Tables_number   1
_chemical_formula_structural   CsRe2OsSe4Cl3
_chemical_formula_sum   'Cs4 Re8 Os4 Se16 Cl12'
_cell_volume   1492.73091449
_cell_formula_units_Z   4
loop_
 _symmetry_equiv_pos_site_id
 _symmetry_equiv_pos_as_xyz
  1  'x, y, z'
loop_
 _atom_site_type_symbol
 _atom_site_label
 _atom_site_symmetry_multiplicity
 _atom_site_fract_x
 _atom_site_fract_y
 _atom_site_fract_z
 _atom_site_occupancy
  Cs  Cs0  1  0.99923460  0.00009951  0.50001737  1
  Cs  Cs1  1  0.99932670  0.99987887  0.00001159  1
  Cs  Cs2  1  0.33434745  0.33298601  0.75000816  1
  Cs  Cs3  1  0.66730736  0.66700465  0.25000260  1
  Re  Re4  1  0.66545449  0.81143140  0.68132950  1
  Re  Re5  1  0.52172581  0.66635195  0.68059614  1
  Re  Re6  1  0.47689980  0.18855270  0.18130077  1
  Re  Re7  1  0.18806795  0.33366565  0.18057502  1
  Re  Re8  1  0.18889662  0.47739821  0.31867458  1
  Re  Re9  1  0.47780108  0.33398615  0.31931899  1
  Re  Re10  1  0.66631014  0.52262515  0.81867965  1
  Re  Re11  1  0.81179269  0.66601134  0.81933676  1
  Os  Os12  1  0.81286278  0.52071837  0.67980127  1
  Os  Os13  1  0.33357037  0.47927190  0.17980126  1
  Os  Os14  1  0.33403892  0.18668794  0.32027765  1
  Os  Os15  1  0.52070183  0.81333622  0.82030618  1
  Se  Se16  1  0.66759930  0.66485366  0.55087915  1
  Se  Se17  1  0.33246674  0.33512503  0.05086913  1
  Se  Se18  1  0.33427407  0.33142588  0.44911282  1
  Se  Se19  1  0.66568665  0.66860094  0.94913584  1
  Se  Se20  1  0.94379502  0.66542832  0.68231269  1
  Se  Se21  1  0.38671621  0.94454626  0.68482803  1
  Se  Se22  1  0.67020659  0.38798556  0.68114929  1
  Se  Se23  1  0.33126925  0.05548009  0.18478614  1
  Se  Se24  1  0.60923483  0.33453409  0.18229251  1
  Se  Se25  1  0.05815904  0.61203097  0.18114620  1
  Se  Se26  1  0.05859210  0.32898639  0.31753730  1
  Se  Se27  1  0.60971556  0.05589995  0.31885781  1
  Se  Se28  1  0.33235243  0.61232686  0.31532043  1
  Se  Se29  1  0.66559612  0.94408702  0.81889992  1
  Se  Se30  1  0.38756220  0.67105432  0.81755895  1
  Se  Se31  1  0.94472534  0.38766386  0.81531523  1
  Cl  Cl32  1  0.00473788  0.33362859  0.59332830  1
  Cl  Cl33  1  0.66173803  0.00267307  0.59488882  1
  Cl  Cl34  1  0.33451697  0.66084344  0.59272162  1
  Cl  Cl35  1  0.66443703  0.99728293  0.09484224  1
  Cl  Cl36  1  0.33837900  0.66632556  0.09334125  1
  Cl  Cl37  1  0.99535547  0.33915286  0.09270957  1
  Cl  Cl38  1  0.99736147  0.66451459  0.40521434  1
  Cl  Cl39  1  0.33970719  0.99500528  0.40755543  1
  Cl  Cl40  1  0.66652629  0.33781791  0.40626660  1
  Cl  Cl41  1  0.33465898  0.00504962  0.90759601  1
  Cl  Cl42  1  0.66190567  0.33551655  0.90521245  1
  Cl  Cl43  1  0.00438494  0.66215637  0.90628442  1
