# generated using pymatgen
data_BaPPd
_symmetry_space_group_name_H-M   'P 1'
_cell_length_a   6.29757475
_cell_length_b   6.34766979
_cell_length_c   7.99048444
_cell_angle_alpha   90.00000000
_cell_angle_beta   90.00000000
_cell_angle_gamma   102.39163515
_symmetry_Int_Tables_number   1
_chemical_formula_structural   BaPPd
_chemical_formula_sum   'Ba4 P4 Pd4'
_cell_volume   311.97770864
_cell_formula_units_Z   4
loop_
 _symmetry_equiv_pos_site_id
 _symmetry_equiv_pos_as_xyz
  1  'x, y, z'
loop_
 _atom_site_type_symbol
 _atom_site_label
 _atom_site_symmetry_multiplicity
 _atom_site_fract_x
 _atom_site_fract_y
 _atom_site_fract_z
 _atom_site_occupancy
  Ba  Ba0  1  0.18834538  0.81321573  0.50196163  1
  Ba  Ba1  1  0.68834538  0.31321573  0.99803837  1
  Ba  Ba2  1  0.81165462  0.18678427  0.49803837  1
  Ba  Ba3  1  0.31165462  0.68678427  0.00196163  1
  P  P4  1  0.15219695  0.19554380  0.82788400  1
  P  P5  1  0.65219695  0.69554380  0.67211600  1
  P  P6  1  0.84780305  0.80445620  0.17211600  1
  P  P7  1  0.34780305  0.30445620  0.32788400  1
  Pd  Pd8  1  0.37981380  0.37660856  0.62289436  1
  Pd  Pd9  1  0.62018620  0.62339144  0.37710564  1
  Pd  Pd10  1  0.12018620  0.12339144  0.12289436  1
  Pd  Pd11  1  0.87981380  0.87660856  0.87710564  1
