# generated using pymatgen
data_Ba3YIrRuO9
_symmetry_space_group_name_H-M   'P 1'
_cell_length_a   5.94652824
_cell_length_b   5.94652824
_cell_length_c   14.73417870
_cell_angle_alpha   90.00000000
_cell_angle_beta   90.00000000
_cell_angle_gamma   119.98559829
_symmetry_Int_Tables_number   1
_chemical_formula_structural   Ba3YIrRuO9
_chemical_formula_sum   'Ba6 Y2 Ir2 Ru2 O18'
_cell_volume   451.28047340
_cell_formula_units_Z   2
loop_
 _symmetry_equiv_pos_site_id
 _symmetry_equiv_pos_as_xyz
  1  'x, y, z'
loop_
 _atom_site_type_symbol
 _atom_site_label
 _atom_site_symmetry_multiplicity
 _atom_site_fract_x
 _atom_site_fract_y
 _atom_site_fract_z
 _atom_site_occupancy
  Ba  Ba0  1  0.66664002  0.33335998  0.40456214  1
  Ba  Ba1  1  0.33333960  0.66666040  0.59601238  1
  Ba  Ba2  1  0.33335998  0.66664002  0.90456214  1
  Ba  Ba3  1  0.66666040  0.33333960  0.09601238  1
  Ba  Ba4  1  0.00001793  0.99998207  0.74981333  1
  Ba  Ba5  1  0.99998207  0.00001793  0.24981333  1
  Y  Y6  1  -0.00000064  0.00000064  0.50123716  1
  Y  Y7  1  0.00000064  -0.00000064  0.00123716  1
  Ir  Ir8  1  0.66669687  0.33330313  0.66489487  1
  Ir  Ir9  1  0.33330313  0.66669687  0.16489487  1
  Ru  Ru10  1  0.33329860  0.66670140  0.33638241  1
  Ru  Ru11  1  0.66670140  0.33329860  0.83638241  1
  O  O12  1  0.50960408  0.01946151  0.75049258  1
  O  O13  1  0.50971926  0.49028074  0.75054746  1
  O  O14  1  0.98053849  0.49039592  0.75049258  1
  O  O15  1  0.49039592  0.98053849  0.25049258  1
  O  O16  1  0.49028074  0.50971926  0.25054746  1
  O  O17  1  0.01946151  0.50960408  0.25049258  1
  O  O18  1  0.82405720  0.64803172  0.91063251  1
  O  O19  1  0.82396404  0.17603596  0.91068362  1
  O  O20  1  0.35196828  0.17594280  0.91063251  1
  O  O21  1  0.17528330  0.35060165  0.08787158  1
  O  O22  1  0.17528177  0.82471823  0.08787331  1
  O  O23  1  0.64939835  0.82471670  0.08787158  1
  O  O24  1  0.17594280  0.35196828  0.41063251  1
  O  O25  1  0.17603596  0.82396404  0.41068362  1
  O  O26  1  0.64803172  0.82405720  0.41063251  1
  O  O27  1  0.82471670  0.64939835  0.58787158  1
  O  O28  1  0.82471823  0.17528177  0.58787331  1
  O  O29  1  0.35060165  0.17528330  0.58787158  1
