# generated using pymatgen
data_Ca5As3HO13
_symmetry_space_group_name_H-M   'P 1'
_cell_length_a   7.00853146
_cell_length_b   9.92233088
_cell_length_c   9.92239511
_cell_angle_alpha   120.00031741
_cell_angle_beta   90.00000000
_cell_angle_gamma   90.00000000
_symmetry_Int_Tables_number   1
_chemical_formula_structural   Ca5As3HO13
_chemical_formula_sum   'Ca10 As6 H2 O26'
_cell_volume   597.56684268
_cell_formula_units_Z   2
loop_
 _symmetry_equiv_pos_site_id
 _symmetry_equiv_pos_as_xyz
  1  'x, y, z'
loop_
 _atom_site_type_symbol
 _atom_site_label
 _atom_site_symmetry_multiplicity
 _atom_site_fract_x
 _atom_site_fract_y
 _atom_site_fract_z
 _atom_site_occupancy
  Ca  Ca0  1  0.50126972  0.66666587  0.33333197  1
  Ca  Ca1  1  0.00126972  0.33333413  0.66666803  1
  Ca  Ca2  1  0.49803534  0.33333446  0.66666690  1
  Ca  Ca3  1  0.99803534  0.66666554  0.33333310  1
  Ca  Ca4  1  0.74913046  0.24186610  0.99168207  1
  Ca  Ca5  1  0.74912898  0.00831855  0.25019118  1
  Ca  Ca6  1  0.74913030  0.74981463  0.75813173  1
  Ca  Ca7  1  0.24913046  0.75813390  0.00831793  1
  Ca  Ca8  1  0.24912898  0.99168145  0.74980882  1
  Ca  Ca9  1  0.24913030  0.25018537  0.24186827  1
  As  As10  1  0.74858303  0.02707448  0.62886671  1
  As  As11  1  0.74858358  0.37113128  0.39820745  1
  As  As12  1  0.74858398  0.60178987  0.97292162  1
  As  As13  1  0.24858303  0.97292552  0.37113329  1
  As  As14  1  0.24858358  0.62886872  0.60179255  1
  As  As15  1  0.24858398  0.39821013  0.02707838  1
  H  H16  1  0.57471851  0.99999958  0.00000281  1
  H  H17  1  0.07471851  0.00000042  0.99999719  1
  O  O18  1  0.75073294  0.13146106  0.53161013  1
  O  O19  1  0.75073499  0.46839876  0.59985074  1
  O  O20  1  0.75073490  0.40014479  0.86854007  1
  O  O21  1  0.25073294  0.86853894  0.46838987  1
  O  O22  1  0.25073499  0.53160124  0.40014926  1
  O  O23  1  0.25073490  0.59985521  0.13145993  1
  O  O24  1  0.74877746  0.83035514  0.50441705  1
  O  O25  1  0.74877734  0.49557329  0.32593047  1
  O  O26  1  0.74877728  0.67406808  0.16964088  1
  O  O27  1  0.24877746  0.16964486  0.49558295  1
  O  O28  1  0.24877734  0.50442671  0.67406953  1
  O  O29  1  0.24877728  0.32593192  0.83035912  1
  O  O30  1  0.55371002  0.09171996  0.75041961  1
  O  O31  1  0.55371186  0.24957637  0.34130455  1
  O  O32  1  0.55370913  0.65869311  0.90827364  1
  O  O33  1  0.05371002  0.90828004  0.24958039  1
  O  O34  1  0.05371186  0.75042363  0.65869545  1
  O  O35  1  0.05370913  0.34130689  0.09172636  1
  O  O36  1  0.44129894  0.91050393  0.24687138  1
  O  O37  1  0.44129783  0.75313359  0.66362914  1
  O  O38  1  0.44130075  0.33637457  0.08950449  1
  O  O39  1  0.94129894  0.08949607  0.75312862  1
  O  O40  1  0.94129783  0.24686641  0.33637086  1
  O  O41  1  0.94130075  0.66362543  0.91049551  1
  O  O42  1  0.71417267  0.99999744  0.00000230  1
  O  O43  1  0.21417267  0.00000256  0.99999770  1
