# generated using pymatgen
data_CeGa2Co3
_symmetry_space_group_name_H-M   'P 1'
_cell_length_a   4.13889571
_cell_length_b   8.67311075
_cell_length_c   8.67311069
_cell_angle_alpha   59.98037028
_cell_angle_beta   90.00000000
_cell_angle_gamma   90.00000000
_symmetry_Int_Tables_number   1
_chemical_formula_structural   CeGa2Co3
_chemical_formula_sum   'Ce3 Ga6 Co9'
_cell_volume   269.57459277
_cell_formula_units_Z   3
loop_
 _symmetry_equiv_pos_site_id
 _symmetry_equiv_pos_as_xyz
  1  'x, y, z'
loop_
 _atom_site_type_symbol
 _atom_site_label
 _atom_site_symmetry_multiplicity
 _atom_site_fract_x
 _atom_site_fract_y
 _atom_site_fract_z
 _atom_site_occupancy
  Ce  Ce0  1  0.50000000  0.33315597  0.33353237  1
  Ce  Ce1  1  0.50000000  0.66646763  0.66684403  1
  Ce  Ce2  1  0.00000000  -0.00000611  0.00000611  1
  Ga  Ga3  1  0.00000000  0.50614822  0.49385178  1
  Ga  Ga4  1  0.00000000  0.49374963  0.00018548  1
  Ga  Ga5  1  0.00000000  0.99981452  0.50625037  1
  Ga  Ga6  1  0.50000000  0.27456296  0.72543704  1
  Ga  Ga7  1  0.50000000  0.72553789  0.99999542  1
  Ga  Ga8  1  0.50000000  0.00000458  0.27446211  1
  Co  Co9  1  -0.00000000  0.17498538  0.17729503  1
  Co  Co10  1  -0.00000000  0.17721555  0.64774288  1
  Co  Co11  1  -0.00000000  0.64794268  0.17489296  1
  Co  Co12  1  -0.00000000  0.82270497  0.82501462  1
  Co  Co13  1  -0.00000000  0.35225712  0.82278445  1
  Co  Co14  1  0.00000000  0.82510704  0.35205732  1
  Co  Co15  1  0.50000000  0.69420361  0.30579639  1
  Co  Co16  1  0.50000000  0.30596777  0.99991943  1
  Co  Co17  1  0.50000000  0.00008057  0.69403223  1
