# generated using pymatgen
data_CaHo2(GeO3)4
_symmetry_space_group_name_H-M   'P 1'
_cell_length_a   5.09552951
_cell_length_b   10.09423252
_cell_length_c   10.09423252
_cell_angle_alpha   90.13380592
_cell_angle_beta   90.00000000
_cell_angle_gamma   90.00000000
_symmetry_Int_Tables_number   1
_chemical_formula_structural   CaHo2(GeO3)4
_chemical_formula_sum   'Ca2 Ho4 Ge8 O24'
_cell_volume   519.20007418
_cell_formula_units_Z   2
loop_
 _symmetry_equiv_pos_site_id
 _symmetry_equiv_pos_as_xyz
  1  'x, y, z'
loop_
 _atom_site_type_symbol
 _atom_site_label
 _atom_site_symmetry_multiplicity
 _atom_site_fract_x
 _atom_site_fract_y
 _atom_site_fract_z
 _atom_site_occupancy
  Ca  Ca0  1  0.50000000  0.50000000  0.50000000  1
  Ca  Ca1  1  0.50000000  -0.00000000  0.00000000  1
  Ho  Ho2  1  0.50000000  -0.00000000  0.50000000  1
  Ho  Ho3  1  0.50000000  0.50000000  0.00000000  1
  Ho  Ho4  1  0.50000000  0.75000000  0.75000000  1
  Ho  Ho5  1  0.50000000  0.25000000  0.25000000  1
  Ge  Ge6  1  0.99716125  0.75032814  0.02061374  1
  Ge  Ge7  1  0.00283875  0.24967186  0.97938626  1
  Ge  Ge8  1  0.00283875  0.25032814  0.52061374  1
  Ge  Ge9  1  0.99716125  0.74967186  0.47938626  1
  Ge  Ge10  1  0.00283875  0.02061374  0.75032814  1
  Ge  Ge11  1  0.99716125  0.97938626  0.24967186  1
  Ge  Ge12  1  0.99716125  0.52061374  0.25032814  1
  Ge  Ge13  1  0.00283875  0.47938626  0.74967186  1
  O  O14  1  0.15196063  0.87029194  0.12970806  1
  O  O15  1  0.16579351  0.37627075  0.87627075  1
  O  O16  1  0.16579351  0.12372925  0.62372925  1
  O  O17  1  0.15196063  0.62970806  0.37029194  1
  O  O18  1  0.84803937  0.12970806  0.87029194  1
  O  O19  1  0.83420649  0.62372925  0.12372925  1
  O  O20  1  0.83420649  0.87627075  0.37627075  1
  O  O21  1  0.84803937  0.37029194  0.62970806  1
  O  O22  1  0.25360018  0.56870151  0.67704332  1
  O  O23  1  0.26012495  0.05853681  0.32777428  1
  O  O24  1  0.26012495  0.44146319  0.17222572  1
  O  O25  1  0.25360018  0.93129849  0.82295668  1
  O  O26  1  0.74639982  0.43129849  0.32295668  1
  O  O27  1  0.73987505  0.94146319  0.67222572  1
  O  O28  1  0.73987505  0.55853681  0.82777428  1
  O  O29  1  0.74639982  0.06870151  0.17704332  1
  O  O30  1  0.74639982  0.67704332  0.56870151  1
  O  O31  1  0.73987505  0.32777428  0.05853681  1
  O  O32  1  0.73987505  0.17222572  0.44146319  1
  O  O33  1  0.74639982  0.82295668  0.93129849  1
  O  O34  1  0.25360018  0.32295668  0.43129849  1
  O  O35  1  0.26012495  0.67222572  0.94146319  1
  O  O36  1  0.26012495  0.82777428  0.55853681  1
  O  O37  1  0.25360018  0.17704332  0.06870151  1
