# generated using pymatgen
data_Ba3Y2MoO9
_symmetry_space_group_name_H-M   'P 1'
_cell_length_a   6.09949880
_cell_length_b   8.64772734
_cell_length_c   10.58033839
_cell_angle_alpha   65.87870284
_cell_angle_beta   73.24697589
_cell_angle_gamma   90.00000000
_symmetry_Int_Tables_number   1
_chemical_formula_structural   Ba3Y2MoO9
_chemical_formula_sum   'Ba6 Y4 Mo2 O18'
_cell_volume   483.27929633
_cell_formula_units_Z   2
loop_
 _symmetry_equiv_pos_site_id
 _symmetry_equiv_pos_as_xyz
  1  'x, y, z'
loop_
 _atom_site_type_symbol
 _atom_site_label
 _atom_site_symmetry_multiplicity
 _atom_site_fract_x
 _atom_site_fract_y
 _atom_site_fract_z
 _atom_site_occupancy
  Ba  Ba0  1  0.50000000  0.26325252  1.00000000  1
  Ba  Ba1  1  0.83859300  0.57969342  0.32281300  1
  Ba  Ba2  1  0.16140700  0.90250742  0.67718700  1
  Ba  Ba3  1  0.50000000  0.73674748  0.00000000  1
  Ba  Ba4  1  0.83859300  0.09749258  0.32281300  1
  Ba  Ba5  1  0.16140700  0.42030658  0.67718700  1
  Y  Y6  1  -0.00000000  0.00000000  -0.00000000  1
  Y  Y7  1  0.32883078  0.32883078  0.34233745  1
  Y  Y8  1  0.67116922  0.67116922  0.65766255  1
  Y  Y9  1  -0.00000000  0.50000000  -0.00000000  1
  Mo  Mo10  1  0.33395890  0.83395890  0.33208120  1
  Mo  Mo11  1  0.66604110  0.16604110  0.66791880  1
  O  O12  1  1.00000000  0.24635869  0.00000000  1
  O  O13  1  0.32977332  0.60147181  0.34045236  1
  O  O14  1  0.67022668  0.94192517  0.65954764  1
  O  O15  1  0.16076051  0.41070376  0.17859348  1
  O  O16  1  0.49011069  0.75991801  0.48016398  1
  O  O17  1  0.81674572  0.08988283  0.82023335  1
  O  O18  1  0.33935300  0.58929624  0.82140652  1
  O  O19  1  0.63698007  0.91011717  0.17976665  1
  O  O20  1  0.97027467  0.24008199  0.51983602  1
  O  O21  1  0.00000000  0.75364131  1.00000000  1
  O  O22  1  0.32977332  0.05807483  0.34045236  1
  O  O23  1  0.67022668  0.39852819  0.65954764  1
  O  O24  1  0.83923949  0.58929624  0.82140652  1
  O  O25  1  0.18325428  0.91011717  0.17976665  1
  O  O26  1  0.50988931  0.24008199  0.51983602  1
  O  O27  1  0.66064700  0.41070376  0.17859348  1
  O  O28  1  0.02972533  0.75991801  0.48016398  1
  O  O29  1  0.36301993  0.08988283  0.82023335  1
