# generated using pymatgen
data_Ba4ScReWO12
_symmetry_space_group_name_H-M   'P 1'
_cell_length_a   5.84647846
_cell_length_b   5.84647845
_cell_length_c   10.02986994
_cell_angle_alpha   90.00000297
_cell_angle_beta   106.94498730
_cell_angle_gamma   59.99999609
_symmetry_Int_Tables_number   1
_chemical_formula_structural   Ba4ScReWO12
_chemical_formula_sum   'Ba4 Sc1 Re1 W1 O12'
_cell_volume   279.58428295
_cell_formula_units_Z   1
loop_
 _symmetry_equiv_pos_site_id
 _symmetry_equiv_pos_as_xyz
  1  'x, y, z'
loop_
 _atom_site_type_symbol
 _atom_site_label
 _atom_site_symmetry_multiplicity
 _atom_site_fract_x
 _atom_site_fract_y
 _atom_site_fract_z
 _atom_site_occupancy
  Ba  Ba0  1  0.41619152  0.29190424  0.12428728  1
  Ba  Ba1  1  0.57867384  0.71066308  0.86801076  1
  Ba  Ba2  1  0.73794546  0.13102727  0.60691819  1
  Ba  Ba3  1  0.26946087  0.86526956  0.40419131  1
  Sc  Sc4  1  0.99681612  0.00159194  0.99522419  1
  Re  Re5  1  0.83908566  0.58045717  0.25862849  1
  W  W6  1  0.15873783  0.42063109  0.73810674  1
  O  O7  1  0.25053314  0.61440396  0.63622359  1
  O  O8  1  0.25062755  0.13506290  0.63622359  1
  O  O9  1  0.77128649  0.61430955  0.63622359  1
  O  O10  1  0.75214420  0.39147012  0.36059777  1
  O  O11  1  0.75206789  0.85638568  0.36059777  1
  O  O12  1  0.21698345  0.39154643  0.36059777  1
  O  O13  1  0.91128127  0.77993097  0.13140812  1
  O  O14  1  0.91133909  0.30878776  0.13140812  1
  O  O15  1  0.44019588  0.77987315  0.13140812  1
  O  O16  1  0.08835799  0.21497712  0.87331486  1
  O  O17  1  0.08829198  0.69666489  0.87331486  1
  O  O18  1  0.56997975  0.21504313  0.87331486  1
