# generated using pymatgen
data_Ba3SrEr2(MoO6)2
_symmetry_space_group_name_H-M   'P 1'
_cell_length_a   5.94562284
_cell_length_b   5.95395044
_cell_length_c   10.31584835
_cell_angle_alpha   73.97258880
_cell_angle_beta   105.99338288
_cell_angle_gamma   119.31874602
_symmetry_Int_Tables_number   1
_chemical_formula_structural   Ba3SrEr2(MoO6)2
_chemical_formula_sum   'Ba3 Sr1 Er2 Mo2 O12'
_cell_volume   301.70649416
_cell_formula_units_Z   1
loop_
 _symmetry_equiv_pos_site_id
 _symmetry_equiv_pos_as_xyz
  1  'x, y, z'
loop_
 _atom_site_type_symbol
 _atom_site_label
 _atom_site_symmetry_multiplicity
 _atom_site_fract_x
 _atom_site_fract_y
 _atom_site_fract_z
 _atom_site_occupancy
  Ba  Ba0  1  0.37461589  0.62474115  0.12412110  1
  Ba  Ba1  1  0.87497027  0.12472292  0.62582339  1
  Ba  Ba2  1  0.12549385  0.87588198  0.37486557  1
  Sr  Sr3  1  0.62480291  0.37423062  0.87531124  1
  Er  Er4  1  0.99977155  0.00050437  0.99916995  1
  Er  Er5  1  0.50029210  0.49940496  0.50093601  1
  Mo  Mo6  1  0.74937782  0.25015572  0.24889828  1
  Mo  Mo7  1  0.25086559  0.74997058  0.75113460  1
  O  O8  1  0.86445985  0.13521997  0.13022102  1
  O  O9  1  0.36662658  0.63171361  0.63492233  1
  O  O10  1  0.63467328  0.36667888  0.36738798  1
  O  O11  1  0.13420471  0.86645139  0.86736813  1
  O  O12  1  0.65676772  0.90050358  0.37882348  1
  O  O13  1  0.16342161  0.39951655  0.87919702  1
  O  O14  1  0.84033181  0.59693412  0.11703432  1
  O  O15  1  0.34258449  0.10051362  0.62183053  1
  O  O16  1  0.11726844  0.39790919  0.36054276  1
  O  O17  1  0.61838147  0.90292333  0.86119585  1
  O  O18  1  0.38234030  0.10255046  0.13822765  1
  O  O19  1  0.87874976  0.59947299  0.64298878  1
