# generated using pymatgen
data_Ba9Ca3La4(Fe4O15)2
_symmetry_space_group_name_H-M   'P 1'
_cell_length_a   7.05238703
_cell_length_b   11.81284994
_cell_length_c   11.82555098
_cell_angle_alpha   119.97027643
_cell_angle_beta   90.00725732
_cell_angle_gamma   89.99467134
_symmetry_Int_Tables_number   1
_chemical_formula_structural   Ba9Ca3La4(Fe4O15)2
_chemical_formula_sum   'Ba9 Ca3 La4 Fe8 O30'
_cell_volume   853.43969209
_cell_formula_units_Z   1
loop_
 _symmetry_equiv_pos_site_id
 _symmetry_equiv_pos_as_xyz
  1  'x, y, z'
loop_
 _atom_site_type_symbol
 _atom_site_label
 _atom_site_symmetry_multiplicity
 _atom_site_fract_x
 _atom_site_fract_y
 _atom_site_fract_z
 _atom_site_occupancy
  Ba  Ba0  1  0.31606498  0.16820648  0.82060987  1
  Ba  Ba1  1  0.32150823  0.65486668  0.82408791  1
  Ba  Ba2  1  0.31856260  0.17160716  0.34754137  1
  Ba  Ba3  1  0.83169783  0.83449931  0.17215077  1
  Ba  Ba4  1  0.82616619  0.34023188  0.17535798  1
  Ba  Ba5  1  0.82866187  0.82798862  0.65958511  1
  Ba  Ba6  1  0.00521668  0.32939652  0.66143415  1
  Ba  Ba7  1  0.50623099  0.66799859  0.33875194  1
  Ba  Ba8  1  0.50032317  0.00020667  0.00029293  1
  Ca  Ca9  1  0.00391101  0.00018599  0.99973442  1
  Ca  Ca10  1  0.64900604  0.48031778  0.51959100  1
  Ca  Ca11  1  0.14839828  0.95964028  0.47972853  1
  La  La12  1  0.65571956  0.04087930  0.52047222  1
  La  La13  1  0.65489738  0.47855639  0.95691178  1
  La  La14  1  0.15494078  0.52114382  0.47864183  1
  La  La15  1  0.15459671  0.52234346  0.04439807  1
  Fe  Fe16  1  0.46509817  0.33414952  0.66386203  1
  Fe  Fe17  1  0.96296270  0.67035924  0.33622180  1
  Fe  Fe18  1  0.83345100  0.17516249  0.82234026  1
  Fe  Fe19  1  0.83040721  0.64468756  0.82032894  1
  Fe  Fe20  1  0.83064411  0.17845781  0.35556218  1
  Fe  Fe21  1  0.32194041  0.82578290  0.17833264  1
  Fe  Fe22  1  0.32477836  0.34993560  0.17611078  1
  Fe  Fe23  1  0.32205755  0.82451508  0.64724177  1
  O  O24  1  0.65095715  0.24838809  0.75384512  1
  O  O25  1  0.64989700  0.50294191  0.75230520  1
  O  O26  1  0.65081963  0.24965655  0.49837058  1
  O  O27  1  0.15059485  0.75023412  0.24856561  1
  O  O28  1  0.15151934  0.49591992  0.24685669  1
  O  O29  1  0.15146332  0.75089324  0.50035646  1
  O  O30  1  0.46187342  0.67276923  0.06242273  1
  O  O31  1  0.46365624  0.38960328  0.32797825  1
  O  O32  1  0.46935733  0.93786273  0.61266743  1
  O  O33  1  0.46295423  0.38972571  0.06183839  1
  O  O34  1  0.46982281  0.93811224  0.32513186  1
  O  O35  1  0.46191511  0.67262773  0.61018463  1
  O  O36  1  0.96503883  0.33177205  0.93609606  1
  O  O37  1  0.97238722  0.60694098  0.67099378  1
  O  O38  1  0.96447112  0.06459800  0.39600214  1
  O  O39  1  0.96414434  0.60430451  0.93540291  1
  O  O40  1  0.96608026  0.06375518  0.66807418  1
  O  O41  1  0.97175582  0.32903931  0.39340064  1
  O  O42  1  0.20832133  0.90666435  0.09305527  1
  O  O43  1  0.20863044  0.18522334  0.09202931  1
  O  O44  1  0.20883693  0.90723102  0.81359987  1
  O  O45  1  0.75956657  0.09003870  0.91135130  1
  O  O46  1  0.75924408  0.81977655  0.91014042  1
  O  O47  1  0.76016506  0.09047562  0.18013921  1
  O  O48  1  0.31481867  0.41654414  0.58490680  1
  O  O49  1  0.32351242  0.16744371  0.58387713  1
  O  O50  1  0.32284153  0.41733528  0.83371156  1
  O  O51  1  0.82344990  0.58342393  0.41632799  1
  O  O52  1  0.81412347  0.83226498  0.41543835  1
  O  O53  1  0.82253976  0.58331444  0.16563984  1
