# generated using pymatgen
data_Te4MoW3(SeS)2
_symmetry_space_group_name_H-M   'P 1'
_cell_length_a   3.40279295
_cell_length_b   3.40284061
_cell_length_c   38.76562177
_cell_angle_alpha   89.99960215
_cell_angle_beta   90.00000000
_cell_angle_gamma   119.99953654
_symmetry_Int_Tables_number   1
_chemical_formula_structural   Te4MoW3(SeS)2
_chemical_formula_sum   'Te4 Mo1 W3 Se2 S2'
_cell_volume   388.73759729
_cell_formula_units_Z   1
loop_
 _symmetry_equiv_pos_site_id
 _symmetry_equiv_pos_as_xyz
  1  'x, y, z'
loop_
 _atom_site_type_symbol
 _atom_site_label
 _atom_site_symmetry_multiplicity
 _atom_site_fract_x
 _atom_site_fract_y
 _atom_site_fract_z
 _atom_site_occupancy
  Te  Te0  1  0.33335381  0.66670862  0.33037649  1
  Te  Te1  1  0.33335297  0.66670693  0.70610766  1
  Te  Te2  1  0.33336038  0.66672176  0.23327664  1
  Te  Te3  1  0.33335900  0.66671899  0.60892768  1
  Mo  Mo4  1  0.33329677  0.66659354  0.46966555  1
  W  W5  1  0.33331151  0.66662302  0.09389244  1
  W  W6  1  0.66668792  0.33337583  0.28182256  1
  W  W7  1  0.66668864  0.33337727  0.65753840  1
  Se  Se8  1  0.66664633  0.33329167  0.05122298  1
  Se  Se9  1  0.66664427  0.33328754  0.13658562  1
  S  S10  1  0.66665323  0.33330547  0.43097681  1
  S  S11  1  0.66664518  0.33328935  0.50835520  1
