# generated using pymatgen
data_Ba4Cu2Si21
_symmetry_space_group_name_H-M   'P 1'
_cell_length_a   10.40660977
_cell_length_b   10.40660977
_cell_length_c   10.37179250
_cell_angle_alpha   90.00000000
_cell_angle_beta   90.00000000
_cell_angle_gamma   90.04433418
_symmetry_Int_Tables_number   1
_chemical_formula_structural   Ba4Cu2Si21
_chemical_formula_sum   'Ba8 Cu4 Si42'
_cell_volume   1123.23914081
_cell_formula_units_Z   2
loop_
 _symmetry_equiv_pos_site_id
 _symmetry_equiv_pos_as_xyz
  1  'x, y, z'
loop_
 _atom_site_type_symbol
 _atom_site_label
 _atom_site_symmetry_multiplicity
 _atom_site_fract_x
 _atom_site_fract_y
 _atom_site_fract_z
 _atom_site_occupancy
  Ba  Ba0  1  0.50226809  0.49787706  0.50000000  1
  Ba  Ba1  1  0.99787706  0.00226809  0.00000000  1
  Ba  Ba2  1  0.99099919  0.74167025  0.50000000  1
  Ba  Ba3  1  0.24167025  0.49099919  0.00000000  1
  Ba  Ba4  1  0.50973630  0.00973630  0.75000000  1
  Ba  Ba5  1  0.98959986  0.25893359  0.50000000  1
  Ba  Ba6  1  0.75893359  0.48959986  0.00000000  1
  Ba  Ba7  1  0.50973630  0.00973630  0.25000000  1
  Cu  Cu8  1  0.99966085  0.49966085  0.75000000  1
  Cu  Cu9  1  0.50064525  0.25036720  0.00000000  1
  Cu  Cu10  1  0.75036720  0.00064525  0.50000000  1
  Cu  Cu11  1  0.99966085  0.49966085  0.25000000  1
  Si  Si12  1  0.18828918  0.50060957  0.61925818  1
  Si  Si13  1  0.49969445  0.61636679  0.80629726  1
  Si  Si14  1  0.38372350  0.80716185  0.50000000  1
  Si  Si15  1  0.80961897  0.50052129  0.37941039  1
  Si  Si16  1  0.49977904  0.37785905  0.18713722  1
  Si  Si17  1  0.62358386  0.18817587  0.50000000  1
  Si  Si18  1  0.80961897  0.50052129  0.62058961  1
  Si  Si19  1  0.49977904  0.37785905  0.81286278  1
  Si  Si20  1  0.18828918  0.50060957  0.38074182  1
  Si  Si21  1  0.49969445  0.61636679  0.19370274  1
  Si  Si22  1  0.62258958  0.81353158  0.50000000  1
  Si  Si23  1  0.38170398  0.19398634  0.50000000  1
  Si  Si24  1  0.00060957  0.68828918  0.11925818  1
  Si  Si25  1  0.11636679  0.99969445  0.30629726  1
  Si  Si26  1  0.30716185  0.88372350  0.00000000  1
  Si  Si27  1  0.00052129  0.30961897  0.87941039  1
  Si  Si28  1  0.87785905  0.99977904  0.68713722  1
  Si  Si29  1  0.68817587  0.12358386  0.00000000  1
  Si  Si30  1  0.00052129  0.30961897  0.12058961  1
  Si  Si31  1  0.87785905  0.99977904  0.31286278  1
  Si  Si32  1  0.00060957  0.68828918  0.88074182  1
  Si  Si33  1  0.11636679  0.99969445  0.69370274  1
  Si  Si34  1  0.31353158  0.12258958  0.00000000  1
  Si  Si35  1  0.69398634  0.88170398  0.00000000  1
  Si  Si36  1  0.31383248  0.68430925  0.68316024  1
  Si  Si37  1  0.68371670  0.31585577  0.31600160  1
  Si  Si38  1  0.68371670  0.31585577  0.68399840  1
  Si  Si39  1  0.31383248  0.68430925  0.31683976  1
  Si  Si40  1  0.68464613  0.68581230  0.31722442  1
  Si  Si41  1  0.31490565  0.31742254  0.68492680  1
  Si  Si42  1  0.31490565  0.31742254  0.31507320  1
  Si  Si43  1  0.68464613  0.68581230  0.68277558  1
  Si  Si44  1  0.18430925  0.81383248  0.18316024  1
  Si  Si45  1  0.81585577  0.18371670  0.81600160  1
  Si  Si46  1  0.81585577  0.18371670  0.18399840  1
  Si  Si47  1  0.18430925  0.81383248  0.81683976  1
  Si  Si48  1  0.18581230  0.18464613  0.81722442  1
  Si  Si49  1  0.81742254  0.81490565  0.18492680  1
  Si  Si50  1  0.81742254  0.81490565  0.81507320  1
  Si  Si51  1  0.18581230  0.18464613  0.18277558  1
  Si  Si52  1  0.50062140  0.74728889  0.00000000  1
  Si  Si53  1  0.24728889  0.00062140  0.50000000  1
