# generated using pymatgen
data_Ba3V4(PO4)6
_symmetry_space_group_name_H-M   'P 1'
_cell_length_a   10.07723167
_cell_length_b   10.05073824
_cell_length_c   10.08244148
_cell_angle_alpha   90.00000000
_cell_angle_beta   90.00000000
_cell_angle_gamma   89.82968275
_symmetry_Int_Tables_number   1
_chemical_formula_structural   Ba3V4(PO4)6
_chemical_formula_sum   'Ba6 V8 P12 O48'
_cell_volume   1021.18163680
_cell_formula_units_Z   2
loop_
 _symmetry_equiv_pos_site_id
 _symmetry_equiv_pos_as_xyz
  1  'x, y, z'
loop_
 _atom_site_type_symbol
 _atom_site_label
 _atom_site_symmetry_multiplicity
 _atom_site_fract_x
 _atom_site_fract_y
 _atom_site_fract_z
 _atom_site_occupancy
  Ba  Ba0  1  0.19843535  0.70349965  0.80076080  1
  Ba  Ba1  1  0.30156465  0.29650035  0.30076080  1
  Ba  Ba2  1  0.91549629  0.57341588  0.42439713  1
  Ba  Ba3  1  0.58450371  0.42658412  0.92439713  1
  Ba  Ba4  1  0.44634877  0.93566524  0.56439099  1
  Ba  Ba5  1  0.05365123  0.06433476  0.06439099  1
  V  V6  1  0.41509128  0.08553480  0.91461933  1
  V  V7  1  0.08490872  0.91446520  0.41461933  1
  V  V8  1  0.91465236  0.41286836  0.08673273  1
  V  V9  1  0.58534764  0.58713164  0.58673273  1
  V  V10  1  0.14291840  0.35041091  0.64949276  1
  V  V11  1  0.35708160  0.64958909  0.14949276  1
  V  V12  1  0.65255446  0.14542014  0.35446052  1
  V  V13  1  0.84744554  0.85457986  0.85446052  1
  P  P14  1  0.37143542  0.96115861  0.22795058  1
  P  P15  1  0.72764237  0.12640400  0.04042852  1
  P  P16  1  0.53861307  0.77119875  0.87248199  1
  P  P17  1  0.12856458  0.03884139  0.72795058  1
  P  P18  1  0.77235763  0.87359600  0.54042852  1
  P  P19  1  0.96138693  0.22880125  0.37248199  1
  P  P20  1  0.87500437  0.53944408  0.77192728  1
  P  P21  1  0.22862626  0.37346677  0.96301882  1
  P  P22  1  0.03977986  0.72723692  0.12545845  1
  P  P23  1  0.62499563  0.46055592  0.27192728  1
  P  P24  1  0.27137374  0.62653323  0.46301882  1
  P  P25  1  0.46022014  0.27276308  0.62545845  1
  O  O26  1  0.34363541  0.99881619  0.08241220  1
  O  O27  1  0.58312260  0.15490162  0.99614651  1
  O  O28  1  0.49964142  0.91731153  0.84465230  1
  O  O29  1  0.15636459  0.00118381  0.58241220  1
  O  O30  1  0.91687740  0.84509838  0.49614651  1
  O  O31  1  0.00035858  0.08268847  0.34465230  1
  O  O32  1  0.84885154  0.49719715  0.91658058  1
  O  O33  1  0.08375890  0.34452453  0.00006000  1
  O  O34  1  0.99649448  0.58281478  0.15316583  1
  O  O35  1  0.65114846  0.50280285  0.41658058  1
  O  O36  1  0.41624110  0.65547547  0.50006000  1
  O  O37  1  0.50350552  0.41718522  0.65316583  1
  O  O38  1  0.47225717  0.05474782  0.29676680  1
  O  O39  1  0.80057797  0.02076216  0.95621305  1
  O  O40  1  0.44297453  0.70060370  0.97007163  1
  O  O41  1  0.02774283  0.94525218  0.79676680  1
  O  O42  1  0.69942203  0.97923784  0.45621305  1
  O  O43  1  0.05702547  0.29939630  0.47007163  1
  O  O44  1  0.98182546  0.45662026  0.69943444  1
  O  O45  1  0.29594133  0.47456804  0.05726541  1
  O  O46  1  0.95935060  0.79874389  0.01708353  1
  O  O47  1  0.51817454  0.54337974  0.19943444  1
  O  O48  1  0.20405867  0.52543196  0.55726541  1
  O  O49  1  0.54064940  0.20125611  0.51708353  1
  O  O50  1  0.41267422  0.81434948  0.24421123  1
  O  O51  1  0.73608884  0.08316448  0.18675588  1
  O  O52  1  0.68324378  0.75463476  0.91601949  1
  O  O53  1  0.08732578  0.18565052  0.74421123  1
  O  O54  1  0.76391116  0.91683552  0.68675588  1
  O  O55  1  0.81675622  0.24536524  0.41601949  1
  O  O56  1  0.92547400  0.68593432  0.76676811  1
  O  O57  1  0.23938018  0.42651386  0.81890615  1
  O  O58  1  0.18686252  0.73011358  0.07512463  1
  O  O59  1  0.57452600  0.31406568  0.26676811  1
  O  O60  1  0.26061982  0.57348614  0.31890615  1
  O  O61  1  0.31313748  0.26988642  0.57512463  1
  O  O62  1  0.23973445  0.99016969  0.30562596  1
  O  O63  1  0.80524315  0.25847344  0.01832499  1
  O  O64  1  0.50940980  0.69665236  0.73820080  1
  O  O65  1  0.26026555  0.00983031  0.80562596  1
  O  O66  1  0.69475685  0.74152656  0.51832499  1
  O  O67  1  0.99059020  0.30334764  0.23820080  1
  O  O68  1  0.74340895  0.52211097  0.69604491  1
  O  O69  1  0.30661842  0.24158847  0.98675799  1
  O  O70  1  0.02425610  0.80535475  0.25566768  1
  O  O71  1  0.75659105  0.47788903  0.19604491  1
  O  O72  1  0.19338158  0.75841153  0.48675799  1
  O  O73  1  0.47574390  0.19464525  0.75566768  1
