# generated using pymatgen
data_Al37(Fe6Cu)2
_symmetry_space_group_name_H-M   'P 1'
_cell_length_a   7.88985816
_cell_length_b   8.74849896
_cell_length_c   12.54338442
_cell_angle_alpha   106.22612978
_cell_angle_beta   90.00000000
_cell_angle_gamma   63.19686408
_symmetry_Int_Tables_number   1
_chemical_formula_structural   Al37(Fe6Cu)2
_chemical_formula_sum   'Al37 Fe12 Cu2'
_cell_volume   733.93312460
_cell_formula_units_Z   1
loop_
 _symmetry_equiv_pos_site_id
 _symmetry_equiv_pos_as_xyz
  1  'x, y, z'
loop_
 _atom_site_type_symbol
 _atom_site_label
 _atom_site_symmetry_multiplicity
 _atom_site_fract_x
 _atom_site_fract_y
 _atom_site_fract_z
 _atom_site_occupancy
  Al  Al0  1  0.67936885  0.64126230  0.27739837  1
  Al  Al1  1  0.32133846  0.35732307  0.72347471  1
  Al  Al2  1  0.60329038  0.35934327  0.33842892  1
  Al  Al3  1  0.03736635  0.35934327  0.33842892  1
  Al  Al4  1  0.39439541  0.64001098  0.66226652  1
  Al  Al5  1  0.96559361  0.64001098  0.66226652  1
  Al  Al6  1  0.29012974  0.97799009  0.33451677  1
  Al  Al7  1  0.73188017  0.97799009  0.33451677  1
  Al  Al8  1  0.71575319  0.02352870  0.66945693  1
  Al  Al9  1  0.26071811  0.02352870  0.66945693  1
  Al  Al10  1  0.23891120  0.52217760  0.04773386  1
  Al  Al11  1  0.76698583  0.46602835  0.94216432  1
  Al  Al12  1  0.42290341  0.73506227  0.10980648  1
  Al  Al13  1  0.84203433  0.73506227  0.10980648  1
  Al  Al14  1  0.59011279  0.25712512  0.88637861  1
  Al  Al15  1  0.15276209  0.25712512  0.88637861  1
  Al  Al16  1  0.42562834  0.73684904  0.47818238  1
  Al  Al17  1  0.83752262  0.73684904  0.47818238  1
  Al  Al18  1  0.57410641  0.26321793  0.52295727  1
  Al  Al19  1  0.16267566  0.26321793  0.52295727  1
  Al  Al20  1  0.59809527  0.37115070  0.11096203  1
  Al  Al21  1  0.03075403  0.37115070  0.11096203  1
  Al  Al22  1  0.39918975  0.62920254  0.88750324  1
  Al  Al23  1  0.97160771  0.62920254  0.88750324  1
  Al  Al24  1  0.74895846  0.00022327  0.00048297  1
  Al  Al25  1  0.25081827  0.00022327  0.00048297  1
  Al  Al26  1  0.30759986  0.38480029  0.22777261  1
  Al  Al27  1  0.69161001  0.61677998  0.77138858  1
  Al  Al28  1  0.23345120  0.53309760  0.45905893  1
  Al  Al29  1  0.76761894  0.46476212  0.54216767  1
  Al  Al30  1  0.51919996  0.96160008  0.83126793  1
  Al  Al31  1  0.47974831  0.04050337  0.16856394  1
  Al  Al32  1  0.05859615  0.88280770  0.82617788  1
  Al  Al33  1  0.93427349  0.13145303  0.17550624  1
  Al  Al34  1  0.07175798  0.85648404  0.42147604  1
  Al  Al35  1  0.92529895  0.14940210  0.58799799  1
  Al  Al36  1  0.08164480  0.83671040  0.21649050  1
  Fe  Fe37  1  0.09049538  0.81900923  0.01118878  1
  Fe  Fe38  1  0.90884265  0.18231469  0.99543857  1
  Fe  Fe39  1  0.08794184  0.82411631  0.61284110  1
  Fe  Fe40  1  0.91692995  0.16614009  0.38137210  1
  Fe  Fe41  1  0.60279642  0.79440715  0.63065391  1
  Fe  Fe42  1  0.39610244  0.20779511  0.36916884  1
  Fe  Fe43  1  0.38374171  0.63719385  0.27585659  1
  Fe  Fe44  1  0.97906443  0.63719385  0.27585659  1
  Fe  Fe45  1  0.61004164  0.36991671  0.72162479  1
  Fe  Fe46  1  0.02004164  0.36991671  0.72162479  1
  Fe  Fe47  1  0.40156613  0.19686775  0.01395999  1
  Fe  Fe48  1  0.59901435  0.80197131  0.98473101  1
  Cu  Cu49  1  0.91992062  0.16015875  0.78438398  1
  Cu  Cu50  1  0.49980068  0.00039865  0.50077512  1
