# generated using pymatgen
data_BaLa2(SiS4)2
_symmetry_space_group_name_H-M   'P 1'
_cell_length_a   9.32351704
_cell_length_b   9.24655995
_cell_length_c   10.66776044
_cell_angle_alpha   89.38508701
_cell_angle_beta   115.91446362
_cell_angle_gamma   59.72331086
_symmetry_Int_Tables_number   1
_chemical_formula_structural   BaLa2(SiS4)2
_chemical_formula_sum   'Ba2 La4 Si4 S16'
_cell_volume   682.02722413
_cell_formula_units_Z   2
loop_
 _symmetry_equiv_pos_site_id
 _symmetry_equiv_pos_as_xyz
  1  'x, y, z'
loop_
 _atom_site_type_symbol
 _atom_site_label
 _atom_site_symmetry_multiplicity
 _atom_site_fract_x
 _atom_site_fract_y
 _atom_site_fract_z
 _atom_site_occupancy
  Ba  Ba0  1  0.50477997  0.91582368  0.25178688  1
  Ba  Ba1  1  0.83117221  0.41581271  0.75177701  1
  La  La2  1  0.18955886  0.56039567  0.24896045  1
  La  La3  1  0.80958201  0.24772262  0.24783425  1
  La  La4  1  0.49902057  0.06037693  0.74896784  1
  La  La5  1  0.19050434  0.74770182  0.74786430  1
  Si  Si6  1  0.67816342  0.15514993  0.52047718  1
  Si  Si7  1  0.68715447  0.65509349  0.02046709  1
  Si  Si8  1  0.30704949  0.84709926  0.48035729  1
  Si  Si9  1  0.32628583  0.34706408  0.98038595  1
  S  S10  1  0.83634139  0.95504501  0.44678760  1
  S  S11  1  0.39434004  0.22626354  0.45368299  1
  S  S12  1  0.63873647  0.38739715  0.42612576  1
  S  S13  1  0.83306034  0.72623149  0.95366861  1
  S  S14  1  0.65541740  0.45501388  0.94678675  1
  S  S15  1  0.39997571  0.88737800  0.92615513  1
  S  S16  1  0.15853253  0.06027461  0.55241029  1
  S  S17  1  0.58459887  0.79836166  0.56815840  1
  S  S18  1  0.32697242  0.61867566  0.55270638  1
  S  S19  1  0.18521346  0.29837472  0.06814674  1
  S  S20  1  0.33361727  0.56026592  0.05242225  1
  S  S21  1  0.60715868  0.11862108  0.05275493  1
  S  S22  1  0.14258589  0.92040950  0.24673828  1
  S  S23  1  0.18379251  0.42039542  0.74673643  1
  S  S24  1  0.84024853  0.05751765  0.75402353  1
  S  S25  1  0.85627130  0.55746653  0.25401567  1
