# generated using pymatgen
data_Ba3Ca3(MoN4)2
_symmetry_space_group_name_H-M   'P 1'
_cell_length_a   9.70586389
_cell_length_b   10.36019366
_cell_length_c   11.90264323
_cell_angle_alpha   90.00000000
_cell_angle_beta   90.00000000
_cell_angle_gamma   90.00000000
_symmetry_Int_Tables_number   1
_chemical_formula_structural   Ba3Ca3(MoN4)2
_chemical_formula_sum   'Ba12 Ca12 Mo8 N32'
_cell_volume   1196.86588052
_cell_formula_units_Z   4
loop_
 _symmetry_equiv_pos_site_id
 _symmetry_equiv_pos_as_xyz
  1  'x, y, z'
loop_
 _atom_site_type_symbol
 _atom_site_label
 _atom_site_symmetry_multiplicity
 _atom_site_fract_x
 _atom_site_fract_y
 _atom_site_fract_z
 _atom_site_occupancy
  Ba  Ba0  1  0.31430935  0.76238068  0.61665118  1
  Ba  Ba1  1  0.18569065  0.26238068  0.38334882  1
  Ba  Ba2  1  0.81430935  0.23761932  0.88334882  1
  Ba  Ba3  1  0.68569065  0.73761932  0.11665118  1
  Ba  Ba4  1  0.68111630  0.23280529  0.37966293  1
  Ba  Ba5  1  0.81888370  0.73280529  0.62033707  1
  Ba  Ba6  1  0.18111630  0.76719471  0.12033707  1
  Ba  Ba7  1  0.31888370  0.26719471  0.87966293  1
  Ba  Ba8  1  0.62845198  0.02849306  0.64761027  1
  Ba  Ba9  1  0.87154802  0.52849306  0.35238973  1
  Ba  Ba10  1  0.12845198  0.97150694  0.85238973  1
  Ba  Ba11  1  0.37154802  0.47150694  0.14761027  1
  Ca  Ca12  1  0.96763494  0.12174145  0.59990568  1
  Ca  Ca13  1  0.53236506  0.62174145  0.40009432  1
  Ca  Ca14  1  0.46763494  0.87825855  0.90009432  1
  Ca  Ca15  1  0.03236506  0.37825855  0.09990568  1
  Ca  Ca16  1  0.03132164  0.88101054  0.39588008  1
  Ca  Ca17  1  0.46867836  0.38101054  0.60411992  1
  Ca  Ca18  1  0.53132164  0.11898946  0.10411992  1
  Ca  Ca19  1  0.96867836  0.61898946  0.89588008  1
  Ca  Ca20  1  0.38628971  0.95512561  0.36482252  1
  Ca  Ca21  1  0.11371029  0.45512561  0.63517748  1
  Ca  Ca22  1  0.88628971  0.04487439  0.13517748  1
  Ca  Ca23  1  0.61371029  0.54487439  0.86482252  1
  Mo  Mo24  1  0.29307106  0.09872690  0.61131398  1
  Mo  Mo25  1  0.20692894  0.59872690  0.38868602  1
  Mo  Mo26  1  0.79307106  0.90127310  0.88868602  1
  Mo  Mo27  1  0.70692894  0.40127310  0.11131398  1
  Mo  Mo28  1  0.70428858  0.90524344  0.37960735  1
  Mo  Mo29  1  0.79571142  0.40524344  0.62039265  1
  Mo  Mo30  1  0.20428858  0.09475656  0.12039265  1
  Mo  Mo31  1  0.29571142  0.59475656  0.87960735  1
  N  N32  1  0.37489601  0.99952070  0.72711341  1
  N  N33  1  0.12510399  0.49952070  0.27288659  1
  N  N34  1  0.87489601  0.00047930  0.77288659  1
  N  N35  1  0.62510399  0.50047930  0.22711341  1
  N  N36  1  0.61136979  0.00395015  0.27055843  1
  N  N37  1  0.88863021  0.50395015  0.72944157  1
  N  N38  1  0.11136979  0.99604985  0.22944157  1
  N  N39  1  0.38863021  0.49604985  0.77055843  1
  N  N40  1  0.18616808  0.23204346  0.67400011  1
  N  N41  1  0.31383192  0.73204346  0.32599989  1
  N  N42  1  0.68616808  0.76795654  0.82599989  1
  N  N43  1  0.81383192  0.26795654  0.17400011  1
  N  N44  1  0.81497410  0.77936458  0.31425936  1
  N  N45  1  0.68502590  0.27936458  0.68574064  1
  N  N46  1  0.31497410  0.22063542  0.18574064  1
  N  N47  1  0.18502590  0.72063542  0.81425936  1
  N  N48  1  0.17472458  0.99220074  0.52690715  1
  N  N49  1  0.32527542  0.49220074  0.47309285  1
  N  N50  1  0.67472458  0.00779926  0.97309285  1
  N  N51  1  0.82527542  0.50779926  0.02690715  1
  N  N52  1  0.82413860  0.01034280  0.46530126  1
  N  N53  1  0.67586140  0.51034280  0.53469874  1
  N  N54  1  0.32413860  0.98965720  0.03469874  1
  N  N55  1  0.17586140  0.48965720  0.96530126  1
  N  N56  1  0.42816612  0.16329791  0.51247879  1
  N  N57  1  0.07183388  0.66329791  0.48752121  1
  N  N58  1  0.92816612  0.83670209  0.98752121  1
  N  N59  1  0.57183388  0.33670209  0.01247879  1
  N  N60  1  0.56761182  0.83614035  0.47607014  1
  N  N61  1  0.93238818  0.33614035  0.52392986  1
  N  N62  1  0.06761182  0.16385965  0.02392986  1
  N  N63  1  0.43238818  0.66385965  0.97607014  1
