# generated using pymatgen
data_Ba4Sc2Cu2O9
_symmetry_space_group_name_H-M   'P 1'
_cell_length_a   5.92674358
_cell_length_b   5.92674358
_cell_length_c   9.03654798
_cell_angle_alpha   71.17727928
_cell_angle_beta   71.17727928
_cell_angle_gamma   90.92443638
_symmetry_Int_Tables_number   1
_chemical_formula_structural   Ba4Sc2Cu2O9
_chemical_formula_sum   'Ba4 Sc2 Cu2 O9'
_cell_volume   281.80536425
_cell_formula_units_Z   1
loop_
 _symmetry_equiv_pos_site_id
 _symmetry_equiv_pos_as_xyz
  1  'x, y, z'
loop_
 _atom_site_type_symbol
 _atom_site_label
 _atom_site_symmetry_multiplicity
 _atom_site_fract_x
 _atom_site_fract_y
 _atom_site_fract_z
 _atom_site_occupancy
  Ba  Ba0  1  0.11176017  0.61176017  0.76620435  1
  Ba  Ba1  1  0.62203547  0.12203547  0.76620435  1
  Ba  Ba2  1  0.37796453  0.87796453  0.23379565  1
  Ba  Ba3  1  0.88823983  0.38823983  0.23379565  1
  Sc  Sc4  1  0.50000000  0.50000000  0.00000000  1
  Sc  Sc5  1  -0.00000000  -0.00000000  0.00000000  1
  Cu  Cu6  1  0.22651636  0.27348364  0.50000000  1
  Cu  Cu7  1  0.77348364  0.72651636  0.50000000  1
  O  O8  1  0.15097679  0.12519556  0.72382766  1
  O  O9  1  0.62519556  0.65097679  0.72382766  1
  O  O10  1  0.37480444  0.34902321  0.27617234  1
  O  O11  1  0.84902321  0.87480444  0.27617234  1
  O  O12  1  0.75239831  0.25239831  0.99520338  1
  O  O13  1  0.24760169  0.74760169  0.00479662  1
  O  O14  1  0.25000000  0.25000000  -0.00000000  1
  O  O15  1  0.75000000  0.75000000  0.00000000  1
  O  O16  1  -0.00000000  0.50000000  0.50000000  1
