# generated using pymatgen
data_CsMnCrF6
_symmetry_space_group_name_H-M   'P 1'
_cell_length_a   7.62414557
_cell_length_b   7.63623497
_cell_length_c   7.51110675
_cell_angle_alpha   90.00000000
_cell_angle_beta   60.48925405
_cell_angle_gamma   120.05246749
_symmetry_Int_Tables_number   1
_chemical_formula_structural   CsMnCrF6
_chemical_formula_sum   'Cs2 Mn2 Cr2 F12'
_cell_volume   311.23748570
_cell_formula_units_Z   2
loop_
 _symmetry_equiv_pos_site_id
 _symmetry_equiv_pos_as_xyz
  1  'x, y, z'
loop_
 _atom_site_type_symbol
 _atom_site_label
 _atom_site_symmetry_multiplicity
 _atom_site_fract_x
 _atom_site_fract_y
 _atom_site_fract_z
 _atom_site_occupancy
  Cs  Cs0  1  0.75716735  0.37858368  0.37141632  1
  Cs  Cs1  1  0.24283265  0.62141632  0.62858368  1
  Mn  Mn2  1  0.50000000  0.50000000  -0.00000000  1
  Mn  Mn3  1  0.50000000  0.00000000  -0.00000000  1
  Cr  Cr4  1  0.00000000  0.00000000  0.50000000  1
  Cr  Cr5  1  0.00000000  0.00000000  -0.00000000  1
  F  F6  1  0.88582504  0.94291252  0.30708748  1
  F  F7  1  0.65894747  0.32947373  0.92052627  1
  F  F8  1  0.24196001  0.93805100  0.92356796  1
  F  F9  1  0.24196001  0.30390901  0.33447202  1
  F  F10  1  0.24196001  0.30390901  0.92356796  1
  F  F11  1  0.24196001  0.93805100  0.33447202  1
  F  F12  1  0.11417496  0.05708748  0.69291252  1
  F  F13  1  0.34105253  0.67052627  0.07947373  1
  F  F14  1  0.75803999  0.06194900  0.07643204  1
  F  F15  1  0.75803999  0.69609099  0.66552798  1
  F  F16  1  0.75803999  0.69609099  0.07643204  1
  F  F17  1  0.75803999  0.06194900  0.66552798  1
