# generated using pymatgen
data_Ba(V3S4)4
_symmetry_space_group_name_H-M   'P 1'
_cell_length_a   6.48211386
_cell_length_b   9.77350447
_cell_length_c   9.22600495
_cell_angle_alpha   61.96271990
_cell_angle_beta   90.00000000
_cell_angle_gamma   70.63307334
_symmetry_Int_Tables_number   1
_chemical_formula_structural   Ba(V3S4)4
_chemical_formula_sum   'Ba1 V12 S16'
_cell_volume   478.10360759
_cell_formula_units_Z   1
loop_
 _symmetry_equiv_pos_site_id
 _symmetry_equiv_pos_as_xyz
  1  'x, y, z'
loop_
 _atom_site_type_symbol
 _atom_site_label
 _atom_site_symmetry_multiplicity
 _atom_site_fract_x
 _atom_site_fract_y
 _atom_site_fract_z
 _atom_site_occupancy
  Ba  Ba0  1  0.62499637  0.00000726  0.00070665  1
  V  V1  1  0.18220833  0.88558335  0.48926237  1
  V  V2  1  0.68220160  0.88559681  0.48619918  1
  V  V3  1  0.38040242  0.48919516  0.62278718  1
  V  V4  1  0.88202557  0.48594886  0.63074467  1
  V  V5  1  0.30928032  0.63143936  0.88388475  1
  V  V6  1  0.81371963  0.62256074  0.88705549  1
  V  V7  1  0.82179293  0.11279056  0.50849878  1
  V  V8  1  0.31541651  0.11279056  0.50849878  1
  V  V9  1  0.61300776  0.50869189  0.37850090  1
  V  V10  1  0.12830036  0.50869189  0.37850090  1
  V  V11  1  0.69326739  0.37819178  0.11315361  1
  V  V12  1  0.17854083  0.37819178  0.11315361  1
  S  S13  1  0.77605459  0.69789082  0.35667942  1
  S  S14  1  0.27114927  0.70770146  0.34559552  1
  S  S15  1  0.95219960  0.34560080  0.94669900  1
  S  S16  1  0.44697227  0.35605546  0.94548746  1
  S  S17  1  0.65231359  0.94537282  0.69976889  1
  S  S18  1  0.15173983  0.94652033  0.70579527  1
  S  S19  1  0.22905936  0.29053059  0.65633616  1
  S  S20  1  0.73041005  0.29053059  0.65633616  1
  S  S21  1  0.04727436  0.65671249  0.05302795  1
  S  S22  1  0.54601315  0.65671249  0.05302795  1
  S  S23  1  0.34584108  0.05311703  0.29038738  1
  S  S24  1  0.85104189  0.05311703  0.29038738  1
  S  S25  1  0.95749973  0.33500054  0.33383021  1
  S  S26  1  0.45911085  0.33177830  0.33262025  1
  S  S27  1  0.04223505  0.66683962  0.66653707  1
  S  S28  1  0.54092533  0.66683962  0.66653707  1
