# generated using pymatgen
data_Al2Cr3CuS8
_symmetry_space_group_name_H-M   'P 1'
_cell_length_a   7.05026777
_cell_length_b   7.05511992
_cell_length_c   7.05026777
_cell_angle_alpha   90.00000000
_cell_angle_beta   60.04553765
_cell_angle_gamma   120.02276882
_symmetry_Int_Tables_number   1
_chemical_formula_structural   Al2Cr3CuS8
_chemical_formula_sum   'Al2 Cr3 Cu1 S8'
_cell_volume   248.05607427
_cell_formula_units_Z   1
loop_
 _symmetry_equiv_pos_site_id
 _symmetry_equiv_pos_as_xyz
  1  'x, y, z'
loop_
 _atom_site_type_symbol
 _atom_site_label
 _atom_site_symmetry_multiplicity
 _atom_site_fract_x
 _atom_site_fract_y
 _atom_site_fract_z
 _atom_site_occupancy
  Al  Al0  1  0.99009025  0.99504513  0.99504513  1
  Al  Al1  1  0.74970833  0.37485416  0.37485416  1
  Cr  Cr2  1  0.50778654  0.51137425  0.99641229  1
  Cr  Cr3  1  0.50778654  0.99641229  0.99641229  1
  Cr  Cr4  1  0.99282459  0.99641229  0.51137425  1
  Cu  Cu5  1  0.25017125  0.62508563  0.62508563  1
  S  S6  1  0.01664071  0.77472984  0.24191088  1
  S  S7  1  0.01664071  0.24191088  0.24191088  1
  S  S8  1  0.48382175  0.24191088  0.77472984  1
  S  S9  1  0.48424920  0.24212460  0.24212460  1
  S  S10  1  0.98372207  0.22596735  0.75775472  1
  S  S11  1  0.98372207  0.75775472  0.75775472  1
  S  S12  1  0.51550945  0.75775472  0.22596735  1
  S  S13  1  0.51732653  0.75866326  0.75866326  1
