# generated using pymatgen
data_CsVNiF6
_symmetry_space_group_name_H-M   'P 1'
_cell_length_a   7.43357722
_cell_length_b   7.34423312
_cell_length_c   7.58921062
_cell_angle_alpha   90.00000000
_cell_angle_beta   59.30497395
_cell_angle_gamma   119.60320512
_symmetry_Int_Tables_number   1
_chemical_formula_structural   CsVNiF6
_chemical_formula_sum   'Cs2 V2 Ni2 F12'
_cell_volume   291.61976525
_cell_formula_units_Z   2
loop_
 _symmetry_equiv_pos_site_id
 _symmetry_equiv_pos_as_xyz
  1  'x, y, z'
loop_
 _atom_site_type_symbol
 _atom_site_label
 _atom_site_symmetry_multiplicity
 _atom_site_fract_x
 _atom_site_fract_y
 _atom_site_fract_z
 _atom_site_occupancy
  Cs  Cs0  1  0.75525269  0.37762634  0.37237366  1
  Cs  Cs1  1  0.24474731  0.62237366  0.62762634  1
  V  V2  1  0.00000000  0.00000000  0.50000000  1
  V  V3  1  0.00000000  0.00000000  -0.00000000  1
  Ni  Ni4  1  0.50000000  0.50000000  -0.00000000  1
  Ni  Ni5  1  0.50000000  0.00000000  -0.00000000  1
  F  F6  1  0.86750564  0.93375282  0.31624718  1
  F  F7  1  0.64035199  0.32017600  0.92982400  1
  F  F8  1  0.24768596  0.93414895  0.92642843  1
  F  F9  1  0.24768596  0.31353700  0.32588561  1
  F  F10  1  0.24768596  0.31353700  0.92642843  1
  F  F11  1  0.24768596  0.93414895  0.32588561  1
  F  F12  1  0.13249436  0.06624718  0.68375282  1
  F  F13  1  0.35964801  0.67982400  0.07017600  1
  F  F14  1  0.75231404  0.06585105  0.07357157  1
  F  F15  1  0.75231404  0.68646300  0.67411439  1
  F  F16  1  0.75231404  0.68646300  0.07357157  1
  F  F17  1  0.75231404  0.06585105  0.67411439  1
