# generated using pymatgen
data_CsCrNiF6
_symmetry_space_group_name_H-M   'P 1'
_cell_length_a   7.40673641
_cell_length_b   7.37978055
_cell_length_c   7.38518204
_cell_angle_alpha   90.00000000
_cell_angle_beta   60.09621881
_cell_angle_gamma   119.87968341
_symmetry_Int_Tables_number   1
_chemical_formula_structural   CsCrNiF6
_chemical_formula_sum   'Cs2 Cr2 Ni2 F12'
_cell_volume   286.37279932
_cell_formula_units_Z   2
loop_
 _symmetry_equiv_pos_site_id
 _symmetry_equiv_pos_as_xyz
  1  'x, y, z'
loop_
 _atom_site_type_symbol
 _atom_site_label
 _atom_site_symmetry_multiplicity
 _atom_site_fract_x
 _atom_site_fract_y
 _atom_site_fract_z
 _atom_site_occupancy
  Cs  Cs0  1  0.75739035  0.37869518  0.37130482  1
  Cs  Cs1  1  0.24260965  0.62130482  0.62869518  1
  Cr  Cr2  1  -0.00000000  -0.00000000  0.50000000  1
  Cr  Cr3  1  -0.00000000  -0.00000000  -0.00000000  1
  Ni  Ni4  1  0.50000000  0.50000000  -0.00000000  1
  Ni  Ni5  1  0.50000000  -0.00000000  -0.00000000  1
  F  F6  1  0.86963550  0.93481775  0.31518225  1
  F  F7  1  0.64543239  0.32271619  0.92728381  1
  F  F8  1  0.24430541  0.93221747  0.92867329  1
  F  F9  1  0.24430541  0.31208794  0.32702130  1
  F  F10  1  0.24430541  0.31208794  0.92867329  1
  F  F11  1  0.24430541  0.93221747  0.32702130  1
  F  F12  1  0.13036450  0.06518225  0.68481775  1
  F  F13  1  0.35456761  0.67728381  0.07271619  1
  F  F14  1  0.75569459  0.06778253  0.07132671  1
  F  F15  1  0.75569459  0.68791206  0.67297870  1
  F  F16  1  0.75569459  0.68791206  0.07132671  1
  F  F17  1  0.75569459  0.06778253  0.67297870  1
