# generated using pymatgen
data_CsCoNiF6
_symmetry_space_group_name_H-M   'P 1'
_cell_length_a   7.36367961
_cell_length_b   7.36382840
_cell_length_c   7.40649796
_cell_angle_alpha   90.00000000
_cell_angle_beta   59.80746071
_cell_angle_gamma   120.00066838
_symmetry_Int_Tables_number   1
_chemical_formula_structural   CsCoNiF6
_chemical_formula_sum   'Cs2 Co2 Ni2 F12'
_cell_volume   283.15353873
_cell_formula_units_Z   2
loop_
 _symmetry_equiv_pos_site_id
 _symmetry_equiv_pos_as_xyz
  1  'x, y, z'
loop_
 _atom_site_type_symbol
 _atom_site_label
 _atom_site_symmetry_multiplicity
 _atom_site_fract_x
 _atom_site_fract_y
 _atom_site_fract_z
 _atom_site_occupancy
  Cs  Cs0  1  0.75585290  0.37792645  0.37207355  1
  Cs  Cs1  1  0.24414710  0.62207355  0.62792645  1
  Co  Co2  1  0.00000000  0.00000000  0.50000000  1
  Co  Co3  1  0.00000000  0.00000000  -0.00000000  1
  Ni  Ni4  1  0.50000000  0.50000000  -0.00000000  1
  Ni  Ni5  1  0.50000000  0.00000000  -0.00000000  1
  F  F6  1  0.86294114  0.93147057  0.31852943  1
  F  F7  1  0.64592608  0.32296304  0.92703696  1
  F  F8  1  0.24066790  0.93114419  0.92892788  1
  F  F9  1  0.24066790  0.30952371  0.33040422  1
  F  F10  1  0.24066790  0.30952371  0.92892788  1
  F  F11  1  0.24066790  0.93114419  0.33040422  1
  F  F12  1  0.13705886  0.06852943  0.68147057  1
  F  F13  1  0.35407392  0.67703696  0.07296304  1
  F  F14  1  0.75933210  0.06885581  0.07107212  1
  F  F15  1  0.75933210  0.69047629  0.66959578  1
  F  F16  1  0.75933210  0.69047629  0.07107212  1
  F  F17  1  0.75933210  0.06885581  0.66959578  1
