# generated using pymatgen
data_AlH6N2F3
_symmetry_space_group_name_H-M   'P 1'
_cell_length_a   3.78005863
_cell_length_b   5.69581413
_cell_length_c   5.46112475
_cell_angle_alpha   95.35683592
_cell_angle_beta   110.24822077
_cell_angle_gamma   70.62024850
_symmetry_Int_Tables_number   1
_chemical_formula_structural   AlH6N2F3
_chemical_formula_sum   'Al1 H6 N2 F3'
_cell_volume   104.03347235
_cell_formula_units_Z   1
loop_
 _symmetry_equiv_pos_site_id
 _symmetry_equiv_pos_as_xyz
  1  'x, y, z'
loop_
 _atom_site_type_symbol
 _atom_site_label
 _atom_site_symmetry_multiplicity
 _atom_site_fract_x
 _atom_site_fract_y
 _atom_site_fract_z
 _atom_site_occupancy
  Al  Al0  1  0.00000000  -0.00000000  0.00000000  1
  H  H1  1  0.12191689  0.55520046  0.79903423  1
  H  H2  1  0.87808311  0.44479954  0.20096577  1
  H  H3  1  0.14044751  0.74886065  0.60287218  1
  H  H4  1  0.28643598  0.25113935  0.39712782  1
  H  H5  1  0.85955249  0.25113935  0.39712782  1
  H  H6  1  0.71356402  0.74886065  0.60287218  1
  N  N7  1  0.99632277  0.73406678  0.72671232  1
  N  N8  1  0.00367723  0.26593322  0.27328768  1
  F  F9  1  0.24518243  0.76611912  0.25648398  1
  F  F10  1  0.75481757  0.23388088  0.74351602  1
  F  F11  1  0.50000000  -0.00000000  0.00000000  1
