# generated using pymatgen
data_AlAg(PSe3)2
_symmetry_space_group_name_H-M   'P 1'
_cell_length_a   6.43089092
_cell_length_b   6.43089092
_cell_length_c   7.38618160
_cell_angle_alpha   98.02059956
_cell_angle_beta   98.02059956
_cell_angle_gamma   120.03574267
_symmetry_Int_Tables_number   1
_chemical_formula_structural   AlAg(PSe3)2
_chemical_formula_sum   'Al1 Ag1 P2 Se6'
_cell_volume   253.92869797
_cell_formula_units_Z   1
loop_
 _symmetry_equiv_pos_site_id
 _symmetry_equiv_pos_as_xyz
  1  'x, y, z'
loop_
 _atom_site_type_symbol
 _atom_site_label
 _atom_site_symmetry_multiplicity
 _atom_site_fract_x
 _atom_site_fract_y
 _atom_site_fract_z
 _atom_site_occupancy
  Al  Al0  1  0.33293678  0.66706322  -0.00000000  1
  Ag  Ag1  1  0.66701605  0.33298395  -0.00000000  1
  P  P2  1  0.05051582  0.05076314  0.15853441  1
  P  P3  1  0.94923686  0.94948418  0.84146559  1
  Se  Se4  1  0.12080438  0.43342727  0.24373163  1
  Se  Se5  1  0.39105320  0.03618620  0.24426143  1
  Se  Se6  1  0.96381380  0.60894680  0.75573857  1
  Se  Se7  1  0.56657273  0.87919562  0.75626837  1
  Se  Se8  1  0.72333480  0.76528444  0.24288856  1
  Se  Se9  1  0.23471556  0.27666520  0.75711144  1
