# generated using pymatgen
data_CsMg(PO3)3
_symmetry_space_group_name_H-M   'P 1'
_cell_length_a   12.29505028
_cell_length_b   12.34154379
_cell_length_c   18.63556046
_cell_angle_alpha   90.00000000
_cell_angle_beta   96.49409362
_cell_angle_gamma   90.00000000
_symmetry_Int_Tables_number   1
_chemical_formula_structural   CsMg(PO3)3
_chemical_formula_sum   'Cs12 Mg12 P36 O108'
_cell_volume   2809.61385430
_cell_formula_units_Z   12
loop_
 _symmetry_equiv_pos_site_id
 _symmetry_equiv_pos_as_xyz
  1  'x, y, z'
loop_
 _atom_site_type_symbol
 _atom_site_label
 _atom_site_symmetry_multiplicity
 _atom_site_fract_x
 _atom_site_fract_y
 _atom_site_fract_z
 _atom_site_occupancy
  Cs  Cs0  1  0.00533701  0.13166626  0.41927605  1
  Cs  Cs1  1  0.50533701  0.86833374  0.41927605  1
  Cs  Cs2  1  0.89861921  0.73370825  0.50176258  1
  Cs  Cs3  1  0.39861921  0.26629175  0.50176258  1
  Cs  Cs4  1  0.19699890  0.10922042  0.08171223  1
  Cs  Cs5  1  0.69699890  0.89077958  0.08171223  1
  Cs  Cs6  1  0.15868150  0.61923350  0.90796184  1
  Cs  Cs7  1  0.65868150  0.38076650  0.90796184  1
  Cs  Cs8  1  0.31892675  0.69783530  0.18941110  1
  Cs  Cs9  1  0.81892675  0.30216470  0.18941110  1
  Cs  Cs10  1  0.27025006  0.23231527  0.80557374  1
  Cs  Cs11  1  0.77025006  0.76768473  0.80557374  1
  Mg  Mg12  1  0.09358469  0.96273330  0.62588121  1
  Mg  Mg13  1  0.59358469  0.03726670  0.62588121  1
  Mg  Mg14  1  0.64929015  0.56121254  0.36927412  1
  Mg  Mg15  1  0.14929015  0.43878746  0.36927412  1
  Mg  Mg16  1  0.00092325  0.92518067  0.96070994  1
  Mg  Mg17  1  0.50092325  0.07481933  0.96070994  1
  Mg  Mg18  1  0.06559022  0.46200581  0.70413104  1
  Mg  Mg19  1  0.56559022  0.53799419  0.70413104  1
  Mg  Mg20  1  0.18224624  0.93593210  0.29949868  1
  Mg  Mg21  1  0.68224624  0.06406790  0.29949868  1
  Mg  Mg22  1  0.49568753  0.57750856  0.03208380  1
  Mg  Mg23  1  0.99568753  0.42249144  0.03208380  1
  P  P24  1  0.06148851  0.41387703  0.53146640  1
  P  P25  1  0.56148851  0.58612297  0.53146640  1
  P  P26  1  0.64753941  0.60806984  0.19167524  1
  P  P27  1  0.14753941  0.39193016  0.19167524  1
  P  P28  1  0.71243046  0.79519684  0.28784968  1
  P  P29  1  0.21243046  0.20480316  0.28784968  1
  P  P30  1  0.30638293  0.57934339  0.72512952  1
  P  P31  1  0.80638293  0.42065661  0.72512952  1
  P  P32  1  0.46026778  0.80902049  0.94342054  1
  P  P33  1  0.96026778  0.19097951  0.94342054  1
  P  P34  1  0.11463471  0.72227523  0.70342850  1
  P  P35  1  0.61463471  0.27772477  0.70342850  1
  P  P36  1  0.91026422  0.92411513  0.27319588  1
  P  P37  1  0.41026422  0.07588487  0.27319588  1
  P  P38  1  0.70003260  0.29961495  0.38636398  1
  P  P39  1  0.20003260  0.70038505  0.38636398  1
  P  P40  1  0.25991500  0.94145382  0.92505635  1
  P  P41  1  0.75991500  0.05854618  0.92505635  1
  P  P42  1  0.89354780  0.43917101  0.40748784  1
  P  P43  1  0.39354780  0.56082899  0.40748784  1
  P  P44  1  0.85329081  0.07836797  0.60633643  1
  P  P45  1  0.35329081  0.92163203  0.60633643  1
  P  P46  1  0.97133400  0.69103107  0.05086229  1
  P  P47  1  0.47133400  0.30896893  0.05086229  1
  P  P48  1  0.69789123  0.10399266  0.47448467  1
  P  P49  1  0.19789123  0.89600734  0.47448467  1
  P  P50  1  0.04337941  0.22324730  0.62653271  1
  P  P51  1  0.54337941  0.77675270  0.62653271  1
  P  P52  1  0.46620030  0.61498744  0.85505349  1
  P  P53  1  0.96620030  0.38501256  0.85505349  1
  P  P54  1  0.09496055  0.91114837  0.79932276  1
  P  P55  1  0.59496055  0.08885163  0.79932276  1
  P  P56  1  0.76875251  0.56485533  0.06564022  1
  P  P57  1  0.26875251  0.43514467  0.06564022  1
  P  P58  1  0.02662676  0.88132463  0.14348340  1
  P  P59  1  0.52662676  0.11867537  0.14348340  1
  O  O60  1  0.23197113  0.48695797  0.73856794  1
  O  O61  1  0.73197113  0.51304203  0.73856794  1
  O  O62  1  0.01801968  0.29473848  0.55297671  1
  O  O63  1  0.51801968  0.70526152  0.55297671  1
  O  O64  1  0.33377645  0.83504460  0.91454323  1
  O  O65  1  0.83377645  0.16495540  0.91454323  1
  O  O66  1  0.84185892  0.02478594  0.27455651  1
  O  O67  1  0.34185892  0.97521406  0.27455651  1
  O  O68  1  0.92808006  0.98574788  0.59446894  1
  O  O69  1  0.42808006  0.01425212  0.59446894  1
  O  O70  1  0.14459868  0.39672761  0.47938491  1
  O  O71  1  0.64459868  0.60327239  0.47938491  1
  O  O72  1  0.33140971  0.03783915  0.94569655  1
  O  O73  1  0.83140971  0.96216085  0.94569655  1
  O  O74  1  0.64500601  0.54105956  0.25749650  1
  O  O75  1  0.14500601  0.45894044  0.25749650  1
  O  O76  1  0.01861823  0.75288657  0.12448584  1
  O  O77  1  0.51861823  0.24711343  0.12448584  1
  O  O78  1  0.00269352  0.94710021  0.07584949  1
  O  O79  1  0.50269352  0.05289979  0.07584949  1
  O  O80  1  0.55514832  0.57496752  0.81355372  1
  O  O81  1  0.05514832  0.42503248  0.81355372  1
  O  O82  1  0.94943387  0.46313046  0.48877545  1
  O  O83  1  0.44943387  0.53686954  0.48877545  1
  O  O84  1  0.03107776  0.58544963  0.05086575  1
  O  O85  1  0.53107776  0.41455037  0.05086575  1
  O  O86  1  0.52772988  0.91035163  0.94797541  1
  O  O87  1  0.02772988  0.08964837  0.94797541  1
  O  O88  1  0.01907693  0.91992556  0.31771637  1
  O  O89  1  0.51907693  0.08007444  0.31771637  1
  O  O90  1  0.97855120  0.40453560  0.36012313  1
  O  O91  1  0.47855120  0.59546440  0.36012313  1
  O  O92  1  0.44512221  0.55385541  0.92212140  1
  O  O93  1  0.94512221  0.44614459  0.92212140  1
  O  O94  1  0.72696359  0.04097116  0.41000417  1
  O  O95  1  0.22696359  0.95902884  0.41000417  1
  O  O96  1  0.92108329  0.18356141  0.63805130  1
  O  O97  1  0.42108329  0.81643859  0.63805130  1
  O  O98  1  0.81876202  0.53239517  0.38720461  1
  O  O99  1  0.31876202  0.46760483  0.38720461  1
  O  O100  1  0.14108030  0.79436848  0.77706542  1
  O  O101  1  0.64108030  0.20563152  0.77706542  1
  O  O102  1  0.11165849  0.12839600  0.60885450  1
  O  O103  1  0.61165849  0.87160400  0.60885450  1
  O  O104  1  0.23738212  0.68310767  0.69269721  1
  O  O105  1  0.73738212  0.31689233  0.69269721  1
  O  O106  1  0.84320826  0.81833295  0.29490739  1
  O  O107  1  0.34320826  0.18166705  0.29490739  1
  O  O108  1  0.75944639  0.06155855  0.64907672  1
  O  O109  1  0.25944639  0.93844145  0.64907672  1
  O  O110  1  0.60923848  0.06168061  0.51564045  1
  O  O111  1  0.10923848  0.93831939  0.51564045  1
  O  O112  1  0.66169338  0.22645705  0.45088142  1
  O  O113  1  0.16169338  0.77354295  0.45088142  1
  O  O114  1  0.83302538  0.46447567  0.05339007  1
  O  O115  1  0.33302538  0.53552433  0.05339007  1
  O  O116  1  0.39974011  0.56200687  0.68235686  1
  O  O117  1  0.89974011  0.43799313  0.68235686  1
  O  O118  1  0.01150740  0.89009329  0.85098285  1
  O  O119  1  0.51150740  0.10990671  0.85098285  1
  O  O120  1  0.20599947  0.96146909  0.84344034  1
  O  O121  1  0.70599947  0.03853091  0.84344034  1
  O  O122  1  0.04739191  0.62773345  0.72328897  1
  O  O123  1  0.54739191  0.37226655  0.72328897  1
  O  O124  1  0.74630164  0.56050709  0.14955619  1
  O  O125  1  0.24630164  0.43949291  0.14955619  1
  O  O126  1  0.54651396  0.62404941  0.13919492  1
  O  O127  1  0.04651396  0.37595059  0.13919492  1
  O  O128  1  0.46304517  0.73945368  0.00969442  1
  O  O129  1  0.96304517  0.26054632  0.00969442  1
  O  O130  1  0.92256663  0.89676581  0.18879500  1
  O  O131  1  0.42256663  0.10323419  0.18879500  1
  O  O132  1  0.08699464  0.48297614  0.59685919  1
  O  O133  1  0.58699464  0.51702386  0.59685919  1
  O  O134  1  0.49511131  0.74090520  0.87575857  1
  O  O135  1  0.99511131  0.25909480  0.87575857  1
  O  O136  1  0.97123520  0.76387384  0.98644558  1
  O  O137  1  0.47123520  0.23612616  0.98644558  1
  O  O138  1  0.65049555  0.89955021  0.27511609  1
  O  O139  1  0.15049555  0.10044979  0.27511609  1
  O  O140  1  0.84510224  0.67245067  0.06558290  1
  O  O141  1  0.34510224  0.32754933  0.06558290  1
  O  O142  1  0.66581572  0.59070923  0.01748913  1
  O  O143  1  0.16581572  0.40929077  0.01748913  1
  O  O144  1  0.69030027  0.72522776  0.34989144  1
  O  O145  1  0.19030027  0.27477224  0.34989144  1
  O  O146  1  0.06931073  0.98211981  0.73493049  1
  O  O147  1  0.56931073  0.01788019  0.73493049  1
  O  O148  1  0.80931066  0.12675963  0.52600931  1
  O  O149  1  0.30931066  0.87324037  0.52600931  1
  O  O150  1  0.71278482  0.22956171  0.32143868  1
  O  O151  1  0.21278482  0.77043829  0.32143868  1
  O  O152  1  0.08541424  0.29497992  0.68828887  1
  O  O153  1  0.58541424  0.70502008  0.68828887  1
  O  O154  1  0.35155645  0.62901134  0.80538106  1
  O  O155  1  0.85155645  0.37098866  0.80538106  1
  O  O156  1  0.13254466  0.89729894  0.19048116  1
  O  O157  1  0.63254466  0.10270106  0.19048116  1
  O  O158  1  0.07270560  0.79360331  0.64149203  1
  O  O159  1  0.57270560  0.20639669  0.64149203  1
  O  O160  1  0.17459630  0.90830466  0.97264480  1
  O  O161  1  0.67459630  0.09169534  0.97264480  1
  O  O162  1  0.69598150  0.72877947  0.21209322  1
  O  O163  1  0.19598150  0.27122053  0.21209322  1
  O  O164  1  0.62687019  0.39618814  0.38035120  1
  O  O165  1  0.12687019  0.60381186  0.38035120  1
  O  O166  1  0.82261490  0.33153236  0.42185939  1
  O  O167  1  0.32261490  0.66846764  0.42185939  1
