# generated using pymatgen
data_Eu6P19Rh30
_symmetry_space_group_name_H-M   'P 1'
_cell_length_a   3.85858345
_cell_length_b   15.69591590
_cell_length_c   15.69591590
_cell_angle_alpha   120.00000000
_cell_angle_beta   90.00000000
_cell_angle_gamma   90.00000000
_symmetry_Int_Tables_number   1
_chemical_formula_structural   Eu6P19Rh30
_chemical_formula_sum   'Eu6 P19 Rh30'
_cell_volume   823.25021922
_cell_formula_units_Z   1
loop_
 _symmetry_equiv_pos_site_id
 _symmetry_equiv_pos_as_xyz
  1  'x, y, z'
loop_
 _atom_site_type_symbol
 _atom_site_label
 _atom_site_symmetry_multiplicity
 _atom_site_fract_x
 _atom_site_fract_y
 _atom_site_fract_z
 _atom_site_occupancy
  Eu  Eu0  1  0.74978315  0.29617572  0.90222256  1
  Eu  Eu1  1  0.74978315  0.09777744  0.39395316  1
  Eu  Eu2  1  0.74978315  0.60604684  0.70382428  1
  Eu  Eu3  1  0.25029522  0.70414221  0.09734438  1
  Eu  Eu4  1  0.25029522  0.90265562  0.60679782  1
  Eu  Eu5  1  0.25029522  0.39320218  0.29585779  1
  P  P6  1  0.75401487  0.88288000  0.74363458  1
  P  P7  1  0.75401487  0.25636542  0.13924542  1
  P  P8  1  0.75401487  0.86075458  0.11712000  1
  P  P9  1  0.24835319  0.11759590  0.25601869  1
  P  P10  1  0.24835319  0.74398131  0.86157720  1
  P  P11  1  0.24835319  0.13842280  0.88240410  1
  P  P12  1  0.74941379  0.68257583  0.23184151  1
  P  P13  1  0.74941379  0.76815849  0.45073431  1
  P  P14  1  0.74941379  0.54926569  0.31742417  1
  P  P15  1  0.25051722  0.31730651  0.76805197  1
  P  P16  1  0.25051722  0.23194803  0.54925454  1
  P  P17  1  0.25051722  0.45074546  0.68269349  1
  P  P18  1  0.75118851  0.06198977  0.62908172  1
  P  P19  1  0.75118851  0.37091828  0.43290805  1
  P  P20  1  0.75118851  0.56709195  0.93801023  1
  P  P21  1  0.24936603  0.93780965  0.37088719  1
  P  P22  1  0.24936603  0.62911281  0.56692246  1
  P  P23  1  0.24936603  0.43307754  0.06219035  1
  P  P24  1  0.56700272  -0.00000000  0.00000000  1
  Rh  Rh25  1  0.74925758  0.73792462  0.58442450  1
  Rh  Rh26  1  0.74925758  0.41557550  0.15350012  1
  Rh  Rh27  1  0.74925758  0.84649988  0.26207538  1
  Rh  Rh28  1  0.25129327  0.26206854  0.41521474  1
  Rh  Rh29  1  0.25129327  0.58478526  0.84685381  1
  Rh  Rh30  1  0.25129327  0.15314619  0.73793146  1
  Rh  Rh31  1  0.74998169  0.12699826  0.97687447  1
  Rh  Rh32  1  0.74998169  0.02312553  0.15012379  1
  Rh  Rh33  1  0.74998169  0.84987621  0.87300174  1
  Rh  Rh34  1  0.25542448  0.87674100  0.02277178  1
  Rh  Rh35  1  0.25542448  0.97722822  0.85396922  1
  Rh  Rh36  1  0.25542448  0.14603078  0.12325900  1
  Rh  Rh37  1  0.75099613  0.42810075  0.77639847  1
  Rh  Rh38  1  0.75099613  0.22360153  0.65170229  1
  Rh  Rh39  1  0.75099613  0.34829771  0.57189925  1
  Rh  Rh40  1  0.24867398  0.57220120  0.22377130  1
  Rh  Rh41  1  0.24867398  0.77622870  0.34842990  1
  Rh  Rh42  1  0.24867398  0.65157010  0.42779880  1
  Rh  Rh43  1  0.74918031  0.53830630  0.07364865  1
  Rh  Rh44  1  0.74918031  0.92635135  0.46465765  1
  Rh  Rh45  1  0.74918031  0.53534235  0.46169370  1
  Rh  Rh46  1  0.25111048  0.46160036  0.92657065  1
  Rh  Rh47  1  0.25111048  0.07342935  0.53502971  1
  Rh  Rh48  1  0.25111048  0.46497029  0.53839964  1
  Rh  Rh49  1  0.75424291  0.04782417  0.77218480  1
  Rh  Rh50  1  0.75424291  0.22781520  0.27563937  1
  Rh  Rh51  1  0.75424291  0.72436063  0.95217583  1
  Rh  Rh52  1  0.24757295  0.95125195  0.22779890  1
  Rh  Rh53  1  0.24757295  0.77220110  0.72345304  1
  Rh  Rh54  1  0.24757295  0.27654696  0.04874805  1
