# generated using pymatgen
data_Ba20Ru11PtO48
_symmetry_space_group_name_H-M   'P 1'
_cell_length_a   5.98756845
_cell_length_b   11.02429117
_cell_length_c   20.12045348
_cell_angle_alpha   90.30314186
_cell_angle_beta   90.00000000
_cell_angle_gamma   90.00000000
_symmetry_Int_Tables_number   1
_chemical_formula_structural   Ba20Ru11PtO48
_chemical_formula_sum   'Ba20 Ru11 Pt1 O48'
_cell_volume   1328.10634856
_cell_formula_units_Z   1
loop_
 _symmetry_equiv_pos_site_id
 _symmetry_equiv_pos_as_xyz
  1  'x, y, z'
loop_
 _atom_site_type_symbol
 _atom_site_label
 _atom_site_symmetry_multiplicity
 _atom_site_fract_x
 _atom_site_fract_y
 _atom_site_fract_z
 _atom_site_occupancy
  Ba  Ba0  1  0.75000000  0.11274102  0.96966667  1
  Ba  Ba1  1  0.75000000  0.61274048  0.53048183  1
  Ba  Ba2  1  0.25000000  0.88699506  0.03060790  1
  Ba  Ba3  1  0.25000000  0.38673741  0.46962426  1
  Ba  Ba4  1  0.75000000  0.30215275  0.75482204  1
  Ba  Ba5  1  0.75000000  0.80237066  0.74439734  1
  Ba  Ba6  1  0.25000000  0.69892168  0.24512732  1
  Ba  Ba7  1  0.25000000  0.19772683  0.25488564  1
  Ba  Ba8  1  0.75000000  0.95198987  0.17546831  1
  Ba  Ba9  1  0.75000000  0.45011327  0.32561698  1
  Ba  Ba10  1  0.25000000  0.04816561  0.82384498  1
  Ba  Ba11  1  0.25000000  0.54787710  0.67571631  1
  Ba  Ba12  1  0.75000000  0.31398674  0.13037135  1
  Ba  Ba13  1  0.75000000  0.81480605  0.37059967  1
  Ba  Ba14  1  0.25000000  0.68547609  0.86924515  1
  Ba  Ba15  1  0.25000000  0.18598892  0.63025600  1
  Ba  Ba16  1  0.75000000  0.47413600  0.92632708  1
  Ba  Ba17  1  0.75000000  0.97399724  0.57380980  1
  Ba  Ba18  1  0.25000000  0.52729008  0.07367267  1
  Ba  Ba19  1  0.25000000  0.02691121  0.42601631  1
  Ru  Ru20  1  0.75000000  0.61648929  0.17875410  1
  Ru  Ru21  1  0.75000000  0.12192438  0.32698209  1
  Ru  Ru22  1  0.25000000  0.37855701  0.82726461  1
  Ru  Ru23  1  0.25000000  0.87822664  0.67308432  1
  Ru  Ru24  1  0.75000000  0.80720805  0.92792655  1
  Ru  Ru25  1  0.75000000  0.30473449  0.56890981  1
  Ru  Ru26  1  0.25000000  0.19497443  0.06875208  1
  Ru  Ru27  1  0.25000000  0.69499628  0.43097572  1
  Ru  Ru28  1  0.75000000  0.21445284  0.44233952  1
  Ru  Ru29  1  0.25000000  0.28529817  0.94210343  1
  Ru  Ru30  1  0.25000000  0.78564018  0.55771750  1
  Pt  Pt31  1  0.75000000  0.71660089  0.05525591  1
  O  O32  1  0.97827893  0.69335212  0.98119683  1
  O  O33  1  0.52386780  0.19279589  0.51618745  1
  O  O34  1  0.47458215  0.30742919  0.01605798  1
  O  O35  1  0.02434576  0.80713991  0.48402386  1
  O  O36  1  0.02541785  0.30742919  0.01605798  1
  O  O37  1  0.47565424  0.80713991  0.48402386  1
  O  O38  1  0.52172107  0.69335212  0.98119683  1
  O  O39  1  0.97613220  0.19279589  0.51618745  1
  O  O40  1  0.75000000  0.89172299  0.02263086  1
  O  O41  1  0.75000000  0.38785589  0.47543647  1
  O  O42  1  0.25000000  0.11150872  0.97533779  1
  O  O43  1  0.25000000  0.61238621  0.52444263  1
  O  O44  1  0.98285906  0.73677667  0.13037356  1
  O  O45  1  0.51195763  0.23964766  0.37045013  1
  O  O46  1  0.48655923  0.26002645  0.87058882  1
  O  O47  1  0.01219056  0.76028913  0.62931726  1
  O  O48  1  0.01344077  0.26002645  0.87058882  1
  O  O49  1  0.48780944  0.76028913  0.62931726  1
  O  O50  1  0.51714094  0.73677667  0.13037356  1
  O  O51  1  0.98804237  0.23964766  0.37045013  1
  O  O52  1  0.75000000  0.69053420  0.85838757  1
  O  O53  1  0.75000000  0.19141551  0.64005869  1
  O  O54  1  0.25000000  0.30893353  0.14017380  1
  O  O55  1  0.25000000  0.80849350  0.35994853  1
  O  O56  1  0.51579069  0.90654500  0.89585590  1
  O  O57  1  0.98240421  0.40506709  0.60318340  1
  O  O58  1  0.01754710  0.09553156  0.10315977  1
  O  O59  1  0.48236374  0.59492958  0.39676964  1
  O  O60  1  0.48245290  0.09553156  0.10315977  1
  O  O61  1  0.01763626  0.59492958  0.39676964  1
  O  O62  1  0.98420931  0.90654500  0.89585590  1
  O  O63  1  0.51759579  0.40506709  0.60318340  1
  O  O64  1  0.75000000  0.53958413  0.08328529  1
  O  O65  1  0.75000000  0.03704864  0.41939067  1
  O  O66  1  0.25000000  0.46380935  0.91947284  1
  O  O67  1  0.25000000  0.96311325  0.58061087  1
  O  O68  1  0.75000000  0.72096655  0.25443124  1
  O  O69  1  0.75000000  0.21908623  0.24761977  1
  O  O70  1  0.25000000  0.28049829  0.74768036  1
  O  O71  1  0.25000000  0.78091590  0.75227599  1
  O  O72  1  0.51775781  0.51284778  0.20851903  1
  O  O73  1  0.97760688  0.01626980  0.29317787  1
  O  O74  1  0.02284889  0.48357915  0.79339072  1
  O  O75  1  0.47767599  0.98372320  0.70684445  1
  O  O76  1  0.47715111  0.48357915  0.79339072  1
  O  O77  1  0.02232401  0.98372320  0.70684445  1
  O  O78  1  0.98224219  0.51284778  0.20851903  1
  O  O79  1  0.52239312  0.01626980  0.29317787  1
