# generated using pymatgen
data_TbNbO4
_symmetry_space_group_name_H-M   'P 1'
_cell_length_a   5.16582050
_cell_length_b   5.35982739
_cell_length_c   6.64131030
_cell_angle_alpha   112.19134849
_cell_angle_beta   111.23076832
_cell_angle_gamma   93.80677540
_symmetry_Int_Tables_number   1
_chemical_formula_structural   TbNbO4
_chemical_formula_sum   'Tb2 Nb2 O8'
_cell_volume   154.24763300
_cell_formula_units_Z   2
loop_
 _symmetry_equiv_pos_site_id
 _symmetry_equiv_pos_as_xyz
  1  'x, y, z'
loop_
 _atom_site_type_symbol
 _atom_site_label
 _atom_site_symmetry_multiplicity
 _atom_site_fract_x
 _atom_site_fract_y
 _atom_site_fract_z
 _atom_site_occupancy
  O  O0  1  0.28951273  0.13014657  0.07970950  1
  O  O1  1  0.79019677  0.44956293  0.07970950  1
  O  O2  1  0.71048727  0.86985343  0.92029050  1
  O  O3  1  0.20980323  0.55043707  0.92029050  1
  O  O4  1  0.51641804  0.71696808  0.43451377  1
  O  O5  1  0.91809573  0.21754569  0.43451377  1
  O  O6  1  0.48358196  0.28303192  0.56548623  1
  O  O7  1  0.08190427  0.78245431  0.56548623  1
  Nb  Nb8  1  0.35872641  0.60872641  0.71745282  1
  Nb  Nb9  1  0.64127359  0.39127359  0.28254718  1
  Tb  Tb10  1  0.87796746  0.12796746  0.75593491  1
  Tb  Tb11  1  0.12203254  0.87203254  0.24406509  1
