# generated using pymatgen
data_Ag3Te32Au13
_symmetry_space_group_name_H-M   'P 1'
_cell_length_a   9.08914033
_cell_length_b   9.04361043
_cell_length_c   17.55271940
_cell_angle_alpha   75.07153725
_cell_angle_beta   89.93353873
_cell_angle_gamma   90.00000000
_symmetry_Int_Tables_number   1
_chemical_formula_structural   Ag3Te32Au13
_chemical_formula_sum   'Ag3 Te32 Au13'
_cell_volume   1394.11134320
_cell_formula_units_Z   1
loop_
 _symmetry_equiv_pos_site_id
 _symmetry_equiv_pos_as_xyz
  1  'x, y, z'
loop_
 _atom_site_type_symbol
 _atom_site_label
 _atom_site_symmetry_multiplicity
 _atom_site_fract_x
 _atom_site_fract_y
 _atom_site_fract_z
 _atom_site_occupancy
  Ag  Ag0  1  0.31670988  0.42668261  0.24970183  1
  Ag  Ag1  1  0.68329012  0.17638444  0.75029817  1
  Ag  Ag2  1  -0.00000000  0.79987910  0.50000000  1
  Te  Te3  1  0.36917454  0.09447878  0.37292870  1
  Te  Te4  1  0.36755965  0.59799956  0.37380034  1
  Te  Te5  1  0.63082546  0.96740749  0.62707130  1
  Te  Te6  1  0.63244035  0.47179990  0.62619966  1
  Te  Te7  1  0.36923979  0.21713134  0.12735912  1
  Te  Te8  1  0.36757030  0.72187053  0.12663117  1
  Te  Te9  1  0.63076021  0.84449046  0.87264088  1
  Te  Te10  1  0.63242970  0.34850171  0.87336883  1
  Te  Te11  1  0.01887210  0.90120775  0.25042181  1
  Te  Te12  1  0.01101447  0.40062610  0.24918517  1
  Te  Te13  1  0.98112790  0.65162955  0.74957819  1
  Te  Te14  1  0.98898553  0.14981127  0.75081483  1
  Te  Te15  1  0.61432827  0.35790445  0.24959234  1
  Te  Te16  1  0.61318038  0.86145989  0.25004885  1
  Te  Te17  1  0.38567173  0.10749679  0.75040766  1
  Te  Te18  1  0.38681962  0.61150875  0.74995115  1
  Te  Te19  1  0.69829791  0.85065789  0.49484877  1
  Te  Te20  1  0.70202341  0.34801271  0.49499531  1
  Te  Te21  1  0.30170209  0.84550666  0.50515123  1
  Te  Te22  1  0.29797659  0.34300801  0.50500469  1
  Te  Te23  1  0.70236843  0.09305619  0.00458865  1
  Te  Te24  1  0.70231372  0.59303948  0.00536005  1
  Te  Te25  1  0.29763157  0.59764484  0.99541135  1
  Te  Te26  1  0.29768628  0.09839952  0.99463995  1
  Te  Te27  1  0.96123879  0.62770044  0.37885536  1
  Te  Te28  1  0.96125820  0.13238593  0.37927810  1
  Te  Te29  1  0.03876121  0.50655581  0.62114464  1
  Te  Te30  1  0.03874180  0.01166403  0.62072190  1
  Te  Te31  1  0.96231614  0.75776331  0.12106241  1
  Te  Te32  1  0.96226977  0.25833201  0.12023237  1
  Te  Te33  1  0.03768386  0.37882572  0.87893759  1
  Te  Te34  1  0.03773023  0.87856438  0.87976763  1
  Au  Au35  1  0.66591782  0.10958582  0.37402905  1
  Au  Au36  1  0.66517373  0.60969687  0.37420181  1
  Au  Au37  1  0.33408218  0.98361487  0.62597095  1
  Au  Au38  1  0.33482627  0.48389869  0.62579819  1
  Au  Au39  1  0.66657110  0.23285775  0.12517762  1
  Au  Au40  1  0.66578458  0.73358177  0.12609792  1
  Au  Au41  1  0.33342890  0.85803537  0.87482238  1
  Au  Au42  1  0.33421542  0.35967969  0.87390208  1
  Au  Au43  1  0.31786898  0.91681229  0.25005937  1
  Au  Au44  1  0.68213102  0.66687167  0.74994063  1
  Au  Au45  1  1.00000000  0.30827003  0.50000000  1
  Au  Au46  1  0.00014733  0.55664519  0.00061738  1
  Au  Au47  1  0.99985267  0.05726257  0.99938262  1
