# generated using pymatgen
data_Cs8(Re4S9)3
_symmetry_space_group_name_H-M   'P 1'
_cell_length_a   10.36764224
_cell_length_b   13.93971171
_cell_length_c   17.85006720
_cell_angle_alpha   90.00000000
_cell_angle_beta   90.00000000
_cell_angle_gamma   100.31645102
_symmetry_Int_Tables_number   1
_chemical_formula_structural   Cs8(Re4S9)3
_chemical_formula_sum   'Cs16 Re24 S54'
_cell_volume   2538.02167343
_cell_formula_units_Z   2
loop_
 _symmetry_equiv_pos_site_id
 _symmetry_equiv_pos_as_xyz
  1  'x, y, z'
loop_
 _atom_site_type_symbol
 _atom_site_label
 _atom_site_symmetry_multiplicity
 _atom_site_fract_x
 _atom_site_fract_y
 _atom_site_fract_z
 _atom_site_occupancy
  Cs  Cs0  1  0.27370580  0.20184246  0.97318432  1
  Cs  Cs1  1  0.77826364  0.70446355  0.52624059  1
  Cs  Cs2  1  0.72173636  0.79553645  0.02624059  1
  Cs  Cs3  1  0.22629420  0.29815754  0.47318432  1
  Cs  Cs4  1  0.30555577  0.10576106  0.65297669  1
  Cs  Cs5  1  0.80283202  0.60983925  0.84437655  1
  Cs  Cs6  1  0.69716798  0.89016075  0.34437655  1
  Cs  Cs7  1  0.19444423  0.39423894  0.15297669  1
  Cs  Cs8  1  0.75535115  0.39863644  0.62655763  1
  Cs  Cs9  1  0.25566731  0.89796986  0.87431399  1
  Cs  Cs10  1  0.24433269  0.60203014  0.37431399  1
  Cs  Cs11  1  0.74464885  0.10136356  0.12655763  1
  Cs  Cs12  1  0.66258106  0.29517961  0.97346669  1
  Cs  Cs13  1  0.19432032  0.81841499  0.52771883  1
  Cs  Cs14  1  0.30567968  0.68158501  0.02771883  1
  Cs  Cs15  1  0.83741894  0.20482039  0.47346669  1
  Re  Re16  1  0.38593826  0.60608448  0.78434752  1
  Re  Re17  1  0.88508651  0.10573466  0.71535236  1
  Re  Re18  1  0.61491349  0.39426534  0.21535236  1
  Re  Re19  1  0.11406174  0.89391552  0.28434752  1
  Re  Re20  1  0.66497235  0.88816624  0.80072731  1
  Re  Re21  1  0.16581308  0.38824255  0.69939676  1
  Re  Re22  1  0.33418692  0.11175745  0.19939676  1
  Re  Re23  1  0.83502765  0.61183376  0.30072731  1
  Re  Re24  1  0.35937495  0.52351981  0.64852823  1
  Re  Re25  1  0.85922134  0.02349014  0.85108838  1
  Re  Re26  1  0.64077866  0.47650986  0.35108838  1
  Re  Re27  1  0.14062505  0.97648019  0.14852823  1
  Re  Re28  1  0.69109066  0.96979503  0.66683489  1
  Re  Re29  1  0.19420574  0.47006342  0.83346148  1
  Re  Re30  1  0.30579426  0.02993658  0.33346148  1
  Re  Re31  1  0.80890934  0.53020497  0.16683489  1
  Re  Re32  1  0.65588449  0.07620536  0.78478027  1
  Re  Re33  1  0.15628514  0.57605659  0.71526963  1
  Re  Re34  1  0.34371486  0.92394341  0.21526963  1
  Re  Re35  1  0.84411551  0.42379464  0.28478027  1
  Re  Re36  1  0.39745974  0.41883672  0.76679108  1
  Re  Re37  1  0.89613993  0.91889464  0.73250004  1
  Re  Re38  1  0.60386007  0.58110536  0.23250004  1
  Re  Re39  1  0.10254026  0.08116328  0.26679108  1
  S  S40  1  0.86609158  0.85253604  0.85768708  1
  S  S41  1  0.36618418  0.35219125  0.64193391  1
  S  S42  1  0.13381582  0.14780875  0.14193391  1
  S  S43  1  0.63390842  0.64746396  0.35768708  1
  S  S44  1  0.34450796  0.69280843  0.67191123  1
  S  S45  1  0.84435582  0.19287671  0.82803166  1
  S  S46  1  0.65564418  0.30712329  0.32803166  1
  S  S47  1  0.15549204  0.80719157  0.17191123  1
  S  S48  1  0.07136856  0.82578959  0.70593297  1
  S  S49  1  0.57165556  0.32530789  0.79341015  1
  S  S50  1  0.92834444  0.17469211  0.29341015  1
  S  S51  1  0.42863144  0.67421041  0.20593297  1
  S  S52  1  0.49317023  0.17800337  0.81910836  1
  S  S53  1  0.99546761  0.67856976  0.67850499  1
  S  S54  1  0.50453239  0.82143024  0.17850499  1
  S  S55  1  0.00682977  0.32199663  0.31910836  1
  S  S56  1  0.41133336  0.49795492  0.88886083  1
  S  S57  1  0.90822493  0.99843377  0.61019288  1
  S  S58  1  0.59177507  0.50156623  0.11019288  1
  S  S59  1  0.08866664  0.00204508  0.38886083  1
  S  S60  1  0.13928343  0.49513507  0.59405152  1
  S  S61  1  0.63957389  0.99531126  0.90606953  1
  S  S62  1  0.86042611  0.50468874  0.40606953  1
  S  S63  1  0.36071657  0.00486493  0.09405152  1
  S  S64  1  0.70950066  0.80172002  0.69037826  1
  S  S65  1  0.21199281  0.30173427  0.80942357  1
  S  S66  1  0.28800719  0.19826573  0.30942357  1
  S  S67  1  0.79049934  0.69827998  0.19037826  1
  S  S68  1  0.68471516  0.14175472  0.65887031  1
  S  S69  1  0.18503830  0.64228773  0.84065595  1
  S  S70  1  0.31496170  0.85771227  0.34065595  1
  S  S71  1  0.81528484  0.35824528  0.15887031  1
  S  S72  1  0.52220817  0.74353519  0.85637458  1
  S  S73  1  0.02356884  0.24322894  0.64427696  1
  S  S74  1  0.47643116  0.25677106  0.14427696  1
  S  S75  1  0.97779183  0.75646481  0.35637458  1
  S  S76  1  0.96507642  0.06130076  0.97615008  1
  S  S77  1  0.46554960  0.56159324  0.52360017  1
  S  S78  1  0.03445040  0.93840676  0.02360017  1
  S  S79  1  0.53492358  0.43869924  0.47615008  1
  S  S80  1  0.10530074  0.42758925  0.96048883  1
  S  S81  1  0.57319774  0.91429847  0.54776507  1
  S  S82  1  0.92680226  0.58570153  0.04776507  1
  S  S83  1  0.39469926  0.07241075  0.46048883  1
  S  S84  1  0.48806387  0.94546915  0.73639751  1
  S  S85  1  0.98960263  0.44548154  0.76505911  1
  S  S86  1  0.51039737  0.05451846  0.26505911  1
  S  S87  1  0.01193613  0.55453085  0.23639751  1
  S  S88  1  0.56315835  0.54997497  0.71792605  1
  S  S89  1  0.06275825  0.04949310  0.78111786  1
  S  S90  1  0.43724175  0.45050690  0.28111786  1
  S  S91  1  0.93684165  0.95002503  0.21792605  1
  S  S92  1  0.92447133  0.46968001  0.97430734  1
  S  S93  1  0.57552867  0.03031999  0.47430734  1
