# generated using pymatgen
data_KZnB(PO4)2
_symmetry_space_group_name_H-M   'P 1'
_cell_length_a   8.52347172
_cell_length_b   9.11501120
_cell_length_c   9.11501108
_cell_angle_alpha   90.50768900
_cell_angle_beta   90.92962800
_cell_angle_gamma   90.92963199
_symmetry_Int_Tables_number   1
_chemical_formula_structural   KZnB(PO4)2
_chemical_formula_sum   'K4 Zn4 B4 P8 O32'
_cell_volume   707.94335602
_cell_formula_units_Z   4
loop_
 _symmetry_equiv_pos_site_id
 _symmetry_equiv_pos_as_xyz
  1  'x, y, z'
loop_
 _atom_site_type_symbol
 _atom_site_label
 _atom_site_symmetry_multiplicity
 _atom_site_fract_x
 _atom_site_fract_y
 _atom_site_fract_z
 _atom_site_occupancy
  K  K0  1  0.25000000  0.03050844  0.96949156  1
  K  K1  1  0.75000000  0.96949156  0.03050844  1
  K  K2  1  0.75000000  0.59770406  0.40229594  1
  K  K3  1  0.25000000  0.40229594  0.59770406  1
  Zn  Zn4  1  0.56121784  0.31364498  0.93391492  1
  Zn  Zn5  1  0.93878216  0.06608508  0.68635502  1
  Zn  Zn6  1  0.06121784  0.93391492  0.31364498  1
  Zn  Zn7  1  0.43878216  0.68635502  0.06608508  1
  B  B8  1  0.42629517  0.79545035  0.57604896  1
  B  B9  1  0.07370483  0.42395104  0.20454965  1
  B  B10  1  0.57370483  0.20454965  0.42395104  1
  B  B11  1  0.92629517  0.57604896  0.79545035  1
  P  P12  1  0.05935597  0.68936708  0.05278591  1
  P  P13  1  0.59252124  0.61133006  0.77418508  1
  P  P14  1  0.09252124  0.77418508  0.61133006  1
  P  P15  1  0.90747876  0.22581492  0.38866994  1
  P  P16  1  0.55935597  0.05278591  0.68936708  1
  P  P17  1  0.40747876  0.38866994  0.22581492  1
  P  P18  1  0.94064403  0.31063292  0.94721409  1
  P  P19  1  0.44064403  0.94721409  0.31063292  1
  O  O20  1  0.23520725  0.42813670  0.26552951  1
  O  O21  1  0.91550082  0.09745430  0.28005375  1
  O  O22  1  0.43338551  0.92606728  0.67055311  1
  O  O23  1  0.99697963  0.80131699  0.46941468  1
  O  O24  1  0.01933621  0.57518666  0.17531021  1
  O  O25  1  0.98066379  0.42481334  0.82468979  1
  O  O26  1  0.72325930  0.99220033  0.67027187  1
  O  O27  1  0.22325930  0.67027187  0.99220033  1
  O  O28  1  0.00302037  0.19868301  0.53058532  1
  O  O29  1  0.02936623  0.84223024  0.11725740  1
  O  O30  1  0.76479275  0.57186330  0.73447049  1
  O  O31  1  0.26479275  0.73447049  0.57186330  1
  O  O32  1  0.41550082  0.28005375  0.09745430  1
  O  O33  1  0.56661449  0.07393272  0.32944689  1
  O  O34  1  0.03109378  0.62579652  0.67665416  1
  O  O35  1  0.48066379  0.82468979  0.42481334  1
  O  O36  1  0.77674070  0.32972813  0.00779967  1
  O  O37  1  0.46890622  0.32334584  0.37420348  1
  O  O38  1  0.06661449  0.32944689  0.07393272  1
  O  O39  1  0.47063377  0.88274260  0.15776976  1
  O  O40  1  0.73520725  0.26552951  0.42813670  1
  O  O41  1  0.49697963  0.46941468  0.80131699  1
  O  O42  1  0.53109378  0.67665416  0.62579652  1
  O  O43  1  0.27674070  0.00779967  0.32972813  1
  O  O44  1  0.50302037  0.53058532  0.19868301  1
  O  O45  1  0.52936623  0.11725740  0.84223024  1
  O  O46  1  0.93338551  0.67055311  0.92606728  1
  O  O47  1  0.96890622  0.37420348  0.32334584  1
  O  O48  1  0.97063377  0.15776976  0.88274260  1
  O  O49  1  0.08449918  0.90254570  0.71994625  1
  O  O50  1  0.58449918  0.71994625  0.90254570  1
  O  O51  1  0.51933621  0.17531021  0.57518666  1
