# generated using pymatgen
data_Ba2DyBiO6
_symmetry_space_group_name_H-M   'P 1'
_cell_length_a   6.16192470
_cell_length_b   6.16191400
_cell_length_c   6.16192440
_cell_angle_alpha   60.00005693
_cell_angle_beta   59.99988871
_cell_angle_gamma   60.00005638
_symmetry_Int_Tables_number   1
_chemical_formula_structural   Ba2DyBiO6
_chemical_formula_sum   'Ba2 Dy1 Bi1 O6'
_cell_volume   165.43728495
_cell_formula_units_Z   1
loop_
 _symmetry_equiv_pos_site_id
 _symmetry_equiv_pos_as_xyz
  1  'x, y, z'
loop_
 _atom_site_type_symbol
 _atom_site_label
 _atom_site_symmetry_multiplicity
 _atom_site_fract_x
 _atom_site_fract_y
 _atom_site_fract_z
 _atom_site_occupancy
  Ba  Ba0  1  0.75000021  0.74999979  0.75000021  1
  Ba  Ba1  1  0.25000021  0.24999979  0.25000021  1
  O  O2  1  0.75561246  0.24438754  0.75561246  1
  O  O3  1  0.24438785  0.24438773  0.75561227  1
  O  O4  1  0.75561227  0.75561215  0.24438785  1
  O  O5  1  0.24438785  0.75561215  0.75561227  1
  O  O6  1  0.75561227  0.24438773  0.24438785  1
  Dy  Dy7  1  0.50000038  0.49999962  0.50000038  1
  O  O8  1  0.24438690  0.75561310  0.24438690  1
  Bi  Bi9  1  0.99999961  0.00000039  0.99999961  1
