# generated using pymatgen
data_TaNiGe
_symmetry_space_group_name_H-M   'P 1'
_cell_length_a   3.77406282
_cell_length_b   6.29770980
_cell_length_c   7.21972985
_cell_angle_alpha   90.00000000
_cell_angle_beta   90.00000000
_cell_angle_gamma   90.00000000
_symmetry_Int_Tables_number   1
_chemical_formula_structural   TaNiGe
_chemical_formula_sum   'Ta4 Ni4 Ge4'
_cell_volume   171.59819547
_cell_formula_units_Z   4
loop_
 _symmetry_equiv_pos_site_id
 _symmetry_equiv_pos_as_xyz
  1  'x, y, z'
loop_
 _atom_site_type_symbol
 _atom_site_label
 _atom_site_symmetry_multiplicity
 _atom_site_fract_x
 _atom_site_fract_y
 _atom_site_fract_z
 _atom_site_occupancy
  Ni  Ni0  1  0.75000000  0.83872586  0.57116349  1
  Ni  Ni1  1  0.25000000  0.16127414  0.42883651  1
  Ni  Ni2  1  0.75000000  0.33872586  0.92883651  1
  Ni  Ni3  1  0.25000000  0.66127414  0.07116349  1
  Ge  Ge4  1  0.75000000  0.71739545  0.88410928  1
  Ge  Ge5  1  0.25000000  0.78260455  0.38410928  1
  Ge  Ge6  1  0.25000000  0.28260455  0.11589072  1
  Ge  Ge7  1  0.75000000  0.21739545  0.61589072  1
  Ta  Ta8  1  0.25000000  0.51701923  0.67588378  1
  Ta  Ta9  1  0.25000000  0.01701923  0.82411622  1
  Ta  Ta10  1  0.75000000  0.98298077  0.17588378  1
  Ta  Ta11  1  0.75000000  0.48298077  0.32411622  1
