# generated using pymatgen
data_Cs2AgAsS4
_symmetry_space_group_name_H-M   'P 1'
_cell_length_a   6.93444707
_cell_length_b   7.35331049
_cell_length_c   11.34349411
_cell_angle_alpha   73.16321510
_cell_angle_beta   74.43827012
_cell_angle_gamma   71.12703551
_symmetry_Int_Tables_number   1
_chemical_formula_structural   Cs2AgAsS4
_chemical_formula_sum   'Cs4 Ag2 As2 S8'
_cell_volume   514.03410425
_cell_formula_units_Z   2
loop_
 _symmetry_equiv_pos_site_id
 _symmetry_equiv_pos_as_xyz
  1  'x, y, z'
loop_
 _atom_site_type_symbol
 _atom_site_label
 _atom_site_symmetry_multiplicity
 _atom_site_fract_x
 _atom_site_fract_y
 _atom_site_fract_z
 _atom_site_occupancy
  Cs  Cs0  1  0.76206189  0.51382775  0.18861251  1
  Cs  Cs1  1  0.26995152  0.23967515  0.40374129  1
  Cs  Cs2  1  0.23793811  0.48617225  0.81138749  1
  Cs  Cs3  1  0.73004848  0.76032485  0.59625871  1
  Ag  Ag4  1  0.63844449  0.08201552  0.07834253  1
  Ag  Ag5  1  0.36155551  0.91798448  0.92165747  1
  As  As6  1  0.14000695  0.86530357  0.23105751  1
  As  As7  1  0.85999305  0.13469643  0.76894249  1
  S  S8  1  0.79490999  0.94933979  0.27117740  1
  S  S9  1  0.25443355  0.74248022  0.40606838  1
  S  S10  1  0.25836872  0.64594999  0.11370602  1
  S  S11  1  0.74163128  0.35405001  0.88629398  1
  S  S12  1  0.75703233  0.86761554  0.87957552  1
  S  S13  1  0.20509001  0.05066021  0.72882260  1
  S  S14  1  0.74556645  0.25751978  0.59393162  1
  S  S15  1  0.24296767  0.13238446  0.12042448  1
