# generated using pymatgen
data_Ba2CuIO2
_symmetry_space_group_name_H-M   'P 1'
_cell_length_a   4.45088267
_cell_length_b   11.16025653
_cell_length_c   14.24423903
_cell_angle_alpha   91.38877458
_cell_angle_beta   90.00000000
_cell_angle_gamma   90.00000000
_symmetry_Int_Tables_number   1
_chemical_formula_structural   Ba2CuIO2
_chemical_formula_sum   'Ba8 Cu4 I4 O8'
_cell_volume   707.34613784
_cell_formula_units_Z   4
loop_
 _symmetry_equiv_pos_site_id
 _symmetry_equiv_pos_as_xyz
  1  'x, y, z'
loop_
 _atom_site_type_symbol
 _atom_site_label
 _atom_site_symmetry_multiplicity
 _atom_site_fract_x
 _atom_site_fract_y
 _atom_site_fract_z
 _atom_site_occupancy
  Ba  Ba0  1  0.75000000  0.90990704  0.67990573  1
  Ba  Ba1  1  0.25000000  0.70375316  0.89428502  1
  Ba  Ba2  1  0.75000000  0.83004177  0.14349488  1
  Ba  Ba3  1  0.75000000  0.29624684  0.10571498  1
  Ba  Ba4  1  0.25000000  0.09009296  0.32009427  1
  Ba  Ba5  1  0.25000000  0.58042986  0.40510813  1
  Ba  Ba6  1  0.75000000  0.41957014  0.59489187  1
  Ba  Ba7  1  0.25000000  0.16995823  0.85650512  1
  Cu  Cu8  1  0.25000000  0.66835707  0.65383755  1
  Cu  Cu9  1  0.75000000  0.33164293  0.34616245  1
  Cu  Cu10  1  0.25000000  0.06586553  0.09142773  1
  Cu  Cu11  1  0.75000000  0.93413447  0.90857227  1
  I  I12  1  0.75000000  0.84785142  0.41381223  1
  I  I13  1  0.25000000  0.56318761  0.14388752  1
  I  I14  1  0.75000000  0.43681239  0.85611248  1
  I  I15  1  0.25000000  0.15214858  0.58618777  1
  O  O16  1  0.75000000  0.05696334  0.82664128  1
  O  O17  1  0.75000000  0.46614202  0.41882296  1
  O  O18  1  0.75000000  0.19763162  0.27117178  1
  O  O19  1  0.25000000  0.20935764  0.03358784  1
  O  O20  1  0.25000000  0.53385798  0.58117704  1
  O  O21  1  0.25000000  0.80236838  0.72882822  1
  O  O22  1  0.75000000  0.79064236  0.96641216  1
  O  O23  1  0.25000000  0.94303666  0.17335872  1
