# generated using pymatgen
data_K4Ba(GeO3)3
_symmetry_space_group_name_H-M   'P 1'
_cell_length_a   7.56790922
_cell_length_b   7.56790921
_cell_length_c   11.56563157
_cell_angle_alpha   90.27578610
_cell_angle_beta   90.27578609
_cell_angle_gamma   111.61380998
_symmetry_Int_Tables_number   1
_chemical_formula_structural   K4Ba(GeO3)3
_chemical_formula_sum   'K8 Ba2 Ge6 O18'
_cell_volume   615.80377908
_cell_formula_units_Z   2
loop_
 _symmetry_equiv_pos_site_id
 _symmetry_equiv_pos_as_xyz
  1  'x, y, z'
loop_
 _atom_site_type_symbol
 _atom_site_label
 _atom_site_symmetry_multiplicity
 _atom_site_fract_x
 _atom_site_fract_y
 _atom_site_fract_z
 _atom_site_occupancy
  K  K0  1  0.84216539  0.70672320  0.74907137  1
  K  K1  1  0.05010429  0.94989571  0.00000000  1
  K  K2  1  0.29327680  0.15783461  0.25092863  1
  K  K3  1  0.56680183  0.43319817  0.00000000  1
  K  K4  1  0.58685920  0.41314080  0.50000000  1
  K  K5  1  0.41679843  0.68957441  0.25429594  1
  K  K6  1  0.99844821  0.00155179  0.50000000  1
  K  K7  1  0.31042559  0.58320157  0.74570406  1
  Ba  Ba8  1  0.80238993  0.18275070  0.22965276  1
  Ba  Ba9  1  0.81724930  0.19761007  0.77034724  1
  Ge  Ge10  1  0.33268957  0.11022594  0.74190270  1
  Ge  Ge11  1  0.88977406  0.66731043  0.25809730  1
  Ge  Ge12  1  0.09234430  0.51359561  0.47564010  1
  Ge  Ge13  1  0.49248733  0.89951515  0.96911102  1
  Ge  Ge14  1  0.48640439  0.90765570  0.52435990  1
  Ge  Ge15  1  0.10048485  0.50751267  0.03088898  1
  O  O16  1  0.34606047  0.65393953  0.50000000  1
  O  O17  1  0.90258326  0.89799676  0.23916932  1
  O  O18  1  0.10200324  0.09741674  0.76083068  1
  O  O19  1  0.33148572  0.00841103  0.59814028  1
  O  O20  1  0.34906741  0.65093259  0.00000000  1
  O  O21  1  0.94893782  0.51023107  0.91768955  1
  O  O22  1  0.05984627  0.63198057  0.15863558  1
  O  O23  1  0.99158897  0.66851428  0.40185972  1
  O  O24  1  0.36801943  0.94015373  0.84136442  1
  O  O25  1  0.10654257  0.29270939  0.07816317  1
  O  O26  1  0.66663233  0.48234596  0.24905899  1
  O  O27  1  0.67018023  0.90404359  0.61435740  1
  O  O28  1  0.09595641  0.32981977  0.38564260  1
  O  O29  1  0.97458598  0.46160714  0.60781569  1
  O  O30  1  0.48976893  0.05106218  0.08231045  1
  O  O31  1  0.70729061  0.89345743  0.92183683  1
  O  O32  1  0.53839286  0.02541402  0.39218431  1
  O  O33  1  0.51765404  0.33336767  0.75094101  1
