# generated using pymatgen
data_TlH4NCl4
_symmetry_space_group_name_H-M   'P 1'
_cell_length_a   7.20272250
_cell_length_b   7.20272250
_cell_length_c   9.46317189
_cell_angle_alpha   112.36874495
_cell_angle_beta   112.36874489
_cell_angle_gamma   89.99999998
_symmetry_Int_Tables_number   1
_chemical_formula_structural   TlH4NCl4
_chemical_formula_sum   'Tl2 H8 N2 Cl8'
_cell_volume   413.77376146
_cell_formula_units_Z   2
loop_
 _symmetry_equiv_pos_site_id
 _symmetry_equiv_pos_as_xyz
  1  'x, y, z'
loop_
 _atom_site_type_symbol
 _atom_site_label
 _atom_site_symmetry_multiplicity
 _atom_site_fract_x
 _atom_site_fract_y
 _atom_site_fract_z
 _atom_site_occupancy
  H  H0  1  0.43216801  0.57520924  0.92476860  1
  H  H1  1  0.59955936  0.18216801  0.42476860  1
  H  H2  1  0.82520924  0.24260059  0.42476860  1
  H  H3  1  0.49260059  0.34955936  0.92476860  1
  H  H4  1  0.81783199  0.17479076  0.57523140  1
  H  H5  1  0.65044064  0.56783199  0.07523140  1
  H  H6  1  0.42479076  0.50739941  0.07523140  1
  H  H7  1  0.75739941  0.40044064  0.57523140  1
  N  N8  1  0.50000000  0.50000000  0.00000000  1
  N  N9  1  0.75000000  0.25000000  0.50000000  1
  Cl  Cl10  1  0.49103177  0.59480344  0.67248252  1
  Cl  Cl11  1  0.75896823  0.15519656  0.82751748  1
  Cl  Cl12  1  0.06854925  0.67232093  0.82751748  1
  Cl  Cl13  1  0.92232093  0.50896823  0.32751748  1
  Cl  Cl14  1  0.84480344  0.93145075  0.17248252  1
  Cl  Cl15  1  0.32767907  0.24103177  0.17248252  1
  Cl  Cl16  1  0.18145075  0.07767907  0.67248252  1
  Cl  Cl17  1  0.40519656  0.81854925  0.32751748  1
  Tl  Tl18  1  0.25000000  0.75000000  0.50000000  1
  Tl  Tl19  1  0.00000000  0.00000000  0.00000000  1
