# generated using pymatgen
data_Na7AlH2C4(O3F)4
_symmetry_space_group_name_H-M   'P 1'
_cell_length_a   6.54311566
_cell_length_b   6.81116798
_cell_length_c   8.91758593
_cell_angle_alpha   92.46372927
_cell_angle_beta   97.34026487
_cell_angle_gamma   119.19326472
_symmetry_Int_Tables_number   1
_chemical_formula_structural   Na7AlH2C4(O3F)4
_chemical_formula_sum   'Na7 Al1 H2 C4 O12 F4'
_cell_volume   341.54483440
_cell_formula_units_Z   1
loop_
 _symmetry_equiv_pos_site_id
 _symmetry_equiv_pos_as_xyz
  1  'x, y, z'
loop_
 _atom_site_type_symbol
 _atom_site_label
 _atom_site_symmetry_multiplicity
 _atom_site_fract_x
 _atom_site_fract_y
 _atom_site_fract_z
 _atom_site_occupancy
  Na  Na0  1  0.00000000  0.00000000  0.00000000  1
  Na  Na1  1  0.50000000  0.50000000  0.00000000  1
  Na  Na2  1  0.50000000  0.00000000  0.00000000  1
  Na  Na3  1  0.27501073  0.61487483  0.64192872  1
  Na  Na4  1  0.72498927  0.38512517  0.35807128  1
  Na  Na5  1  0.22335928  0.88052275  0.35506936  1
  Na  Na6  1  0.77664072  0.11947725  0.64493064  1
  Al  Al7  1  0.00000000  0.50000000  0.00000000  1
  H  H8  1  0.77538624  0.77222563  0.49049476  1
  H  H9  1  0.22461376  0.22777437  0.50950524  1
  C  C10  1  0.71314570  0.88890580  0.29851865  1
  C  C11  1  0.28685430  0.11109420  0.70148135  1
  C  C12  1  0.79769186  0.61296255  0.71474224  1
  C  C13  1  0.20230814  0.38703745  0.28525776  1
  O  O14  1  0.64954904  0.00709847  0.37375668  1
  O  O15  1  0.35045096  0.99290153  0.62624332  1
  O  O16  1  0.80206823  0.77126572  0.37871800  1
  O  O17  1  0.19793177  0.22873428  0.62128200  1
  O  O18  1  0.70352405  0.86866298  0.15587317  1
  O  O19  1  0.29647595  0.13133702  0.84412683  1
  O  O20  1  0.71910364  0.74350257  0.66185800  1
  O  O21  1  0.28089636  0.25649743  0.33814200  1
  O  O22  1  0.82468648  0.60761297  0.86398062  1
  O  O23  1  0.17531352  0.39238703  0.13601938  1
  O  O24  1  0.84772154  0.49474470  0.62647864  1
  O  O25  1  0.15227846  0.50525530  0.37352136  1
  F  F26  1  0.24736882  0.60627065  0.89174993  1
  F  F27  1  0.75263118  0.39372935  0.10825007  1
  F  F28  1  0.15100308  0.78612985  0.10561752  1
  F  F29  1  0.84899692  0.21387015  0.89438248  1
