# generated using pymatgen
data_ThCl4
_symmetry_space_group_name_H-M   'P 1'
_cell_length_a   6.55511289
_cell_length_b   6.55501629
_cell_length_c   7.97720340
_cell_angle_alpha   114.25709087
_cell_angle_beta   114.25801226
_cell_angle_gamma   89.99965821
_symmetry_Int_Tables_number   1
_chemical_formula_structural   ThCl4
_chemical_formula_sum   'Th2 Cl8'
_cell_volume   278.97985681
_cell_formula_units_Z   2
loop_
 _symmetry_equiv_pos_site_id
 _symmetry_equiv_pos_as_xyz
  1  'x, y, z'
loop_
 _atom_site_type_symbol
 _atom_site_label
 _atom_site_symmetry_multiplicity
 _atom_site_fract_x
 _atom_site_fract_y
 _atom_site_fract_z
 _atom_site_occupancy
  Th  Th0  1  0.12501254  0.37499103  0.25000317  1
  Th  Th1  1  0.87498746  0.62500897  0.74999683  1
  Cl  Cl2  1  0.46375486  0.33073470  0.59315325  1
  Cl  Cl3  1  0.73758649  0.03626062  0.90682859  1
  Cl  Cl4  1  0.83074526  0.62941328  0.09316937  1
  Cl  Cl5  1  0.26241351  0.96373938  0.09317141  1
  Cl  Cl6  1  0.16925474  0.37058672  0.90683063  1
  Cl  Cl7  1  0.53624514  0.66926530  0.40684675  1
  Cl  Cl8  1  0.87059496  0.23758239  0.40684271  1
  Cl  Cl9  1  0.12940504  0.76241761  0.59315729  1
