# generated using pymatgen
data_Sm2Ti2S2O5
_symmetry_space_group_name_H-M   'P 1'
_cell_length_a   3.84291009
_cell_length_b   3.84291009
_cell_length_c   11.92796949
_cell_angle_alpha   99.27006448
_cell_angle_beta   99.27006444
_cell_angle_gamma   90.00000002
_symmetry_Int_Tables_number   1
_chemical_formula_structural   Sm2Ti2S2O5
_chemical_formula_sum   'Sm2 Ti2 S2 O5'
_cell_volume   171.51981973
_cell_formula_units_Z   1
loop_
 _symmetry_equiv_pos_site_id
 _symmetry_equiv_pos_as_xyz
  1  'x, y, z'
loop_
 _atom_site_type_symbol
 _atom_site_label
 _atom_site_symmetry_multiplicity
 _atom_site_fract_x
 _atom_site_fract_y
 _atom_site_fract_z
 _atom_site_occupancy
  O  O0  1  0.40232049  0.90232049  0.80464098  1
  O  O1  1  0.90232049  0.40232049  0.80464098  1
  O  O2  1  0.59767951  0.09767951  0.19535902  1
  O  O3  1  0.09767951  0.59767951  0.19535902  1
  O  O4  1  0.50000000  0.50000000  0.00000000  1
  S  S5  1  0.29584024  0.29584024  0.59168047  1
  S  S6  1  0.70415976  0.70415976  0.40831953  1
  Ti  Ti7  1  0.42197245  0.42197245  0.84394490  1
  Ti  Ti8  1  0.57802755  0.57802755  0.15605510  1
  Sm  Sm9  1  0.83393743  0.83393743  0.66787485  1
  Sm  Sm10  1  0.16606257  0.16606257  0.33212515  1
