# generated using pymatgen
data_SmCuP2
_symmetry_space_group_name_H-M   'P 1'
_cell_length_a   3.77441521
_cell_length_b   3.77441521
_cell_length_c   10.28788315
_cell_angle_alpha   100.57018508
_cell_angle_beta   100.57018507
_cell_angle_gamma   90.00000004
_symmetry_Int_Tables_number   1
_chemical_formula_structural   SmCuP2
_chemical_formula_sum   'Sm2 Cu2 P4'
_cell_volume   141.54556874
_cell_formula_units_Z   2
loop_
 _symmetry_equiv_pos_site_id
 _symmetry_equiv_pos_as_xyz
  1  'x, y, z'
loop_
 _atom_site_type_symbol
 _atom_site_label
 _atom_site_symmetry_multiplicity
 _atom_site_fract_x
 _atom_site_fract_y
 _atom_site_fract_z
 _atom_site_occupancy
  P  P0  1  0.67537383  0.67537383  0.35074767  1
  P  P1  1  0.32462617  0.32462617  0.64925233  1
  P  P2  1  0.50000000  0.00000000  0.00000000  1
  P  P3  1  0.00000000  0.50000000  0.00000000  1
  Cu  Cu4  1  0.75000000  0.25000000  0.50000000  1
  Cu  Cu5  1  0.25000000  0.75000000  0.50000000  1
  Sm  Sm6  1  0.88344584  0.88344584  0.76689168  1
  Sm  Sm7  1  0.11655416  0.11655416  0.23310832  1
