# generated using pymatgen
data_RbGd2CuSe4
_symmetry_space_group_name_H-M   'P 1'
_cell_length_a   4.18175116
_cell_length_b   7.52378653
_cell_length_c   14.51504041
_cell_angle_alpha   90.00000000
_cell_angle_beta   90.00000000
_cell_angle_gamma   106.13503137
_symmetry_Int_Tables_number   1
_chemical_formula_structural   RbGd2CuSe4
_chemical_formula_sum   'Rb2 Gd4 Cu2 Se8'
_cell_volume   438.69202730
_cell_formula_units_Z   2
loop_
 _symmetry_equiv_pos_site_id
 _symmetry_equiv_pos_as_xyz
  1  'x, y, z'
loop_
 _atom_site_type_symbol
 _atom_site_label
 _atom_site_symmetry_multiplicity
 _atom_site_fract_x
 _atom_site_fract_y
 _atom_site_fract_z
 _atom_site_occupancy
  Rb  Rb0  1  0.10948862  0.21897724  0.75000000  1
  Rb  Rb1  1  0.89051138  0.78102276  0.25000000  1
  Gd  Gd2  1  0.63411847  0.26823694  0.06280019  1
  Gd  Gd3  1  0.36588153  0.73176306  0.56280019  1
  Gd  Gd4  1  0.36588153  0.73176306  0.93719981  1
  Gd  Gd5  1  0.63411847  0.26823694  0.43719981  1
  Cu  Cu6  1  0.83709619  0.67419238  0.75000000  1
  Cu  Cu7  1  0.16290381  0.32580762  0.25000000  1
  Se  Se8  1  0.57162078  0.14324156  0.25000000  1
  Se  Se9  1  0.26175707  0.52351414  0.11049310  1
  Se  Se10  1  0.73824293  0.47648586  0.61049310  1
  Se  Se11  1  0.00000000  0.00000000  0.00000000  1
  Se  Se12  1  0.73824293  0.47648586  0.88950690  1
  Se  Se13  1  0.26175707  0.52351414  0.38950690  1
  Se  Se14  1  0.00000000  0.00000000  0.50000000  1
  Se  Se15  1  0.42837922  0.85675844  0.75000000  1
