# generated using pymatgen
data_Yb7In(CoGe3)4
_symmetry_space_group_name_H-M   'P 1'
_cell_length_a   4.29756270
_cell_length_b   10.33705649
_cell_length_c   10.33705649
_cell_angle_alpha   90.00000000
_cell_angle_beta   90.00000000
_cell_angle_gamma   90.00000000
_symmetry_Int_Tables_number   1
_chemical_formula_structural   Yb7In(CoGe3)4
_chemical_formula_sum   'Yb7 In1 Co4 Ge12'
_cell_volume   459.21493152
_cell_formula_units_Z   1
loop_
 _symmetry_equiv_pos_site_id
 _symmetry_equiv_pos_as_xyz
  1  'x, y, z'
loop_
 _atom_site_type_symbol
 _atom_site_label
 _atom_site_symmetry_multiplicity
 _atom_site_fract_x
 _atom_site_fract_y
 _atom_site_fract_z
 _atom_site_occupancy
  Yb  Yb0  1  0.50000000  0.67545088  0.32551555  1
  Yb  Yb1  1  0.50000000  0.32551555  0.32454912  1
  Yb  Yb2  1  0.50000000  0.32454912  0.67448445  1
  Yb  Yb3  1  0.50000000  0.67448445  0.67545088  1
  Yb  Yb4  1  0.50000000  0.50000000  0.00000000  1
  Yb  Yb5  1  0.00000000  0.00000000  0.00000000  1
  Yb  Yb6  1  0.50000000  0.00000000  0.50000000  1
  In  In7  1  0.00000000  0.50000000  0.50000000  1
  Co  Co8  1  0.00000000  0.72153864  0.11613714  1
  Co  Co9  1  0.00000000  0.27846136  0.88386286  1
  Co  Co10  1  0.00000000  0.88386286  0.72153864  1
  Co  Co11  1  0.00000000  0.11613714  0.27846136  1
  Ge  Ge12  1  0.50000000  0.06737738  0.19301988  1
  Ge  Ge13  1  0.00000000  0.78868914  0.51345276  1
  Ge  Ge14  1  0.50000000  0.80698012  0.06737738  1
  Ge  Ge15  1  0.00000000  0.48654724  0.78868914  1
  Ge  Ge16  1  0.00000000  0.51345276  0.21131086  1
  Ge  Ge17  1  0.00000000  0.88669698  0.28496259  1
  Ge  Ge18  1  0.00000000  0.28496259  0.11330302  1
  Ge  Ge19  1  0.50000000  0.19301988  0.93262262  1
  Ge  Ge20  1  0.00000000  0.71503741  0.88669698  1
  Ge  Ge21  1  0.00000000  0.11330302  0.71503741  1
  Ge  Ge22  1  0.50000000  0.93262262  0.80698012  1
  Ge  Ge23  1  0.00000000  0.21131086  0.48654724  1
