# generated using pymatgen
data_Na3NiAsCO7
_symmetry_space_group_name_H-M   'P 1'
_cell_length_a   9.09044293
_cell_length_b   6.80946336
_cell_length_c   5.21784997
_cell_angle_alpha   90.00000000
_cell_angle_beta   88.85385130
_cell_angle_gamma   90.00000000
_symmetry_Int_Tables_number   1
_chemical_formula_structural   Na3NiAsCO7
_chemical_formula_sum   'Na6 Ni2 As2 C2 O14'
_cell_volume   322.92570733
_cell_formula_units_Z   2
loop_
 _symmetry_equiv_pos_site_id
 _symmetry_equiv_pos_as_xyz
  1  'x, y, z'
loop_
 _atom_site_type_symbol
 _atom_site_label
 _atom_site_symmetry_multiplicity
 _atom_site_fract_x
 _atom_site_fract_y
 _atom_site_fract_z
 _atom_site_occupancy
  Na  Na0  1  0.08025221  0.25000000  0.76132732  1
  Na  Na1  1  0.25730510  0.00325794  0.24774776  1
  Na  Na2  1  0.25730510  0.49674206  0.24774776  1
  Na  Na3  1  0.74269490  0.50325794  0.75225224  1
  Na  Na4  1  0.74269490  0.99674206  0.75225224  1
  Na  Na5  1  0.91974779  0.75000000  0.23867268  1
  Ni  Ni6  1  0.34389127  0.75000000  0.78751036  1
  Ni  Ni7  1  0.65610873  0.25000000  0.21248964  1
  As  As8  1  0.41774933  0.25000000  0.70302758  1
  As  As9  1  0.58225167  0.75000000  0.29697242  1
  C  C10  1  0.06209505  0.75000000  0.73057389  1
  C  C11  1  0.93790495  0.25000000  0.26942611  1
  O  O12  1  0.07947015  0.25000000  0.28621570  1
  O  O13  1  0.12388109  0.75000000  0.95364908  1
  O  O14  1  0.14648169  0.75000000  0.52664338  1
  O  O15  1  0.30706029  0.05310342  0.78571735  1
  O  O16  1  0.30706029  0.44689658  0.78571735  1
  O  O17  1  0.44628338  0.25000000  0.37386307  1
  O  O18  1  0.41415768  0.75000000  0.15700070  1
  O  O19  1  0.58584232  0.25000000  0.84299930  1
  O  O20  1  0.55371662  0.75000000  0.62613693  1
  O  O21  1  0.69293971  0.55310342  0.21428265  1
  O  O22  1  0.69293971  0.94689658  0.21428265  1
  O  O23  1  0.85351831  0.25000000  0.47335662  1
  O  O24  1  0.87611891  0.25000000  0.04635092  1
  O  O25  1  0.92052985  0.75000000  0.71378430  1
