# generated using pymatgen
data_K3Ta2Ag3Se8
_symmetry_space_group_name_H-M   'P 1'
_cell_length_a   6.17409208
_cell_length_b   13.23575439
_cell_length_c   14.38124497
_cell_angle_alpha   64.48062022
_cell_angle_beta   77.58341154
_cell_angle_gamma   76.51465361
_symmetry_Int_Tables_number   1
_chemical_formula_structural   K3Ta2Ag3Se8
_chemical_formula_sum   'K6 Ta4 Ag6 Se16'
_cell_volume   1022.49830938
_cell_formula_units_Z   2
loop_
 _symmetry_equiv_pos_site_id
 _symmetry_equiv_pos_as_xyz
  1  'x, y, z'
loop_
 _atom_site_type_symbol
 _atom_site_label
 _atom_site_symmetry_multiplicity
 _atom_site_fract_x
 _atom_site_fract_y
 _atom_site_fract_z
 _atom_site_occupancy
  K  K0  1  0.61830069  0.71587021  0.89258539  1
  K  K1  1  0.38169931  0.28412979  0.10741461  1
  K  K2  1  0.77290916  0.21570098  0.39267477  1
  K  K3  1  0.00000000  0.00000000  0.00000000  1
  K  K4  1  0.22709084  0.78429902  0.60732523  1
  K  K5  1  0.00000000  0.50000000  0.50000000  1
  Ta  Ta6  1  0.43336239  0.52542842  0.21870742  1
  Ta  Ta7  1  0.82270754  0.02536511  0.71857031  1
  Ta  Ta8  1  0.17729246  0.97463489  0.28142969  1
  Ta  Ta9  1  0.56663761  0.47457158  0.78129258  1
  Ag  Ag10  1  0.30769896  0.75003721  0.25002316  1
  Ag  Ag11  1  0.32300472  0.03313857  0.70907337  1
  Ag  Ag12  1  0.69230104  0.24996279  0.74997684  1
  Ag  Ag13  1  0.93475090  0.53310871  0.20911674  1
  Ag  Ag14  1  0.06524910  0.46689129  0.79088326  1
  Ag  Ag15  1  0.67699528  0.96686143  0.29092663  1
  Se  Se16  1  0.30393094  0.03113059  0.39711982  1
  Se  Se17  1  0.48222298  0.94208362  0.15137008  1
  Se  Se18  1  0.99783954  0.80568893  0.39012728  1
  Se  Se19  1  0.51777702  0.05791638  0.84862992  1
  Se  Se20  1  0.80621031  0.30567880  0.89001754  1
  Se  Se21  1  0.76417044  0.63598220  0.68217957  1
  Se  Se22  1  0.26776329  0.53116426  0.89697242  1
  Se  Se23  1  0.57568653  0.55811731  0.34867054  1
  Se  Se24  1  0.42431347  0.44188269  0.65132946  1
  Se  Se25  1  0.73223671  0.46883574  0.10302758  1
  Se  Se26  1  0.08234011  0.86393241  0.81769838  1
  Se  Se27  1  0.00216046  0.19431107  0.60987272  1
  Se  Se28  1  0.69606906  0.96886941  0.60288018  1
  Se  Se29  1  0.19378969  0.69432120  0.10998246  1
  Se  Se30  1  0.23582956  0.36401780  0.31782043  1
  Se  Se31  1  0.91765989  0.13606759  0.18230162  1
