# generated using pymatgen
data_Sm3SiAgS7
_symmetry_space_group_name_H-M   'P 1'
_cell_length_a   10.18957952
_cell_length_b   10.19023304
_cell_length_c   5.75705039
_cell_angle_alpha   90.00000000
_cell_angle_beta   90.00000000
_cell_angle_gamma   119.98624288
_symmetry_Int_Tables_number   1
_chemical_formula_structural   Sm3SiAgS7
_chemical_formula_sum   'Sm6 Si2 Ag2 S14'
_cell_volume   517.76325906
_cell_formula_units_Z   2
loop_
 _symmetry_equiv_pos_site_id
 _symmetry_equiv_pos_as_xyz
  1  'x, y, z'
loop_
 _atom_site_type_symbol
 _atom_site_label
 _atom_site_symmetry_multiplicity
 _atom_site_fract_x
 _atom_site_fract_y
 _atom_site_fract_z
 _atom_site_occupancy
  Sm  Sm0  1  0.12658627  0.35997616  0.24356696  1
  Sm  Sm1  1  0.87341373  0.64002484  0.74356696  1
  Sm  Sm2  1  0.64003159  0.76665510  0.24355542  1
  Sm  Sm3  1  0.23335662  0.87345489  0.24351594  1
  Sm  Sm4  1  0.76664338  0.12654411  0.74351594  1
  Sm  Sm5  1  0.35996841  0.23334390  0.74355442  1
  Si  Si6  1  0.33332925  0.66667588  0.65623086  1
  Si  Si7  1  0.66666975  0.33332512  0.15623286  1
  Ag  Ag8  1  0.99988043  0.00004933  0.33927113  1
  Ag  Ag9  1  0.00011957  0.99995067  0.83927113  1
  S  S10  1  0.33331262  0.66664915  0.02404971  1
  S  S11  1  0.66668738  0.33335185  0.52405171  1
  S  S12  1  0.41182821  0.52434875  0.50826139  1
  S  S13  1  0.58817079  0.47565125  0.00826239  1
  S  S14  1  0.47562353  0.88744612  0.50832636  1
  S  S15  1  0.11259587  0.58837986  0.50814234  1
  S  S16  1  0.88740313  0.41161914  0.00814234  1
  S  S17  1  0.52437747  0.11255388  0.00832636  1
  S  S18  1  0.09646414  0.27133681  0.76701404  1
  S  S19  1  0.90353586  0.72866419  0.26701604  1
  S  S20  1  0.72869635  0.82514023  0.76704523  1
  S  S21  1  0.17498355  0.90348472  0.76701362  1
  S  S22  1  0.82501545  0.09651528  0.26701462  1
  S  S23  1  0.27130365  0.17485977  0.26704623  1
