# generated using pymatgen
data_K2Y4Cu4Se9
_symmetry_space_group_name_H-M   'P 1'
_cell_length_a   4.12312275
_cell_length_b   7.46931899
_cell_length_c   15.84175109
_cell_angle_alpha   93.78970468
_cell_angle_beta   97.47737379
_cell_angle_gamma   106.02184657
_symmetry_Int_Tables_number   1
_chemical_formula_structural   K2Y4Cu4Se9
_chemical_formula_sum   'K2 Y4 Cu4 Se9'
_cell_volume   462.26722375
_cell_formula_units_Z   1
loop_
 _symmetry_equiv_pos_site_id
 _symmetry_equiv_pos_as_xyz
  1  'x, y, z'
loop_
 _atom_site_type_symbol
 _atom_site_label
 _atom_site_symmetry_multiplicity
 _atom_site_fract_x
 _atom_site_fract_y
 _atom_site_fract_z
 _atom_site_occupancy
  K  K0  1  0.23626006  0.20356706  0.26895306  1
  K  K1  1  0.76373894  0.79643194  0.73104694  1
  Y  Y2  1  0.87113250  0.63922534  0.10304266  1
  Y  Y3  1  0.09923080  0.75435089  0.44410972  1
  Y  Y4  1  0.90076820  0.24564911  0.55589028  1
  Y  Y5  1  0.12886750  0.36077466  0.89695834  1
  Cu  Cu6  1  0.60387170  0.17865728  0.02908913  1
  Cu  Cu7  1  0.51136649  0.75135016  0.27138282  1
  Cu  Cu8  1  0.48863351  0.24864984  0.72861718  1
  Cu  Cu9  1  0.39612830  0.82134272  0.97091087  1
  Se  Se10  1  0.21263888  0.34723731  0.07803944  1
  Se  Se11  1  0.52245629  0.91534785  0.12956473  1
  Se  Se12  1  0.92174746  0.56613940  0.27735751  1
  Se  Se13  1  0.69706031  0.99891281  0.39520782  1
  Se  Se14  1  0.50000000  0.50000000  0.50000000  1
  Se  Se15  1  0.30293969  0.00108719  0.60479218  1
  Se  Se16  1  0.07825154  0.43385860  0.72264249  1
  Se  Se17  1  0.47754371  0.08465215  0.87043527  1
  Se  Se18  1  0.78736112  0.65276269  0.92196056  1
