# generated using pymatgen
data_K2LiGaAs2
_symmetry_space_group_name_H-M   'P 1'
_cell_length_a   6.28527913
_cell_length_b   10.00776503
_cell_length_c   10.00776503
_cell_angle_alpha   102.04873206
_cell_angle_beta   90.00000000
_cell_angle_gamma   90.00000000
_symmetry_Int_Tables_number   1
_chemical_formula_structural   K2LiGaAs2
_chemical_formula_sum   'K8 Li4 Ga4 As8'
_cell_volume   615.63667599
_cell_formula_units_Z   4
loop_
 _symmetry_equiv_pos_site_id
 _symmetry_equiv_pos_as_xyz
  1  'x, y, z'
loop_
 _atom_site_type_symbol
 _atom_site_label
 _atom_site_symmetry_multiplicity
 _atom_site_fract_x
 _atom_site_fract_y
 _atom_site_fract_z
 _atom_site_occupancy
  Li  Li0  1  0.50000000  0.87991533  0.87991533  1
  Li  Li1  1  0.50000000  0.12008467  0.12008467  1
  Li  Li2  1  0.00000000  0.62008467  0.62008467  1
  Li  Li3  1  0.00000000  0.37991533  0.37991533  1
  K  K4  1  0.75000000  0.92222012  0.57777988  1
  K  K5  1  0.78037913  0.32938083  0.67061917  1
  K  K6  1  0.21962087  0.67061917  0.32938083  1
  K  K7  1  0.75000000  0.42222012  0.07777988  1
  K  K8  1  0.25000000  0.57777988  0.92222012  1
  K  K9  1  0.25000000  0.07777988  0.42222012  1
  K  K10  1  0.28037913  0.17061917  0.82938083  1
  K  K11  1  0.71962087  0.82938083  0.17061917  1
  Ga  Ga12  1  0.00000000  0.13151332  0.13151332  1
  Ga  Ga13  1  0.50000000  0.63151332  0.63151332  1
  Ga  Ga14  1  0.50000000  0.36848668  0.36848668  1
  Ga  Ga15  1  0.00000000  0.86848668  0.86848668  1
  As  As16  1  0.75000000  0.15699716  0.34300284  1
  As  As17  1  0.21283998  0.90729615  0.09270385  1
  As  As18  1  0.71283998  0.59270385  0.40729615  1
  As  As19  1  0.28716002  0.40729615  0.59270385  1
  As  As20  1  0.25000000  0.34300284  0.15699716  1
  As  As21  1  0.25000000  0.84300284  0.65699716  1
  As  As22  1  0.75000000  0.65699716  0.84300284  1
  As  As23  1  0.78716002  0.09270385  0.90729615  1
