# generated using pymatgen
data_K2BaCdSb2
_symmetry_space_group_name_H-M   'P 1'
_cell_length_a   5.10501603
_cell_length_b   10.00531807
_cell_length_c   8.64847693
_cell_angle_alpha   90.00000000
_cell_angle_beta   90.00000000
_cell_angle_gamma   90.00000000
_symmetry_Int_Tables_number   1
_chemical_formula_structural   K2BaCdSb2
_chemical_formula_sum   'K4 Ba2 Cd2 Sb4'
_cell_volume   441.74092968
_cell_formula_units_Z   2
loop_
 _symmetry_equiv_pos_site_id
 _symmetry_equiv_pos_as_xyz
  1  'x, y, z'
loop_
 _atom_site_type_symbol
 _atom_site_label
 _atom_site_symmetry_multiplicity
 _atom_site_fract_x
 _atom_site_fract_y
 _atom_site_fract_z
 _atom_site_occupancy
  K  K0  1  0.49999900  0.42229710  0.02021216  1
  K  K1  1  0.00000000  0.33939001  0.34491811  1
  K  K2  1  0.49999900  0.57770290  0.52021116  1
  K  K3  1  0.00000000  0.66060999  0.84491911  1
  Ba  Ba4  1  0.00000000  0.04985710  0.99900814  1
  Ba  Ba5  1  0.00000000  0.95014290  0.49900714  1
  Cd  Cd6  1  0.49999900  0.82294963  0.15400079  1
  Cd  Cd7  1  0.49999900  0.17704937  0.65399979  1
  Sb  Sb8  1  0.00000000  0.68069951  0.23907108  1
  Sb  Sb9  1  0.49999900  0.11331040  0.28839072  1
  Sb  Sb10  1  0.00000000  0.31930049  0.73907108  1
  Sb  Sb11  1  0.49999900  0.88668960  0.78839172  1
