# generated using pymatgen
data_AlTlSe2
_symmetry_space_group_name_H-M   'P 1'
_cell_length_a   7.74724878
_cell_length_b   7.74724878
_cell_length_c   15.85404545
_cell_angle_alpha   82.93638724
_cell_angle_beta   97.06361276
_cell_angle_gamma   89.96943471
_symmetry_Int_Tables_number   1
_chemical_formula_structural   AlTlSe2
_chemical_formula_sum   'Al8 Tl8 Se16'
_cell_volume   937.04985454
_cell_formula_units_Z   8
loop_
 _symmetry_equiv_pos_site_id
 _symmetry_equiv_pos_as_xyz
  1  'x, y, z'
loop_
 _atom_site_type_symbol
 _atom_site_label
 _atom_site_symmetry_multiplicity
 _atom_site_fract_x
 _atom_site_fract_y
 _atom_site_fract_z
 _atom_site_occupancy
  Al  Al0  1  0.57976466  0.29042828  0.33980099  1
  Al  Al1  1  0.29042728  0.57976566  0.16019801  1
  Al  Al2  1  0.42023634  0.70957172  0.66019801  1
  Al  Al3  1  0.70957272  0.42023434  0.83980099  1
  Al  Al4  1  0.29045206  0.08841998  0.16137943  1
  Al  Al5  1  0.08842098  0.29045206  0.33862157  1
  Al  Al6  1  0.70954694  0.91158002  0.83862157  1
  Al  Al7  1  0.91157902  0.70954694  0.66137843  1
  Tl  Tl8  1  0.34504283  0.77936867  0.38033227  1
  Tl  Tl9  1  0.77936967  0.34504283  0.11966673  1
  Tl  Tl10  1  0.65495717  0.22063133  0.61966673  1
  Tl  Tl11  1  0.22063133  0.65495817  0.88033327  1
  Tl  Tl12  1  0.77487948  0.84992132  0.11102929  1
  Tl  Tl13  1  0.84992132  0.77488048  0.38897071  1
  Tl  Tl14  1  0.22511952  0.15007968  0.88897071  1
  Tl  Tl15  1  0.15007968  0.22511952  0.61102929  1
  Se  Se16  1  0.35669624  0.26891473  0.43391345  1
  Se  Se17  1  0.26891473  0.35669624  0.06608555  1
  Se  Se18  1  0.64330376  0.73108527  0.56608655  1
  Se  Se19  1  0.73108527  0.64330376  0.93391345  1
  Se  Se20  1  0.56821132  0.05499827  0.25150010  1
  Se  Se21  1  0.05499927  0.56821032  0.24849890  1
  Se  Se22  1  0.43178768  0.94500173  0.74849890  1
  Se  Se23  1  0.94500073  0.43178868  0.75150010  1
  Se  Se24  1  0.56829376  0.56829276  0.25000000  1
  Se  Se25  1  0.43170624  0.43170724  0.75000000  1
  Se  Se26  1  0.05544062  0.05543962  0.25000000  1
  Se  Se27  1  0.94455838  0.94455938  0.75000000  1
  Se  Se28  1  0.26920680  0.85753097  0.07074322  1
  Se  Se29  1  0.85752997  0.26920780  0.42925578  1
  Se  Se30  1  0.73079220  0.14246803  0.92925678  1
  Se  Se31  1  0.14246903  0.73079120  0.57074322  1
