# generated using pymatgen
data_RbCaCO3F
_symmetry_space_group_name_H-M   'P 1'
_cell_length_a   9.27872846
_cell_length_b   9.27634831
_cell_length_c   4.49551896
_cell_angle_alpha   90.00000000
_cell_angle_beta   90.00000000
_cell_angle_gamma   120.00848806
_symmetry_Int_Tables_number   1
_chemical_formula_structural   RbCaCO3F
_chemical_formula_sum   'Rb3 Ca3 C3 O9 F3'
_cell_volume   335.07253066
_cell_formula_units_Z   3
loop_
 _symmetry_equiv_pos_site_id
 _symmetry_equiv_pos_as_xyz
  1  'x, y, z'
loop_
 _atom_site_type_symbol
 _atom_site_label
 _atom_site_symmetry_multiplicity
 _atom_site_fract_x
 _atom_site_fract_y
 _atom_site_fract_z
 _atom_site_occupancy
  Rb  Rb0  1  0.99999749  0.72375503  0.00000000  1
  Rb  Rb1  1  0.27624146  0.27624597  0.00000000  1
  Rb  Rb2  1  0.72377305  0.00000000  0.00000000  1
  Ca  Ca3  1  0.60937381  0.60941903  0.50000000  1
  Ca  Ca4  1  0.39056910  0.00000000  0.50000000  1
  Ca  Ca5  1  0.99995379  0.39057997  0.50000000  1
  C  C6  1  0.33333342  0.66665452  0.50000000  1
  C  C7  1  0.00001684  0.00000000  0.50000000  1
  C  C8  1  0.66667990  0.33334548  0.50000000  1
  O  O9  1  0.86045088  0.86038144  0.50000000  1
  O  O10  1  0.13961198  0.00000000  0.50000000  1
  O  O11  1  0.00007044  0.13961856  0.50000000  1
  O  O12  1  0.48469148  0.79285242  0.50000000  1
  O  O13  1  0.20718028  0.69185773  0.50000000  1
  O  O14  1  0.30810205  0.51525982  0.50000000  1
  O  O15  1  0.69183805  0.20714758  0.50000000  1
  O  O16  1  0.51532155  0.30814227  0.50000000  1
  O  O17  1  0.79284223  0.48473918  0.50000000  1
  F  F18  1  0.61331826  0.61346762  0.00000000  1
  F  F19  1  0.38668030  0.00000000  0.00000000  1
  F  F20  1  0.99985064  0.38653238  0.00000000  1
