# generated using pymatgen
data_Ba2ZnCu3F14
_symmetry_space_group_name_H-M   'P 1'
_cell_length_a   5.28552412
_cell_length_b   7.40503742
_cell_length_c   14.56251780
_cell_angle_alpha   91.30245262
_cell_angle_beta   89.83640782
_cell_angle_gamma   110.95263466
_symmetry_Int_Tables_number   1
_chemical_formula_structural   Ba2ZnCu3F14
_chemical_formula_sum   'Ba4 Zn2 Cu6 F28'
_cell_volume   532.13524289
_cell_formula_units_Z   2
loop_
 _symmetry_equiv_pos_site_id
 _symmetry_equiv_pos_as_xyz
  1  'x, y, z'
loop_
 _atom_site_type_symbol
 _atom_site_label
 _atom_site_symmetry_multiplicity
 _atom_site_fract_x
 _atom_site_fract_y
 _atom_site_fract_z
 _atom_site_occupancy
  Ba  Ba0  1  0.11904100  0.38117181  0.62336868  1
  Ba  Ba1  1  0.26255932  0.38323561  0.12325031  1
  Ba  Ba2  1  0.88155513  0.61939602  0.37684591  1
  Ba  Ba3  1  0.73997665  0.61808542  0.87721870  1
  Zn  Zn4  1  0.42333901  0.99877585  0.75026498  1
  Zn  Zn5  1  0.57603028  -0.00013043  0.24989902  1
  Cu  Cu6  1  0.10068898  0.23761150  0.87281368  1
  Cu  Cu7  1  0.89944875  0.76344482  0.12734601  1
  Cu  Cu8  1  0.13944863  0.23655173  0.37296503  1
  Cu  Cu9  1  0.86415607  0.76462492  0.62772156  1
  Cu  Cu10  1  0.50010743  -0.00003268  -0.00072516  1
  Cu  Cu11  1  0.50186288  0.00207319  0.50022198  1
  F  F12  1  0.89880628  0.98297917  0.33944189  1
  F  F13  1  0.85114514  0.25685538  0.45696157  1
  F  F14  1  0.14687210  0.74124841  0.54346962  1
  F  F15  1  0.66282928  0.49944509  0.59655496  1
  F  F16  1  0.60754494  0.10071154  0.62311792  1
  F  F17  1  0.50452244  0.89773863  0.87891932  1
  F  F18  1  0.40531681  0.26307541  0.95659495  1
  F  F19  1  0.91470700  0.01859899  0.16051158  1
  F  F20  1  0.36698441  0.32604297  0.77500972  1
  F  F21  1  0.33953609  0.50079843  0.40569947  1
  F  F22  1  0.80665544  0.23058093  0.78985877  1
  F  F23  1  0.16350231  0.50160400  0.90672726  1
  F  F24  1  0.42627261  0.22883767  0.28742000  1
  F  F25  1  0.19494717  0.77170756  0.21127497  1
  F  F26  1  0.49671073  0.10331242  0.12152218  1
  F  F27  1  0.63234163  0.67669835  0.22597727  1
  F  F28  1  0.13162612  0.83920231  0.01867962  1
  F  F29  1  0.10295843  0.01852113  0.66052509  1
  F  F30  1  0.87290704  0.16299370  0.98266177  1
  F  F31  1  0.70901878  0.83518909  0.51739838  1
  F  F32  1  0.59594005  0.73802661  0.04328264  1
  F  F33  1  0.57995261  0.77160530  0.71289233  1
  F  F34  1  0.96252600  0.32734238  0.27575564  1
  F  F35  1  0.28977630  0.16617362  0.48478643  1
  F  F36  1  0.39325671  0.89957370  0.37795792  1
  F  F37  1  0.08643860  0.98314185  0.83962189  1
  F  F38  1  0.04594924  0.67738297  0.72524264  1
  F  F39  1  0.83818861  0.50041064  0.09456350  1
