# generated using pymatgen
data_BaBiF7
_symmetry_space_group_name_H-M   'P 1'
_cell_length_a   5.79584687
_cell_length_b   10.53127084
_cell_length_c   10.20350045
_cell_angle_alpha   90.00000000
_cell_angle_beta   90.00000000
_cell_angle_gamma   92.06366437
_symmetry_Int_Tables_number   1
_chemical_formula_structural   BaBiF7
_chemical_formula_sum   'Ba4 Bi4 F28'
_cell_volume   622.39359012
_cell_formula_units_Z   4
loop_
 _symmetry_equiv_pos_site_id
 _symmetry_equiv_pos_as_xyz
  1  'x, y, z'
loop_
 _atom_site_type_symbol
 _atom_site_label
 _atom_site_symmetry_multiplicity
 _atom_site_fract_x
 _atom_site_fract_y
 _atom_site_fract_z
 _atom_site_occupancy
  Ba  Ba0  1  0.30829491  0.49207302  0.33081563  1
  Ba  Ba1  1  0.69170509  0.00792698  0.83081563  1
  Ba  Ba2  1  0.69170509  0.50792698  0.66918437  1
  Ba  Ba3  1  0.30829491  0.99207302  0.16918437  1
  Bi  Bi4  1  0.18484481  0.81354285  0.60922121  1
  Bi  Bi5  1  0.81515519  0.18645715  0.39077879  1
  Bi  Bi6  1  0.18484481  0.31354285  0.89077879  1
  Bi  Bi7  1  0.81515519  0.68645715  0.10922121  1
  F  F8  1  0.11939411  0.11237308  0.44903452  1
  F  F9  1  0.34763669  0.36949204  0.05883899  1
  F  F10  1  0.48309273  0.75730038  0.69747348  1
  F  F11  1  0.51690727  0.24269962  0.30252652  1
  F  F12  1  0.89790207  0.36727163  0.45910611  1
  F  F13  1  0.25541389  0.48439596  0.79747418  1
  F  F14  1  0.98975396  0.75445353  0.76878367  1
  F  F15  1  0.10209793  0.13272837  0.95910611  1
  F  F16  1  0.34763669  0.86949204  0.44116101  1
  F  F17  1  0.51690727  0.74269962  0.19747348  1
  F  F18  1  0.11939411  0.61237308  0.05096548  1
  F  F19  1  0.88060589  0.88762692  0.55096548  1
  F  F20  1  0.01024604  0.74554647  0.26878367  1
  F  F21  1  0.40950769  0.88079796  0.96442660  1
  F  F22  1  0.10209793  0.63272837  0.54089389  1
  F  F23  1  0.89790207  0.86727163  0.04089389  1
  F  F24  1  0.01024604  0.24554647  0.23121633  1
  F  F25  1  0.88060589  0.38762692  0.94903452  1
  F  F26  1  0.59049231  0.61920204  0.46442660  1
  F  F27  1  0.65236331  0.63050796  0.94116101  1
  F  F28  1  0.59049231  0.11920204  0.03557340  1
  F  F29  1  0.98975396  0.25445353  0.73121633  1
  F  F30  1  0.40950769  0.38079796  0.53557340  1
  F  F31  1  0.74458611  0.01560404  0.29747418  1
  F  F32  1  0.74458611  0.51560404  0.20252582  1
  F  F33  1  0.25541389  0.98439596  0.70252582  1
  F  F34  1  0.65236331  0.13050796  0.55883899  1
  F  F35  1  0.48309273  0.25730038  0.80252652  1
