# generated using pymatgen
data_TiMo(PO4)3
_symmetry_space_group_name_H-M   'P 1'
_cell_length_a   8.84463544
_cell_length_b   8.84463452
_cell_length_c   8.84463523
_cell_angle_alpha   59.03043146
_cell_angle_beta   59.03043412
_cell_angle_gamma   59.03043662
_symmetry_Int_Tables_number   1
_chemical_formula_structural   TiMo(PO4)3
_chemical_formula_sum   'Ti2 Mo2 P6 O24'
_cell_volume   478.42485291
_cell_formula_units_Z   2
loop_
 _symmetry_equiv_pos_site_id
 _symmetry_equiv_pos_as_xyz
  1  'x, y, z'
loop_
 _atom_site_type_symbol
 _atom_site_label
 _atom_site_symmetry_multiplicity
 _atom_site_fract_x
 _atom_site_fract_y
 _atom_site_fract_z
 _atom_site_occupancy
  Ti  Ti0  1  0.13943273  0.13943273  0.13943273  1
  Ti  Ti1  1  0.63943273  0.63943273  0.63943273  1
  Mo  Mo2  1  0.35865299  0.35865299  0.35865299  1
  Mo  Mo3  1  0.85865299  0.85865299  0.85865299  1
  P  P4  1  0.03168319  0.46480001  0.75051570  1
  P  P5  1  0.46480001  0.75051570  0.03168319  1
  P  P6  1  0.75051570  0.03168319  0.46480001  1
  P  P7  1  0.25051570  0.96480001  0.53168319  1
  P  P8  1  0.53168319  0.25051570  0.96480001  1
  P  P9  1  0.96480001  0.53168319  0.25051570  1
  O  O10  1  0.13382732  0.50758078  0.28266750  1
  O  O11  1  0.28266750  0.13382732  0.50758078  1
  O  O12  1  0.06239383  0.28794540  0.92047936  1
  O  O13  1  0.50758078  0.28266750  0.13382732  1
  O  O14  1  0.00758078  0.63382732  0.78266750  1
  O  O15  1  0.21344299  0.44126309  0.57855728  1
  O  O16  1  0.28794540  0.92047936  0.06239383  1
  O  O17  1  0.44126309  0.57855728  0.21344299  1
  O  O18  1  0.21258085  0.00128921  0.36463075  1
  O  O19  1  0.57855728  0.21344299  0.44126309  1
  O  O20  1  0.07855728  0.94126309  0.71344299  1
  O  O21  1  0.36463075  0.21258085  0.00128921  1
  O  O22  1  0.63382732  0.78266750  0.00758078  1
  O  O23  1  0.92047936  0.06239383  0.28794540  1
  O  O24  1  0.42047936  0.78794540  0.56239383  1
  O  O25  1  0.78266750  0.00758078  0.63382732  1
  O  O26  1  0.56239383  0.42047936  0.78794540  1
  O  O27  1  0.71344299  0.07855728  0.94126309  1
  O  O28  1  0.78794540  0.56239383  0.42047936  1
  O  O29  1  0.00128921  0.36463075  0.21258085  1
  O  O30  1  0.50128921  0.71258085  0.86463075  1
  O  O31  1  0.94126309  0.71344299  0.07855728  1
  O  O32  1  0.71258085  0.86463075  0.50128921  1
  O  O33  1  0.86463075  0.50128921  0.71258085  1
