# generated using pymatgen
data_MgCrP2O7
_symmetry_space_group_name_H-M   'P 1'
_cell_length_a   5.54412543
_cell_length_b   6.52088933
_cell_length_c   7.51227312
_cell_angle_alpha   81.90676425
_cell_angle_beta   88.09685368
_cell_angle_gamma   71.17761553
_symmetry_Int_Tables_number   1
_chemical_formula_structural   MgCrP2O7
_chemical_formula_sum   'Mg2 Cr2 P4 O14'
_cell_volume   254.48285843
_cell_formula_units_Z   2
loop_
 _symmetry_equiv_pos_site_id
 _symmetry_equiv_pos_as_xyz
  1  'x, y, z'
loop_
 _atom_site_type_symbol
 _atom_site_label
 _atom_site_symmetry_multiplicity
 _atom_site_fract_x
 _atom_site_fract_y
 _atom_site_fract_z
 _atom_site_occupancy
  Mg  Mg0  1  0.33222162  0.66238533  0.64643335  1
  Mg  Mg1  1  0.66779505  0.33761411  0.35357422  1
  Cr  Cr2  1  0.27456955  0.15034898  0.18489194  1
  Cr  Cr3  1  0.72551744  0.84963822  0.81504993  1
  P  P4  1  0.17883400  0.67543014  0.10328622  1
  P  P5  1  0.82115168  0.32456742  0.89672170  1
  P  P6  1  0.21993301  0.20957753  0.61182035  1
  P  P7  1  0.78005519  0.79042292  0.38818381  1
  O  O8  1  0.09732647  0.69844944  0.90538873  1
  O  O9  1  0.90267900  0.30155083  0.09461434  1
  O  O10  1  0.28498671  0.84852896  0.14479749  1
  O  O11  1  0.71499226  0.15146945  0.85521409  1
  O  O12  1  0.35917757  0.44239739  0.16967450  1
  O  O13  1  0.64081617  0.55760034  0.83032682  1
  O  O14  1  0.61274225  0.64479344  0.44125168  1
  O  O15  1  0.38724362  0.35521553  0.55875425  1
  O  O16  1  0.02666177  0.22302992  0.46824359  1
  O  O17  1  0.97331706  0.77697479  0.53176633  1
  O  O18  1  0.08318623  0.30495762  0.78914337  1
  O  O19  1  0.62339444  0.03224419  0.32261162  1
  O  O20  1  0.37660318  0.96775614  0.67739008  1
  O  O21  1  0.91679872  0.69504330  0.21086258  1
