# generated using pymatgen
data_Ba2CuMo2F14
_symmetry_space_group_name_H-M   'P 1'
_cell_length_a   5.40073984
_cell_length_b   7.82773550
_cell_length_c   15.68792944
_cell_angle_alpha   92.95938177
_cell_angle_beta   89.99718905
_cell_angle_gamma   110.25139357
_symmetry_Int_Tables_number   1
_chemical_formula_structural   Ba2CuMo2F14
_chemical_formula_sum   'Ba4 Cu2 Mo4 F28'
_cell_volume   621.27574946
_cell_formula_units_Z   2
loop_
 _symmetry_equiv_pos_site_id
 _symmetry_equiv_pos_as_xyz
  1  'x, y, z'
loop_
 _atom_site_type_symbol
 _atom_site_label
 _atom_site_symmetry_multiplicity
 _atom_site_fract_x
 _atom_site_fract_y
 _atom_site_fract_z
 _atom_site_occupancy
  Ba  Ba0  1  0.10383199  0.35544186  0.62861543  1
  Ba  Ba1  1  0.25174116  0.35385009  0.12870789  1
  Ba  Ba2  1  0.89852491  0.64776503  0.37238795  1
  Ba  Ba3  1  0.74851435  0.64643330  0.87232409  1
  Cu  Cu4  1  0.50074940  0.00055156  0.00057177  1
  Cu  Cu5  1  0.50075384  0.00240091  0.50029063  1
  Mo  Mo6  1  0.09751354  0.24601300  0.87263005  1
  Mo  Mo7  1  0.90370047  0.75441069  0.12819520  1
  Mo  Mo8  1  0.14845582  0.24696651  0.37254413  1
  Mo  Mo9  1  0.85077428  0.75587848  0.62787306  1
  F  F10  1  0.92343142  0.99494937  0.34559017  1
  F  F11  1  0.88973502  0.30245668  0.45150824  1
  F  F12  1  0.11208671  0.70221194  0.54934302  1
  F  F13  1  0.63277076  0.49877288  0.59045357  1
  F  F14  1  0.63610503  0.12407063  0.60273298  1
  F  F15  1  0.51650222  0.87952245  0.89818250  1
  F  F16  1  0.41206387  0.30246084  0.95183753  1
  F  F17  1  0.92799536  0.00601500  0.15440369  1
  F  F18  1  0.35775761  0.35925442  0.77898387  1
  F  F19  1  0.36760740  0.50489800  0.40828201  1
  F  F20  1  0.82981093  0.25532339  0.79156607  1
  F  F21  1  0.13625165  0.50396257  0.90796149  1
  F  F22  1  0.42674435  0.25728159  0.29165931  1
  F  F23  1  0.17184940  0.74568081  0.20929035  1
  F  F24  1  0.48512132  0.12141574  0.10299321  1
  F  F25  1  0.64370457  0.64074060  0.22182813  1
  F  F26  1  0.12103782  0.83595915  0.01830992  1
  F  F27  1  0.07525701  0.00762097  0.65586261  1
  F  F28  1  0.88036261  0.16539210  0.98263393  1
  F  F29  1  0.71806416  0.83941136  0.51807733  1
  F  F30  1  0.58884909  0.69749836  0.04914860  1
  F  F31  1  0.56975632  0.74284384  0.70805036  1
  F  F32  1  0.00207823  0.36030227  0.27888812  1
  F  F33  1  0.28386461  0.16555737  0.48244942  1
  F  F34  1  0.36498703  0.88083724  0.39787152  1
  F  F35  1  0.07215582  0.99410171  0.84674710  1
  F  F36  1  0.99446020  0.64068686  0.72149782  1
  F  F37  1  0.86639472  0.49696042  0.09253394  1
