# generated using pymatgen
data_TiSb(PO4)3
_symmetry_space_group_name_H-M   'P 1'
_cell_length_a   8.82530029
_cell_length_b   8.82529897
_cell_length_c   8.82529945
_cell_angle_alpha   58.60314321
_cell_angle_beta   58.60314768
_cell_angle_gamma   58.60315109
_symmetry_Int_Tables_number   1
_chemical_formula_structural   TiSb(PO4)3
_chemical_formula_sum   'Ti2 Sb2 P6 O24'
_cell_volume   470.51947535
_cell_formula_units_Z   2
loop_
 _symmetry_equiv_pos_site_id
 _symmetry_equiv_pos_as_xyz
  1  'x, y, z'
loop_
 _atom_site_type_symbol
 _atom_site_label
 _atom_site_symmetry_multiplicity
 _atom_site_fract_x
 _atom_site_fract_y
 _atom_site_fract_z
 _atom_site_occupancy
  Ti  Ti0  1  0.13833090  0.13833090  0.13833090  1
  Ti  Ti1  1  0.63833090  0.63833090  0.63833090  1
  Sb  Sb2  1  0.35711324  0.35711324  0.35711324  1
  Sb  Sb3  1  0.85711324  0.85711324  0.85711324  1
  P  P4  1  0.03529546  0.46525368  0.74540410  1
  P  P5  1  0.46525368  0.74540410  0.03529546  1
  P  P6  1  0.74540410  0.03529546  0.46525368  1
  P  P7  1  0.24540410  0.96525368  0.53529546  1
  P  P8  1  0.53529546  0.24540410  0.96525368  1
  P  P9  1  0.96525368  0.53529546  0.24540410  1
  O  O10  1  0.13665837  0.51682047  0.27170208  1
  O  O11  1  0.27170208  0.13665837  0.51682047  1
  O  O12  1  0.06339860  0.28672621  0.91816516  1
  O  O13  1  0.51682047  0.27170208  0.13665837  1
  O  O14  1  0.01682047  0.63665837  0.77170208  1
  O  O15  1  0.22089495  0.44669339  0.57216813  1
  O  O16  1  0.28672621  0.91816516  0.06339860  1
  O  O17  1  0.44669339  0.57216813  0.22089495  1
  O  O18  1  0.20923401  0.00063073  0.36725253  1
  O  O19  1  0.57216813  0.22089495  0.44669339  1
  O  O20  1  0.07216813  0.94669339  0.72089495  1
  O  O21  1  0.36725253  0.20923401  0.00063073  1
  O  O22  1  0.63665837  0.77170208  0.01682047  1
  O  O23  1  0.91816516  0.06339860  0.28672621  1
  O  O24  1  0.41816516  0.78672621  0.56339860  1
  O  O25  1  0.77170208  0.01682047  0.63665837  1
  O  O26  1  0.56339860  0.41816516  0.78672621  1
  O  O27  1  0.72089495  0.07216813  0.94669339  1
  O  O28  1  0.78672621  0.56339860  0.41816516  1
  O  O29  1  0.00063073  0.36725253  0.20923401  1
  O  O30  1  0.50063073  0.70923401  0.86725253  1
  O  O31  1  0.94669339  0.72089495  0.07216813  1
  O  O32  1  0.70923401  0.86725253  0.50063073  1
  O  O33  1  0.86725253  0.50063073  0.70923401  1
