# generated using pymatgen
data_CaBi4O9
_symmetry_space_group_name_H-M   'P 1'
_cell_length_a   5.79395554
_cell_length_b   8.89393494
_cell_length_c   8.43885584
_cell_angle_alpha   95.48283836
_cell_angle_beta   90.00222761
_cell_angle_gamma   89.99672232
_symmetry_Int_Tables_number   1
_chemical_formula_structural   CaBi4O9
_chemical_formula_sum   'Ca2 Bi8 O18'
_cell_volume   432.87365670
_cell_formula_units_Z   2
loop_
 _symmetry_equiv_pos_site_id
 _symmetry_equiv_pos_as_xyz
  1  'x, y, z'
loop_
 _atom_site_type_symbol
 _atom_site_label
 _atom_site_symmetry_multiplicity
 _atom_site_fract_x
 _atom_site_fract_y
 _atom_site_fract_z
 _atom_site_occupancy
  Ca  Ca0  1  0.23674128  0.25008639  0.25001709  1
  Ca  Ca1  1  0.76340526  0.74999256  0.75008226  1
  Bi  Bi2  1  0.68992803  0.55567010  0.34692235  1
  Bi  Bi3  1  0.24473860  0.85883499  0.46935828  1
  Bi  Bi4  1  0.75552797  0.35888936  0.96924469  1
  Bi  Bi5  1  0.31024187  0.05574821  0.84693522  1
  Bi  Bi6  1  0.68979688  0.94427094  0.15310874  1
  Bi  Bi7  1  0.75530861  0.14117790  0.53064203  1
  Bi  Bi8  1  0.31000947  0.44428269  0.65307688  1
  Bi  Bi9  1  0.24460901  0.64110207  0.03076775  1
  O  O10  1  0.53111868  0.74997783  0.25007821  1
  O  O11  1  0.46890043  0.25000063  0.74989218  1
  O  O12  1  0.90675235  0.80439386  0.01081581  1
  O  O13  1  0.04672789  0.53812304  0.81169894  1
  O  O14  1  0.04702048  0.96163001  0.68854226  1
  O  O15  1  0.90675154  0.69539860  0.48940467  1
  O  O16  1  0.09335682  0.19561185  0.98925384  1
  O  O17  1  0.95326693  0.46186962  0.18833624  1
  O  O18  1  0.95301606  0.03842647  0.31148685  1
  O  O19  1  0.09299510  0.30469140  0.51063935  1
  O  O20  1  0.47911631  0.05638709  0.34368758  1
  O  O21  1  0.59173857  0.13435243  0.02715109  1
  O  O22  1  0.59136285  0.36554981  0.47263400  1
  O  O23  1  0.47937730  0.44354948  0.15630565  1
  O  O24  1  0.52066484  0.55649789  0.84360340  1
  O  O25  1  0.40837521  0.86565872  0.97286756  1
  O  O26  1  0.40827523  0.63428985  0.52710947  1
  O  O27  1  0.52088041  0.94353719  0.65633862  1
