# generated using pymatgen
data_CaLaFeSbO6
_symmetry_space_group_name_H-M   'P 1'
_cell_length_a   5.76233197
_cell_length_b   5.58726195
_cell_length_c   8.10157887
_cell_angle_alpha   90.03378578
_cell_angle_beta   90.00000000
_cell_angle_gamma   90.00000000
_symmetry_Int_Tables_number   1
_chemical_formula_structural   CaLaFeSbO6
_chemical_formula_sum   'Ca2 La2 Fe2 Sb2 O12'
_cell_volume   260.83561848
_cell_formula_units_Z   2
loop_
 _symmetry_equiv_pos_site_id
 _symmetry_equiv_pos_as_xyz
  1  'x, y, z'
loop_
 _atom_site_type_symbol
 _atom_site_label
 _atom_site_symmetry_multiplicity
 _atom_site_fract_x
 _atom_site_fract_y
 _atom_site_fract_z
 _atom_site_occupancy
  Ca  Ca0  1  0.54884322  0.51724298  0.24981982  1
  Ca  Ca1  1  0.95115678  0.01724298  0.74981982  1
  La  La2  1  0.04434643  0.98541638  0.24983734  1
  La  La3  1  0.45565357  0.48541638  0.74983734  1
  Fe  Fe4  1  0.50131349  0.99852537  0.00042561  1
  Fe  Fe5  1  0.99868651  0.49852537  0.50042561  1
  Sb  Sb6  1  0.50142332  0.99982985  0.49887215  1
  Sb  Sb7  1  0.99857668  0.49982985  0.99887215  1
  O  O8  1  0.03351576  0.60380254  0.76194720  1
  O  O9  1  0.19723626  0.21416250  0.94789815  1
  O  O10  1  0.21654422  0.19903983  0.55720875  1
  O  O11  1  0.28345578  0.69903983  0.05720875  1
  O  O12  1  0.30276374  0.71416250  0.44789815  1
  O  O13  1  0.46648424  0.10380254  0.26194620  1
  O  O14  1  0.53695323  0.90257163  0.73783757  1
  O  O15  1  0.70194026  0.28200457  0.55215284  1
  O  O16  1  0.71703506  0.29740536  0.94400056  1
  O  O17  1  0.78296494  0.79740536  0.44400056  1
  O  O18  1  0.79805974  0.78200457  0.05215284  1
  O  O19  1  0.96304677  0.40257163  0.23783757  1
