# generated using pymatgen
data_EuCoGe3
_symmetry_space_group_name_H-M   'P 1'
_cell_length_a   4.34115773
_cell_length_b   4.34115773
_cell_length_c   5.84696810
_cell_angle_alpha   111.79159261
_cell_angle_beta   111.79159261
_cell_angle_gamma   90.00000000
_symmetry_Int_Tables_number   1
_chemical_formula_structural   EuCoGe3
_chemical_formula_sum   'Eu1 Co1 Ge3'
_cell_volume   93.78283279
_cell_formula_units_Z   1
loop_
 _symmetry_equiv_pos_site_id
 _symmetry_equiv_pos_as_xyz
  1  'x, y, z'
loop_
 _atom_site_type_symbol
 _atom_site_label
 _atom_site_symmetry_multiplicity
 _atom_site_fract_x
 _atom_site_fract_y
 _atom_site_fract_z
 _atom_site_occupancy
  Eu  Eu0  1  0.00067425  0.00067425  0.00134850  1
  Co  Co1  1  0.34201906  0.34201906  0.68403812  1
  Ge  Ge2  1  0.74896373  0.24896373  0.49792746  1
  Ge  Ge3  1  0.24896373  0.74896373  0.49792746  1
  Ge  Ge4  1  0.57297924  0.57297924  0.14595847  1
