# generated using pymatgen
data_Mg2MnNb2O8
_symmetry_space_group_name_H-M   'P 1'
_cell_length_a   5.22786369
_cell_length_b   6.06643912
_cell_length_c   10.18230930
_cell_angle_alpha   107.31746329
_cell_angle_beta   89.69465623
_cell_angle_gamma   90.00427568
_symmetry_Int_Tables_number   1
_chemical_formula_structural   Mg2MnNb2O8
_chemical_formula_sum   'Mg4 Mn2 Nb4 O16'
_cell_volume   308.28401151
_cell_formula_units_Z   2
loop_
 _symmetry_equiv_pos_site_id
 _symmetry_equiv_pos_as_xyz
  1  'x, y, z'
loop_
 _atom_site_type_symbol
 _atom_site_label
 _atom_site_symmetry_multiplicity
 _atom_site_fract_x
 _atom_site_fract_y
 _atom_site_fract_z
 _atom_site_occupancy
  Mg  Mg0  1  0.75319320  0.41247646  0.54411903  1
  Mg  Mg1  1  0.74405993  0.86993120  0.45959030  1
  Mg  Mg2  1  0.24471173  0.58873148  0.46036998  1
  Mg  Mg3  1  0.25276137  0.13012149  0.54274123  1
  Mn  Mn4  1  0.74872864  0.66018638  0.00175207  1
  Mn  Mn5  1  0.24875864  0.33918706  0.00172436  1
  Nb  Nb6  1  0.74007619  0.28580587  0.23757601  1
  Nb  Nb7  1  0.75736807  0.05036540  0.76596550  1
  Nb  Nb8  1  0.25762106  0.71507101  0.76663159  1
  Nb  Nb9  1  0.23966890  0.94967332  0.23665559  1
  O  O10  1  0.07386307  0.18182350  0.14794554  1
  O  O11  1  0.42349468  0.03590649  0.85544770  1
  O  O12  1  0.92458323  0.82010587  0.85592159  1
  O  O13  1  0.57271385  0.96572163  0.14746280  1
  O  O14  1  0.59060962  0.43474038  0.12340171  1
  O  O15  1  0.90694196  0.31334436  0.88006421  1
  O  O16  1  0.40756066  0.56739853  0.88134658  1
  O  O17  1  0.08998527  0.68716890  0.12202156  1
  O  O18  1  0.45461205  0.29393566  0.37841808  1
  O  O19  1  0.04267434  0.91761463  0.62506240  1
  O  O20  1  0.38167493  0.83654729  0.38434257  1
  O  O21  1  0.11577303  0.45410043  0.61901739  1
  O  O22  1  0.61520855  0.16297350  0.61823505  1
  O  O23  1  0.88208240  0.54620677  0.38524492  1
  O  O24  1  0.95525403  0.08289672  0.37844171  1
  O  O25  1  0.54206260  0.70655566  0.62479554  1
