# generated using pymatgen
data_Ca(TiS2)8
_symmetry_space_group_name_H-M   'P 1'
_cell_length_a   6.84043793
_cell_length_b   6.84043650
_cell_length_c   13.37710026
_cell_angle_alpha   90.00000000
_cell_angle_beta   90.00000000
_cell_angle_gamma   119.99999571
_symmetry_Int_Tables_number   1
_chemical_formula_structural   Ca(TiS2)8
_chemical_formula_sum   'Ca1 Ti8 S16'
_cell_volume   542.07621867
_cell_formula_units_Z   1
loop_
 _symmetry_equiv_pos_site_id
 _symmetry_equiv_pos_as_xyz
  1  'x, y, z'
loop_
 _atom_site_type_symbol
 _atom_site_label
 _atom_site_symmetry_multiplicity
 _atom_site_fract_x
 _atom_site_fract_y
 _atom_site_fract_z
 _atom_site_occupancy
  Ca  Ca0  1  0.50000000  0.50000000  0.25000000  1
  Ti  Ti1  1  0.00225050  0.99774950  0.99275963  1
  Ti  Ti2  1  0.99774950  0.00225050  0.50724037  1
  Ti  Ti3  1  0.00225050  0.50450101  0.99275963  1
  Ti  Ti4  1  0.99774950  0.49549899  0.50724037  1
  Ti  Ti5  1  0.49549899  0.99774950  0.99275963  1
  Ti  Ti6  1  0.50450101  0.00225050  0.50724037  1
  Ti  Ti7  1  0.50000000  0.50000000  0.98770912  1
  Ti  Ti8  1  0.50000000  0.50000000  0.51229088  1
  S  S9  1  0.33305283  0.16610667  0.39864964  1
  S  S10  1  0.33262128  0.16524256  0.88568704  1
  S  S11  1  0.33305283  0.66694717  0.39864964  1
  S  S12  1  0.33262128  0.66737872  0.88568704  1
  S  S13  1  0.83333300  0.16666700  0.39793833  1
  S  S14  1  0.83333300  0.16666700  0.88938638  1
  S  S15  1  0.83389333  0.66694717  0.39864964  1
  S  S16  1  0.83475744  0.66737872  0.88568704  1
  S  S17  1  0.16610667  0.33305283  0.10135036  1
  S  S18  1  0.16524256  0.33262128  0.61431296  1
  S  S19  1  0.16666700  0.83333300  0.10206167  1
  S  S20  1  0.16666700  0.83333300  0.61061362  1
  S  S21  1  0.66694717  0.33305283  0.10135036  1
  S  S22  1  0.66737872  0.33262128  0.61431296  1
  S  S23  1  0.66694717  0.83389333  0.10135036  1
  S  S24  1  0.66737872  0.83475744  0.61431296  1
