# generated using pymatgen
data_Cr2CoH20N6ClO8
_symmetry_space_group_name_H-M   'P 1'
_cell_length_a   9.50856661
_cell_length_b   10.20902455
_cell_length_c   15.56428189
_cell_angle_alpha   75.06613721
_cell_angle_beta   90.00000000
_cell_angle_gamma   90.00000000
_symmetry_Int_Tables_number   1
_chemical_formula_structural   Cr2CoH20N6ClO8
_chemical_formula_sum   'Cr8 Co4 H80 N24 Cl4 O32'
_cell_volume   1459.84310588
_cell_formula_units_Z   4
loop_
 _symmetry_equiv_pos_site_id
 _symmetry_equiv_pos_as_xyz
  1  'x, y, z'
loop_
 _atom_site_type_symbol
 _atom_site_label
 _atom_site_symmetry_multiplicity
 _atom_site_fract_x
 _atom_site_fract_y
 _atom_site_fract_z
 _atom_site_occupancy
  Cr  Cr0  1  0.42919432  0.66056915  0.25590877  1
  Cr  Cr1  1  0.92919432  0.83943085  0.24409123  1
  Cr  Cr2  1  0.57080568  0.33943085  0.74409123  1
  Cr  Cr3  1  0.07080568  0.16056915  0.75590877  1
  Cr  Cr4  1  0.24647350  0.67911558  0.08255213  1
  Cr  Cr5  1  0.74647350  0.82088442  0.41744787  1
  Cr  Cr6  1  0.75352650  0.32088442  0.91744787  1
  Cr  Cr7  1  0.25352650  0.17911558  0.58255213  1
  Co  Co8  1  0.75146268  0.27150873  0.43958464  1
  Co  Co9  1  0.25146268  0.22849127  0.06041536  1
  Co  Co10  1  0.24853732  0.72849127  0.56041536  1
  Co  Co11  1  0.74853732  0.77150873  0.93958464  1
  H  H12  1  0.00121456  0.21541114  0.38519158  1
  H  H13  1  0.50121456  0.28458886  0.11480842  1
  H  H14  1  0.99878544  0.78458886  0.61480842  1
  H  H15  1  0.49878544  0.71541114  0.88519158  1
  H  H16  1  0.90195704  0.07857849  0.40962666  1
  H  H17  1  0.40195704  0.42142151  0.09037334  1
  H  H18  1  0.09804296  0.92142151  0.59037334  1
  H  H19  1  0.59804296  0.57857849  0.90962666  1
  H  H20  1  0.87544915  0.19710584  0.31518325  1
  H  H21  1  0.37544915  0.30289416  0.18481675  1
  H  H22  1  0.12455085  0.80289416  0.68481675  1
  H  H23  1  0.62455085  0.69710584  0.81518325  1
  H  H24  1  0.75819876  0.02038418  0.52735721  1
  H  H25  1  0.25819876  0.47961582  0.97264279  1
  H  H26  1  0.24180124  0.97961582  0.47264279  1
  H  H27  1  0.74180124  0.52038418  0.02735721  1
  H  H28  1  0.81542284  0.11460963  0.59217874  1
  H  H29  1  0.31542284  0.38539037  0.90782126  1
  H  H30  1  0.18457716  0.88539037  0.40782126  1
  H  H31  1  0.68457716  0.61460963  0.09217874  1
  H  H32  1  0.64558624  0.10408160  0.57464957  1
  H  H33  1  0.14558624  0.39591840  0.92535043  1
  H  H34  1  0.35441376  0.89591840  0.42535043  1
  H  H35  1  0.85441376  0.60408160  0.07464957  1
  H  H36  1  0.64031958  0.20627434  0.31119869  1
  H  H37  1  0.14031958  0.29372566  0.18880131  1
  H  H38  1  0.35968042  0.79372566  0.68880131  1
  H  H39  1  0.85968042  0.70627434  0.81119869  1
  H  H40  1  0.59884600  0.08763009  0.40312138  1
  H  H41  1  0.09884600  0.41236991  0.09687862  1
  H  H42  1  0.40115400  0.91236991  0.59687862  1
  H  H43  1  0.90115400  0.58763009  0.90312138  1
  H  H44  1  0.50872179  0.23127442  0.37549980  1
  H  H45  1  0.00872179  0.26872558  0.12450020  1
  H  H46  1  0.49127821  0.76872558  0.62450020  1
  H  H47  1  0.99127821  0.73127442  0.87549980  1
  H  H48  1  0.85378082  0.48323403  0.33131330  1
  H  H49  1  0.35378082  0.01676597  0.16868670  1
  H  H50  1  0.14621918  0.51676597  0.66868670  1
  H  H51  1  0.64621918  0.98323403  0.83131330  1
  H  H52  1  0.75153137  0.40101417  0.27711850  1
  H  H53  1  0.25153137  0.09898583  0.22288150  1
  H  H54  1  0.24846863  0.59898583  0.72288150  1
  H  H55  1  0.74846863  0.90101417  0.77711850  1
  H  H56  1  0.67996859  0.49914794  0.33546263  1
  H  H57  1  0.17996859  0.00085206  0.16453737  1
  H  H58  1  0.32003141  0.50085206  0.66453737  1
  H  H59  1  0.82003141  0.99914794  0.83546263  1
  H  H60  1  0.53389816  0.41271829  0.44240575  1
  H  H61  1  0.03389816  0.08728171  0.05759425  1
  H  H62  1  0.46610184  0.58728171  0.55759425  1
  H  H63  1  0.96610184  0.91271829  0.94240575  1
  H  H64  1  0.53796027  0.29057797  0.53657349  1
  H  H65  1  0.03796027  0.20942203  0.96342651  1
  H  H66  1  0.46203973  0.70942203  0.46342651  1
  H  H67  1  0.96203973  0.79057797  0.03657349  1
  H  H68  1  0.63451823  0.42843778  0.52561605  1
  H  H69  1  0.13451823  0.07156222  0.97438395  1
  H  H70  1  0.36548177  0.57156222  0.47438395  1
  H  H71  1  0.86548177  0.92843778  0.02561605  1
  H  H72  1  0.95001215  0.28066799  0.54523085  1
  H  H73  1  0.45001215  0.21933201  0.95476915  1
  H  H74  1  0.04998785  0.71933201  0.45476915  1
  H  H75  1  0.54998785  0.78066799  0.04523085  1
  H  H76  1  0.97003478  0.40107115  0.45076471  1
  H  H77  1  0.47003478  0.09892885  0.04923529  1
  H  H78  1  0.02996522  0.59892885  0.54923529  1
  H  H79  1  0.52996522  0.90107115  0.95076471  1
  H  H80  1  0.86073200  0.42317517  0.52955568  1
  H  H81  1  0.36073200  0.07682483  0.97044432  1
  H  H82  1  0.13926800  0.57682483  0.47044432  1
  H  H83  1  0.63926800  0.92317517  0.02955568  1
  H  H84  1  0.15743768  0.41381289  0.34339406  1
  H  H85  1  0.65743768  0.08618711  0.15660594  1
  H  H86  1  0.84256232  0.58618711  0.65660594  1
  H  H87  1  0.34256232  0.91381289  0.84339406  1
  H  H88  1  0.09479629  0.55782470  0.30163695  1
  H  H89  1  0.59479629  0.94217530  0.19836305  1
  H  H90  1  0.90520371  0.44217530  0.69836305  1
  H  H91  1  0.40520371  0.05782470  0.80163695  1
  N  N92  1  0.89940718  0.18198686  0.38190997  1
  N  N93  1  0.39940718  0.31801314  0.11809003  1
  N  N94  1  0.10059282  0.81801314  0.61809003  1
  N  N95  1  0.60059282  0.68198686  0.88190997  1
  N  N96  1  0.74206175  0.11035529  0.54418450  1
  N  N97  1  0.24206175  0.38964471  0.95581550  1
  N  N98  1  0.25793825  0.88964471  0.45581550  1
  N  N99  1  0.75793825  0.61035529  0.04418450  1
  N  N100  1  0.60817705  0.19090935  0.37673627  1
  N  N101  1  0.10817705  0.30909065  0.12326373  1
  N  N102  1  0.39182295  0.80909065  0.62326373  1
  N  N103  1  0.89182295  0.69090935  0.87673627  1
  N  N104  1  0.76006473  0.43171338  0.33522642  1
  N  N105  1  0.26006473  0.06828662  0.16477358  1
  N  N106  1  0.23993527  0.56828662  0.66477358  1
  N  N107  1  0.73993527  0.93171338  0.83522642  1
  N  N108  1  0.59929197  0.35964528  0.49247764  1
  N  N109  1  0.09929197  0.14035472  0.00752236  1
  N  N110  1  0.40070803  0.64035472  0.50752236  1
  N  N111  1  0.90070803  0.85964528  0.99247764  1
  N  N112  1  0.89771161  0.35318764  0.49804054  1
  N  N113  1  0.39771161  0.14681236  0.00195946  1
  N  N114  1  0.10228839  0.64681236  0.50195946  1
  N  N115  1  0.60228839  0.85318764  0.99804054  1
  Cl  Cl116  1  0.75765398  0.26280125  0.18187384  1
  Cl  Cl117  1  0.25765398  0.23719875  0.31812616  1
  Cl  Cl118  1  0.24234602  0.73719875  0.81812616  1
  Cl  Cl119  1  0.74234602  0.76280125  0.68187384  1
  O  O120  1  0.27202908  0.62712901  0.20020098  1
  O  O121  1  0.77202908  0.87287099  0.29979902  1
  O  O122  1  0.72797092  0.37287099  0.79979902  1
  O  O123  1  0.22797092  0.12712901  0.70020098  1
  O  O124  1  0.45612212  0.53162503  0.34250321  1
  O  O125  1  0.95612212  0.96837497  0.15749679  1
  O  O126  1  0.54387788  0.46837497  0.65749679  1
  O  O127  1  0.04387788  0.03162503  0.84250321  1
  O  O128  1  0.56045040  0.67643291  0.18615469  1
  O  O129  1  0.06045040  0.82356709  0.31384531  1
  O  O130  1  0.43954960  0.32356709  0.81384531  1
  O  O131  1  0.93954960  0.17643291  0.68615469  1
  O  O132  1  0.40932414  0.79956911  0.28737011  1
  O  O133  1  0.90932414  0.70043089  0.21262989  1
  O  O134  1  0.59067586  0.20043089  0.71262989  1
  O  O135  1  0.09067586  0.29956911  0.78737011  1
  O  O136  1  0.37623396  0.61587147  0.03597911  1
  O  O137  1  0.87623396  0.88412853  0.46402089  1
  O  O138  1  0.62376604  0.38412853  0.96402089  1
  O  O139  1  0.12376604  0.11587147  0.53597911  1
  O  O140  1  0.09626668  0.61454707  0.06087286  1
  O  O141  1  0.59626668  0.88545293  0.43912714  1
  O  O142  1  0.90373332  0.38545293  0.93912714  1
  O  O143  1  0.40373332  0.11454707  0.56087286  1
  O  O144  1  0.24534007  0.84394100  0.04908980  1
  O  O145  1  0.74534007  0.65605900  0.45091020  1
  O  O146  1  0.75465993  0.15605900  0.95091020  1
  O  O147  1  0.25465993  0.34394100  0.54908980  1
  O  O148  1  0.09063405  0.48182039  0.35505828  1
  O  O149  1  0.59063405  0.01817961  0.14494172  1
  O  O150  1  0.90936595  0.51817961  0.64494172  1
  O  O151  1  0.40936595  0.98182039  0.85505828  1
