# generated using pymatgen
data_PH11S(NO4)2
_symmetry_space_group_name_H-M   'P 1'
_cell_length_a   7.66316972
_cell_length_b   7.47640472
_cell_length_c   7.93926046
_cell_angle_alpha   90.00000000
_cell_angle_beta   101.94756764
_cell_angle_gamma   90.00000000
_symmetry_Int_Tables_number   1
_chemical_formula_structural   PH11S(NO4)2
_chemical_formula_sum   'P2 H22 S2 N4 O16'
_cell_volume   445.01021231
_cell_formula_units_Z   2
loop_
 _symmetry_equiv_pos_site_id
 _symmetry_equiv_pos_as_xyz
  1  'x, y, z'
loop_
 _atom_site_type_symbol
 _atom_site_label
 _atom_site_symmetry_multiplicity
 _atom_site_fract_x
 _atom_site_fract_y
 _atom_site_fract_z
 _atom_site_occupancy
  P  P0  1  0.40102080  0.68643945  0.24512239  1
  P  P1  1  0.90102080  0.81356055  0.74512239  1
  H  H2  1  0.00392271  0.99000849  0.97165477  1
  H  H3  1  0.04325440  0.25229538  0.77673458  1
  H  H4  1  0.06970761  0.29559874  0.57520498  1
  H  H5  1  0.07353618  0.46681831  0.71216182  1
  H  H6  1  0.25711883  0.80500877  0.75499686  1
  H  H7  1  0.24424295  0.31316569  0.74387982  1
  H  H8  1  0.28105740  0.91797908  0.37640853  1
  H  H9  1  0.22385492  0.46576409  0.11957466  1
  H  H10  1  0.42369499  0.96088182  0.77677899  1
  H  H11  1  0.43350857  0.80019068  0.92565513  1
  H  H12  1  0.45785262  0.74241495  0.72587528  1
  H  H13  1  0.50392271  0.50999151  0.47165477  1
  H  H14  1  0.54325440  0.24770462  0.27673458  1
  H  H15  1  0.56970761  0.20440126  0.07520498  1
  H  H16  1  0.57353618  0.03318169  0.21216182  1
  H  H17  1  0.78105740  0.58202092  0.87640853  1
  H  H18  1  0.72385492  0.03423591  0.61957466  1
  H  H19  1  0.75711883  0.69499123  0.25499686  1
  H  H20  1  0.74424295  0.18683431  0.24387982  1
  H  H21  1  0.92369499  0.53911818  0.27677899  1
  H  H22  1  0.93350857  0.69980932  0.42565513  1
  H  H23  1  0.95785262  0.75758505  0.22587528  1
  S  S24  1  0.09901023  0.17496907  0.24772092  1
  S  S25  1  0.59901023  0.32503093  0.74772092  1
  N  N26  1  0.10788172  0.33177273  0.70376928  1
  N  N27  1  0.39273963  0.82739968  0.79420180  1
  N  N28  1  0.60788172  0.16822727  0.20376928  1
  N  N29  1  0.89273963  0.67260032  0.29420180  1
  O  O30  1  0.01627266  0.96979115  0.84571783  1
  O  O31  1  0.01518149  0.69184154  0.66065112  1
  O  O32  1  0.18713649  0.26962333  0.12264415  1
  O  O33  1  0.23702271  0.10129648  0.39273316  1
  O  O34  1  0.25575082  0.59747579  0.09978990  1
  O  O35  1  0.30776923  0.77858964  0.37922484  1
  O  O36  1  0.48133398  0.20145610  0.82191357  1
  O  O37  1  0.48912904  0.47572693  0.65658563  1
  O  O38  1  0.51627266  0.53020885  0.34571783  1
  O  O39  1  0.51518149  0.80815846  0.16065112  1
  O  O40  1  0.68713649  0.23037667  0.62264415  1
  O  O41  1  0.73702271  0.39870352  0.89273316  1
  O  O42  1  0.75575082  0.90252421  0.59978990  1
  O  O43  1  0.80776923  0.72141036  0.87922484  1
  O  O44  1  0.98133398  0.29854390  0.32191357  1
  O  O45  1  0.98912904  0.02427307  0.15658563  1
