# generated using pymatgen
data_Pr5Te7WCl3O23
_symmetry_space_group_name_H-M   'P 1'
_cell_length_a   7.76968824
_cell_length_b   10.08550731
_cell_length_c   18.62880312
_cell_angle_alpha   92.71103550
_cell_angle_beta   82.94665424
_cell_angle_gamma   112.65558507
_symmetry_Int_Tables_number   1
_chemical_formula_structural   Pr5Te7WCl3O23
_chemical_formula_sum   'Pr10 Te14 W2 Cl6 O46'
_cell_volume   1336.94070171
_cell_formula_units_Z   2
loop_
 _symmetry_equiv_pos_site_id
 _symmetry_equiv_pos_as_xyz
  1  'x, y, z'
loop_
 _atom_site_type_symbol
 _atom_site_label
 _atom_site_symmetry_multiplicity
 _atom_site_fract_x
 _atom_site_fract_y
 _atom_site_fract_z
 _atom_site_occupancy
  Pr  Pr0  1  0.23787888  0.47575776  0.50000000  1
  Pr  Pr1  1  0.75857965  0.51715930  0.50000000  1
  Pr  Pr2  1  0.29948175  0.48026570  0.26193972  1
  Pr  Pr3  1  0.81663608  0.51713104  0.26182260  1
  Pr  Pr4  1  0.70049497  0.51713104  0.73817740  1
  Pr  Pr5  1  0.18078395  0.48026570  0.73806028  1
  Pr  Pr6  1  0.47818080  0.22271623  0.13703590  1
  Pr  Pr7  1  0.25561403  0.77729826  0.13665894  1
  Pr  Pr8  1  0.52168423  0.77729826  0.86334106  1
  Pr  Pr9  1  0.74453542  0.22271623  0.86296410  1
  Te  Te10  1  0.04113580  0.34064952  0.11028265  1
  Te  Te11  1  0.70072036  0.65963288  0.11030856  1
  Te  Te12  1  0.95891253  0.65963288  0.88969144  1
  Te  Te13  1  0.29951372  0.34064952  0.88971735  1
  Te  Te14  1  0.00430377  0.00000000  0.23761915  1
  Te  Te15  1  0.99569623  0.00000000  0.76238085  1
  Te  Te16  1  0.36238079  0.21206778  0.35750960  1
  Te  Te17  1  0.15301227  0.78747281  0.35607340  1
  Te  Te18  1  0.63446054  0.78747281  0.64392660  1
  Te  Te19  1  0.84968699  0.21206778  0.64249040  1
  Te  Te20  1  0.83592522  0.24364834  0.38540462  1
  Te  Te21  1  0.59031684  0.75574020  0.38471485  1
  Te  Te22  1  0.16542336  0.75574020  0.61528515  1
  Te  Te23  1  0.40772312  0.24364834  0.61459538  1
  W  W24  1  0.73602950  0.00004726  0.02314350  1
  W  W25  1  0.26401776  0.00004726  0.97685650  1
  Cl  Cl26  1  0.56149136  0.99899968  0.28606966  1
  Cl  Cl27  1  0.43750832  0.99899968  0.71393034  1
  Cl  Cl28  1  0.49938901  0.99877802  0.50000000  1
  Cl  Cl29  1  0.69788787  0.39577574  0.00000000  1
  Cl  Cl30  1  0.30212646  0.60425292  1.00000000  1
  Cl  Cl31  1  0.03976091  0.07952182  0.50000000  1
  O  O32  1  0.29655890  0.37027028  0.38548412  1
  O  O33  1  0.92720126  0.63336025  0.38691727  1
  O  O34  1  0.70615899  0.63336025  0.61308273  1
  O  O35  1  0.07371138  0.37027028  0.61451588  1
  O  O36  1  0.10918054  0.14719046  0.30723623  1
  O  O37  1  0.96309469  0.85346218  0.30772605  1
  O  O38  1  0.89036749  0.85346218  0.69227395  1
  O  O39  1  0.03800992  0.14719046  0.69276377  1
  O  O40  1  0.10342932  0.51752493  0.16346934  1
  O  O41  1  0.58622150  0.48251629  0.16340694  1
  O  O42  1  0.89629479  0.48251629  0.83659306  1
  O  O43  1  0.41409561  0.51752493  0.83653066  1
  O  O44  1  0.97183505  0.37682522  0.30945941  1
  O  O45  1  0.59508003  0.62321055  0.30909035  1
  O  O46  1  0.02813052  0.62321055  0.69090965  1
  O  O47  1  0.40499017  0.37682522  0.69054059  1
  O  O48  1  0.51562147  -0.00000213  0.07702116  1
  O  O49  1  0.48437640  -0.00000213  0.92297884  1
  O  O50  1  0.79563842  0.27388247  0.15879455  1
  O  O51  1  0.52177599  0.72617901  0.15870747  1
  O  O52  1  0.20440302  0.72617901  0.84129253  1
  O  O53  1  0.47824405  0.27388247  0.84120545  1
  O  O54  1  0.18275557  0.28049037  0.16962426  1
  O  O55  1  0.90227837  0.71933851  0.16978288  1
  O  O56  1  0.81706014  0.71933851  0.83021712  1
  O  O57  1  0.09773480  0.28049037  0.83037574  1
  O  O58  1  0.64172951  0.32625320  0.39044323  1
  O  O59  1  0.31491489  0.67383209  0.39015430  1
  O  O60  1  0.35891720  0.67383209  0.60984570  1
  O  O61  1  0.68452369  0.32625320  0.60955677  1
  O  O62  1  0.89023892  0.00001730  0.08665955  1
  O  O63  1  0.10977838  0.00001730  0.91334045  1
  O  O64  1  0.48164082  0.30679875  0.26640829  1
  O  O65  1  0.17568021  0.69316409  0.26600750  1
  O  O66  1  0.51748388  0.69316409  0.73399250  1
  O  O67  1  0.82515793  0.30679875  0.73359171  1
  O  O68  1  0.69195327  0.83811622  0.96948638  1
  O  O69  1  0.85382386  0.16189297  0.96946162  1
  O  O70  1  0.30806911  0.16189297  0.03053838  1
  O  O71  1  0.14616295  0.83811622  0.03051362  1
  O  O72  1  0.93130240  0.36423491  0.46417485  1
  O  O73  1  0.57148545  0.63953433  0.46464704  1
  O  O74  1  0.06804888  0.63953433  0.53535296  1
  O  O75  1  0.43293251  0.36423491  0.53582515  1
  O  O76  1  0.23393004  0.99981527  0.18897363  1
  O  O77  1  0.76588523  0.99981527  0.81102637  1
