# generated using pymatgen
data_Na2Gd4NCl9O
_symmetry_space_group_name_H-M   'P 1'
_cell_length_a   8.19409282
_cell_length_b   9.27887229
_cell_length_c   11.13651257
_cell_angle_alpha   90.00000000
_cell_angle_beta   90.00000000
_cell_angle_gamma   106.49098629
_symmetry_Int_Tables_number   1
_chemical_formula_structural   Na2Gd4NCl9O
_chemical_formula_sum   'Na4 Gd8 N2 Cl18 O2'
_cell_volume   811.89989440
_cell_formula_units_Z   2
loop_
 _symmetry_equiv_pos_site_id
 _symmetry_equiv_pos_as_xyz
  1  'x, y, z'
loop_
 _atom_site_type_symbol
 _atom_site_label
 _atom_site_symmetry_multiplicity
 _atom_site_fract_x
 _atom_site_fract_y
 _atom_site_fract_z
 _atom_site_occupancy
  Na  Na0  1  0.22144061  0.42810956  0.98958298  1
  Na  Na1  1  0.22276245  0.42855158  0.51239777  1
  Na  Na2  1  0.77855939  0.57189044  0.48958298  1
  Na  Na3  1  0.77723755  0.57144842  0.01239777  1
  Gd  Gd4  1  0.29375795  0.95526535  0.45067203  1
  Gd  Gd5  1  0.28698684  0.95360973  0.03995211  1
  Gd  Gd6  1  0.39018086  0.78342093  0.75255118  1
  Gd  Gd7  1  0.40371331  0.16894224  0.75273083  1
  Gd  Gd8  1  0.59628669  0.83105776  0.25273083  1
  Gd  Gd9  1  0.60981914  0.21657907  0.25255118  1
  Gd  Gd10  1  0.70624205  0.04473465  0.95067203  1
  Gd  Gd11  1  0.71301316  0.04639027  0.53995211  1
  N  N12  1  0.43931418  0.98468987  0.87406350  1
  N  N13  1  0.56068582  0.01531013  0.37406350  1
  Cl  Cl14  1  0.10966717  0.69711483  0.58705200  1
  Cl  Cl15  1  0.10537501  0.69247582  0.91419409  1
  Cl  Cl16  1  0.24162187  0.74876359  0.24948427  1
  Cl  Cl17  1  0.11980788  0.11717833  0.59648452  1
  Cl  Cl18  1  0.11609795  0.12021150  0.90358260  1
  Cl  Cl19  1  0.25981957  0.14261771  0.24945284  1
  Cl  Cl20  1  0.34997427  0.46605763  0.75193496  1
  Cl  Cl21  1  0.49497780  0.69529521  0.00502326  1
  Cl  Cl22  1  0.49555260  0.69472149  0.49788037  1
  Cl  Cl23  1  0.50502220  0.30470479  0.50502326  1
  Cl  Cl24  1  0.50444740  0.30527851  0.99788037  1
  Cl  Cl25  1  0.65002573  0.53394237  0.25193496  1
  Cl  Cl26  1  0.74018043  0.85738229  0.74945284  1
  Cl  Cl27  1  0.88019212  0.88282167  0.09648452  1
  Cl  Cl28  1  0.88390205  0.87978850  0.40358260  1
  Cl  Cl29  1  0.75837813  0.25123641  0.74948427  1
  Cl  Cl30  1  0.89033283  0.30288517  0.08705200  1
  Cl  Cl31  1  0.89462499  0.30752418  0.41419409  1
  O  O32  1  0.44124196  0.98482116  0.62296068  1
  O  O33  1  0.55875804  0.01517884  0.12296068  1
