# generated using pymatgen
data_Na3Cd4P6H10(ClO8)3
_symmetry_space_group_name_H-M   'P 1'
_cell_length_a   8.13170863
_cell_length_b   8.44127142
_cell_length_c   11.30454642
_cell_angle_alpha   80.52730855
_cell_angle_beta   70.00790213
_cell_angle_gamma   61.22919619
_symmetry_Int_Tables_number   1
_chemical_formula_structural   Na3Cd4P6H10(ClO8)3
_chemical_formula_sum   'Na3 Cd4 P6 H10 Cl3 O24'
_cell_volume   639.18730223
_cell_formula_units_Z   1
loop_
 _symmetry_equiv_pos_site_id
 _symmetry_equiv_pos_as_xyz
  1  'x, y, z'
loop_
 _atom_site_type_symbol
 _atom_site_label
 _atom_site_symmetry_multiplicity
 _atom_site_fract_x
 _atom_site_fract_y
 _atom_site_fract_z
 _atom_site_occupancy
  Na  Na0  1  0.12488655  0.99977679  0.13246259  1
  Na  Na1  1  0.24346423  0.00007123  0.46736825  1
  Na  Na2  1  0.70890571  0.00048316  0.53745932  1
  Cd  Cd3  1  0.05327755  0.71893497  0.82596892  1
  Cd  Cd4  1  0.58193490  0.28636751  0.17586303  1
  Cd  Cd5  1  0.77231620  0.28113996  0.82584059  1
  Cd  Cd6  1  0.86860768  0.71353744  0.17559309  1
  P  P7  1  0.27714495  0.34689695  0.99664664  1
  P  P8  1  0.20696405  0.33609519  0.66934089  1
  P  P9  1  0.19925775  0.66896162  0.33509611  1
  P  P10  1  0.62426931  0.65246945  0.99688026  1
  P  P11  1  0.54326948  0.66409501  0.66918874  1
  P  P12  1  0.86820532  0.33113540  0.33502574  1
  H  H13  1  0.18821214  0.25628645  0.23971043  1
  H  H14  1  0.13583444  0.24205898  0.91591308  1
  H  H15  1  0.07989489  0.65901859  0.54246212  1
  H  H16  1  0.26621977  0.34102272  0.46401296  1
  H  H17  1  0.43980009  0.25651061  0.75877781  1
  H  H18  1  0.44459913  0.74368530  0.23975027  1
  H  H19  1  0.37825178  0.75709531  0.91606401  1
  H  H20  1  0.60732894  0.65926308  0.46396706  1
  H  H21  1  0.73884174  0.34144742  0.54237009  1
  H  H22  1  0.69600834  0.74405895  0.75871520  1
  Cl  Cl23  1  0.60498711  0.00006400  0.32074598  1
  Cl  Cl24  1  0.87707902  0.99949109  0.00384293  1
  Cl  Cl25  1  0.93346396  0.00007133  0.68334707  1
  O  O26  1  0.18306133  0.21996832  0.99122261  1
  O  O27  1  0.09959296  0.22116436  0.31753460  1
  O  O28  1  0.11561296  0.54667122  0.99945140  1
  O  O29  1  0.07457977  0.27828369  0.77807465  1
  O  O30  1  0.32893708  0.29457949  0.12092956  1
  O  O31  1  0.09744513  0.73558340  0.23397347  1
  O  O32  1  0.22629433  0.26887292  0.53934367  1
  O  O33  1  0.03819926  0.73613437  0.46823785  1
  O  O34  1  0.14457416  0.53942353  0.65870441  1
  O  O35  1  0.33111299  0.46567058  0.34220841  1
  O  O36  1  0.40328656  0.77910752  0.99138135  1
  O  O37  1  0.42494603  0.22746847  0.67876297  1
  O  O38  1  0.32067888  0.77905787  0.31752975  1
  O  O39  1  0.66271490  0.45265539  0.99958689  1
  O  O40  1  0.45560953  0.30782770  0.87845862  1
  O  O41  1  0.35274821  0.72157229  0.77809879  1
  O  O42  1  0.62376875  0.70495275  0.12094327  1
  O  O43  1  0.49525903  0.73130060  0.53928212  1
  O  O44  1  0.83306446  0.26449232  0.23389299  1
  O  O45  1  0.77407359  0.26430895  0.46815636  1
  O  O46  1  0.68430148  0.46107087  0.65864251  1
  O  O47  1  0.79682753  0.53464052  0.34207250  1
  O  O48  1  0.65191251  0.77335861  0.67884840  1
  O  O49  1  0.76355352  0.69179574  0.87844967  1
