# generated using pymatgen
data_Cs6Ge2O7
_symmetry_space_group_name_H-M   'P 1'
_cell_length_a   7.31704234
_cell_length_b   9.96298262
_cell_length_c   10.05043872
_cell_angle_alpha   90.00000000
_cell_angle_beta   91.24182212
_cell_angle_gamma   90.00000000
_symmetry_Int_Tables_number   1
_chemical_formula_structural   Cs6Ge2O7
_chemical_formula_sum   'Cs12 Ge4 O14'
_cell_volume   732.50053453
_cell_formula_units_Z   2
loop_
 _symmetry_equiv_pos_site_id
 _symmetry_equiv_pos_as_xyz
  1  'x, y, z'
loop_
 _atom_site_type_symbol
 _atom_site_label
 _atom_site_symmetry_multiplicity
 _atom_site_fract_x
 _atom_site_fract_y
 _atom_site_fract_z
 _atom_site_occupancy
  Cs  Cs0  1  0.11455701  0.78229277  0.72240415  1
  Cs  Cs1  1  0.11462483  0.64624762  0.08661947  1
  Cs  Cs2  1  0.24699042  0.52528781  0.45448299  1
  Cs  Cs3  1  0.25300958  0.02528781  0.04551701  1
  Cs  Cs4  1  0.38544299  0.28229277  0.77759585  1
  Cs  Cs5  1  0.38537517  0.14624762  0.41338053  1
  Cs  Cs6  1  0.61462483  0.85375238  0.58661947  1
  Cs  Cs7  1  0.61455701  0.71770723  0.22240415  1
  Cs  Cs8  1  0.74699042  0.97471219  0.95448299  1
  Cs  Cs9  1  0.75300958  0.47471219  0.54551701  1
  Cs  Cs10  1  0.88537517  0.35375238  0.91338053  1
  Cs  Cs11  1  0.88544299  0.21770723  0.27759585  1
  Ge  Ge12  1  0.04647870  0.86599227  0.37493992  1
  Ge  Ge13  1  0.45352130  0.36599227  0.12506008  1
  Ge  Ge14  1  0.54647870  0.63400773  0.87493992  1
  Ge  Ge15  1  0.95352130  0.13400773  0.62506008  1
  O  O16  1  -0.00000000  0.00000000  0.50000000  1
  O  O17  1  0.04590989  0.08127673  0.78174659  1
  O  O18  1  0.06866808  0.27942253  0.56601344  1
  O  O19  1  0.21242621  0.34277864  0.12761405  1
  O  O20  1  0.28757379  0.84277864  0.37238595  1
  O  O21  1  0.43133192  0.77942253  0.93398656  1
  O  O22  1  0.45409011  0.58127673  0.71825341  1
  O  O23  1  0.50000000  0.50000000  -0.00000000  1
  O  O24  1  0.54590989  0.41872327  0.28174659  1
  O  O25  1  0.56866808  0.22057747  0.06601344  1
  O  O26  1  0.71242621  0.15722136  0.62761405  1
  O  O27  1  0.78757379  0.65722136  0.87238595  1
  O  O28  1  0.93133192  0.72057747  0.43398656  1
  O  O29  1  0.95409011  0.91872327  0.21825341  1
