# generated using pymatgen
data_EuVO3
_symmetry_space_group_name_H-M   'P 1'
_cell_length_a   5.55807848
_cell_length_b   7.74552961
_cell_length_c   5.48374176
_cell_angle_alpha   90.00000000
_cell_angle_beta   90.00000000
_cell_angle_gamma   90.00000000
_symmetry_Int_Tables_number   1
_chemical_formula_structural   EuVO3
_chemical_formula_sum   'Eu4 V4 O12'
_cell_volume   236.07651645
_cell_formula_units_Z   4
loop_
 _symmetry_equiv_pos_site_id
 _symmetry_equiv_pos_as_xyz
  1  'x, y, z'
loop_
 _atom_site_type_symbol
 _atom_site_label
 _atom_site_symmetry_multiplicity
 _atom_site_fract_x
 _atom_site_fract_y
 _atom_site_fract_z
 _atom_site_occupancy
  Eu  Eu0  1  0.03943670  0.25000000  0.99269162  1
  Eu  Eu1  1  0.46056330  0.75000000  0.49269162  1
  Eu  Eu2  1  0.53943670  0.25000000  0.50730838  1
  Eu  Eu3  1  0.96056330  0.75000000  0.00730838  1
  V  V4  1  -0.00000000  -0.00000000  0.50000000  1
  V  V5  1  -0.00000000  0.50000000  0.50000000  1
  V  V6  1  0.50000000  0.00000000  -0.00000000  1
  V  V7  1  0.50000000  0.50000000  -0.00000000  1
  O  O8  1  0.01467074  0.75000000  0.56906189  1
  O  O9  1  0.20913042  0.53662930  0.21508379  1
  O  O10  1  0.20913042  0.96337070  0.21508379  1
  O  O11  1  0.29086958  0.03662930  0.71508379  1
  O  O12  1  0.29086958  0.46337070  0.71508379  1
  O  O13  1  0.48532926  0.25000000  0.06906189  1
  O  O14  1  0.51467074  0.75000000  0.93093811  1
  O  O15  1  0.70913042  0.96337070  0.28491621  1
  O  O16  1  0.70913042  0.53662930  0.28491621  1
  O  O17  1  0.79086958  0.03662930  0.78491621  1
  O  O18  1  0.79086958  0.46337070  0.78491621  1
  O  O19  1  0.98532926  0.25000000  0.43093811  1
