# generated using pymatgen
data_CsLaO2
_symmetry_space_group_name_H-M   'P 1'
_cell_length_a   3.79548902
_cell_length_b   3.79544711
_cell_length_c   13.84994676
_cell_angle_alpha   89.99702216
_cell_angle_beta   90.00123349
_cell_angle_gamma   120.00224627
_symmetry_Int_Tables_number   1
_chemical_formula_structural   CsLaO2
_chemical_formula_sum   'Cs2 La2 O4'
_cell_volume   172.78243414
_cell_formula_units_Z   2
loop_
 _symmetry_equiv_pos_site_id
 _symmetry_equiv_pos_as_xyz
  1  'x, y, z'
loop_
 _atom_site_type_symbol
 _atom_site_label
 _atom_site_symmetry_multiplicity
 _atom_site_fract_x
 _atom_site_fract_y
 _atom_site_fract_z
 _atom_site_occupancy
  Cs  Cs0  1  0.33329853  0.66661088  0.74999953  1
  Cs  Cs1  1  0.66669903  0.33330408  0.24999789  1
  La  La2  1  0.00004321  0.00003768  0.99999718  1
  La  La3  1  0.99996480  0.99998198  0.50000412  1
  O  O4  1  0.33332035  0.66669758  0.41495858  1
  O  O5  1  0.33332525  0.66664774  0.08504062  1
  O  O6  1  0.66667835  0.33335344  0.58504946  1
  O  O7  1  0.66666848  0.33336662  0.91495361  1
