# generated using pymatgen
data_Sr10Cu(RuO5)4
_symmetry_space_group_name_H-M   'P 1'
_cell_length_a   19.90909577
_cell_length_b   8.90729962
_cell_length_c   8.89191668
_cell_angle_alpha   59.76484606
_cell_angle_beta   47.73082905
_cell_angle_gamma   26.47462538
_symmetry_Int_Tables_number   1
_chemical_formula_structural   Sr10Cu(RuO5)4
_chemical_formula_sum   'Sr10 Cu1 Ru4 O20'
_cell_volume   496.44668702
_cell_formula_units_Z   1
loop_
 _symmetry_equiv_pos_site_id
 _symmetry_equiv_pos_as_xyz
  1  'x, y, z'
loop_
 _atom_site_type_symbol
 _atom_site_label
 _atom_site_symmetry_multiplicity
 _atom_site_fract_x
 _atom_site_fract_y
 _atom_site_fract_z
 _atom_site_occupancy
  Sr  Sr0  1  0.03965809  0.36946896  0.71399958  1
  Sr  Sr1  1  0.15427006  0.64806630  0.29048225  1
  Sr  Sr2  1  0.23487547  0.36794496  0.71443507  1
  Sr  Sr3  1  0.36512453  0.63205504  0.28556493  1
  Sr  Sr4  1  0.44572994  0.35193370  0.70951775  1
  Sr  Sr5  1  0.56034191  0.63053104  0.28600042  1
  Sr  Sr6  1  0.65017438  0.34459430  0.71458541  1
  Sr  Sr7  1  0.75395527  0.66014237  0.28562920  1
  Sr  Sr8  1  0.84604473  0.33985763  0.71437080  1
  Sr  Sr9  1  0.94982562  0.65540570  0.28541459  1
  Cu  Cu10  1  0.80000000  -0.00000000  -0.00000000  1
  Ru  Ru11  1  0.99923464  0.00219504  0.00009221  1
  Ru  Ru12  1  0.20067262  0.99858460  0.99976864  1
  Ru  Ru13  1  0.39932738  0.00141540  0.00023136  1
  Ru  Ru14  1  0.60076536  0.99780496  -0.00009221  1
  O  O15  1  0.10303520  0.99722453  0.99960671  1
  O  O16  1  0.04248601  0.14804256  0.32298659  1
  O  O17  1  0.30000000  -0.00000000  -0.00000000  1
  O  O18  1  0.19706037  0.50738766  0.99954664  1
  O  O19  1  0.23626712  0.16495460  0.32335257  1
  O  O20  1  0.49696480  0.00277547  0.00039329  1
  O  O21  1  0.40293963  0.49261234  0.00045336  1
  O  O22  1  0.43870500  0.15495409  0.32190636  1
  O  O23  1  0.69914508  0.99444589  0.99944835  1
  O  O24  1  0.16129500  0.84504591  0.67809364  1
  O  O25  1  0.59233038  0.51690450  0.00050245  1
  O  O26  1  0.63897906  0.15586194  0.32502227  1
  O  O27  1  0.90085492  0.00555411  0.00055165  1
  O  O28  1  0.36373288  0.83504540  0.67664743  1
  O  O29  1  0.80000000  0.50000000  -0.00000000  1
  O  O30  1  0.84214973  0.15470845  0.32200392  1
  O  O31  1  0.55751399  0.85195744  0.67701341  1
  O  O32  1  0.00766962  0.48309550  0.99949755  1
  O  O33  1  0.75785027  0.84529155  0.67799608  1
  O  O34  1  0.96102094  0.84413806  0.67497773  1
