# generated using pymatgen
data_K3MnPCO7
_symmetry_space_group_name_H-M   'P 1'
_cell_length_a   9.76642853
_cell_length_b   7.04805026
_cell_length_c   5.67218089
_cell_angle_alpha   90.00000000
_cell_angle_beta   90.93986762
_cell_angle_gamma   90.00000000
_symmetry_Int_Tables_number   1
_chemical_formula_structural   K3MnPCO7
_chemical_formula_sum   'K6 Mn2 P2 C2 O14'
_cell_volume   390.38795350
_cell_formula_units_Z   2
loop_
 _symmetry_equiv_pos_site_id
 _symmetry_equiv_pos_as_xyz
  1  'x, y, z'
loop_
 _atom_site_type_symbol
 _atom_site_label
 _atom_site_symmetry_multiplicity
 _atom_site_fract_x
 _atom_site_fract_y
 _atom_site_fract_z
 _atom_site_occupancy
  K  K0  1  0.07873788  0.25000000  0.76208078  1
  K  K1  1  0.26927874  0.00871892  0.25861564  1
  K  K2  1  0.26927874  0.49128108  0.25861564  1
  K  K3  1  0.73072126  0.50871892  0.74138436  1
  K  K4  1  0.73072126  0.99128108  0.74138436  1
  K  K5  1  0.92126212  0.75000000  0.23791922  1
  Mn  Mn6  1  0.36382334  0.75000000  0.77490154  1
  Mn  Mn7  1  0.63617666  0.25000000  0.22509846  1
  P  P8  1  0.42245337  0.25000000  0.71477933  1
  P  P9  1  0.57754663  0.75000000  0.28522067  1
  C  C10  1  0.08221053  0.75000000  0.74162413  1
  C  C11  1  0.91778947  0.25000000  0.25837587  1
  O  O12  1  0.05073807  0.25000000  0.26720325  1
  O  O13  1  0.14811342  0.75000000  0.94393854  1
  O  O14  1  0.15368608  0.75000000  0.54920137  1
  O  O15  1  0.33290427  0.07047792  0.76089193  1
  O  O16  1  0.33290427  0.42952208  0.76089193  1
  O  O17  1  0.46640895  0.25000000  0.45046893  1
  O  O18  1  0.44726587  0.75000000  0.12428574  1
  O  O19  1  0.55273413  0.25000000  0.87571426  1
  O  O20  1  0.53359105  0.75000000  0.54953107  1
  O  O21  1  0.66709573  0.57047792  0.23910807  1
  O  O22  1  0.66709573  0.92952208  0.23910807  1
  O  O23  1  0.84631392  0.25000000  0.45079863  1
  O  O24  1  0.85188658  0.25000000  0.05606146  1
  O  O25  1  0.94926193  0.75000000  0.73279675  1
