# generated using pymatgen
data_Sr(H2O3)2
_symmetry_space_group_name_H-M   'P 1'
_cell_length_a   5.27031139
_cell_length_b   5.27031139
_cell_length_c   9.40779755
_cell_angle_alpha   102.34784153
_cell_angle_beta   77.65215847
_cell_angle_gamma   111.41034319
_symmetry_Int_Tables_number   1
_chemical_formula_structural   Sr(H2O3)2
_chemical_formula_sum   'Sr2 H8 O12'
_cell_volume   234.98812825
_cell_formula_units_Z   2
loop_
 _symmetry_equiv_pos_site_id
 _symmetry_equiv_pos_as_xyz
  1  'x, y, z'
loop_
 _atom_site_type_symbol
 _atom_site_label
 _atom_site_symmetry_multiplicity
 _atom_site_fract_x
 _atom_site_fract_y
 _atom_site_fract_z
 _atom_site_occupancy
  Sr  Sr0  1  0.90048255  0.82158751  0.72002975  1
  Sr  Sr1  1  0.17841249  0.09951745  0.22002975  1
  H  H2  1  0.14538106  0.66715507  0.94277652  1
  H  H3  1  0.45246576  0.11890133  0.85416073  1
  H  H4  1  0.56795910  0.12440890  0.68641969  1
  H  H5  1  0.87559110  0.43204090  0.18641969  1
  H  H6  1  0.33284493  0.85461894  0.44277652  1
  H  H7  1  0.88109867  0.54753424  0.35416073  1
  H  H8  1  0.35118560  0.17335318  0.50669516  1
  H  H9  1  0.82664682  0.64881440  0.00669516  1
  O  O10  1  0.01840704  0.77783116  0.97671923  1
  O  O11  1  0.86969789  0.32906596  0.59568904  1
  O  O12  1  0.67093404  0.13030211  0.09568904  1
  O  O13  1  0.22216884  0.98159296  0.47671923  1
  O  O14  1  0.44291598  0.00183648  0.75793313  1
  O  O15  1  0.02172902  0.36172778  0.70258175  1
  O  O16  1  0.63827222  0.97827098  0.20258175  1
  O  O17  1  0.99816352  0.55708402  0.25793313  1
  O  O18  1  0.51604089  0.51186365  0.51921156  1
  O  O19  1  0.45005260  0.59309746  0.91181743  1
  O  O20  1  0.40690254  0.54994740  0.41181743  1
  O  O21  1  0.48813635  0.48395911  0.01921156  1
