# generated using pymatgen
data_RbF3
_symmetry_space_group_name_H-M   'P 1'
_cell_length_a   6.88777429
_cell_length_b   4.64284209
_cell_length_c   9.66344055
_cell_angle_alpha   88.91481342
_cell_angle_beta   89.99813637
_cell_angle_gamma   90.06590212
_symmetry_Int_Tables_number   1
_chemical_formula_structural   RbF3
_chemical_formula_sum   'Rb4 F12'
_cell_volume   308.97006916
_cell_formula_units_Z   4
loop_
 _symmetry_equiv_pos_site_id
 _symmetry_equiv_pos_as_xyz
  1  'x, y, z'
loop_
 _atom_site_type_symbol
 _atom_site_label
 _atom_site_symmetry_multiplicity
 _atom_site_fract_x
 _atom_site_fract_y
 _atom_site_fract_z
 _atom_site_occupancy
  Rb  Rb0  1  0.76775266  0.82092802  0.37082209  1
  Rb  Rb1  1  0.73692886  0.14630301  0.87620536  1
  Rb  Rb2  1  0.26771864  0.67832939  0.62937125  1
  Rb  Rb3  1  0.23652380  0.35391253  0.12377267  1
  F  F4  1  0.95709503  0.78567912  0.07206599  1
  F  F5  1  0.53732328  0.22947576  0.59035761  1
  F  F6  1  0.45614560  0.71509088  0.92753585  1
  F  F7  1  0.03741031  0.26952222  0.40941812  1
  F  F8  1  0.36676355  0.73205990  0.33200244  1
  F  F9  1  0.13691169  0.25852756  0.83010768  1
  F  F10  1  0.86659248  0.76690913  0.66823040  1
  F  F11  1  0.63729227  0.24213745  0.17022945  1
  F  F12  1  0.79798630  0.51168911  0.11952522  1
  F  F13  1  0.70045023  0.49988650  0.62932975  1
  F  F14  1  0.29686769  -0.01009453  0.88027708  1
  F  F15  1  0.20023761  0.99964394  0.37074803  1
