# generated using pymatgen
data_BO2F3
_symmetry_space_group_name_H-M   'P 1'
_cell_length_a   6.28655859
_cell_length_b   8.00620989
_cell_length_c   8.42088728
_cell_angle_alpha   90.00000000
_cell_angle_beta   80.33174139
_cell_angle_gamma   90.00000000
_symmetry_Int_Tables_number   1
_chemical_formula_structural   BO2F3
_chemical_formula_sum   'B4 O8 F12'
_cell_volume   417.81606538
_cell_formula_units_Z   4
loop_
 _symmetry_equiv_pos_site_id
 _symmetry_equiv_pos_as_xyz
  1  'x, y, z'
loop_
 _atom_site_type_symbol
 _atom_site_label
 _atom_site_symmetry_multiplicity
 _atom_site_fract_x
 _atom_site_fract_y
 _atom_site_fract_z
 _atom_site_occupancy
  B  B0  1  0.29699814  0.33092960  0.92675137  1
  B  B1  1  0.70300186  0.83092960  0.57324863  1
  B  B2  1  0.70300186  0.66907040  0.07324863  1
  B  B3  1  0.29699814  0.16907040  0.42675137  1
  O  O4  1  0.89031137  0.21507131  0.96563002  1
  O  O5  1  0.10968863  0.71507131  0.53436998  1
  O  O6  1  0.10968863  0.78492869  0.03436998  1
  O  O7  1  0.89031137  0.28492869  0.46563002  1
  O  O8  1  0.80554338  0.19823597  0.10787067  1
  O  O9  1  0.19445662  0.69823597  0.39212933  1
  O  O10  1  0.19445662  0.80176403  0.89212933  1
  O  O11  1  0.80554338  0.30176403  0.60787067  1
  F  F12  1  0.25533152  0.41858246  0.80162432  1
  F  F13  1  0.74466848  0.91858246  0.69837568  1
  F  F14  1  0.74466848  0.58141754  0.19837568  1
  F  F15  1  0.25533152  0.08141754  0.30162432  1
  F  F16  1  0.26038436  0.39827667  0.07369997  1
  F  F17  1  0.73961564  0.89827667  0.42630003  1
  F  F18  1  0.73961564  0.60172333  0.92630003  1
  F  F19  1  0.26038436  0.10172333  0.57369997  1
  F  F20  1  0.38193513  0.17927766  0.90584397  1
  F  F21  1  0.61806487  0.67927766  0.59415603  1
  F  F22  1  0.61806487  0.82072234  0.09415603  1
  F  F23  1  0.38193513  0.32072234  0.40584397  1
