# generated using pymatgen
data_AlWO4
_symmetry_space_group_name_H-M   'P 1'
_cell_length_a   5.48417572
_cell_length_b   5.48417572
_cell_length_c   4.53491111
_cell_angle_alpha   89.58039776
_cell_angle_beta   90.41960224
_cell_angle_gamma   111.40882105
_symmetry_Int_Tables_number   1
_chemical_formula_structural   AlWO4
_chemical_formula_sum   'Al2 W2 O8'
_cell_volume   126.97667398
_cell_formula_units_Z   2
loop_
 _symmetry_equiv_pos_site_id
 _symmetry_equiv_pos_as_xyz
  1  'x, y, z'
loop_
 _atom_site_type_symbol
 _atom_site_label
 _atom_site_symmetry_multiplicity
 _atom_site_fract_x
 _atom_site_fract_y
 _atom_site_fract_z
 _atom_site_occupancy
  Al  Al0  1  0.74926502  0.25073498  0.49926305  1
  Al  Al1  1  0.25073498  0.74926502  0.50073695  1
  W  W2  1  0.75001736  0.75001736  0.00000000  1
  W  W3  1  0.24998264  0.24998264  0.00000000  1
  O  O4  1  0.09642973  0.40182617  0.69360061  1
  O  O5  1  0.59817383  0.90357027  0.69360061  1
  O  O6  1  0.90357027  0.59817383  0.30639939  1
  O  O7  1  0.40182617  0.09642973  0.30639939  1
  O  O8  1  0.89579480  0.10420520  0.20310358  1
  O  O9  1  0.10420520  0.89579480  0.79689642  1
  O  O10  1  0.60172530  0.39827470  0.79351816  1
  O  O11  1  0.39827470  0.60172530  0.20648184  1
