# generated using pymatgen
data_NaZn4H6SClO16
_symmetry_space_group_name_H-M   'P 1'
_cell_length_a   8.55773128
_cell_length_b   8.48685665
_cell_length_c   12.38524114
_cell_angle_alpha   89.04599451
_cell_angle_beta   91.49154261
_cell_angle_gamma   120.75140852
_symmetry_Int_Tables_number   1
_chemical_formula_structural   NaZn4H6SClO16
_chemical_formula_sum   'Na2 Zn8 H12 S2 Cl2 O32'
_cell_volume   772.77267848
_cell_formula_units_Z   2
loop_
 _symmetry_equiv_pos_site_id
 _symmetry_equiv_pos_as_xyz
  1  'x, y, z'
loop_
 _atom_site_type_symbol
 _atom_site_label
 _atom_site_symmetry_multiplicity
 _atom_site_fract_x
 _atom_site_fract_y
 _atom_site_fract_z
 _atom_site_occupancy
  Na  Na0  1  0.32984550  0.64317116  0.44662554  1
  Na  Na1  1  0.67015450  0.35682884  0.55337446  1
  Zn  Zn2  1  0.59201000  0.71797771  0.98888806  1
  Zn  Zn3  1  0.12847825  0.41350055  0.99589305  1
  Zn  Zn4  1  0.28331425  0.87042309  0.99064185  1
  Zn  Zn5  1  0.40799000  0.28202229  0.01111194  1
  Zn  Zn6  1  0.87152175  0.58649945  0.00410695  1
  Zn  Zn7  1  0.71668575  0.12957691  0.00935815  1
  Zn  Zn8  1  0.99957741  0.00467558  0.84740086  1
  Zn  Zn9  1  0.00042259  0.99532442  0.15259914  1
  H  H10  1  0.36606026  0.45899564  0.84734546  1
  H  H11  1  0.08522432  0.61277676  0.84330423  1
  H  H12  1  0.52841889  0.91356289  0.84595257  1
  H  H13  1  0.63393974  0.54100436  0.15265454  1
  H  H14  1  0.91477568  0.38722324  0.15669577  1
  H  H15  1  0.47158111  0.08643711  0.15404743  1
  H  H16  1  0.76350236  0.67786418  0.83036844  1
  H  H17  1  0.91144984  0.23429272  0.83738829  1
  H  H18  1  0.32299146  0.09038158  0.83286520  1
  H  H19  1  0.23649764  0.32213582  0.16963156  1
  H  H20  1  0.08855016  0.76570728  0.16261171  1
  H  H21  1  0.67700854  0.90961842  0.16713480  1
  S  S22  1  0.32941285  0.66857677  0.23075076  1
  S  S23  1  0.67058715  0.33142323  0.76924924  1
  Cl  Cl24  1  0.97975393  0.02583361  0.66815907  1
  Cl  Cl25  1  0.02024607  0.97416639  0.33184093  1
  O  O26  1  0.37109992  0.47400586  0.92532061  1
  O  O27  1  0.10070662  0.62303858  0.92154211  1
  O  O28  1  0.52161310  0.89756364  0.92411374  1
  O  O29  1  0.62890008  0.52599414  0.07467939  1
  O  O30  1  0.89929338  0.37696142  0.07845789  1
  O  O31  1  0.47838690  0.10243636  0.07588626  1
  O  O32  1  0.81119937  0.75182234  0.89721235  1
  O  O33  1  0.93762135  0.18680409  0.90508774  1
  O  O34  1  0.24842660  0.06213228  0.89818646  1
  O  O35  1  0.18880063  0.24817766  0.10278765  1
  O  O36  1  0.06237865  0.81319591  0.09491226  1
  O  O37  1  0.75157340  0.93786772  0.10181354  1
  O  O38  1  0.32909520  0.66493616  0.10843025  1
  O  O39  1  0.67090480  0.33506384  0.89156975  1
  O  O40  1  0.33508929  0.50654339  0.27572250  1
  O  O41  1  0.16112280  0.65948577  0.26884783  1
  O  O42  1  0.49255426  0.83987188  0.27105498  1
  O  O43  1  0.66491071  0.49345661  0.72427750  1
  O  O44  1  0.83887720  0.34051423  0.73115217  1
  O  O45  1  0.50744574  0.16012812  0.72894502  1
  O  O46  1  0.37144648  0.56590469  0.68156899  1
  O  O47  1  0.14970908  0.75886587  0.65586009  1
  O  O48  1  0.48014324  0.73081931  0.69802679  1
  O  O49  1  0.62855352  0.43409531  0.31843101  1
  O  O50  1  0.85029092  0.24113413  0.34413991  1
  O  O51  1  0.51985676  0.26918069  0.30197321  1
  O  O52  1  0.66057555  0.79955263  0.49688981  1
  O  O53  1  0.27812103  0.30130694  0.52027229  1
  O  O54  1  0.12684895  0.73621718  0.55715845  1
  O  O55  1  0.33942445  0.20044737  0.50311019  1
  O  O56  1  0.72187897  0.69869306  0.47972771  1
  O  O57  1  0.87315105  0.26378282  0.44284155  1
