# generated using pymatgen
data_CrH12I(N2Cl)2
_symmetry_space_group_name_H-M   'P 1'
_cell_length_a   6.79633189
_cell_length_b   6.79633189
_cell_length_c   6.69563266
_cell_angle_alpha   75.63024977
_cell_angle_beta   104.36975023
_cell_angle_gamma   99.27127832
_symmetry_Int_Tables_number   1
_chemical_formula_structural   CrH12I(N2Cl)2
_chemical_formula_sum   'Cr1 H12 I1 N4 Cl2'
_cell_volume   288.58668691
_cell_formula_units_Z   1
loop_
 _symmetry_equiv_pos_site_id
 _symmetry_equiv_pos_as_xyz
  1  'x, y, z'
loop_
 _atom_site_type_symbol
 _atom_site_label
 _atom_site_symmetry_multiplicity
 _atom_site_fract_x
 _atom_site_fract_y
 _atom_site_fract_z
 _atom_site_occupancy
  Cr  Cr0  1  0.00000000  0.00000000  0.50000000  1
  H  H1  1  0.12960942  0.39440358  0.38252934  1
  H  H2  1  0.60559642  0.87039058  0.38252934  1
  H  H3  1  0.87039058  0.60559642  0.61747066  1
  H  H4  1  0.39440358  0.12960942  0.61747066  1
  H  H5  1  0.92088287  0.34385774  0.21390233  1
  H  H6  1  0.65614226  0.07911713  0.21390233  1
  H  H7  1  0.07911713  0.65614226  0.78609767  1
  H  H8  1  0.34385774  0.92088287  0.78609767  1
  H  H9  1  0.14066221  0.28139680  0.19521689  1
  H  H10  1  0.71860320  0.85933779  0.19521689  1
  H  H11  1  0.85933779  0.71860320  0.80478311  1
  H  H12  1  0.28139680  0.14066221  0.80478311  1
  I  I13  1  0.50000000  0.50000000  -0.00000000  1
  N  N14  1  0.05438932  0.28601386  0.30053631  1
  N  N15  1  0.71398614  0.94561068  0.30053631  1
  N  N16  1  0.94561068  0.71398614  0.69946369  1
  N  N17  1  0.28601386  0.05438932  0.69946369  1
  Cl  Cl18  1  0.84521247  0.15478753  0.68431775  1
  Cl  Cl19  1  0.15478753  0.84521247  0.31568225  1
