# generated using pymatgen
data_K3Na8FeH12S6(NO18)2
_symmetry_space_group_name_H-M   'P 1'
_cell_length_a   10.54060451
_cell_length_b   10.54083371
_cell_length_c   10.54076229
_cell_angle_alpha   63.31074043
_cell_angle_beta   63.31033420
_cell_angle_gamma   63.31072657
_symmetry_Int_Tables_number   1
_chemical_formula_structural   K3Na8FeH12S6(NO18)2
_chemical_formula_sum   'K3 Na8 Fe1 H12 S6 N2 O36'
_cell_volume   888.84534693
_cell_formula_units_Z   1
loop_
 _symmetry_equiv_pos_site_id
 _symmetry_equiv_pos_as_xyz
  1  'x, y, z'
loop_
 _atom_site_type_symbol
 _atom_site_label
 _atom_site_symmetry_multiplicity
 _atom_site_fract_x
 _atom_site_fract_y
 _atom_site_fract_z
 _atom_site_occupancy
  K  K0  1  0.50000000  -0.00000000  0.50000000  1
  K  K1  1  0.00000000  0.50000000  0.50000000  1
  K  K2  1  0.50000000  0.50000000  0.00000000  1
  Na  Na3  1  0.87283406  0.87283225  0.87283147  1
  Na  Na4  1  0.12716594  0.12716775  0.12716853  1
  Na  Na5  1  0.73675853  0.72681137  0.26569136  1
  Na  Na6  1  0.72681205  0.26568444  0.73676444  1
  Na  Na7  1  0.26568106  0.73676408  0.72681694  1
  Na  Na8  1  0.26324147  0.27318863  0.73430864  1
  Na  Na9  1  0.27318795  0.73431556  0.26323556  1
  Na  Na10  1  0.73431894  0.26323592  0.27318306  1
  Fe  Fe11  1  0.00000000  -0.00000000  0.00000000  1
  H  H12  1  0.76990332  0.61149799  0.03704845  1
  H  H13  1  0.61149519  0.03704694  0.76990412  1
  H  H14  1  0.03704658  0.76990374  0.61149549  1
  H  H15  1  0.23009668  0.38850201  0.96295155  1
  H  H16  1  0.38850481  0.96295306  0.23009588  1
  H  H17  1  0.96295342  0.23009626  0.38850451  1
  H  H18  1  0.63007003  0.75171952  0.03609614  1
  H  H19  1  0.75171666  0.03609778  0.63006679  1
  H  H20  1  0.03609520  0.63007022  0.75171564  1
  H  H21  1  0.36992997  0.24828048  0.96390386  1
  H  H22  1  0.24828334  0.96390222  0.36993321  1
  H  H23  1  0.96390480  0.36992978  0.24828436  1
  S  S24  1  0.89055384  0.90005044  0.37703395  1
  S  S25  1  0.90005265  0.37703204  0.89054181  1
  S  S26  1  0.37703220  0.89054936  0.90005773  1
  S  S27  1  0.10944616  0.09994956  0.62296605  1
  S  S28  1  0.09994735  0.62296796  0.10945819  1
  S  S29  1  0.62296780  0.10945064  0.09994227  1
  N  N30  1  0.57291582  0.57293907  0.57292990  1
  N  N31  1  0.42708418  0.42706093  0.42707010  1
  O  O32  1  0.94842477  0.99125643  0.21356128  1
  O  O33  1  0.99125873  0.21356362  0.94841951  1
  O  O34  1  0.21356448  0.94841940  0.99125572  1
  O  O35  1  0.05157523  0.00874357  0.78643872  1
  O  O36  1  0.00874127  0.78643638  0.05158049  1
  O  O37  1  0.78643552  0.05158060  0.00874428  1
  O  O38  1  0.81247352  0.80842950  0.38666442  1
  O  O39  1  0.80843117  0.38666416  0.81247583  1
  O  O40  1  0.38666123  0.81247587  0.80843142  1
  O  O41  1  0.18752648  0.19157050  0.61333558  1
  O  O42  1  0.19156883  0.61333584  0.18752417  1
  O  O43  1  0.61333877  0.18752413  0.19156858  1
  O  O44  1  0.78626142  0.01171495  0.45716060  1
  O  O45  1  0.01172093  0.45715949  0.78625647  1
  O  O46  1  0.45715532  0.78626657  0.01170729  1
  O  O47  1  0.21373858  0.98828505  0.54283940  1
  O  O48  1  0.98827907  0.54284051  0.21374353  1
  O  O49  1  0.54284468  0.21373343  0.98829271  1
  O  O50  1  0.02128835  0.80467433  0.43247398  1
  O  O51  1  0.80467140  0.43247790  0.02128651  1
  O  O52  1  0.43247559  0.02128027  0.80467452  1
  O  O53  1  0.97871165  0.19532567  0.56752602  1
  O  O54  1  0.19532860  0.56752210  0.97871349  1
  O  O55  1  0.56752441  0.97871973  0.19532548  1
  O  O56  1  0.04834866  0.72990530  0.71181843  1
  O  O57  1  0.72990747  0.71181718  0.04835149  1
  O  O58  1  0.71181648  0.04835016  0.72990556  1
  O  O59  1  0.95165134  0.27009470  0.28818157  1
  O  O60  1  0.27009253  0.28818282  0.95164851  1
  O  O61  1  0.28818352  0.95164984  0.27009444  1
  O  O62  1  0.50865507  0.70525913  0.50440658  1
  O  O63  1  0.70524272  0.50441141  0.50866309  1
  O  O64  1  0.50439067  0.50867320  0.70525289  1
  O  O65  1  0.49134493  0.29474087  0.49559342  1
  O  O66  1  0.29475728  0.49558859  0.49133691  1
  O  O67  1  0.49560933  0.49132680  0.29474711  1
