# generated using pymatgen
data_MnAsH3O5
_symmetry_space_group_name_H-M   'P 1'
_cell_length_a   8.08617317
_cell_length_b   16.20190251
_cell_length_c   6.92993717
_cell_angle_alpha   90.00000000
_cell_angle_beta   95.87890097
_cell_angle_gamma   90.00000000
_symmetry_Int_Tables_number   1
_chemical_formula_structural   MnAsH3O5
_chemical_formula_sum   'Mn8 As8 H24 O40'
_cell_volume   903.12568679
_cell_formula_units_Z   8
loop_
 _symmetry_equiv_pos_site_id
 _symmetry_equiv_pos_as_xyz
  1  'x, y, z'
loop_
 _atom_site_type_symbol
 _atom_site_label
 _atom_site_symmetry_multiplicity
 _atom_site_fract_x
 _atom_site_fract_y
 _atom_site_fract_z
 _atom_site_occupancy
  Mn  Mn0  1  0.59528123  0.55123526  0.34567104  1
  Mn  Mn1  1  0.40471877  0.05123526  0.65432896  1
  Mn  Mn2  1  0.89394244  0.45916154  0.09612318  1
  Mn  Mn3  1  0.10605756  0.95916154  0.90387682  1
  Mn  Mn4  1  0.14477866  0.57164065  0.83631894  1
  Mn  Mn5  1  0.85522134  0.07164065  0.16368106  1
  Mn  Mn6  1  0.34464100  0.43806746  0.60214706  1
  Mn  Mn7  1  0.65535900  0.93806746  0.39785294  1
  As  As8  1  0.59298275  0.59215747  0.84969943  1
  As  As9  1  0.40701725  0.09215747  0.15030057  1
  As  As10  1  0.89652614  0.41758440  0.59324225  1
  As  As11  1  0.10347386  0.91758440  0.40675775  1
  As  As12  1  0.18616965  0.60697634  0.32885381  1
  As  As13  1  0.81383035  0.10697634  0.67114619  1
  As  As14  1  0.30237446  0.40258497  0.11019153  1
  As  As15  1  0.69762554  0.90258497  0.88980847  1
  H  H16  1  0.39769541  0.63981030  0.05692455  1
  H  H17  1  0.60230459  0.13981030  0.94307545  1
  H  H18  1  0.09085800  0.37017747  0.38458986  1
  H  H19  1  0.90914200  0.87017747  0.61541014  1
  H  H20  1  0.12344232  0.74934945  0.35812790  1
  H  H21  1  0.87655768  0.24934945  0.64187210  1
  H  H22  1  0.37227056  0.26167281  0.13093829  1
  H  H23  1  0.62772944  0.76167281  0.86906171  1
  H  H24  1  0.73266254  0.67518467  0.56036254  1
  H  H25  1  0.26733746  0.17518467  0.43963746  1
  H  H26  1  0.76286520  0.33200765  0.89315355  1
  H  H27  1  0.23713480  0.83200765  0.10684645  1
  H  H28  1  0.84863011  0.67867022  0.38557845  1
  H  H29  1  0.15136989  0.17867022  0.61442155  1
  H  H30  1  0.64406967  0.32935945  0.06397540  1
  H  H31  1  0.35593033  0.82935945  0.93602460  1
  H  H32  1  0.09864313  0.74613966  0.86402292  1
  H  H33  1  0.90135687  0.24613966  0.13597708  1
  H  H34  1  0.39923854  0.26366695  0.62470951  1
  H  H35  1  0.60076146  0.76366695  0.37529049  1
  H  H36  1  0.92217385  0.69799861  0.83485870  1
  H  H37  1  0.07782615  0.19799861  0.16514130  1
  H  H38  1  0.57316868  0.31321865  0.61011639  1
  H  H39  1  0.42683132  0.81321865  0.38988361  1
  O  O40  1  0.70564639  0.67680266  0.79350671  1
  O  O41  1  0.29435361  0.17680266  0.20649329  1
  O  O42  1  0.78522850  0.33342782  0.65692414  1
  O  O43  1  0.21477150  0.83342782  0.34307586  1
  O  O44  1  0.67473325  0.54149344  0.05465948  1
  O  O45  1  0.32526675  0.04149344  0.94534052  1
  O  O46  1  0.81212943  0.46652520  0.38741893  1
  O  O47  1  0.18787057  0.96652520  0.61258107  1
  O  O48  1  0.55275684  0.52883557  0.65230204  1
  O  O49  1  0.44724316  0.02883557  0.34769796  1
  O  O50  1  0.93617733  0.48195634  0.78875953  1
  O  O51  1  0.06382267  0.98195634  0.21124047  1
  O  O52  1  0.39800064  0.63361418  0.90749386  1
  O  O53  1  0.60199936  0.13361418  0.09250614  1
  O  O54  1  0.09053847  0.37559376  0.53438179  1
  O  O55  1  0.90946153  0.87559376  0.46561821  1
  O  O56  1  0.38016696  0.63841585  0.27792343  1
  O  O57  1  0.61983304  0.13841585  0.72207657  1
  O  O58  1  0.10827736  0.37260239  0.16457202  1
  O  O59  1  0.89172264  0.87260239  0.83542798  1
  O  O60  1  0.08499403  0.55529409  0.13520233  1
  O  O61  1  0.91500597  0.05529409  0.86479767  1
  O  O62  1  0.40496908  0.45442758  0.30286910  1
  O  O63  1  0.59503092  0.95442758  0.69713090  1
  O  O64  1  0.18835710  0.55171088  0.53974264  1
  O  O65  1  0.81164290  0.05171088  0.46025736  1
  O  O66  1  0.30060766  0.45706711  0.89879273  1
  O  O67  1  0.69939234  0.95706711  0.10120727  1
  O  O68  1  0.05999761  0.69420888  0.35569756  1
  O  O69  1  0.94000239  0.19420888  0.64430244  1
  O  O70  1  0.42068561  0.31312420  0.07239658  1
  O  O71  1  0.57931439  0.81312420  0.92760342  1
  O  O72  1  0.73236682  0.66941184  0.41518110  1
  O  O73  1  0.26763318  0.16941184  0.58481890  1
  O  O74  1  0.76142694  0.33759409  0.03785439  1
  O  O75  1  0.23857306  0.83759409  0.96214561  1
  O  O76  1  0.04284265  0.69419133  0.82077528  1
  O  O77  1  0.95715735  0.19419133  0.17922472  1
  O  O78  1  0.45014794  0.31763982  0.60062856  1
  O  O79  1  0.54985206  0.81763982  0.39937144  1
