# generated using pymatgen
data_Dy2InAg
_symmetry_space_group_name_H-M   'P 1'
_cell_length_a   5.25800541
_cell_length_b   5.25872350
_cell_length_c   5.25861437
_cell_angle_alpha   59.99166994
_cell_angle_beta   60.00510788
_cell_angle_gamma   60.00316719
_symmetry_Int_Tables_number   1
_chemical_formula_structural   Dy2InAg
_chemical_formula_sum   'Dy2 In1 Ag1'
_cell_volume   102.81524077
_cell_formula_units_Z   1
loop_
 _symmetry_equiv_pos_site_id
 _symmetry_equiv_pos_as_xyz
  1  'x, y, z'
loop_
 _atom_site_type_symbol
 _atom_site_label
 _atom_site_symmetry_multiplicity
 _atom_site_fract_x
 _atom_site_fract_y
 _atom_site_fract_z
 _atom_site_occupancy
  Dy  Dy0  1  0.49999998  0.49999987  0.50000024  1
  Dy  Dy1  1  0.99999985  0.00000011  0.00000014  1
  In  In2  1  0.75000132  0.75000114  0.75000052  1
  Ag  Ag3  1  0.24999885  0.24999888  0.24999910  1
