# generated using pymatgen
data_Os3W
_symmetry_space_group_name_H-M   'P 1'
_cell_length_a   5.56701426
_cell_length_b   5.56703728
_cell_length_c   4.40716527
_cell_angle_alpha   89.99998692
_cell_angle_beta   89.99883774
_cell_angle_gamma   120.00035630
_symmetry_Int_Tables_number   1
_chemical_formula_structural   Os3W
_chemical_formula_sum   'Os6 W2'
_cell_volume   118.28641591
_cell_formula_units_Z   2
loop_
 _symmetry_equiv_pos_site_id
 _symmetry_equiv_pos_as_xyz
  1  'x, y, z'
loop_
 _atom_site_type_symbol
 _atom_site_label
 _atom_site_symmetry_multiplicity
 _atom_site_fract_x
 _atom_site_fract_y
 _atom_site_fract_z
 _atom_site_occupancy
  Os  Os0  1  0.16658529  0.33314385  0.24996077  1
  Os  Os1  1  0.66685640  0.83341710  0.24996181  1
  Os  Os2  1  0.16657783  0.83342636  0.25006190  1
  Os  Os3  1  0.83342767  0.66686953  0.75003813  1
  Os  Os4  1  0.33312985  0.16657266  0.75003718  1
  Os  Os5  1  0.83343315  0.16656875  0.74993725  1
  W  W6  1  0.33332530  0.66667715  0.75002095  1
  W  W7  1  0.66666550  0.33332761  0.24997801  1
