# generated using pymatgen
data_Mn3Co
_symmetry_space_group_name_H-M   'P 1'
_cell_length_a   4.97432716
_cell_length_b   4.97420882
_cell_length_c   3.95330773
_cell_angle_alpha   89.99726440
_cell_angle_beta   90.00261755
_cell_angle_gamma   119.99518860
_symmetry_Int_Tables_number   1
_chemical_formula_structural   Mn3Co
_chemical_formula_sum   'Mn6 Co2'
_cell_volume   84.71701887
_cell_formula_units_Z   2
loop_
 _symmetry_equiv_pos_site_id
 _symmetry_equiv_pos_as_xyz
  1  'x, y, z'
loop_
 _atom_site_type_symbol
 _atom_site_label
 _atom_site_symmetry_multiplicity
 _atom_site_fract_x
 _atom_site_fract_y
 _atom_site_fract_z
 _atom_site_occupancy
  Mn  Mn0  1  0.16238442  0.32476821  0.24994844  1
  Mn  Mn1  1  0.67520862  0.83762757  0.24994582  1
  Mn  Mn2  1  0.16241027  0.83763554  0.24995447  1
  Mn  Mn3  1  0.83768259  0.67524772  0.75005374  1
  Mn  Mn4  1  0.32472297  0.16234464  0.75005435  1
  Mn  Mn5  1  0.83766587  0.16241561  0.75004949  1
  Co  Co6  1  0.33329648  0.66664650  0.74999543  1
  Co  Co7  1  0.66663378  0.33331621  0.25000626  1
