# generated using pymatgen
data_Mg14TiFeO16
_symmetry_space_group_name_H-M   'P 1'
_cell_length_a   8.59764082
_cell_length_b   8.54590242
_cell_length_c   4.27671654
_cell_angle_alpha   90.00000000
_cell_angle_beta   90.00000000
_cell_angle_gamma   90.00000000
_symmetry_Int_Tables_number   1
_chemical_formula_structural   Mg14TiFeO16
_chemical_formula_sum   'Mg14 Ti1 Fe1 O16'
_cell_volume   314.23003491
_cell_formula_units_Z   1
loop_
 _symmetry_equiv_pos_site_id
 _symmetry_equiv_pos_as_xyz
  1  'x, y, z'
loop_
 _atom_site_type_symbol
 _atom_site_label
 _atom_site_symmetry_multiplicity
 _atom_site_fract_x
 _atom_site_fract_y
 _atom_site_fract_z
 _atom_site_occupancy
  Mg  Mg0  1  0.50000000  0.00000000  0.00000000  1
  Mg  Mg1  1  0.50000000  0.50000000  0.00000000  1
  Mg  Mg2  1  0.00000000  0.24625994  0.50000000  1
  Mg  Mg3  1  -0.00000000  0.75374006  0.50000000  1
  Mg  Mg4  1  0.50000000  0.24911333  0.50000000  1
  Mg  Mg5  1  0.50000000  0.75088667  0.50000000  1
  Mg  Mg6  1  0.24996175  0.00000000  0.50000000  1
  Mg  Mg7  1  0.25312611  0.50000000  0.50000000  1
  Mg  Mg8  1  0.75003825  0.00000000  0.50000000  1
  Mg  Mg9  1  0.74687389  0.50000000  0.50000000  1
  Mg  Mg10  1  0.25169546  0.24872420  -0.00000000  1
  Mg  Mg11  1  0.25169546  0.75127580  0.00000000  1
  Mg  Mg12  1  0.74830454  0.24872420  -0.00000000  1
  Mg  Mg13  1  0.74830454  0.75127580  0.00000000  1
  Ti  Ti14  1  0.00000000  0.50000000  0.00000000  1
  Fe  Fe15  1  0.00000000  0.00000000  0.00000000  1
  O  O16  1  0.25858935  -0.00000000  0.00000000  1
  O  O17  1  0.25598068  0.50000000  0.00000000  1
  O  O18  1  0.74141065  0.00000000  0.00000000  1
  O  O19  1  0.74401932  0.50000000  0.00000000  1
  O  O20  1  0.24901560  0.25077174  0.50000000  1
  O  O21  1  0.24901560  0.74922826  0.50000000  1
  O  O22  1  0.75098440  0.25077174  0.50000000  1
  O  O23  1  0.75098440  0.74922826  0.50000000  1
  O  O24  1  0.00000000  0.00000000  0.50000000  1
  O  O25  1  0.00000000  0.50000000  0.50000000  1
  O  O26  1  0.50000000  0.00000000  0.50000000  1
  O  O27  1  0.50000000  0.50000000  0.50000000  1
  O  O28  1  -0.00000000  0.24594754  -0.00000000  1
  O  O29  1  0.00000000  0.75405246  0.00000000  1
  O  O30  1  0.50000000  0.25074467  0.00000000  1
  O  O31  1  0.50000000  0.74925533  -0.00000000  1
