# generated using pymatgen
data_Pm2RuPt
_symmetry_space_group_name_H-M   'P 1'
_cell_length_a   5.01026437
_cell_length_b   5.01013959
_cell_length_c   5.01023615
_cell_angle_alpha   59.99941253
_cell_angle_beta   59.99951026
_cell_angle_gamma   59.99889132
_symmetry_Int_Tables_number   1
_chemical_formula_structural   Pm2RuPt
_chemical_formula_sum   'Pm2 Ru1 Pt1'
_cell_volume   88.92963135
_cell_formula_units_Z   1
loop_
 _symmetry_equiv_pos_site_id
 _symmetry_equiv_pos_as_xyz
  1  'x, y, z'
loop_
 _atom_site_type_symbol
 _atom_site_label
 _atom_site_symmetry_multiplicity
 _atom_site_fract_x
 _atom_site_fract_y
 _atom_site_fract_z
 _atom_site_occupancy
  Pm  Pm0  1  0.99999930  0.00000147  0.00000020  1
  Pm  Pm1  1  0.49999974  0.49999916  0.50000086  1
  Ru  Ru2  1  0.75000067  0.75000104  0.74999977  1
  Pt  Pt3  1  0.25000029  0.24999833  0.24999917  1
