# generated using pymatgen
data_PmPrTl2
_symmetry_space_group_name_H-M   'P 1'
_cell_length_a   5.53261463
_cell_length_b   5.53219856
_cell_length_c   5.53223050
_cell_angle_alpha   60.00472122
_cell_angle_beta   59.99729656
_cell_angle_gamma   59.99784760
_symmetry_Int_Tables_number   1
_chemical_formula_structural   PmPrTl2
_chemical_formula_sum   'Pm1 Pr1 Tl2'
_cell_volume   119.73276243
_cell_formula_units_Z   1
loop_
 _symmetry_equiv_pos_site_id
 _symmetry_equiv_pos_as_xyz
  1  'x, y, z'
loop_
 _atom_site_type_symbol
 _atom_site_label
 _atom_site_symmetry_multiplicity
 _atom_site_fract_x
 _atom_site_fract_y
 _atom_site_fract_z
 _atom_site_occupancy
  Pm  Pm0  1  0.25000013  0.25000044  0.24999988  1
  Pr  Pr1  1  0.74999985  0.74999945  0.75000012  1
  Tl  Tl2  1  0.00000010  0.99999996  0.99999992  1
  Tl  Tl3  1  0.49999993  0.50000015  0.50000008  1
