# generated using pymatgen
data_PmGe3
_symmetry_space_group_name_H-M   'P 1'
_cell_length_a   6.20193505
_cell_length_b   6.20397390
_cell_length_c   5.12486842
_cell_angle_alpha   89.99398874
_cell_angle_beta   90.00630720
_cell_angle_gamma   120.04787506
_symmetry_Int_Tables_number   1
_chemical_formula_structural   PmGe3
_chemical_formula_sum   'Pm2 Ge6'
_cell_volume   170.68714304
_cell_formula_units_Z   2
loop_
 _symmetry_equiv_pos_site_id
 _symmetry_equiv_pos_as_xyz
  1  'x, y, z'
loop_
 _atom_site_type_symbol
 _atom_site_label
 _atom_site_symmetry_multiplicity
 _atom_site_fract_x
 _atom_site_fract_y
 _atom_site_fract_z
 _atom_site_occupancy
  Pm  Pm0  1  0.33330267  0.66660311  0.75002283  1
  Pm  Pm1  1  0.66669703  0.33339745  0.24997442  1
  Ge  Ge2  1  0.14658390  0.29310434  0.24996921  1
  Ge  Ge3  1  0.70693977  0.85341354  0.24996963  1
  Ge  Ge4  1  0.14653653  0.85340171  0.25006346  1
  Ge  Ge5  1  0.85341599  0.70689403  0.75003143  1
  Ge  Ge6  1  0.29306230  0.14659210  0.75002776  1
  Ge  Ge7  1  0.85346281  0.14659571  0.74994127  1
