# generated using pymatgen
data_Eu3(InP2)2
_symmetry_space_group_name_H-M   'P 1'
_cell_length_a   4.30141949
_cell_length_b   6.61207556
_cell_length_c   16.04112046
_cell_angle_alpha   90.00000000
_cell_angle_beta   90.00000000
_cell_angle_gamma   90.00000000
_symmetry_Int_Tables_number   1
_chemical_formula_structural   Eu3(InP2)2
_chemical_formula_sum   'Eu6 In4 P8'
_cell_volume   456.23049071
_cell_formula_units_Z   2
loop_
 _symmetry_equiv_pos_site_id
 _symmetry_equiv_pos_as_xyz
  1  'x, y, z'
loop_
 _atom_site_type_symbol
 _atom_site_label
 _atom_site_symmetry_multiplicity
 _atom_site_fract_x
 _atom_site_fract_y
 _atom_site_fract_z
 _atom_site_occupancy
  Eu  Eu0  1  0.00000000  0.21005313  0.30131173  1
  Eu  Eu1  1  -0.00000000  0.78994687  0.69868827  1
  Eu  Eu2  1  0.50000000  0.28994687  0.80131173  1
  Eu  Eu3  1  0.50000000  0.71005313  0.19868827  1
  Eu  Eu4  1  0.50000000  -0.00000000  0.00000000  1
  Eu  Eu5  1  0.00000000  0.50000000  0.50000000  1
  In  In6  1  0.50000000  0.86010108  0.41253776  1
  In  In7  1  0.50000000  0.13989892  0.58746224  1
  In  In8  1  -0.00000000  0.63989892  0.91253776  1
  In  In9  1  0.00000000  0.36010108  0.08746224  1
  P  P10  1  0.50000000  0.23401383  0.16978613  1
  P  P11  1  0.50000000  0.76598617  0.83021387  1
  P  P12  1  0.00000000  0.26598617  0.66978613  1
  P  P13  1  0.00000000  0.73401383  0.33021387  1
  P  P14  1  0.00000000  0.74971727  0.07029839  1
  P  P15  1  0.00000000  0.25028273  0.92970161  1
  P  P16  1  0.50000000  0.75028273  0.57029839  1
  P  P17  1  0.50000000  0.24971727  0.42970161  1
