# generated using pymatgen
data_Er6IrI10
_symmetry_space_group_name_H-M   'P 1'
_cell_length_a   7.68298319
_cell_length_b   9.62876772
_cell_length_c   9.66212345
_cell_angle_alpha   107.59834222
_cell_angle_beta   96.94137202
_cell_angle_gamma   104.74328055
_symmetry_Int_Tables_number   1
_chemical_formula_structural   Er6IrI10
_chemical_formula_sum   'Er6 Ir1 I10'
_cell_volume   643.54991310
_cell_formula_units_Z   1
loop_
 _symmetry_equiv_pos_site_id
 _symmetry_equiv_pos_as_xyz
  1  'x, y, z'
loop_
 _atom_site_type_symbol
 _atom_site_label
 _atom_site_symmetry_multiplicity
 _atom_site_fract_x
 _atom_site_fract_y
 _atom_site_fract_z
 _atom_site_occupancy
  Er  Er0  1  0.52589512  0.71648402  0.41472961  1
  Er  Er1  1  0.47410488  0.28351598  0.58527039  1
  Er  Er2  1  0.15082994  0.87269187  0.33372143  1
  Er  Er3  1  0.84917006  0.12730813  0.66627857  1
  Er  Er4  1  0.61181745  0.03918804  0.25922531  1
  Er  Er5  1  0.38818255  0.96081196  0.74077469  1
  Ir  Ir6  1  0.50000000  0.00000000  0.50000000  1
  I  I7  1  0.71547141  0.73831910  0.15044696  1
  I  I8  1  0.28452859  0.26168090  0.84955304  1
  I  I9  1  0.04729450  0.18384726  0.40764199  1
  I  I10  1  0.95270550  0.81615274  0.59235801  1
  I  I11  1  0.58651966  0.37310612  0.32047862  1
  I  I12  1  0.41348034  0.62689388  0.67952138  1
  I  I13  1  0.14312430  0.54422783  0.22584519  1
  I  I14  1  0.85687570  0.45577217  0.77415481  1
  I  I15  1  0.76162987  0.08899792  0.96487868  1
  I  I16  1  0.23837013  0.91100208  0.03512132  1
