# generated using pymatgen
data_Sm(BIr)4
_symmetry_space_group_name_H-M   'P 1'
_cell_length_a   3.98656031
_cell_length_b   7.68556348
_cell_length_c   7.68556348
_cell_angle_alpha   90.00000000
_cell_angle_beta   90.00000000
_cell_angle_gamma   90.00000000
_symmetry_Int_Tables_number   1
_chemical_formula_structural   Sm(BIr)4
_chemical_formula_sum   'Sm2 B8 Ir8'
_cell_volume   235.47768994
_cell_formula_units_Z   2
loop_
 _symmetry_equiv_pos_site_id
 _symmetry_equiv_pos_as_xyz
  1  'x, y, z'
loop_
 _atom_site_type_symbol
 _atom_site_label
 _atom_site_symmetry_multiplicity
 _atom_site_fract_x
 _atom_site_fract_y
 _atom_site_fract_z
 _atom_site_occupancy
  Sm  Sm0  1  0.25000000  0.25000000  0.25000000  1
  Sm  Sm1  1  0.75000000  0.75000000  0.75000000  1
  B  B2  1  0.36044896  0.90811122  0.02889098  1
  B  B3  1  0.36044896  0.59188878  0.47110902  1
  B  B4  1  0.86044896  0.52889098  0.09188878  1
  B  B5  1  0.86044896  0.97110902  0.40811122  1
  B  B6  1  0.63955104  0.09188878  0.97110902  1
  B  B7  1  0.63955104  0.40811122  0.52889098  1
  B  B8  1  0.13955104  0.47110902  0.90811122  1
  B  B9  1  0.13955104  0.02889098  0.59188878  1
  Ir  Ir10  1  0.13919481  0.40979491  0.64080770  1
  Ir  Ir11  1  0.13919481  0.09020509  0.85919230  1
  Ir  Ir12  1  0.63919481  0.14080770  0.59020509  1
  Ir  Ir13  1  0.63919481  0.35919230  0.90979491  1
  Ir  Ir14  1  0.86080519  0.59020509  0.35919230  1
  Ir  Ir15  1  0.86080519  0.90979491  0.14080770  1
  Ir  Ir16  1  0.36080519  0.85919230  0.40979491  1
  Ir  Ir17  1  0.36080519  0.64080770  0.09020509  1
