# generated using pymatgen
data_PuWC2
_symmetry_space_group_name_H-M   'P 1'
_cell_length_a   3.29175456
_cell_length_b   5.69825424
_cell_length_c   10.93596223
_cell_angle_alpha   90.00000000
_cell_angle_beta   90.00000000
_cell_angle_gamma   90.00000000
_symmetry_Int_Tables_number   1
_chemical_formula_structural   PuWC2
_chemical_formula_sum   'Pu4 W4 C8'
_cell_volume   205.12862542
_cell_formula_units_Z   4
loop_
 _symmetry_equiv_pos_site_id
 _symmetry_equiv_pos_as_xyz
  1  'x, y, z'
loop_
 _atom_site_type_symbol
 _atom_site_label
 _atom_site_symmetry_multiplicity
 _atom_site_fract_x
 _atom_site_fract_y
 _atom_site_fract_z
 _atom_site_occupancy
  Pu  Pu0  1  0.75000000  0.41498556  0.63972013  1
  Pu  Pu1  1  0.75000000  0.91498556  0.86027987  1
  Pu  Pu2  1  0.25000000  0.58501444  0.36027987  1
  Pu  Pu3  1  0.25000000  0.08501444  0.13972013  1
  W  W4  1  0.75000000  0.08690427  0.39306495  1
  W  W5  1  0.75000000  0.58690427  0.10693505  1
  W  W6  1  0.25000000  0.91309573  0.60693505  1
  W  W7  1  0.25000000  0.41309573  0.89306495  1
  C  C8  1  0.75000000  0.33833733  0.25460639  1
  C  C9  1  0.75000000  0.83833733  0.24539361  1
  C  C10  1  0.25000000  0.66166267  0.74539361  1
  C  C11  1  0.25000000  0.16166267  0.75460639  1
  C  C12  1  0.75000000  0.76393980  0.51068802  1
  C  C13  1  0.75000000  0.26393980  0.98931198  1
  C  C14  1  0.25000000  0.23606020  0.48931198  1
  C  C15  1  0.25000000  0.73606020  0.01068802  1
