# generated using pymatgen
data_PrGaPd2
_symmetry_space_group_name_H-M   'P 1'
_cell_length_a   5.81536438
_cell_length_b   7.16092829
_cell_length_c   7.63265636
_cell_angle_alpha   90.00000000
_cell_angle_beta   90.00000000
_cell_angle_gamma   90.00000000
_symmetry_Int_Tables_number   1
_chemical_formula_structural   PrGaPd2
_chemical_formula_sum   'Pr4 Ga4 Pd8'
_cell_volume   317.84981762
_cell_formula_units_Z   4
loop_
 _symmetry_equiv_pos_site_id
 _symmetry_equiv_pos_as_xyz
  1  'x, y, z'
loop_
 _atom_site_type_symbol
 _atom_site_label
 _atom_site_symmetry_multiplicity
 _atom_site_fract_x
 _atom_site_fract_y
 _atom_site_fract_z
 _atom_site_occupancy
  Pr  Pr0  1  0.14999986  0.75000000  0.46674000  1
  Pr  Pr1  1  0.35000014  0.75000000  0.96674000  1
  Pr  Pr2  1  0.85000014  0.25000000  0.53326000  1
  Pr  Pr3  1  0.64999986  0.25000000  0.03326000  1
  Ga  Ga4  1  0.84845536  0.75000000  0.11988588  1
  Ga  Ga5  1  0.65154464  0.75000000  0.61988588  1
  Ga  Ga6  1  0.15154464  0.25000000  0.88011412  1
  Ga  Ga7  1  0.34845536  0.25000000  0.38011412  1
  Pd  Pd8  1  0.58789868  0.94684683  0.32296970  1
  Pd  Pd9  1  0.91210132  0.55315317  0.82296970  1
  Pd  Pd10  1  0.41210132  0.44684683  0.67703030  1
  Pd  Pd11  1  0.08789868  0.05315317  0.17703030  1
  Pd  Pd12  1  0.41210132  0.05315317  0.67703030  1
  Pd  Pd13  1  0.08789868  0.44684683  0.17703030  1
  Pd  Pd14  1  0.58789868  0.55315317  0.32296970  1
  Pd  Pd15  1  0.91210132  0.94684683  0.82296970  1
