# generated using pymatgen
data_Y(Co2B)6
_symmetry_space_group_name_H-M   'P 1'
_cell_length_a   5.96016568
_cell_length_b   5.96016568
_cell_length_c   5.96016517
_cell_angle_alpha   103.98890305
_cell_angle_beta   103.98890305
_cell_angle_gamma   103.98890091
_symmetry_Int_Tables_number   1
_chemical_formula_structural   Y(Co2B)6
_chemical_formula_sum   'Y1 Co12 B6'
_cell_volume   188.95229496
_cell_formula_units_Z   1
loop_
 _symmetry_equiv_pos_site_id
 _symmetry_equiv_pos_as_xyz
  1  'x, y, z'
loop_
 _atom_site_type_symbol
 _atom_site_label
 _atom_site_symmetry_multiplicity
 _atom_site_fract_x
 _atom_site_fract_y
 _atom_site_fract_z
 _atom_site_occupancy
  Y  Y0  1  0.00000000  -0.00000000  0.00000000  1
  Co  Co1  1  0.86759719  0.13240281  0.50000000  1
  Co  Co2  1  0.13240281  0.50000000  0.86759719  1
  Co  Co3  1  0.50000000  0.86759719  0.13240281  1
  Co  Co4  1  0.86759719  0.50000000  0.13240281  1
  Co  Co5  1  0.50000000  0.13240281  0.86759719  1
  Co  Co6  1  0.13240281  0.86759719  0.50000000  1
  Co  Co7  1  0.81392538  0.54349520  0.54349520  1
  Co  Co8  1  0.54349520  0.54349520  0.81392538  1
  Co  Co9  1  0.54349520  0.81392538  0.54349520  1
  Co  Co10  1  0.18607462  0.45650480  0.45650480  1
  Co  Co11  1  0.45650480  0.45650480  0.18607462  1
  Co  Co12  1  0.45650480  0.18607462  0.45650480  1
  B  B13  1  0.32390602  0.76726724  0.76726724  1
  B  B14  1  0.76726724  0.76726724  0.32390602  1
  B  B15  1  0.76726724  0.32390602  0.76726724  1
  B  B16  1  0.67609398  0.23273276  0.23273276  1
  B  B17  1  0.23273276  0.23273276  0.67609398  1
  B  B18  1  0.23273276  0.67609398  0.23273276  1
