# generated using pymatgen
data_Dy2ReC2
_symmetry_space_group_name_H-M   'P 1'
_cell_length_a   5.13182433
_cell_length_b   6.57041869
_cell_length_c   9.84865857
_cell_angle_alpha   90.00000000
_cell_angle_beta   90.00000000
_cell_angle_gamma   90.00000000
_symmetry_Int_Tables_number   1
_chemical_formula_structural   Dy2ReC2
_chemical_formula_sum   'Dy8 Re4 C8'
_cell_volume   332.07937909
_cell_formula_units_Z   4
loop_
 _symmetry_equiv_pos_site_id
 _symmetry_equiv_pos_as_xyz
  1  'x, y, z'
loop_
 _atom_site_type_symbol
 _atom_site_label
 _atom_site_symmetry_multiplicity
 _atom_site_fract_x
 _atom_site_fract_y
 _atom_site_fract_z
 _atom_site_occupancy
  Dy  Dy0  1  0.75000000  0.68165274  0.55503240  1
  Dy  Dy1  1  0.75000000  0.18165274  0.94496760  1
  Dy  Dy2  1  0.25000000  0.31834726  0.44496760  1
  Dy  Dy3  1  0.25000000  0.81834726  0.05503240  1
  Dy  Dy4  1  0.75000000  0.03174608  0.28320238  1
  Dy  Dy5  1  0.75000000  0.53174608  0.21679762  1
  Dy  Dy6  1  0.25000000  0.96825392  0.71679762  1
  Dy  Dy7  1  0.25000000  0.46825392  0.78320238  1
  Re  Re8  1  0.75000000  0.22176910  0.63404947  1
  Re  Re9  1  0.75000000  0.72176910  0.86595053  1
  Re  Re10  1  0.25000000  0.77823090  0.36595053  1
  Re  Re11  1  0.25000000  0.27823090  0.13404947  1
  C  C12  1  0.75000000  0.45528588  0.75893706  1
  C  C13  1  0.75000000  0.95528588  0.74106294  1
  C  C14  1  0.25000000  0.54471412  0.24106294  1
  C  C15  1  0.25000000  0.04471412  0.25893706  1
  C  C16  1  0.75000000  0.82346146  0.04985741  1
  C  C17  1  0.75000000  0.32346146  0.45014259  1
  C  C18  1  0.25000000  0.17653854  0.95014259  1
  C  C19  1  0.25000000  0.67653854  0.54985741  1
