# generated using pymatgen
data_Pr(YS2)3
_symmetry_space_group_name_H-M   'P 1'
_cell_length_a   4.00831093
_cell_length_b   11.36883014
_cell_length_c   11.14797527
_cell_angle_alpha   108.92204738
_cell_angle_beta   90.00000000
_cell_angle_gamma   90.00000000
_symmetry_Int_Tables_number   1
_chemical_formula_structural   Pr(YS2)3
_chemical_formula_sum   'Pr2 Y6 S12'
_cell_volume   480.55848104
_cell_formula_units_Z   2
loop_
 _symmetry_equiv_pos_site_id
 _symmetry_equiv_pos_as_xyz
  1  'x, y, z'
loop_
 _atom_site_type_symbol
 _atom_site_label
 _atom_site_symmetry_multiplicity
 _atom_site_fract_x
 _atom_site_fract_y
 _atom_site_fract_z
 _atom_site_occupancy
  Pr  Pr0  1  0.25000000  0.19389061  0.54884596  1
  Pr  Pr1  1  0.75000000  0.80610939  0.45115404  1
  Y  Y2  1  0.25000000  0.00109083  0.18016954  1
  Y  Y3  1  0.75000000  0.99890917  0.81983046  1
  Y  Y4  1  0.25000000  0.33313126  0.94010075  1
  Y  Y5  1  0.75000000  0.66686874  0.05989925  1
  Y  Y6  1  0.25000000  0.58604570  0.66095047  1
  Y  Y7  1  0.75000000  0.41395430  0.33904953  1
  S  S8  1  0.25000000  0.11192445  0.97836206  1
  S  S9  1  0.75000000  0.88807555  0.02163794  1
  S  S10  1  0.25000000  0.25127592  0.30570810  1
  S  S11  1  0.75000000  0.74872408  0.69429190  1
  S  S12  1  0.25000000  0.55940679  0.89459872  1
  S  S13  1  0.75000000  0.44059321  0.10540128  1
  S  S14  1  0.25000000  0.59529399  0.41888520  1
  S  S15  1  0.75000000  0.40470601  0.58111480  1
  S  S16  1  0.25000000  0.77162426  0.23544955  1
  S  S17  1  0.75000000  0.22837574  0.76455045  1
  S  S18  1  0.25000000  0.96334741  0.61742424  1
  S  S19  1  0.75000000  0.03665259  0.38257576  1
