# generated using pymatgen
data_Mg2NiB2Ir5
_symmetry_space_group_name_H-M   'P 1'
_cell_length_a   2.94344957
_cell_length_b   9.35831273
_cell_length_c   9.35831273
_cell_angle_alpha   90.00000000
_cell_angle_beta   90.00000000
_cell_angle_gamma   90.00000000
_symmetry_Int_Tables_number   1
_chemical_formula_structural   Mg2NiB2Ir5
_chemical_formula_sum   'Mg4 Ni2 B4 Ir10'
_cell_volume   257.78147693
_cell_formula_units_Z   2
loop_
 _symmetry_equiv_pos_site_id
 _symmetry_equiv_pos_as_xyz
  1  'x, y, z'
loop_
 _atom_site_type_symbol
 _atom_site_label
 _atom_site_symmetry_multiplicity
 _atom_site_fract_x
 _atom_site_fract_y
 _atom_site_fract_z
 _atom_site_occupancy
  Mg  Mg0  1  -0.00000000  0.32511348  0.82511348  1
  Mg  Mg1  1  0.00000000  0.67488652  0.17488652  1
  Mg  Mg2  1  0.00000000  0.17488652  0.32511348  1
  Mg  Mg3  1  -0.00000000  0.82511348  0.67488652  1
  Ni  Ni4  1  -0.00000000  0.50000000  0.50000000  1
  Ni  Ni5  1  0.00000000  0.00000000  -0.00000000  1
  B  B6  1  -0.00000000  0.12750252  0.62750252  1
  B  B7  1  0.00000000  0.87249748  0.37249748  1
  B  B8  1  0.00000000  0.37249748  0.12750252  1
  B  B9  1  -0.00000000  0.62750252  0.87249748  1
  Ir  Ir10  1  0.50000000  -0.00000000  0.50000000  1
  Ir  Ir11  1  0.50000000  0.50000000  -0.00000000  1
  Ir  Ir12  1  0.50000000  0.57240146  0.71231373  1
  Ir  Ir13  1  0.50000000  0.42759854  0.28768627  1
  Ir  Ir14  1  0.50000000  0.92759854  0.21231373  1
  Ir  Ir15  1  0.50000000  0.07240146  0.78768627  1
  Ir  Ir16  1  0.50000000  0.71231373  0.42759854  1
  Ir  Ir17  1  0.50000000  0.28768627  0.57240146  1
  Ir  Ir18  1  0.50000000  0.21231373  0.07240146  1
  Ir  Ir19  1  0.50000000  0.78768627  0.92759854  1
