# generated using pymatgen
data_NaCoPH2(CO3)2
_symmetry_space_group_name_H-M   'P 1'
_cell_length_a   9.76039344
_cell_length_b   10.23728118
_cell_length_c   11.08769739
_cell_angle_alpha   90.00000000
_cell_angle_beta   90.00000000
_cell_angle_gamma   90.00000000
_symmetry_Int_Tables_number   1
_chemical_formula_structural   NaCoPH2(CO3)2
_chemical_formula_sum   'Na8 Co8 P8 H16 C16 O48'
_cell_volume   1107.88152654
_cell_formula_units_Z   8
loop_
 _symmetry_equiv_pos_site_id
 _symmetry_equiv_pos_as_xyz
  1  'x, y, z'
loop_
 _atom_site_type_symbol
 _atom_site_label
 _atom_site_symmetry_multiplicity
 _atom_site_fract_x
 _atom_site_fract_y
 _atom_site_fract_z
 _atom_site_occupancy
  Na  Na0  1  0.58378511  0.12262533  0.57157858  1
  Na  Na1  1  0.91621489  0.62262533  0.42842142  1
  Na  Na2  1  0.08378511  0.87737467  0.92842142  1
  Na  Na3  1  0.41621489  0.37737467  0.07157858  1
  Na  Na4  1  0.41621489  0.87737467  0.42842142  1
  Na  Na5  1  0.08378511  0.37737467  0.57157858  1
  Na  Na6  1  0.91621489  0.12262533  0.07157858  1
  Na  Na7  1  0.58378511  0.62262533  0.92842142  1
  Co  Co8  1  0.41685970  0.31924380  0.39090427  1
  Co  Co9  1  0.08314030  0.81924380  0.60909573  1
  Co  Co10  1  0.91685970  0.68075620  0.10909573  1
  Co  Co11  1  0.58314030  0.18075620  0.89090427  1
  Co  Co12  1  0.58314030  0.68075620  0.60909573  1
  Co  Co13  1  0.91685970  0.18075620  0.39090427  1
  Co  Co14  1  0.08314030  0.31924380  0.89090427  1
  Co  Co15  1  0.41685970  0.81924380  0.10909573  1
  P  P16  1  0.71604952  0.40404571  0.53997868  1
  P  P17  1  0.78395048  0.90404571  0.46002132  1
  P  P18  1  0.21604952  0.59595429  0.96002132  1
  P  P19  1  0.28395048  0.09595429  0.03997868  1
  P  P20  1  0.28395048  0.59595429  0.46002132  1
  P  P21  1  0.21604952  0.09595429  0.53997868  1
  P  P22  1  0.78395048  0.40404571  0.03997868  1
  P  P23  1  0.71604952  0.90404571  0.96002132  1
  H  H24  1  0.81718079  0.21582254  0.74867645  1
  H  H25  1  0.68281921  0.71582254  0.25132355  1
  H  H26  1  0.31718079  0.78417746  0.75132355  1
  H  H27  1  0.18281921  0.28417746  0.24867645  1
  H  H28  1  0.18281921  0.78417746  0.25132355  1
  H  H29  1  0.31718079  0.28417746  0.74867645  1
  H  H30  1  0.68281921  0.21582254  0.24867645  1
  H  H31  1  0.81718079  0.71582254  0.75132355  1
  H  H32  1  0.77362967  0.43340644  0.75152153  1
  H  H33  1  0.72637033  0.93340644  0.24847847  1
  H  H34  1  0.27362967  0.56659356  0.74847847  1
  H  H35  1  0.22637033  0.06659356  0.25152153  1
  H  H36  1  0.22637033  0.56659356  0.24847847  1
  H  H37  1  0.27362967  0.06659356  0.75152153  1
  H  H38  1  0.72637033  0.43340644  0.25152153  1
  H  H39  1  0.77362967  0.93340644  0.74847847  1
  C  C40  1  0.44645897  0.58936209  0.25813122  1
  C  C41  1  0.05354103  0.08936209  0.74186878  1
  C  C42  1  0.94645897  0.41063791  0.24186878  1
  C  C43  1  0.55354103  0.91063791  0.75813122  1
  C  C44  1  0.55354103  0.41063791  0.74186878  1
  C  C45  1  0.94645897  0.91063791  0.25813122  1
  C  C46  1  0.05354103  0.58936209  0.75813122  1
  C  C47  1  0.44645897  0.08936209  0.24186878  1
  C  C48  1  0.69808464  0.37187653  0.70479705  1
  C  C49  1  0.80191536  0.87187653  0.29520295  1
  C  C50  1  0.19808464  0.62812347  0.79520295  1
  C  C51  1  0.30191536  0.12812347  0.20479705  1
  C  C52  1  0.30191536  0.62812347  0.29520295  1
  C  C53  1  0.19808464  0.12812347  0.70479705  1
  C  C54  1  0.80191536  0.37187653  0.20479705  1
  C  C55  1  0.69808464  0.87187653  0.79520295  1
  O  O56  1  0.85581643  0.35076688  0.49789827  1
  O  O57  1  0.64418357  0.85076688  0.50210173  1
  O  O58  1  0.35581643  0.64923312  0.00210173  1
  O  O59  1  0.14418357  0.14923312  0.99789827  1
  O  O60  1  0.14418357  0.64923312  0.50210173  1
  O  O61  1  0.35581643  0.14923312  0.49789827  1
  O  O62  1  0.64418357  0.35076688  0.99789827  1
  O  O63  1  0.85581643  0.85076688  0.00210173  1
  O  O64  1  0.71242309  0.55384527  0.52650138  1
  O  O65  1  0.78757691  0.05384527  0.47349862  1
  O  O66  1  0.21242309  0.44615473  0.97349862  1
  O  O67  1  0.28757691  0.94615473  0.02650138  1
  O  O68  1  0.28757691  0.44615473  0.47349862  1
  O  O69  1  0.21242309  0.94615473  0.52650138  1
  O  O70  1  0.78757691  0.55384527  0.02650138  1
  O  O71  1  0.71242309  0.05384527  0.97349862  1
  O  O72  1  0.59501892  0.33013389  0.48491726  1
  O  O73  1  0.90498108  0.83013389  0.51508274  1
  O  O74  1  0.09501892  0.66986611  0.01508274  1
  O  O75  1  0.40498108  0.16986611  0.98491726  1
  O  O76  1  0.40498108  0.66986611  0.51508274  1
  O  O77  1  0.09501892  0.16986611  0.48491726  1
  O  O78  1  0.90498108  0.33013389  0.98491726  1
  O  O79  1  0.59501892  0.83013389  0.01508274  1
  O  O80  1  0.71756588  0.23563862  0.73311376  1
  O  O81  1  0.78243412  0.73563862  0.26688624  1
  O  O82  1  0.21756588  0.76436138  0.76688624  1
  O  O83  1  0.28243412  0.26436138  0.23311376  1
  O  O84  1  0.28243412  0.76436138  0.26688624  1
  O  O85  1  0.21756588  0.26436138  0.73311376  1
  O  O86  1  0.78243412  0.23563862  0.23311376  1
  O  O87  1  0.71756588  0.73563862  0.76688624  1
  O  O88  1  0.48462523  0.47151859  0.26940167  1
  O  O89  1  0.01537477  0.97151859  0.73059833  1
  O  O90  1  0.98462523  0.52848141  0.23059833  1
  O  O91  1  0.51537477  0.02848141  0.76940167  1
  O  O92  1  0.51537477  0.52848141  0.73059833  1
  O  O93  1  0.98462523  0.02848141  0.26940167  1
  O  O94  1  0.01537477  0.47151859  0.76940167  1
  O  O95  1  0.48462523  0.97151859  0.23059833  1
  O  O96  1  0.52323861  0.17973658  0.28324210  1
  O  O97  1  0.97676139  0.67973658  0.71675790  1
  O  O98  1  0.02323861  0.82026342  0.21675790  1
  O  O99  1  0.47676139  0.32026342  0.78324210  1
  O  O100  1  0.47676139  0.82026342  0.71675790  1
  O  O101  1  0.02323861  0.32026342  0.28324210  1
  O  O102  1  0.97676139  0.17973658  0.78324210  1
  O  O103  1  0.52323861  0.67973658  0.21675790  1
