# generated using pymatgen
data_ErWC2
_symmetry_space_group_name_H-M   'P 1'
_cell_length_a   3.35267105
_cell_length_b   5.69895395
_cell_length_c   10.77416899
_cell_angle_alpha   90.00000000
_cell_angle_beta   90.00000000
_cell_angle_gamma   90.00000000
_symmetry_Int_Tables_number   1
_chemical_formula_structural   ErWC2
_chemical_formula_sum   'Er4 W4 C8'
_cell_volume   205.85900775
_cell_formula_units_Z   4
loop_
 _symmetry_equiv_pos_site_id
 _symmetry_equiv_pos_as_xyz
  1  'x, y, z'
loop_
 _atom_site_type_symbol
 _atom_site_label
 _atom_site_symmetry_multiplicity
 _atom_site_fract_x
 _atom_site_fract_y
 _atom_site_fract_z
 _atom_site_occupancy
  Er  Er0  1  0.75000000  0.41483567  0.63701949  1
  Er  Er1  1  0.75000000  0.91483567  0.86298051  1
  Er  Er2  1  0.25000000  0.58516433  0.36298051  1
  Er  Er3  1  0.25000000  0.08516433  0.13701949  1
  W  W4  1  0.75000000  0.09780809  0.38981630  1
  W  W5  1  0.75000000  0.59780809  0.11018370  1
  W  W6  1  0.25000000  0.90219191  0.61018370  1
  W  W7  1  0.25000000  0.40219191  0.88981630  1
  C  C8  1  0.75000000  0.33978763  0.25271981  1
  C  C9  1  0.75000000  0.83978763  0.24728019  1
  C  C10  1  0.25000000  0.66021237  0.74728019  1
  C  C11  1  0.25000000  0.16021237  0.75271981  1
  C  C12  1  0.75000000  0.77306056  0.51341947  1
  C  C13  1  0.75000000  0.27306056  0.98658053  1
  C  C14  1  0.25000000  0.22693944  0.48658053  1
  C  C15  1  0.25000000  0.72693944  0.01341947  1
