# generated using pymatgen
data_Pr(FeB)4
_symmetry_space_group_name_H-M   'P 1'
_cell_length_a   3.80708335
_cell_length_b   7.09353979
_cell_length_c   7.09353979
_cell_angle_alpha   90.00000000
_cell_angle_beta   90.00000000
_cell_angle_gamma   90.00000000
_symmetry_Int_Tables_number   1
_chemical_formula_structural   Pr(FeB)4
_chemical_formula_sum   'Pr2 Fe8 B8'
_cell_volume   191.56598784
_cell_formula_units_Z   2
loop_
 _symmetry_equiv_pos_site_id
 _symmetry_equiv_pos_as_xyz
  1  'x, y, z'
loop_
 _atom_site_type_symbol
 _atom_site_label
 _atom_site_symmetry_multiplicity
 _atom_site_fract_x
 _atom_site_fract_y
 _atom_site_fract_z
 _atom_site_occupancy
  Pr  Pr0  1  0.25000000  0.25000000  0.25000000  1
  Pr  Pr1  1  0.75000000  0.75000000  0.75000000  1
  Fe  Fe2  1  0.14383662  0.38288108  0.63858212  1
  Fe  Fe3  1  0.14383662  0.11711892  0.86141788  1
  Fe  Fe4  1  0.64383662  0.13858212  0.61711892  1
  Fe  Fe5  1  0.64383662  0.36141788  0.88288108  1
  Fe  Fe6  1  0.85616338  0.61711892  0.36141788  1
  Fe  Fe7  1  0.85616338  0.88288108  0.13858212  1
  Fe  Fe8  1  0.35616338  0.86141788  0.38288108  1
  Fe  Fe9  1  0.35616338  0.63858212  0.11711892  1
  B  B10  1  0.35518252  0.91500629  0.04658857  1
  B  B11  1  0.35518252  0.58499371  0.45341143  1
  B  B12  1  0.85518252  0.54658857  0.08499371  1
  B  B13  1  0.85518252  0.95341143  0.41500629  1
  B  B14  1  0.64481748  0.08499371  0.95341143  1
  B  B15  1  0.64481748  0.41500629  0.54658857  1
  B  B16  1  0.14481748  0.45341143  0.91500629  1
  B  B17  1  0.14481748  0.04658857  0.58499371  1
