# generated using pymatgen
data_Tm6GaNi2
_symmetry_space_group_name_H-M   'P 1'
_cell_length_a   8.17527825
_cell_length_b   8.17527825
_cell_length_c   8.17527825
_cell_angle_alpha   106.87213880
_cell_angle_beta   110.52437161
_cell_angle_gamma   111.04845400
_symmetry_Int_Tables_number   1
_chemical_formula_structural   Tm6GaNi2
_chemical_formula_sum   'Tm12 Ga2 Ni4'
_cell_volume   419.96128703
_cell_formula_units_Z   2
loop_
 _symmetry_equiv_pos_site_id
 _symmetry_equiv_pos_as_xyz
  1  'x, y, z'
loop_
 _atom_site_type_symbol
 _atom_site_label
 _atom_site_symmetry_multiplicity
 _atom_site_fract_x
 _atom_site_fract_y
 _atom_site_fract_z
 _atom_site_occupancy
  Tm  Tm0  1  0.69920353  0.26313853  0.96234206  1
  Tm  Tm1  1  0.30079647  0.73686147  0.03765794  1
  Tm  Tm2  1  0.69920353  0.73686147  0.43606500  1
  Tm  Tm3  1  0.30079647  0.26313853  0.56393500  1
  Tm  Tm4  1  0.80295792  0.12620966  0.32325174  1
  Tm  Tm5  1  0.80295792  0.47970618  0.67674826  1
  Tm  Tm6  1  0.19704208  0.87379034  0.67674826  1
  Tm  Tm7  1  0.19704208  0.52029382  0.32325174  1
  Tm  Tm8  1  0.60081420  0.78300554  0.81780865  1
  Tm  Tm9  1  0.96519689  0.78300554  0.18219135  1
  Tm  Tm10  1  0.03480311  0.21699446  0.81780865  1
  Tm  Tm11  1  0.39918580  0.21699446  0.18219135  1
  Ga  Ga12  1  0.50000000  0.50000000  0.00000000  1
  Ga  Ga13  1  0.50000000  0.00000000  0.50000000  1
  Ni  Ni14  1  0.85611600  0.50000000  0.35611600  1
  Ni  Ni15  1  0.14388400  0.50000000  0.64388400  1
  Ni  Ni16  1  -0.00000000  0.12196686  0.12196686  1
  Ni  Ni17  1  0.00000000  0.87803314  0.87803314  1
