# generated using pymatgen
data_Eu5Bi3
_symmetry_space_group_name_H-M   'P 1'
_cell_length_a   7.23982343
_cell_length_b   9.63444616
_cell_length_c   9.63413956
_cell_angle_alpha   120.00105568
_cell_angle_beta   90.00000000
_cell_angle_gamma   90.00000000
_symmetry_Int_Tables_number   1
_chemical_formula_structural   Eu5Bi3
_chemical_formula_sum   'Eu10 Bi6'
_cell_volume   581.96072112
_cell_formula_units_Z   2
loop_
 _symmetry_equiv_pos_site_id
 _symmetry_equiv_pos_as_xyz
  1  'x, y, z'
loop_
 _atom_site_type_symbol
 _atom_site_label
 _atom_site_symmetry_multiplicity
 _atom_site_fract_x
 _atom_site_fract_y
 _atom_site_fract_z
 _atom_site_occupancy
  Eu  Eu0  1  0.49999962  0.33328399  0.66665890  1
  Eu  Eu1  1  0.49999962  0.66662509  0.33334110  1
  Eu  Eu2  1  0.99999962  0.66671601  0.33334110  1
  Eu  Eu3  1  0.99999962  0.33337491  0.66665890  1
  Eu  Eu4  1  0.74996239  0.25188323  1.00000000  1
  Eu  Eu5  1  0.75001880  0.74799517  0.74797635  1
  Eu  Eu6  1  0.75001880  0.00001882  0.25202365  1
  Eu  Eu7  1  0.24996239  0.74811677  0.00000000  1
  Eu  Eu8  1  0.25001880  0.25200483  0.25202365  1
  Eu  Eu9  1  0.25001880  0.99998118  0.74797635  1
  Bi  Bi10  1  0.74996821  0.60983675  0.00000000  1
  Bi  Bi11  1  0.75001628  0.39015678  0.39027545  1
  Bi  Bi12  1  0.75001628  0.99988133  0.60972455  1
  Bi  Bi13  1  0.24996821  0.39016325  1.00000000  1
  Bi  Bi14  1  0.25001628  0.60984322  0.60972455  1
  Bi  Bi15  1  0.25001628  0.00011867  0.39027545  1
