# generated using pymatgen
data_Cs2LiScCl6
_symmetry_space_group_name_H-M   'P 1'
_cell_length_a   7.45607532
_cell_length_b   7.45607532
_cell_length_c   12.89373833
_cell_angle_alpha   73.19379504
_cell_angle_beta   73.19379504
_cell_angle_gamma   60.00000282
_symmetry_Int_Tables_number   1
_chemical_formula_structural   Cs2LiScCl6
_chemical_formula_sum   'Cs4 Li2 Sc2 Cl12'
_cell_volume   585.14992395
_cell_formula_units_Z   2
loop_
 _symmetry_equiv_pos_site_id
 _symmetry_equiv_pos_as_xyz
  1  'x, y, z'
loop_
 _atom_site_type_symbol
 _atom_site_label
 _atom_site_symmetry_multiplicity
 _atom_site_fract_x
 _atom_site_fract_y
 _atom_site_fract_z
 _atom_site_occupancy
  Cs  Cs0  1  0.12615930  0.12615930  0.62152110  1
  Cs  Cs1  1  0.87384070  0.87384070  0.37847890  1
  Cs  Cs2  1  0.28904170  0.28904170  0.13287589  1
  Cs  Cs3  1  0.71095830  0.71095830  0.86712411  1
  Li  Li4  1  0.41123546  0.41123546  0.76629461  1
  Li  Li5  1  0.58876454  0.58876454  0.23370539  1
  Sc  Sc6  1  -0.00000000  -0.00000000  0.00000000  1
  Sc  Sc7  1  0.50000000  0.50000000  0.50000000  1
  Cl  Cl8  1  0.15113780  0.61211372  0.62463375  1
  Cl  Cl9  1  0.61211372  0.61211372  0.62463375  1
  Cl  Cl10  1  0.61211372  0.15113780  0.62463375  1
  Cl  Cl11  1  0.84886220  0.38788628  0.37536625  1
  Cl  Cl12  1  0.38788628  0.38788628  0.37536625  1
  Cl  Cl13  1  0.38788628  0.84886220  0.37536625  1
  Cl  Cl14  1  0.28052264  0.80045621  0.11856595  1
  Cl  Cl15  1  0.80045621  0.80045621  0.11856595  1
  Cl  Cl16  1  0.80045621  0.28052264  0.11856595  1
  Cl  Cl17  1  0.71947736  0.19954379  0.88143405  1
  Cl  Cl18  1  0.19954379  0.19954379  0.88143405  1
  Cl  Cl19  1  0.19954379  0.71947736  0.88143405  1
