# generated using pymatgen
data_Tm2Si4Mo3
_symmetry_space_group_name_H-M   'P 1'
_cell_length_a   6.70175509
_cell_length_b   6.82772438
_cell_length_c   6.89154182
_cell_angle_alpha   90.00000000
_cell_angle_beta   90.00000000
_cell_angle_gamma   108.94366133
_symmetry_Int_Tables_number   1
_chemical_formula_structural   Tm2Si4Mo3
_chemical_formula_sum   'Tm4 Si8 Mo6'
_cell_volume   298.26191553
_cell_formula_units_Z   2
loop_
 _symmetry_equiv_pos_site_id
 _symmetry_equiv_pos_as_xyz
  1  'x, y, z'
loop_
 _atom_site_type_symbol
 _atom_site_label
 _atom_site_symmetry_multiplicity
 _atom_site_fract_x
 _atom_site_fract_y
 _atom_site_fract_z
 _atom_site_occupancy
  Tm  Tm0  1  0.43861990  0.80911551  0.67007556  1
  Tm  Tm1  1  0.06138010  0.19088449  0.17007556  1
  Tm  Tm2  1  0.56138010  0.19088449  0.32992444  1
  Tm  Tm3  1  0.93861990  0.80911551  0.82992444  1
  Si  Si4  1  0.13385450  0.91063075  0.45735517  1
  Si  Si5  1  0.36614550  0.08936925  0.95735517  1
  Si  Si6  1  0.86614550  0.08936925  0.54264483  1
  Si  Si7  1  0.63385450  0.91063075  0.04264483  1
  Si  Si8  1  0.12853501  0.49656290  0.86845187  1
  Si  Si9  1  0.37146499  0.50343710  0.36845187  1
  Si  Si10  1  0.87146499  0.50343710  0.13154813  1
  Si  Si11  1  0.62853501  0.49656290  0.63154813  1
  Mo  Mo12  1  0.00000000  0.50000000  0.50000000  1
  Mo  Mo13  1  0.50000000  0.50000000  -0.00000000  1
  Mo  Mo14  1  0.25108146  0.75254172  0.16323457  1
  Mo  Mo15  1  0.24891854  0.24745828  0.66323457  1
  Mo  Mo16  1  0.74891854  0.24745828  0.83676543  1
  Mo  Mo17  1  0.75108146  0.75254172  0.33676543  1
