# generated using pymatgen
data_Ta3RhS6
_symmetry_space_group_name_H-M   'P 1'
_cell_length_a   5.76801722
_cell_length_b   5.76774537
_cell_length_c   12.18669020
_cell_angle_alpha   90.00154305
_cell_angle_beta   89.99999998
_cell_angle_gamma   120.00156305
_symmetry_Int_Tables_number   1
_chemical_formula_structural   Ta3RhS6
_chemical_formula_sum   'Ta6 Rh2 S12'
_cell_volume   351.10918432
_cell_formula_units_Z   2
loop_
 _symmetry_equiv_pos_site_id
 _symmetry_equiv_pos_as_xyz
  1  'x, y, z'
loop_
 _atom_site_type_symbol
 _atom_site_label
 _atom_site_symmetry_multiplicity
 _atom_site_fract_x
 _atom_site_fract_y
 _atom_site_fract_z
 _atom_site_occupancy
  Ta  Ta0  1  -0.00001044  0.00000000  0.50000000  1
  Ta  Ta1  1  0.00000290  1.00000000  -0.00000000  1
  Ta  Ta2  1  0.66668093  0.33330507  0.00257959  1
  Ta  Ta3  1  0.33337586  0.66669493  0.99742041  1
  Ta  Ta4  1  0.33331394  0.66664688  0.50257168  1
  Ta  Ta5  1  0.66666706  0.33335312  0.49742832  1
  Rh  Rh6  1  0.66668975  0.33331016  0.75001119  1
  Rh  Rh7  1  0.33337959  0.66668984  0.24998881  1
  S  S8  1  0.66686056  0.99664643  0.62931269  1
  S  S9  1  0.32976209  0.33315106  0.62932216  1
  S  S10  1  0.00333759  0.67020256  0.62930881  1
  S  S11  1  0.67021412  0.00335357  0.37068731  1
  S  S12  1  0.99661103  0.66684894  0.37067784  1
  S  S13  1  0.33313504  0.32979744  0.37069119  1
  S  S14  1  0.33315643  0.00335666  0.12931515  1
  S  S15  1  0.67023531  0.66688437  0.12931650  1
  S  S16  1  0.99666728  0.32979702  0.12931574  1
  S  S17  1  0.32979977  0.99664334  0.87068485  1
  S  S18  1  0.00335094  0.33311563  0.87068350  1
  S  S19  1  0.66687026  0.67020298  0.87068426  1
