# generated using pymatgen
data_Mg2MnB2Ir5
_symmetry_space_group_name_H-M   'P 1'
_cell_length_a   2.92964435
_cell_length_b   9.48093911
_cell_length_c   9.48093911
_cell_angle_alpha   90.00000000
_cell_angle_beta   90.00000000
_cell_angle_gamma   90.00000000
_symmetry_Int_Tables_number   1
_chemical_formula_structural   Mg2MnB2Ir5
_chemical_formula_sum   'Mg4 Mn2 B4 Ir10'
_cell_volume   263.34047603
_cell_formula_units_Z   2
loop_
 _symmetry_equiv_pos_site_id
 _symmetry_equiv_pos_as_xyz
  1  'x, y, z'
loop_
 _atom_site_type_symbol
 _atom_site_label
 _atom_site_symmetry_multiplicity
 _atom_site_fract_x
 _atom_site_fract_y
 _atom_site_fract_z
 _atom_site_occupancy
  Mg  Mg0  1  -0.00000000  0.32377285  0.82377285  1
  Mg  Mg1  1  0.00000000  0.67622715  0.17622715  1
  Mg  Mg2  1  0.00000000  0.17622715  0.32377285  1
  Mg  Mg3  1  -0.00000000  0.82377285  0.67622715  1
  Mn  Mn4  1  0.00000000  0.50000000  0.50000000  1
  Mn  Mn5  1  -0.00000000  -0.00000000  0.00000000  1
  B  B6  1  0.00000000  0.12539852  0.62539852  1
  B  B7  1  -0.00000000  0.87460148  0.37460148  1
  B  B8  1  -0.00000000  0.37460148  0.12539852  1
  B  B9  1  0.00000000  0.62539852  0.87460148  1
  Ir  Ir10  1  0.50000000  -0.00000000  0.50000000  1
  Ir  Ir11  1  0.50000000  0.50000000  0.00000000  1
  Ir  Ir12  1  0.50000000  0.57174128  0.71436092  1
  Ir  Ir13  1  0.50000000  0.42825872  0.28563908  1
  Ir  Ir14  1  0.50000000  0.92825872  0.21436092  1
  Ir  Ir15  1  0.50000000  0.07174128  0.78563908  1
  Ir  Ir16  1  0.50000000  0.71436092  0.42825872  1
  Ir  Ir17  1  0.50000000  0.28563908  0.57174128  1
  Ir  Ir18  1  0.50000000  0.21436092  0.07174128  1
  Ir  Ir19  1  0.50000000  0.78563908  0.92825872  1
