# generated using pymatgen
data_YbSiPd2
_symmetry_space_group_name_H-M   'P 1'
_cell_length_a   5.57159954
_cell_length_b   6.91883190
_cell_length_c   7.33918593
_cell_angle_alpha   90.00000000
_cell_angle_beta   90.00000000
_cell_angle_gamma   90.00000000
_symmetry_Int_Tables_number   1
_chemical_formula_structural   YbSiPd2
_chemical_formula_sum   'Yb4 Si4 Pd8'
_cell_volume   282.91798948
_cell_formula_units_Z   4
loop_
 _symmetry_equiv_pos_site_id
 _symmetry_equiv_pos_as_xyz
  1  'x, y, z'
loop_
 _atom_site_type_symbol
 _atom_site_label
 _atom_site_symmetry_multiplicity
 _atom_site_fract_x
 _atom_site_fract_y
 _atom_site_fract_z
 _atom_site_occupancy
  Yb  Yb0  1  0.13402932  0.75000000  0.47757104  1
  Yb  Yb1  1  0.36597068  0.75000000  0.97757104  1
  Yb  Yb2  1  0.86597068  0.25000000  0.52242896  1
  Yb  Yb3  1  0.63402932  0.25000000  0.02242896  1
  Si  Si4  1  0.86829136  0.75000000  0.12339204  1
  Si  Si5  1  0.63170864  0.75000000  0.62339204  1
  Si  Si6  1  0.13170864  0.25000000  0.87660796  1
  Si  Si7  1  0.36829136  0.25000000  0.37660796  1
  Pd  Pd8  1  0.60476641  0.94825361  0.32885877  1
  Pd  Pd9  1  0.89523359  0.55174639  0.82885877  1
  Pd  Pd10  1  0.39523359  0.44825361  0.67114123  1
  Pd  Pd11  1  0.10476641  0.05174639  0.17114123  1
  Pd  Pd12  1  0.39523359  0.05174639  0.67114123  1
  Pd  Pd13  1  0.10476641  0.44825361  0.17114123  1
  Pd  Pd14  1  0.60476641  0.55174639  0.32885877  1
  Pd  Pd15  1  0.89523359  0.94825361  0.82885877  1
