# generated using pymatgen
data_Zr5Sn3S
_symmetry_space_group_name_H-M   'P 1'
_cell_length_a   6.01827559
_cell_length_b   8.58725553
_cell_length_c   8.58754408
_cell_angle_alpha   119.99889094
_cell_angle_beta   90.00000000
_cell_angle_gamma   90.00000000
_symmetry_Int_Tables_number   1
_chemical_formula_structural   Zr5Sn3S
_chemical_formula_sum   'Zr10 Sn6 S2'
_cell_volume   384.35357222
_cell_formula_units_Z   2
loop_
 _symmetry_equiv_pos_site_id
 _symmetry_equiv_pos_as_xyz
  1  'x, y, z'
loop_
 _atom_site_type_symbol
 _atom_site_label
 _atom_site_symmetry_multiplicity
 _atom_site_fract_x
 _atom_site_fract_y
 _atom_site_fract_z
 _atom_site_occupancy
  Zr  Zr0  1  0.49999806  0.33333626  0.66667430  1
  Zr  Zr1  1  0.49999806  0.66666197  0.33332570  1
  Zr  Zr2  1  0.99999806  0.66666374  0.33332570  1
  Zr  Zr3  1  0.99999806  0.33333803  0.66667430  1
  Zr  Zr4  1  0.75000720  0.25199502  0.00000000  1
  Zr  Zr5  1  0.74999610  0.74798219  0.74797961  1
  Zr  Zr6  1  0.74999610  0.00000258  0.25202039  1
  Zr  Zr7  1  0.25000720  0.74800498  1.00000000  1
  Zr  Zr8  1  0.24999610  0.25201781  0.25202039  1
  Zr  Zr9  1  0.24999610  0.99999742  0.74797961  1
  Sn  Sn10  1  0.74998707  0.60101037  0.00000000  1
  Sn  Sn11  1  0.75000363  0.39898399  0.39898460  1
  Sn  Sn12  1  0.75000363  -0.00000060  0.60101540  1
  Sn  Sn13  1  0.24998707  0.39898963  1.00000000  1
  Sn  Sn14  1  0.25000363  0.60101601  0.60101540  1
  Sn  Sn15  1  0.25000363  0.00000060  0.39898460  1
  S  S16  1  0.50001015  0.00001422  1.00000000  1
  S  S17  1  0.00001015  0.99998578  0.00000000  1
