# generated using pymatgen
data_RbI(OF)2
_symmetry_space_group_name_H-M   'P 1'
_cell_length_a   6.28206632
_cell_length_b   8.75677821
_cell_length_c   8.85408807
_cell_angle_alpha   90.00000000
_cell_angle_beta   90.00000000
_cell_angle_gamma   90.00000000
_symmetry_Int_Tables_number   1
_chemical_formula_structural   RbI(OF)2
_chemical_formula_sum   'Rb4 I4 O8 F8'
_cell_volume   487.06924140
_cell_formula_units_Z   4
loop_
 _symmetry_equiv_pos_site_id
 _symmetry_equiv_pos_as_xyz
  1  'x, y, z'
loop_
 _atom_site_type_symbol
 _atom_site_label
 _atom_site_symmetry_multiplicity
 _atom_site_fract_x
 _atom_site_fract_y
 _atom_site_fract_z
 _atom_site_occupancy
  Rb  Rb0  1  0.52834240  0.28826794  0.31137156  1
  Rb  Rb1  1  0.47165760  0.71173206  0.81137156  1
  Rb  Rb2  1  0.52834240  0.21173206  0.81137156  1
  Rb  Rb3  1  0.47165760  0.78826794  0.31137156  1
  I  I4  1  0.94521897  0.00803018  0.53234896  1
  I  I5  1  0.05478103  0.99196982  0.03234896  1
  I  I6  1  0.94521897  0.49196982  0.03234896  1
  I  I7  1  0.05478103  0.50803018  0.53234896  1
  O  O8  1  0.85678967  0.20295183  0.55735668  1
  O  O9  1  0.14321033  0.79704817  0.05735668  1
  O  O10  1  0.85678967  0.29704817  0.05735668  1
  O  O11  1  0.14321033  0.70295183  0.55735668  1
  O  O12  1  0.86530616  0.97088759  0.34026007  1
  O  O13  1  0.13469384  0.02911241  0.84026007  1
  O  O14  1  0.86530616  0.52911241  0.84026007  1
  O  O15  1  0.13469384  0.47088759  0.34026007  1
  F  F16  1  0.24309362  0.07227077  0.46589629  1
  F  F17  1  0.75690638  0.92772923  0.96589629  1
  F  F18  1  0.24309362  0.42772923  0.96589629  1
  F  F19  1  0.75690638  0.57227077  0.46589629  1
  F  F20  1  0.65354983  0.93021481  0.60922643  1
  F  F21  1  0.34645017  0.06978519  0.10922643  1
  F  F22  1  0.65354983  0.56978519  0.10922643  1
  F  F23  1  0.34645017  0.43021481  0.60922643  1
