# generated using pymatgen
data_Ba2US6
_symmetry_space_group_name_H-M   'P 1'
_cell_length_a   5.46849761
_cell_length_b   5.46849761
_cell_length_c   16.06086003
_cell_angle_alpha   90.00000000
_cell_angle_beta   90.00000000
_cell_angle_gamma   90.00000000
_symmetry_Int_Tables_number   1
_chemical_formula_structural   Ba2US6
_chemical_formula_sum   'Ba4 U2 S12'
_cell_volume   480.29144447
_cell_formula_units_Z   2
loop_
 _symmetry_equiv_pos_site_id
 _symmetry_equiv_pos_as_xyz
  1  'x, y, z'
loop_
 _atom_site_type_symbol
 _atom_site_label
 _atom_site_symmetry_multiplicity
 _atom_site_fract_x
 _atom_site_fract_y
 _atom_site_fract_z
 _atom_site_occupancy
  Ba  Ba0  1  0.75000000  0.25000000  0.38560128  1
  Ba  Ba1  1  0.25000000  0.75000000  0.88560128  1
  Ba  Ba2  1  0.25000000  0.75000000  0.61439872  1
  Ba  Ba3  1  0.75000000  0.25000000  0.11439872  1
  U  U4  1  0.75000000  0.25000000  0.75000000  1
  U  U5  1  0.25000000  0.75000000  0.25000000  1
  S  S6  1  0.05919236  0.75000000  0.41382543  1
  S  S7  1  0.44080764  0.75000000  0.41382543  1
  S  S8  1  0.75000000  0.05919236  0.91382543  1
  S  S9  1  0.75000000  0.44080764  0.91382543  1
  S  S10  1  0.94080764  0.25000000  0.58617457  1
  S  S11  1  0.55919236  0.25000000  0.58617457  1
  S  S12  1  0.25000000  0.94080764  0.08617457  1
  S  S13  1  0.25000000  0.55919236  0.08617457  1
  S  S14  1  0.75000000  0.75000000  0.22989013  1
  S  S15  1  0.75000000  0.75000000  0.72989013  1
  S  S16  1  0.25000000  0.25000000  0.77010987  1
  S  S17  1  0.25000000  0.25000000  0.27010987  1
