# generated using pymatgen
data_TlCr3Se5
_symmetry_space_group_name_H-M   'P 1'
_cell_length_a   3.70914271
_cell_length_b   10.35330099
_cell_length_c   11.41747483
_cell_angle_alpha   71.40207351
_cell_angle_beta   80.65186989
_cell_angle_gamma   79.68099520
_symmetry_Int_Tables_number   1
_chemical_formula_structural   TlCr3Se5
_chemical_formula_sum   'Tl2 Cr6 Se10'
_cell_volume   406.21957805
_cell_formula_units_Z   2
loop_
 _symmetry_equiv_pos_site_id
 _symmetry_equiv_pos_as_xyz
  1  'x, y, z'
loop_
 _atom_site_type_symbol
 _atom_site_label
 _atom_site_symmetry_multiplicity
 _atom_site_fract_x
 _atom_site_fract_y
 _atom_site_fract_z
 _atom_site_occupancy
  Tl  Tl0  1  0.26070926  0.65053883  0.82804264  1
  Tl  Tl1  1  0.73929074  0.34946117  0.17195736  1
  Cr  Cr2  1  0.50000000  -0.00000000  -0.00000000  1
  Cr  Cr3  1  0.50000000  0.50000000  0.50000000  1
  Cr  Cr4  1  0.16441519  0.05934671  0.61182292  1
  Cr  Cr5  1  0.83558481  0.94065329  0.38817708  1
  Cr  Cr6  1  0.98508724  0.25770286  0.77212267  1
  Cr  Cr7  1  0.01491276  0.74229714  0.22787733  1
  Se  Se8  1  0.07860685  0.99342091  0.84936539  1
  Se  Se9  1  0.92139315  0.00657909  0.15063461  1
  Se  Se10  1  0.40870897  0.26384163  0.91874042  1
  Se  Se11  1  0.59129103  0.73615837  0.08125958  1
  Se  Se12  1  0.57657253  0.24039239  0.60646255  1
  Se  Se13  1  0.42342747  0.75960761  0.39353745  1
  Se  Se14  1  0.74568982  0.88875053  0.61986982  1
  Se  Se15  1  0.25431018  0.11124947  0.38013018  1
  Se  Se16  1  0.91859401  0.50900150  0.65381049  1
  Se  Se17  1  0.08140599  0.49099850  0.34618951  1
