# generated using pymatgen
data_Ba2Mg(GeIr)4
_symmetry_space_group_name_H-M   'P 1'
_cell_length_a   6.65588875
_cell_length_b   6.65588875
_cell_length_c   11.72693105
_cell_angle_alpha   90.00000000
_cell_angle_beta   90.00000000
_cell_angle_gamma   114.58816051
_symmetry_Int_Tables_number   1
_chemical_formula_structural   Ba2Mg(GeIr)4
_chemical_formula_sum   'Ba4 Mg2 Ge8 Ir8'
_cell_volume   472.40472227
_cell_formula_units_Z   2
loop_
 _symmetry_equiv_pos_site_id
 _symmetry_equiv_pos_as_xyz
  1  'x, y, z'
loop_
 _atom_site_type_symbol
 _atom_site_label
 _atom_site_symmetry_multiplicity
 _atom_site_fract_x
 _atom_site_fract_y
 _atom_site_fract_z
 _atom_site_occupancy
  Ba  Ba0  1  0.79520378  0.20479622  0.50000000  1
  Ba  Ba1  1  0.79520378  0.20479622  0.00000000  1
  Ba  Ba2  1  0.20479622  0.79520378  0.50000000  1
  Ba  Ba3  1  0.20479622  0.79520378  -0.00000000  1
  Mg  Mg4  1  0.01895294  0.01895294  0.25000000  1
  Mg  Mg5  1  0.98104706  0.98104706  0.75000000  1
  Ge  Ge6  1  0.89264163  0.52156957  0.25000000  1
  Ge  Ge7  1  0.47843043  0.10735837  0.75000000  1
  Ge  Ge8  1  0.10735837  0.47843043  0.75000000  1
  Ge  Ge9  1  0.52156957  0.89264163  0.25000000  1
  Ge  Ge10  1  0.33341014  0.33341014  0.42278141  1
  Ge  Ge11  1  0.66658986  0.66658986  0.57721859  1
  Ge  Ge12  1  0.33341014  0.33341014  0.07721859  1
  Ge  Ge13  1  0.66658986  0.66658986  0.92278141  1
  Ir  Ir14  1  0.24214530  0.49688525  0.25000000  1
  Ir  Ir15  1  0.50311475  0.75785470  0.75000000  1
  Ir  Ir16  1  0.75785470  0.50311475  0.75000000  1
  Ir  Ir17  1  0.49688525  0.24214530  0.25000000  1
  Ir  Ir18  1  0.67821452  0.67821452  0.37014275  1
  Ir  Ir19  1  0.32178548  0.32178548  0.62985725  1
  Ir  Ir20  1  0.67821452  0.67821452  0.12985725  1
  Ir  Ir21  1  0.32178548  0.32178548  0.87014275  1
