# generated using pymatgen
data_ZrB4Ir3
_symmetry_space_group_name_H-M   'P 1'
_cell_length_a   3.53695377
_cell_length_b   7.64376904
_cell_length_c   7.64375153
_cell_angle_alpha   120.01283033
_cell_angle_beta   90.00000000
_cell_angle_gamma   90.00000000
_symmetry_Int_Tables_number   1
_chemical_formula_structural   ZrB4Ir3
_chemical_formula_sum   'Zr2 B8 Ir6'
_cell_volume   178.94434132
_cell_formula_units_Z   2
loop_
 _symmetry_equiv_pos_site_id
 _symmetry_equiv_pos_as_xyz
  1  'x, y, z'
loop_
 _atom_site_type_symbol
 _atom_site_label
 _atom_site_symmetry_multiplicity
 _atom_site_fract_x
 _atom_site_fract_y
 _atom_site_fract_z
 _atom_site_occupancy
  Zr  Zr0  1  0.25000000  0.66666803  0.33327733  1
  Zr  Zr1  1  0.75000000  0.33333197  0.66672267  1
  B  B2  1  0.75000000  0.94854493  0.55222469  1
  B  B3  1  0.75000000  0.44780279  0.39640915  1
  B  B4  1  0.75000000  0.60367507  0.05144532  1
  B  B5  1  0.25000000  0.05145507  0.44777531  1
  B  B6  1  0.25000000  0.55219721  0.60359085  1
  B  B7  1  0.25000000  0.39632493  0.94855468  1
  B  B8  1  0.50000000  0.00000000  0.00000000  1
  B  B9  1  -0.00000000  0.00000000  0.00000000  1
  Ir  Ir10  1  0.75000000  0.74269343  0.66996827  1
  Ir  Ir11  1  0.75000000  0.33008017  0.07276177  1
  Ir  Ir12  1  0.75000000  0.92725097  0.25733762  1
  Ir  Ir13  1  0.25000000  0.25730657  0.33003173  1
  Ir  Ir14  1  0.25000000  0.66991983  0.92723823  1
  Ir  Ir15  1  0.25000000  0.07274903  0.74266238  1
