# generated using pymatgen
data_Gd2AlGe6
_symmetry_space_group_name_H-M   'P 1'
_cell_length_a   6.02316041
_cell_length_b   6.02316041
_cell_length_c   10.57716850
_cell_angle_alpha   98.06475858
_cell_angle_beta   98.06475858
_cell_angle_gamma   91.76155154
_symmetry_Int_Tables_number   1
_chemical_formula_structural   Gd2AlGe6
_chemical_formula_sum   'Gd4 Al2 Ge12'
_cell_volume   375.67307801
_cell_formula_units_Z   2
loop_
 _symmetry_equiv_pos_site_id
 _symmetry_equiv_pos_as_xyz
  1  'x, y, z'
loop_
 _atom_site_type_symbol
 _atom_site_label
 _atom_site_symmetry_multiplicity
 _atom_site_fract_x
 _atom_site_fract_y
 _atom_site_fract_z
 _atom_site_occupancy
  Gd  Gd0  1  0.83802179  0.33419675  0.33849508  1
  Gd  Gd1  1  0.33419675  0.83802179  0.33849508  1
  Gd  Gd2  1  0.16197821  0.66580325  0.66150492  1
  Gd  Gd3  1  0.66580325  0.16197821  0.66150492  1
  Al  Al4  1  0.80000828  0.80000828  0.19743378  1
  Al  Al5  1  0.19999172  0.19999172  0.80256622  1
  Ge  Ge6  1  0.14712805  0.14712805  0.56070141  1
  Ge  Ge7  1  0.85287195  0.85287195  0.43929859  1
  Ge  Ge8  1  0.36134963  0.36134963  0.41493352  1
  Ge  Ge9  1  0.63865037  0.63865037  0.58506648  1
  Ge  Ge10  1  0.06554729  0.49447808  0.11742573  1
  Ge  Ge11  1  0.49447808  0.06554729  0.11742573  1
  Ge  Ge12  1  0.93445271  0.50552192  0.88257427  1
  Ge  Ge13  1  0.50552192  0.93445271  0.88257427  1
  Ge  Ge14  1  0.06923176  0.06923176  0.11744342  1
  Ge  Ge15  1  0.93076824  0.93076824  0.88255658  1
  Ge  Ge16  1  0.49062843  0.49062843  0.11768538  1
  Ge  Ge17  1  0.50937157  0.50937157  0.88231462  1
