# generated using pymatgen
data_LuZn3
_symmetry_space_group_name_H-M   'P 1'
_cell_length_a   4.33776142
_cell_length_b   6.60682979
_cell_length_c   9.96908879
_cell_angle_alpha   90.00000000
_cell_angle_beta   90.00000000
_cell_angle_gamma   90.00000000
_symmetry_Int_Tables_number   1
_chemical_formula_structural   LuZn3
_chemical_formula_sum   'Lu4 Zn12'
_cell_volume   285.70263394
_cell_formula_units_Z   4
loop_
 _symmetry_equiv_pos_site_id
 _symmetry_equiv_pos_as_xyz
  1  'x, y, z'
loop_
 _atom_site_type_symbol
 _atom_site_label
 _atom_site_symmetry_multiplicity
 _atom_site_fract_x
 _atom_site_fract_y
 _atom_site_fract_z
 _atom_site_occupancy
  Lu  Lu0  1  0.75000000  0.22027040  0.83577104  1
  Lu  Lu1  1  0.75000000  0.72027040  0.66422896  1
  Lu  Lu2  1  0.25000000  0.77972960  0.16422896  1
  Lu  Lu3  1  0.25000000  0.27972960  0.33577104  1
  Zn  Zn4  1  0.75000000  0.96377848  0.39682609  1
  Zn  Zn5  1  0.75000000  0.46377848  0.10317391  1
  Zn  Zn6  1  0.25000000  0.03622152  0.60317391  1
  Zn  Zn7  1  0.25000000  0.53622152  0.89682609  1
  Zn  Zn8  1  0.75000000  0.58071665  0.35132544  1
  Zn  Zn9  1  0.75000000  0.08071665  0.14867456  1
  Zn  Zn10  1  0.25000000  0.41928335  0.64867456  1
  Zn  Zn11  1  0.25000000  0.91928335  0.85132544  1
  Zn  Zn12  1  0.75000000  0.28326439  0.54292916  1
  Zn  Zn13  1  0.75000000  0.78326439  0.95707084  1
  Zn  Zn14  1  0.25000000  0.71673561  0.45707084  1
  Zn  Zn15  1  0.25000000  0.21673561  0.04292916  1
