# generated using pymatgen
data_CaMg14AlO16
_symmetry_space_group_name_H-M   'P 1'
_cell_length_a   8.65648786
_cell_length_b   8.60954330
_cell_length_c   4.34565060
_cell_angle_alpha   90.00000000
_cell_angle_beta   90.00000000
_cell_angle_gamma   90.00000000
_symmetry_Int_Tables_number   1
_chemical_formula_structural   CaMg14AlO16
_chemical_formula_sum   'Ca1 Mg14 Al1 O16'
_cell_volume   323.87441684
_cell_formula_units_Z   1
loop_
 _symmetry_equiv_pos_site_id
 _symmetry_equiv_pos_as_xyz
  1  'x, y, z'
loop_
 _atom_site_type_symbol
 _atom_site_label
 _atom_site_symmetry_multiplicity
 _atom_site_fract_x
 _atom_site_fract_y
 _atom_site_fract_z
 _atom_site_occupancy
  Ca  Ca0  1  -0.00000000  0.50000000  0.00000000  1
  Mg  Mg1  1  0.50000000  -0.00000000  0.00000000  1
  Mg  Mg2  1  0.50000000  0.50000000  0.00000000  1
  Mg  Mg3  1  -0.00000000  0.24492416  0.50000000  1
  Mg  Mg4  1  -0.00000000  0.75507584  0.50000000  1
  Mg  Mg5  1  0.50000000  0.24977981  0.50000000  1
  Mg  Mg6  1  0.50000000  0.75022019  0.50000000  1
  Mg  Mg7  1  0.25104493  -0.00000000  0.50000000  1
  Mg  Mg8  1  0.25705426  0.50000000  0.50000000  1
  Mg  Mg9  1  0.74895507  -0.00000000  0.50000000  1
  Mg  Mg10  1  0.74294574  0.50000000  0.50000000  1
  Mg  Mg11  1  0.25561356  0.24807762  -0.00000000  1
  Mg  Mg12  1  0.25561356  0.75192238  0.00000000  1
  Mg  Mg13  1  0.74438644  0.24807762  -0.00000000  1
  Mg  Mg14  1  0.74438644  0.75192238  0.00000000  1
  Al  Al15  1  -0.00000000  -0.00000000  0.00000000  1
  O  O16  1  0.23382803  -0.00000000  0.00000000  1
  O  O17  1  0.26236106  0.50000000  0.00000000  1
  O  O18  1  0.76617197  -0.00000000  0.00000000  1
  O  O19  1  0.73763894  0.50000000  0.00000000  1
  O  O20  1  0.24935976  0.24986438  0.50000000  1
  O  O21  1  0.24935976  0.75013562  0.50000000  1
  O  O22  1  0.75064024  0.24986438  0.50000000  1
  O  O23  1  0.75064024  0.75013562  0.50000000  1
  O  O24  1  -0.00000000  -0.00000000  0.50000000  1
  O  O25  1  -0.00000000  0.50000000  0.50000000  1
  O  O26  1  0.50000000  -0.00000000  0.50000000  1
  O  O27  1  0.50000000  0.50000000  0.50000000  1
  O  O28  1  -0.00000000  0.22315098  0.00000000  1
  O  O29  1  -0.00000000  0.77684902  0.00000000  1
  O  O30  1  0.50000000  0.24500490  -0.00000000  1
  O  O31  1  0.50000000  0.75499510  0.00000000  1
