# generated using pymatgen
data_LaTl2P2S7
_symmetry_space_group_name_H-M   'P 1'
_cell_length_a   6.75467847
_cell_length_b   9.42625234
_cell_length_c   11.01019213
_cell_angle_alpha   107.54561611
_cell_angle_beta   107.86327302
_cell_angle_gamma   90.00000000
_symmetry_Int_Tables_number   1
_chemical_formula_structural   LaTl2P2S7
_chemical_formula_sum   'La2 Tl4 P4 S14'
_cell_volume   632.88413413
_cell_formula_units_Z   2
loop_
 _symmetry_equiv_pos_site_id
 _symmetry_equiv_pos_as_xyz
  1  'x, y, z'
loop_
 _atom_site_type_symbol
 _atom_site_label
 _atom_site_symmetry_multiplicity
 _atom_site_fract_x
 _atom_site_fract_y
 _atom_site_fract_z
 _atom_site_occupancy
  La  La0  1  0.65260313  0.83835470  0.30520627  1
  La  La1  1  0.34739687  0.16164530  0.69479373  1
  Tl  Tl2  1  0.98997144  0.74676159  0.97994287  1
  Tl  Tl3  1  0.01002856  0.25323841  0.02005713  1
  Tl  Tl4  1  0.68673849  0.32673679  0.37347698  1
  Tl  Tl5  1  0.31326151  0.67326321  0.62652302  1
  P  P6  1  0.54605236  0.46609682  0.09210472  1
  P  P7  1  0.45394764  0.53390318  0.90789528  1
  P  P8  1  0.83516528  0.93132586  0.67033057  1
  P  P9  1  0.16483472  0.06867414  0.32966943  1
  S  S10  1  0.48922718  0.75977120  0.97845436  1
  S  S11  1  0.51077282  0.24022880  0.02154564  1
  S  S12  1  0.76631410  0.72122770  0.53262821  1
  S  S13  1  0.23368590  0.27877230  0.46737179  1
  S  S14  1  0.15498421  0.43964664  0.80172615  1
  S  S15  1  0.64674195  0.43964664  0.80172615  1
  S  S16  1  0.84501579  0.56035336  0.19827385  1
  S  S17  1  0.35325805  0.56035336  0.19827385  1
  S  S18  1  0.13961791  0.95884093  0.79269488  1
  S  S19  1  0.65307697  0.95884093  0.79269488  1
  S  S20  1  0.86038209  0.04115907  0.20730512  1
  S  S21  1  0.34692303  0.04115907  0.20730512  1
  S  S22  1  0.21349000  0.90894585  0.42697999  1
  S  S23  1  0.78651000  0.09105415  0.57302001  1
