# generated using pymatgen
data_PrSi2Ni9
_symmetry_space_group_name_H-M   'P 1'
_cell_length_a   6.20991736
_cell_length_b   7.61662576
_cell_length_c   7.61662576
_cell_angle_alpha   80.43403974
_cell_angle_beta   65.94236395
_cell_angle_gamma   65.94236395
_symmetry_Int_Tables_number   1
_chemical_formula_structural   PrSi2Ni9
_chemical_formula_sum   'Pr2 Si4 Ni18'
_cell_volume   300.38748556
_cell_formula_units_Z   2
loop_
 _symmetry_equiv_pos_site_id
 _symmetry_equiv_pos_as_xyz
  1  'x, y, z'
loop_
 _atom_site_type_symbol
 _atom_site_label
 _atom_site_symmetry_multiplicity
 _atom_site_fract_x
 _atom_site_fract_y
 _atom_site_fract_z
 _atom_site_occupancy
  Pr  Pr0  1  0.37500000  0.25000000  0.75000000  1
  Pr  Pr1  1  0.62500000  0.75000000  0.25000000  1
  Si  Si2  1  0.50000000  0.50000000  -0.00000000  1
  Si  Si3  1  -0.00000000  0.50000000  0.50000000  1
  Si  Si4  1  -0.00000000  0.00000000  -0.00000000  1
  Si  Si5  1  -0.00000000  0.00000000  0.50000000  1
  Ni  Ni6  1  0.12500000  0.75000000  0.25000000  1
  Ni  Ni7  1  0.87500000  0.25000000  0.75000000  1
  Ni  Ni8  1  0.56394877  0.57852291  0.67092537  1
  Ni  Ni9  1  0.56394877  0.17092537  0.07852291  1
  Ni  Ni10  1  0.14247169  0.42147709  0.17092537  1
  Ni  Ni11  1  0.14247169  0.67092537  0.92147709  1
  Ni  Ni12  1  0.81339705  0.32907463  0.42147709  1
  Ni  Ni13  1  0.81339705  0.92147709  0.82907463  1
  Ni  Ni14  1  0.73487414  0.82907463  0.57852291  1
  Ni  Ni15  1  0.73487414  0.07852291  0.32907463  1
  Ni  Ni16  1  0.43605123  0.42147709  0.32907463  1
  Ni  Ni17  1  0.43605123  0.82907463  0.92147709  1
  Ni  Ni18  1  0.85752831  0.57852291  0.82907463  1
  Ni  Ni19  1  0.85752831  0.32907463  0.07852291  1
  Ni  Ni20  1  0.18660295  0.67092537  0.57852291  1
  Ni  Ni21  1  0.18660295  0.07852291  0.17092537  1
  Ni  Ni22  1  0.26512586  0.17092537  0.42147709  1
  Ni  Ni23  1  0.26512586  0.92147709  0.67092537  1
