# generated using pymatgen
data_Sm2CuTe2(SO7)2
_symmetry_space_group_name_H-M   'P 1'
_cell_length_a   5.25421263
_cell_length_b   8.07922700
_cell_length_c   8.34260692
_cell_angle_alpha   62.04857579
_cell_angle_beta   74.25689428
_cell_angle_gamma   85.50153123
_symmetry_Int_Tables_number   1
_chemical_formula_structural   Sm2CuTe2(SO7)2
_chemical_formula_sum   'Sm2 Cu1 Te2 S2 O14'
_cell_volume   300.60077765
_cell_formula_units_Z   1
loop_
 _symmetry_equiv_pos_site_id
 _symmetry_equiv_pos_as_xyz
  1  'x, y, z'
loop_
 _atom_site_type_symbol
 _atom_site_label
 _atom_site_symmetry_multiplicity
 _atom_site_fract_x
 _atom_site_fract_y
 _atom_site_fract_z
 _atom_site_occupancy
  Sm  Sm0  1  0.92579720  0.74976447  0.98277211  1
  Sm  Sm1  1  0.07420280  0.25023553  0.01722789  1
  Cu  Cu2  1  0.00000000  -0.00000000  0.50000000  1
  Te  Te3  1  0.48825348  0.73187035  0.65152972  1
  Te  Te4  1  0.51174652  0.26812965  0.34847028  1
  S  S5  1  0.24966134  0.74658161  0.25402314  1
  S  S6  1  0.75033866  0.25341839  0.74597686  1
  O  O7  1  0.13995141  0.58708670  0.24491936  1
  O  O8  1  0.86004859  0.41291330  0.75508064  1
  O  O9  1  0.13550432  0.74821980  0.43395647  1
  O  O10  1  0.86449568  0.25178020  0.56604353  1
  O  O11  1  0.54228710  0.73820646  0.21899876  1
  O  O12  1  0.45771290  0.26179354  0.78100124  1
  O  O13  1  0.17627699  0.91881422  0.09553084  1
  O  O14  1  0.82372301  0.08118578  0.90446916  1
  O  O15  1  0.25636566  0.56359095  0.88660402  1
  O  O16  1  0.74363434  0.43640905  0.11339598  1
  O  O17  1  0.72949822  0.81436879  0.73856809  1
  O  O18  1  0.27050178  0.18563121  0.26143191  1
  O  O19  1  0.24991821  0.92726921  0.65427871  1
  O  O20  1  0.75008179  0.07273079  0.34572129  1
