# generated using pymatgen
data_Dy2ZnTe2(SO7)2
_symmetry_space_group_name_H-M   'P 1'
_cell_length_a   5.28855213
_cell_length_b   7.92075226
_cell_length_c   8.18623338
_cell_angle_alpha   63.89937708
_cell_angle_beta   73.44815878
_cell_angle_gamma   85.36764544
_symmetry_Int_Tables_number   1
_chemical_formula_structural   Dy2ZnTe2(SO7)2
_chemical_formula_sum   'Dy2 Zn1 Te2 S2 O14'
_cell_volume   294.78956256
_cell_formula_units_Z   1
loop_
 _symmetry_equiv_pos_site_id
 _symmetry_equiv_pos_as_xyz
  1  'x, y, z'
loop_
 _atom_site_type_symbol
 _atom_site_label
 _atom_site_symmetry_multiplicity
 _atom_site_fract_x
 _atom_site_fract_y
 _atom_site_fract_z
 _atom_site_occupancy
  Dy  Dy0  1  0.91863944  0.74675701  0.98460020  1
  Dy  Dy1  1  0.08136056  0.25324299  0.01539980  1
  Zn  Zn2  1  0.00000000  -0.00000000  0.50000000  1
  Te  Te3  1  0.48415697  0.72709412  0.66269907  1
  Te  Te4  1  0.51584303  0.27290588  0.33730093  1
  S  S5  1  0.23914893  0.75384726  0.24974761  1
  S  S6  1  0.76085107  0.24615274  0.75025239  1
  O  O7  1  0.11025540  0.59201551  0.25236234  1
  O  O8  1  0.88974460  0.40798449  0.74763766  1
  O  O9  1  0.13073790  0.76954034  0.42993380  1
  O  O10  1  0.86926210  0.23045966  0.57006620  1
  O  O11  1  0.52845866  0.73192130  0.21730191  1
  O  O12  1  0.47154134  0.26807870  0.78269809  1
  O  O13  1  0.17789164  0.92372864  0.08781162  1
  O  O14  1  0.82210836  0.07627136  0.91218838  1
  O  O15  1  0.24819617  0.56036939  0.89554595  1
  O  O16  1  0.75180383  0.43963061  0.10445405  1
  O  O17  1  0.72494680  0.80507218  0.75238412  1
  O  O18  1  0.27505320  0.19492782  0.24761588  1
  O  O19  1  0.24893058  0.92330131  0.66796149  1
  O  O20  1  0.75106942  0.07669869  0.33203851  1
