# generated using pymatgen
data_BaAgSbS3
_symmetry_space_group_name_H-M   'P 1'
_cell_length_a   6.26974848
_cell_length_b   6.26974848
_cell_length_c   17.41760709
_cell_angle_alpha   81.33067516
_cell_angle_beta   81.33067516
_cell_angle_gamma   81.75745902
_symmetry_Int_Tables_number   1
_chemical_formula_structural   BaAgSbS3
_chemical_formula_sum   'Ba4 Ag4 Sb4 S12'
_cell_volume   664.00757894
_cell_formula_units_Z   4
loop_
 _symmetry_equiv_pos_site_id
 _symmetry_equiv_pos_as_xyz
  1  'x, y, z'
loop_
 _atom_site_type_symbol
 _atom_site_label
 _atom_site_symmetry_multiplicity
 _atom_site_fract_x
 _atom_site_fract_y
 _atom_site_fract_z
 _atom_site_occupancy
  Ba  Ba0  1  0.54858258  0.79713256  0.38943527  1
  Ba  Ba1  1  0.20286744  0.45141742  0.11056473  1
  Ba  Ba2  1  0.45141742  0.20286744  0.61056473  1
  Ba  Ba3  1  0.79713256  0.54858258  0.88943527  1
  Ag  Ag4  1  0.07510733  0.92489267  0.25000000  1
  Ag  Ag5  1  0.92489267  0.07510733  0.75000000  1
  Ag  Ag6  1  0.69513920  0.30486080  0.25000000  1
  Ag  Ag7  1  0.30486080  0.69513920  0.75000000  1
  Sb  Sb8  1  0.02543715  0.31299904  0.41966891  1
  Sb  Sb9  1  0.68700096  0.97456285  0.08033109  1
  Sb  Sb10  1  0.97456285  0.68700096  0.58033109  1
  Sb  Sb11  1  0.31299904  0.02543715  0.91966891  1
  S  S12  1  0.96416290  0.50529158  0.28583961  1
  S  S13  1  0.49470842  0.03583710  0.21416039  1
  S  S14  1  0.03583710  0.49470842  0.71416039  1
  S  S15  1  0.50529158  0.96416290  0.78583961  1
  S  S16  1  0.41832893  0.30480775  0.41834724  1
  S  S17  1  0.69519225  0.58167107  0.08165276  1
  S  S18  1  0.58167107  0.69519225  0.58165276  1
  S  S19  1  0.30480775  0.41832893  0.91834724  1
  S  S20  1  0.02447241  0.93666776  0.39457604  1
  S  S21  1  0.06333224  0.97552759  0.10542396  1
  S  S22  1  0.97552759  0.06333224  0.60542396  1
  S  S23  1  0.93666776  0.02447241  0.89457604  1
