# generated using pymatgen
data_Sm2Ni12P7
_symmetry_space_group_name_H-M   'P 1'
_cell_length_a   3.71414556
_cell_length_b   9.06679560
_cell_length_c   9.06607029
_cell_angle_alpha   120.01758158
_cell_angle_beta   90.00000000
_cell_angle_gamma   90.00000000
_symmetry_Int_Tables_number   1
_chemical_formula_structural   Sm2Ni12P7
_chemical_formula_sum   'Sm2 Ni12 P7'
_cell_volume   264.35375924
_cell_formula_units_Z   1
loop_
 _symmetry_equiv_pos_site_id
 _symmetry_equiv_pos_as_xyz
  1  'x, y, z'
loop_
 _atom_site_type_symbol
 _atom_site_label
 _atom_site_symmetry_multiplicity
 _atom_site_fract_x
 _atom_site_fract_y
 _atom_site_fract_z
 _atom_site_occupancy
  Sm  Sm0  1  -0.00000000  0.66666570  0.33345917  1
  Sm  Sm1  1  0.50000000  0.33315721  0.66648366  1
  Ni  Ni2  1  -0.00000000  0.37395673  0.94133267  1
  Ni  Ni3  1  -0.00000000  0.05860333  0.43253239  1
  Ni  Ni4  1  0.00000000  0.56746357  0.62607799  1
  Ni  Ni5  1  0.00000000  0.87849431  0.72709678  1
  Ni  Ni6  1  -0.00000000  0.27291961  0.15135608  1
  Ni  Ni7  1  -0.00000000  0.84856345  0.12162496  1
  Ni  Ni8  1  0.50000000  0.95252366  0.57062917  1
  Ni  Ni9  1  0.50000000  0.42937374  0.38189677  1
  Ni  Ni10  1  0.50000000  0.61806054  0.04748218  1
  Ni  Ni11  1  0.50000000  0.12307724  0.90605362  1
  Ni  Ni12  1  0.50000000  0.09415936  0.21712026  1
  Ni  Ni13  1  0.50000000  0.78294009  0.87688115  1
  P  P14  1  -0.00000000  0.10998873  0.70579423  1
  P  P15  1  -0.00000000  0.29415059  0.40415178  1
  P  P16  1  -0.00000000  0.59588284  0.89004647  1
  P  P17  1  0.50000000  0.70629284  0.59809164  1
  P  P18  1  0.50000000  0.40188388  0.10812758  1
  P  P19  1  0.50000000  0.89188017  0.29374383  1
  P  P20  1  0.00000000  0.99996241  0.00001764  1
