# generated using pymatgen
data_Y2Fe17C3
_symmetry_space_group_name_H-M   'P 1'
_cell_length_a   6.49531231
_cell_length_b   6.49531231
_cell_length_c   6.49531196
_cell_angle_alpha   83.43188600
_cell_angle_beta   83.43188600
_cell_angle_gamma   83.43189263
_symmetry_Int_Tables_number   1
_chemical_formula_structural   Y2Fe17C3
_chemical_formula_sum   'Y2 Fe17 C3'
_cell_volume   269.01745175
_cell_formula_units_Z   1
loop_
 _symmetry_equiv_pos_site_id
 _symmetry_equiv_pos_as_xyz
  1  'x, y, z'
loop_
 _atom_site_type_symbol
 _atom_site_label
 _atom_site_symmetry_multiplicity
 _atom_site_fract_x
 _atom_site_fract_y
 _atom_site_fract_z
 _atom_site_occupancy
  Y  Y0  1  0.65794487  0.65794487  0.65794487  1
  Y  Y1  1  0.34205513  0.34205513  0.34205513  1
  Fe  Fe2  1  0.00000000  0.00000000  0.50000000  1
  Fe  Fe3  1  0.00000000  0.50000000  -0.00000000  1
  Fe  Fe4  1  0.50000000  0.00000000  -0.00000000  1
  Fe  Fe5  1  0.28408778  0.71591222  -0.00000000  1
  Fe  Fe6  1  0.71591222  0.00000000  0.28408778  1
  Fe  Fe7  1  1.00000000  0.28408778  0.71591222  1
  Fe  Fe8  1  0.28408778  1.00000000  0.71591222  1
  Fe  Fe9  1  0.00000000  0.71591222  0.28408778  1
  Fe  Fe10  1  0.71591222  0.28408778  0.00000000  1
  Fe  Fe11  1  0.34317364  0.34317364  0.85403274  1
  Fe  Fe12  1  0.34317364  0.85403274  0.34317364  1
  Fe  Fe13  1  0.85403274  0.34317364  0.34317364  1
  Fe  Fe14  1  0.65682636  0.65682636  0.14596726  1
  Fe  Fe15  1  0.65682636  0.14596726  0.65682636  1
  Fe  Fe16  1  0.14596726  0.65682636  0.65682636  1
  Fe  Fe17  1  0.90482651  0.90482651  0.90482651  1
  Fe  Fe18  1  0.09517349  0.09517349  0.09517349  1
  C  C19  1  0.50000000  0.50000000  -0.00000000  1
  C  C20  1  0.50000000  0.00000000  0.50000000  1
  C  C21  1  0.00000000  0.50000000  0.50000000  1
