# generated using pymatgen
data_Bi7O5F11
_symmetry_space_group_name_H-M   'P 1'
_cell_length_a   5.66869784
_cell_length_b   7.35815507
_cell_length_c   9.28453770
_cell_angle_alpha   95.58075297
_cell_angle_beta   90.00000000
_cell_angle_gamma   112.65604837
_symmetry_Int_Tables_number   1
_chemical_formula_structural   Bi7O5F11
_chemical_formula_sum   'Bi7 O5 F11'
_cell_volume   355.39484913
_cell_formula_units_Z   1
loop_
 _symmetry_equiv_pos_site_id
 _symmetry_equiv_pos_as_xyz
  1  'x, y, z'
loop_
 _atom_site_type_symbol
 _atom_site_label
 _atom_site_symmetry_multiplicity
 _atom_site_fract_x
 _atom_site_fract_y
 _atom_site_fract_z
 _atom_site_occupancy
  Bi  Bi0  1  0.56694370  0.13687238  0.21293856  1
  Bi  Bi1  1  0.43007132  0.86312762  0.78706144  1
  Bi  Bi2  1  0.31392083  0.61217121  0.36089087  1
  Bi  Bi3  1  0.70174962  0.38782879  0.63910913  1
  Bi  Bi4  1  0.10743638  0.00000000  0.50000000  1
  Bi  Bi5  1  0.96087424  0.74787768  0.07773606  1
  Bi  Bi6  1  0.21299656  0.25212232  0.92226394  1
  O  O7  1  0.30302298  1.00000000  1.00000000  1
  O  O8  1  0.22435551  0.88320056  0.27575393  1
  O  O9  1  0.34115495  0.11679944  0.72424607  1
  O  O10  1  0.48066846  0.21580877  0.44828032  1
  O  O11  1  0.26485969  0.78419123  0.55171968  1
  F  F12  1  0.80713764  0.00000000  0.00000000  1
  F  F13  1  0.70930920  0.87903382  0.28045318  1
  F  F14  1  0.83027538  0.12096618  0.71954682  1
  F  F15  1  0.67986994  0.64433703  0.51834441  1
  F  F16  1  0.03553291  0.35566297  0.48165559  1
  F  F17  1  0.63670732  0.38751630  0.96581240  1
  F  F18  1  0.24919102  0.61248370  0.03418760  1
  F  F19  1  0.28551642  0.28974903  0.18982756  1
  F  F20  1  0.99576739  0.71025097  0.81017244  1
  F  F21  1  0.89727053  0.50710252  0.25362840  1
  F  F22  1  0.39016801  0.49289748  0.74637160  1
