# generated using pymatgen
data_Er3FeB7
_symmetry_space_group_name_H-M   'P 1'
_cell_length_a   3.39805622
_cell_length_b   7.96467196
_cell_length_c   9.24431078
_cell_angle_alpha   90.00000000
_cell_angle_beta   90.00000000
_cell_angle_gamma   102.31701561
_symmetry_Int_Tables_number   1
_chemical_formula_structural   Er3FeB7
_chemical_formula_sum   'Er6 Fe2 B14'
_cell_volume   244.43290607
_cell_formula_units_Z   2
loop_
 _symmetry_equiv_pos_site_id
 _symmetry_equiv_pos_as_xyz
  1  'x, y, z'
loop_
 _atom_site_type_symbol
 _atom_site_label
 _atom_site_symmetry_multiplicity
 _atom_site_fract_x
 _atom_site_fract_y
 _atom_site_fract_z
 _atom_site_occupancy
  Er  Er0  1  0.10494661  0.20989322  0.44020750  1
  Er  Er1  1  0.89505339  0.79010678  0.55979250  1
  Er  Er2  1  0.10494661  0.20989322  0.05979250  1
  Er  Er3  1  0.89505339  0.79010678  0.94020750  1
  Er  Er4  1  0.75644581  0.51289163  0.25000000  1
  Er  Er5  1  0.24355419  0.48710837  0.75000000  1
  Fe  Fe6  1  0.94625351  0.89250702  0.25000000  1
  Fe  Fe7  1  0.05374649  0.10749298  0.75000000  1
  B  B8  1  0.27252962  0.54505924  0.46678336  1
  B  B9  1  0.72747038  0.45494076  0.53321664  1
  B  B10  1  0.27252962  0.54505924  0.03321664  1
  B  B11  1  0.72747038  0.45494076  0.96678336  1
  B  B12  1  0.36993818  0.73987636  0.15301642  1
  B  B13  1  0.63006182  0.26012364  0.84698358  1
  B  B14  1  0.36993818  0.73987636  0.34698358  1
  B  B15  1  0.63006182  0.26012364  0.65301642  1
  B  B16  1  0.47891240  0.95782479  0.09839017  1
  B  B17  1  0.52108760  0.04217521  0.90160983  1
  B  B18  1  0.47891240  0.95782479  0.40160983  1
  B  B19  1  0.52108760  0.04217521  0.59839017  1
  B  B20  1  0.54186915  0.08373831  0.25000000  1
  B  B21  1  0.45813085  0.91626169  0.75000000  1
