# generated using pymatgen
data_ErMnB4
_symmetry_space_group_name_H-M   'P 1'
_cell_length_a   3.37930443
_cell_length_b   5.87981416
_cell_length_c   11.36913896
_cell_angle_alpha   90.00000000
_cell_angle_beta   90.00000000
_cell_angle_gamma   90.00000000
_symmetry_Int_Tables_number   1
_chemical_formula_structural   ErMnB4
_chemical_formula_sum   'Er4 Mn4 B16'
_cell_volume   225.90117619
_cell_formula_units_Z   4
loop_
 _symmetry_equiv_pos_site_id
 _symmetry_equiv_pos_as_xyz
  1  'x, y, z'
loop_
 _atom_site_type_symbol
 _atom_site_label
 _atom_site_symmetry_multiplicity
 _atom_site_fract_x
 _atom_site_fract_y
 _atom_site_fract_z
 _atom_site_occupancy
  Er  Er0  1  0.00000000  0.62629638  0.34958018  1
  Er  Er1  1  -0.00000000  0.37370362  0.65041982  1
  Er  Er2  1  -0.00000000  0.12629638  0.15041982  1
  Er  Er3  1  -0.00000000  0.87370362  0.84958018  1
  Mn  Mn4  1  0.00000000  0.62846773  0.08415157  1
  Mn  Mn5  1  -0.00000000  0.37153227  0.91584843  1
  Mn  Mn6  1  0.00000000  0.12846773  0.41584843  1
  Mn  Mn7  1  -0.00000000  0.87153227  0.58415157  1
  B  B8  1  0.50000000  0.78249207  0.18430893  1
  B  B9  1  0.50000000  0.21750793  0.81569107  1
  B  B10  1  0.50000000  0.28249207  0.31569107  1
  B  B11  1  0.50000000  0.71750793  0.68430893  1
  B  B12  1  0.50000000  0.86295868  0.03230026  1
  B  B13  1  0.50000000  0.13704132  0.96769974  1
  B  B14  1  0.50000000  0.36295868  0.46769974  1
  B  B15  1  0.50000000  0.63704132  0.53230026  1
  B  B16  1  0.50000000  0.88738533  0.45362015  1
  B  B17  1  0.50000000  0.11261467  0.54637985  1
  B  B18  1  0.50000000  0.38738533  0.04637985  1
  B  B19  1  0.50000000  0.61261467  0.95362015  1
  B  B20  1  0.50000000  0.97571524  0.30879859  1
  B  B21  1  0.50000000  0.02428476  0.69120141  1
  B  B22  1  0.50000000  0.47571524  0.19120141  1
  B  B23  1  0.50000000  0.52428476  0.80879859  1
