# generated using pymatgen
data_YB4Ru
_symmetry_space_group_name_H-M   'P 1'
_cell_length_a   3.56310257
_cell_length_b   5.96849864
_cell_length_c   11.54497505
_cell_angle_alpha   90.00000000
_cell_angle_beta   90.00000000
_cell_angle_gamma   90.00000000
_symmetry_Int_Tables_number   1
_chemical_formula_structural   YB4Ru
_chemical_formula_sum   'Y4 B16 Ru4'
_cell_volume   245.51974388
_cell_formula_units_Z   4
loop_
 _symmetry_equiv_pos_site_id
 _symmetry_equiv_pos_as_xyz
  1  'x, y, z'
loop_
 _atom_site_type_symbol
 _atom_site_label
 _atom_site_symmetry_multiplicity
 _atom_site_fract_x
 _atom_site_fract_y
 _atom_site_fract_z
 _atom_site_occupancy
  Y  Y0  1  0.00000000  0.62965615  0.35019620  1
  Y  Y1  1  0.00000000  0.37034385  0.64980380  1
  Y  Y2  1  -0.00000000  0.12965615  0.14980380  1
  Y  Y3  1  -0.00000000  0.87034385  0.85019620  1
  B  B4  1  0.50000000  0.79001704  0.18546899  1
  B  B5  1  0.50000000  0.20998296  0.81453101  1
  B  B6  1  0.50000000  0.29001704  0.31453101  1
  B  B7  1  0.50000000  0.70998296  0.68546899  1
  B  B8  1  0.50000000  0.86398101  0.03025448  1
  B  B9  1  0.50000000  0.13601899  0.96974552  1
  B  B10  1  0.50000000  0.36398101  0.46974552  1
  B  B11  1  0.50000000  0.63601899  0.53025448  1
  B  B12  1  0.50000000  0.88796901  0.45316769  1
  B  B13  1  0.50000000  0.11203099  0.54683231  1
  B  B14  1  0.50000000  0.38796901  0.04683231  1
  B  B15  1  0.50000000  0.61203099  0.95316769  1
  B  B16  1  0.50000000  0.97716666  0.30819335  1
  B  B17  1  0.50000000  0.02283334  0.69180665  1
  B  B18  1  0.50000000  0.47716666  0.19180665  1
  B  B19  1  0.50000000  0.52283334  0.80819335  1
  Ru  Ru20  1  0.00000000  0.64073488  0.09249668  1
  Ru  Ru21  1  -0.00000000  0.35926512  0.90750332  1
  Ru  Ru22  1  -0.00000000  0.14073488  0.40750332  1
  Ru  Ru23  1  -0.00000000  0.85926512  0.59249668  1
