# generated using pymatgen
data_NdHO
_symmetry_space_group_name_H-M   'P 1'
_cell_length_a   5.59002166
_cell_length_b   7.92741562
_cell_length_c   7.92741562
_cell_angle_alpha   90.00000000
_cell_angle_beta   90.00000000
_cell_angle_gamma   90.00000000
_symmetry_Int_Tables_number   1
_chemical_formula_structural   NdHO
_chemical_formula_sum   'Nd8 H8 O8'
_cell_volume   351.29886512
_cell_formula_units_Z   8
loop_
 _symmetry_equiv_pos_site_id
 _symmetry_equiv_pos_as_xyz
  1  'x, y, z'
loop_
 _atom_site_type_symbol
 _atom_site_label
 _atom_site_symmetry_multiplicity
 _atom_site_fract_x
 _atom_site_fract_y
 _atom_site_fract_z
 _atom_site_occupancy
  Nd  Nd0  1  0.00000000  0.75000000  0.25000000  1
  Nd  Nd1  1  0.00000000  0.25000000  0.75000000  1
  Nd  Nd2  1  0.05158482  0.75000000  0.75000000  1
  Nd  Nd3  1  0.94841518  0.25000000  0.25000000  1
  Nd  Nd4  1  0.50000000  0.50000000  0.50000000  1
  Nd  Nd5  1  0.50000000  0.00000000  0.50000000  1
  Nd  Nd6  1  0.50000000  0.50000000  0.00000000  1
  Nd  Nd7  1  0.50000000  0.00000000  0.00000000  1
  H  H8  1  0.75045604  0.97830630  0.75000000  1
  H  H9  1  0.75045604  0.52169370  0.75000000  1
  H  H10  1  0.75045604  0.75000000  0.97830630  1
  H  H11  1  0.75045604  0.75000000  0.52169370  1
  H  H12  1  0.24954396  0.02169370  0.25000000  1
  H  H13  1  0.24954396  0.47830630  0.25000000  1
  H  H14  1  0.24954396  0.25000000  0.02169370  1
  H  H15  1  0.24954396  0.25000000  0.47830630  1
  O  O16  1  0.25473008  0.01468009  0.75000000  1
  O  O17  1  0.25473008  0.48531991  0.75000000  1
  O  O18  1  0.25473008  0.75000000  0.01468009  1
  O  O19  1  0.25473008  0.75000000  0.48531991  1
  O  O20  1  0.74526992  0.98531991  0.25000000  1
  O  O21  1  0.74526992  0.51468009  0.25000000  1
  O  O22  1  0.74526992  0.25000000  0.98531991  1
  O  O23  1  0.74526992  0.25000000  0.51468009  1
