# generated using pymatgen
data_Rb2Zn5Sb4
_symmetry_space_group_name_H-M   'P 1'
_cell_length_a   7.37488159
_cell_length_b   7.37488159
_cell_length_c   12.62090240
_cell_angle_alpha   90.00000000
_cell_angle_beta   90.00000000
_cell_angle_gamma   117.05619223
_symmetry_Int_Tables_number   1
_chemical_formula_structural   Rb2Zn5Sb4
_chemical_formula_sum   'Rb4 Zn10 Sb8'
_cell_volume   611.31367477
_cell_formula_units_Z   2
loop_
 _symmetry_equiv_pos_site_id
 _symmetry_equiv_pos_as_xyz
  1  'x, y, z'
loop_
 _atom_site_type_symbol
 _atom_site_label
 _atom_site_symmetry_multiplicity
 _atom_site_fract_x
 _atom_site_fract_y
 _atom_site_fract_z
 _atom_site_occupancy
  Rb  Rb0  1  0.77611605  0.22388395  0.50000000  1
  Rb  Rb1  1  0.77611605  0.22388395  0.00000000  1
  Rb  Rb2  1  0.22388395  0.77611605  0.50000000  1
  Rb  Rb3  1  0.22388395  0.77611605  0.00000000  1
  Zn  Zn4  1  0.25221563  0.53171772  0.25000000  1
  Zn  Zn5  1  0.46828228  0.74778437  0.75000000  1
  Zn  Zn6  1  0.74778437  0.46828228  0.75000000  1
  Zn  Zn7  1  0.53171772  0.25221563  0.25000000  1
  Zn  Zn8  1  0.65665275  0.65665275  0.38939904  1
  Zn  Zn9  1  0.34334725  0.34334725  0.61060096  1
  Zn  Zn10  1  0.65665275  0.65665275  0.11060096  1
  Zn  Zn11  1  0.34334725  0.34334725  0.88939904  1
  Zn  Zn12  1  0.00593178  0.00593178  0.25000000  1
  Zn  Zn13  1  0.99406822  0.99406822  0.75000000  1
  Sb  Sb14  1  0.91817035  0.60054962  0.25000000  1
  Sb  Sb15  1  0.39945038  0.08182965  0.75000000  1
  Sb  Sb16  1  0.08182965  0.39945038  0.75000000  1
  Sb  Sb17  1  0.60054962  0.91817035  0.25000000  1
  Sb  Sb18  1  0.27580243  0.27580243  0.40117995  1
  Sb  Sb19  1  0.72419757  0.72419757  0.59882005  1
  Sb  Sb20  1  0.27580243  0.27580243  0.09882005  1
  Sb  Sb21  1  0.72419757  0.72419757  0.90117995  1
