# generated using pymatgen
data_Sr3ZnCoO6
_symmetry_space_group_name_H-M   'P 1'
_cell_length_a   6.64992304
_cell_length_b   6.64992304
_cell_length_c   6.64992307
_cell_angle_alpha   92.68864391
_cell_angle_beta   92.68864391
_cell_angle_gamma   92.68864338
_symmetry_Int_Tables_number   1
_chemical_formula_structural   Sr3ZnCoO6
_chemical_formula_sum   'Sr6 Zn2 Co2 O12'
_cell_volume   293.06674674
_cell_formula_units_Z   2
loop_
 _symmetry_equiv_pos_site_id
 _symmetry_equiv_pos_as_xyz
  1  'x, y, z'
loop_
 _atom_site_type_symbol
 _atom_site_label
 _atom_site_symmetry_multiplicity
 _atom_site_fract_x
 _atom_site_fract_y
 _atom_site_fract_z
 _atom_site_occupancy
  Sr  Sr0  1  0.61568333  0.88431667  0.25000000  1
  Sr  Sr1  1  0.88431667  0.25000000  0.61568333  1
  Sr  Sr2  1  0.25000000  0.61568333  0.88431667  1
  Sr  Sr3  1  0.11568333  0.75000000  0.38431667  1
  Sr  Sr4  1  0.75000000  0.38431667  0.11568333  1
  Sr  Sr5  1  0.38431667  0.11568333  0.75000000  1
  Zn  Zn6  1  0.25000000  0.25000000  0.25000000  1
  Zn  Zn7  1  0.75000000  0.75000000  0.75000000  1
  Co  Co8  1  0.50000000  0.50000000  0.50000000  1
  Co  Co9  1  0.00000000  0.00000000  0.00000000  1
  O  O10  1  0.54124247  0.22328416  0.41421097  1
  O  O11  1  0.22328416  0.41421097  0.54124247  1
  O  O12  1  0.41421097  0.54124247  0.22328416  1
  O  O13  1  0.04124247  0.91421097  0.72328416  1
  O  O14  1  0.91421097  0.72328416  0.04124247  1
  O  O15  1  0.72328416  0.04124247  0.91421097  1
  O  O16  1  0.45875753  0.77671584  0.58578903  1
  O  O17  1  0.77671584  0.58578903  0.45875753  1
  O  O18  1  0.58578903  0.45875753  0.77671584  1
  O  O19  1  0.95875753  0.08578903  0.27671584  1
  O  O20  1  0.08578903  0.27671584  0.95875753  1
  O  O21  1  0.27671584  0.95875753  0.08578903  1
