# generated using pymatgen
data_TmH3
_symmetry_space_group_name_H-M   'P 1'
_cell_length_a   6.19160528
_cell_length_b   6.19159651
_cell_length_c   6.47061506
_cell_angle_alpha   89.99989211
_cell_angle_beta   89.99946903
_cell_angle_gamma   120.00001053
_symmetry_Int_Tables_number   1
_chemical_formula_structural   TmH3
_chemical_formula_sum   'Tm6 H18'
_cell_volume   214.82363382
_cell_formula_units_Z   6
loop_
 _symmetry_equiv_pos_site_id
 _symmetry_equiv_pos_as_xyz
  1  'x, y, z'
loop_
 _atom_site_type_symbol
 _atom_site_label
 _atom_site_symmetry_multiplicity
 _atom_site_fract_x
 _atom_site_fract_y
 _atom_site_fract_z
 _atom_site_occupancy
  Tm  Tm0  1  0.33712681  0.33713317  0.75000248  1
  Tm  Tm1  1  0.66287633  0.00000185  0.75000004  1
  Tm  Tm2  1  0.00000510  0.66287759  0.74999700  1
  Tm  Tm3  1  0.33712367  0.99999815  0.24999996  1
  Tm  Tm4  1  0.99999490  0.33712241  0.25000300  1
  Tm  Tm5  1  0.66287319  0.66286683  0.24999752  1
  H  H6  1  0.67912673  0.64896693  0.59158005  1
  H  H7  1  0.35102718  0.03015080  0.59157961  1
  H  H8  1  0.96984532  0.32087833  0.59157830  1
  H  H9  1  0.67912976  0.03015923  0.09158103  1
  H  H10  1  0.96984691  0.64896808  0.09158123  1
  H  H11  1  0.35102667  0.32087384  0.09157713  1
  H  H12  1  0.32087327  0.35103307  0.40841995  1
  H  H13  1  0.64897282  0.96984920  0.40842039  1
  H  H14  1  0.03015468  0.67912167  0.40842170  1
  H  H15  1  0.32087024  0.96984077  0.90841897  1
  H  H16  1  0.03015309  0.35103192  0.90841877  1
  H  H17  1  0.64897333  0.67912616  0.90842287  1
  H  H18  1  -0.00000210  0.99999655  0.74999920  1
  H  H19  1  0.00000210  0.00000345  0.25000080  1
  H  H20  1  0.33333066  0.66666664  0.68032255  1
  H  H21  1  0.33333217  0.66666666  0.18032265  1
  H  H22  1  0.66666934  0.33333336  0.31967745  1
  H  H23  1  0.66666783  0.33333334  0.81967735  1
