# generated using pymatgen
data_La3IrO7
_symmetry_space_group_name_H-M   'P 1'
_cell_length_a   6.76986022
_cell_length_b   6.76986022
_cell_length_c   7.65972051
_cell_angle_alpha   90.00000000
_cell_angle_beta   90.00000000
_cell_angle_gamma   112.33152172
_symmetry_Int_Tables_number   1
_chemical_formula_structural   La3IrO7
_chemical_formula_sum   'La6 Ir2 O14'
_cell_volume   324.72404089
_cell_formula_units_Z   2
loop_
 _symmetry_equiv_pos_site_id
 _symmetry_equiv_pos_as_xyz
  1  'x, y, z'
loop_
 _atom_site_type_symbol
 _atom_site_label
 _atom_site_symmetry_multiplicity
 _atom_site_fract_x
 _atom_site_fract_y
 _atom_site_fract_z
 _atom_site_occupancy
  La  La0  1  -0.00000000  -0.00000000  0.50000000  1
  La  La1  1  -0.00000000  -0.00000000  -0.00000000  1
  La  La2  1  0.09137980  0.53419543  0.25000000  1
  La  La3  1  0.46580457  0.90862020  0.75000000  1
  La  La4  1  0.90862020  0.46580457  0.75000000  1
  La  La5  1  0.53419543  0.09137980  0.25000000  1
  Ir  Ir6  1  0.50000000  0.50000000  0.50000000  1
  Ir  Ir7  1  0.50000000  0.50000000  -0.00000000  1
  O  O8  1  0.19188304  0.44293899  0.54163437  1
  O  O9  1  0.55706101  0.80811696  0.45836563  1
  O  O10  1  0.19188304  0.44293899  0.95836563  1
  O  O11  1  0.55706101  0.80811696  0.04163437  1
  O  O12  1  0.80811696  0.55706101  0.45836563  1
  O  O13  1  0.44293899  0.19188304  0.54163437  1
  O  O14  1  0.80811696  0.55706101  0.04163437  1
  O  O15  1  0.44293899  0.19188304  0.95836563  1
  O  O16  1  0.89996765  0.16080745  0.25000000  1
  O  O17  1  0.83919255  0.10003235  0.75000000  1
  O  O18  1  0.10003235  0.83919255  0.75000000  1
  O  O19  1  0.16080745  0.89996765  0.25000000  1
  O  O20  1  0.41272176  0.41272176  0.25000000  1
  O  O21  1  0.58727824  0.58727824  0.75000000  1
