# generated using pymatgen
data_La3Mn2Sb3O14
_symmetry_space_group_name_H-M   'P 1'
_cell_length_a   7.43135911
_cell_length_b   7.43135911
_cell_length_c   7.43135908
_cell_angle_alpha   61.79827312
_cell_angle_beta   61.79827312
_cell_angle_gamma   61.79827388
_symmetry_Int_Tables_number   1
_chemical_formula_structural   La3Mn2Sb3O14
_chemical_formula_sum   'La3 Mn2 Sb3 O14'
_cell_volume   301.88435723
_cell_formula_units_Z   1
loop_
 _symmetry_equiv_pos_site_id
 _symmetry_equiv_pos_as_xyz
  1  'x, y, z'
loop_
 _atom_site_type_symbol
 _atom_site_label
 _atom_site_symmetry_multiplicity
 _atom_site_fract_x
 _atom_site_fract_y
 _atom_site_fract_z
 _atom_site_occupancy
  La  La0  1  0.50000000  0.50000000  0.00000000  1
  La  La1  1  0.50000000  0.00000000  0.50000000  1
  La  La2  1  0.00000000  0.50000000  0.50000000  1
  Mn  Mn3  1  0.00000000  0.00000000  0.00000000  1
  Mn  Mn4  1  0.50000000  0.50000000  0.50000000  1
  Sb  Sb5  1  0.00000000  0.00000000  0.50000000  1
  Sb  Sb6  1  0.00000000  0.50000000  0.00000000  1
  Sb  Sb7  1  0.50000000  0.00000000  0.00000000  1
  O  O8  1  0.61496963  0.61496963  0.61496963  1
  O  O9  1  0.38503037  0.38503037  0.38503037  1
  O  O10  1  0.91982611  0.31809176  0.31809176  1
  O  O11  1  0.31809176  0.31809176  0.91982611  1
  O  O12  1  0.31809176  0.91982611  0.31809176  1
  O  O13  1  0.08017389  0.68190824  0.68190824  1
  O  O14  1  0.68190824  0.68190824  0.08017389  1
  O  O15  1  0.68190824  0.08017389  0.68190824  1
  O  O16  1  0.35345911  0.90986741  0.90986741  1
  O  O17  1  0.90986741  0.90986741  0.35345911  1
  O  O18  1  0.90986741  0.35345911  0.90986741  1
  O  O19  1  0.64654089  0.09013259  0.09013259  1
  O  O20  1  0.09013259  0.09013259  0.64654089  1
  O  O21  1  0.09013259  0.64654089  0.09013259  1
