# generated using pymatgen
data_UFeB4
_symmetry_space_group_name_H-M   'P 1'
_cell_length_a   3.37539601
_cell_length_b   5.87307381
_cell_length_c   11.38120319
_cell_angle_alpha   90.00000000
_cell_angle_beta   90.00000000
_cell_angle_gamma   90.00000000
_symmetry_Int_Tables_number   1
_chemical_formula_structural   UFeB4
_chemical_formula_sum   'U4 Fe4 B16'
_cell_volume   225.62040189
_cell_formula_units_Z   4
loop_
 _symmetry_equiv_pos_site_id
 _symmetry_equiv_pos_as_xyz
  1  'x, y, z'
loop_
 _atom_site_type_symbol
 _atom_site_label
 _atom_site_symmetry_multiplicity
 _atom_site_fract_x
 _atom_site_fract_y
 _atom_site_fract_z
 _atom_site_occupancy
  U  U0  1  0.00000000  0.62742006  0.34956863  1
  U  U1  1  0.00000000  0.37257994  0.65043137  1
  U  U2  1  -0.00000000  0.12742006  0.15043137  1
  U  U3  1  -0.00000000  0.87257994  0.84956863  1
  Fe  Fe4  1  0.00000000  0.63478348  0.08889135  1
  Fe  Fe5  1  -0.00000000  0.36521652  0.91110865  1
  Fe  Fe6  1  -0.00000000  0.13478348  0.41110865  1
  Fe  Fe7  1  -0.00000000  0.86521652  0.58889135  1
  B  B8  1  0.50000000  0.78373784  0.18678188  1
  B  B9  1  0.50000000  0.21626216  0.81321812  1
  B  B10  1  0.50000000  0.28373784  0.31321812  1
  B  B11  1  0.50000000  0.71626216  0.68678188  1
  B  B12  1  0.50000000  0.86497175  0.03408584  1
  B  B13  1  0.50000000  0.13502825  0.96591416  1
  B  B14  1  0.50000000  0.36497175  0.46591416  1
  B  B15  1  0.50000000  0.63502825  0.53408584  1
  B  B16  1  0.50000000  0.88636152  0.45428094  1
  B  B17  1  0.50000000  0.11363848  0.54571906  1
  B  B18  1  0.50000000  0.38636152  0.04571906  1
  B  B19  1  0.50000000  0.61363848  0.95428094  1
  B  B20  1  0.50000000  0.97576067  0.30872767  1
  B  B21  1  0.50000000  0.02423933  0.69127233  1
  B  B22  1  0.50000000  0.47576067  0.19127233  1
  B  B23  1  0.50000000  0.52423933  0.80872767  1
