# generated using pymatgen
data_CeSn3Pd2
_symmetry_space_group_name_H-M   'P 1'
_cell_length_a   6.20156104
_cell_length_b   6.32345055
_cell_length_c   13.95811233
_cell_angle_alpha   90.00000000
_cell_angle_beta   90.00000000
_cell_angle_gamma   90.00000000
_symmetry_Int_Tables_number   1
_chemical_formula_structural   CeSn3Pd2
_chemical_formula_sum   'Ce4 Sn12 Pd8'
_cell_volume   547.37106791
_cell_formula_units_Z   4
loop_
 _symmetry_equiv_pos_site_id
 _symmetry_equiv_pos_as_xyz
  1  'x, y, z'
loop_
 _atom_site_type_symbol
 _atom_site_label
 _atom_site_symmetry_multiplicity
 _atom_site_fract_x
 _atom_site_fract_y
 _atom_site_fract_z
 _atom_site_occupancy
  Ce  Ce0  1  0.25000000  0.51388967  0.79889485  1
  Ce  Ce1  1  0.75000000  0.48611033  0.20110515  1
  Ce  Ce2  1  0.75000000  0.98611033  0.79889485  1
  Ce  Ce3  1  0.25000000  0.01388967  0.20110515  1
  Sn  Sn4  1  0.25000000  0.01868294  0.69541616  1
  Sn  Sn5  1  0.75000000  0.98131706  0.30458384  1
  Sn  Sn6  1  0.75000000  0.48131706  0.69541616  1
  Sn  Sn7  1  0.25000000  0.51868294  0.30458384  1
  Sn  Sn8  1  0.25000000  0.89351379  0.43870867  1
  Sn  Sn9  1  0.75000000  0.10648621  0.56129133  1
  Sn  Sn10  1  0.75000000  0.60648621  0.43870867  1
  Sn  Sn11  1  0.25000000  0.39351379  0.56129133  1
  Sn  Sn12  1  0.50000000  0.75000000  0.99653427  1
  Sn  Sn13  1  0.00000000  0.25000000  0.00346573  1
  Sn  Sn14  1  0.50000000  0.25000000  0.00346573  1
  Sn  Sn15  1  0.00000000  0.75000000  0.99653427  1
  Pd  Pd16  1  0.25000000  0.01198165  0.88369512  1
  Pd  Pd17  1  0.75000000  0.98801835  0.11630488  1
  Pd  Pd18  1  0.75000000  0.48801835  0.88369512  1
  Pd  Pd19  1  0.25000000  0.51198165  0.11630488  1
  Pd  Pd20  1  0.50000000  0.75000000  0.59310352  1
  Pd  Pd21  1  0.00000000  0.25000000  0.40689648  1
  Pd  Pd22  1  0.50000000  0.25000000  0.40689648  1
  Pd  Pd23  1  -0.00000000  0.75000000  0.59310352  1
