# generated using pymatgen
data_Tb2Co7B3
_symmetry_space_group_name_H-M   'P 1'
_cell_length_a   5.03978717
_cell_length_b   5.03749447
_cell_length_c   12.72576025
_cell_angle_alpha   89.99994038
_cell_angle_beta   90.00011914
_cell_angle_gamma   120.01505386
_symmetry_Int_Tables_number   1
_chemical_formula_structural   Tb2Co7B3
_chemical_formula_sum   'Tb4 Co14 B6'
_cell_volume   279.75331979
_cell_formula_units_Z   2
loop_
 _symmetry_equiv_pos_site_id
 _symmetry_equiv_pos_as_xyz
  1  'x, y, z'
loop_
 _atom_site_type_symbol
 _atom_site_label
 _atom_site_symmetry_multiplicity
 _atom_site_fract_x
 _atom_site_fract_y
 _atom_site_fract_z
 _atom_site_occupancy
  Tb  Tb0  1  0.99998045  0.00000000  0.00007240  1
  Tb  Tb1  1  0.99999385  -0.00000000  0.50007666  1
  Tb  Tb2  1  0.99998859  -0.00000000  0.26120718  1
  Tb  Tb3  1  0.00000731  1.00000000  0.73855522  1
  Co  Co4  1  0.33336549  0.66676944  0.99997642  1
  Co  Co5  1  0.66659604  0.33323056  0.99997642  1
  Co  Co6  1  0.49999285  0.00000000  0.15497654  1
  Co  Co7  1  0.49998648  0.50000537  0.15496175  1
  Co  Co8  1  0.99998111  0.49999463  0.15496175  1
  Co  Co9  1  0.50000122  0.00000000  0.84504083  1
  Co  Co10  1  0.50000253  0.49999861  0.84513243  1
  Co  Co11  1  0.00000392  0.50000139  0.84513243  1
  Co  Co12  1  0.49998896  -0.00000000  0.38434616  1
  Co  Co13  1  0.49998572  0.50000324  0.38434435  1
  Co  Co14  1  0.99998249  0.49999676  0.38434435  1
  Co  Co15  1  0.49999748  0.00000000  0.61569339  1
  Co  Co16  1  0.49999736  0.49999991  0.61570313  1
  Co  Co17  1  0.99999744  0.50000009  0.61570313  1
  B  B18  1  0.33333087  0.66667988  0.50004516  1
  B  B19  1  0.66665099  0.33332012  0.50004516  1
  B  B20  1  0.33333821  0.66672076  0.26824756  1
  B  B21  1  0.66661745  0.33327924  0.26824756  1
  B  B22  1  0.66655416  0.33309514  0.73160501  1
  B  B23  1  0.33345902  0.66690486  0.73160501  1
