# generated using pymatgen
data_Tb3Ni7B2
_symmetry_space_group_name_H-M   'P 1'
_cell_length_a   5.07866481
_cell_length_b   5.07866481
_cell_length_c   14.31274153
_cell_angle_alpha   90.00000000
_cell_angle_beta   90.00000000
_cell_angle_gamma   120.03041019
_symmetry_Int_Tables_number   1
_chemical_formula_structural   Tb3Ni7B2
_chemical_formula_sum   'Tb6 Ni14 B4'
_cell_volume   319.60929177
_cell_formula_units_Z   2
loop_
 _symmetry_equiv_pos_site_id
 _symmetry_equiv_pos_as_xyz
  1  'x, y, z'
loop_
 _atom_site_type_symbol
 _atom_site_label
 _atom_site_symmetry_multiplicity
 _atom_site_fract_x
 _atom_site_fract_y
 _atom_site_fract_z
 _atom_site_occupancy
  Tb  Tb0  1  0.66658551  0.33341449  0.03090451  1
  Tb  Tb1  1  0.33341449  0.66658551  0.96909549  1
  Tb  Tb2  1  0.33341449  0.66658551  0.53090451  1
  Tb  Tb3  1  0.66658551  0.33341449  0.46909549  1
  Tb  Tb4  1  0.66671928  0.33328072  0.25000000  1
  Tb  Tb5  1  0.33328072  0.66671928  0.75000000  1
  Ni  Ni6  1  0.83424758  0.66841024  0.64956974  1
  Ni  Ni7  1  0.83421399  0.16578601  0.64962105  1
  Ni  Ni8  1  0.33158976  0.16575242  0.64956974  1
  Ni  Ni9  1  0.16575242  0.33158976  0.35043026  1
  Ni  Ni10  1  0.16578601  0.83421399  0.35037895  1
  Ni  Ni11  1  0.66841024  0.83424758  0.35043026  1
  Ni  Ni12  1  0.16575242  0.33158976  0.14956974  1
  Ni  Ni13  1  0.16578601  0.83421399  0.14962105  1
  Ni  Ni14  1  0.66841024  0.83424758  0.14956974  1
  Ni  Ni15  1  0.83424758  0.66841024  0.85043026  1
  Ni  Ni16  1  0.83421399  0.16578601  0.85037895  1
  Ni  Ni17  1  0.33158976  0.16575242  0.85043026  1
  Ni  Ni18  1  0.00000000  -0.00000000  0.50000000  1
  Ni  Ni19  1  0.00000000  -0.00000000  -0.00000000  1
  B  B20  1  0.66651764  0.33348236  0.75000000  1
  B  B21  1  0.33348236  0.66651764  0.25000000  1
  B  B22  1  0.00005685  -0.00005685  0.75000000  1
  B  B23  1  -0.00005685  0.00005685  0.25000000  1
