# generated using pymatgen
data_ErB4Ru
_symmetry_space_group_name_H-M   'P 1'
_cell_length_a   3.54304492
_cell_length_b   5.94237173
_cell_length_c   11.48334921
_cell_angle_alpha   90.00000000
_cell_angle_beta   90.00000000
_cell_angle_gamma   90.00000000
_symmetry_Int_Tables_number   1
_chemical_formula_structural   ErB4Ru
_chemical_formula_sum   'Er4 B16 Ru4'
_cell_volume   241.77146743
_cell_formula_units_Z   4
loop_
 _symmetry_equiv_pos_site_id
 _symmetry_equiv_pos_as_xyz
  1  'x, y, z'
loop_
 _atom_site_type_symbol
 _atom_site_label
 _atom_site_symmetry_multiplicity
 _atom_site_fract_x
 _atom_site_fract_y
 _atom_site_fract_z
 _atom_site_occupancy
  Er  Er0  1  0.00000000  0.63052183  0.35038986  1
  Er  Er1  1  0.00000000  0.36947817  0.64961014  1
  Er  Er2  1  -0.00000000  0.13052183  0.14961014  1
  Er  Er3  1  0.00000000  0.86947817  0.85038986  1
  B  B4  1  0.50000000  0.79167423  0.18593902  1
  B  B5  1  0.50000000  0.20832577  0.81406098  1
  B  B6  1  0.50000000  0.29167423  0.31406098  1
  B  B7  1  0.50000000  0.70832577  0.68593902  1
  B  B8  1  0.50000000  0.86463596  0.03023962  1
  B  B9  1  0.50000000  0.13536404  0.96976038  1
  B  B10  1  0.50000000  0.36463596  0.46976038  1
  B  B11  1  0.50000000  0.63536404  0.53023962  1
  B  B12  1  0.50000000  0.88784612  0.45288399  1
  B  B13  1  0.50000000  0.11215388  0.54711601  1
  B  B14  1  0.50000000  0.38784612  0.04711601  1
  B  B15  1  0.50000000  0.61215388  0.95288399  1
  B  B16  1  0.50000000  0.97800783  0.30762628  1
  B  B17  1  0.50000000  0.02199217  0.69237372  1
  B  B18  1  0.50000000  0.47800783  0.19237372  1
  B  B19  1  0.50000000  0.52199217  0.80762628  1
  Ru  Ru20  1  -0.00000000  0.64146391  0.09306019  1
  Ru  Ru21  1  0.00000000  0.35853609  0.90693981  1
  Ru  Ru22  1  -0.00000000  0.14146391  0.40693981  1
  Ru  Ru23  1  0.00000000  0.85853609  0.59306019  1
