# generated using pymatgen
data_Cs2CuP2O7
_symmetry_space_group_name_H-M   'P 1'
_cell_length_a   7.55767289
_cell_length_b   7.58078433
_cell_length_c   10.10726704
_cell_angle_alpha   79.24571705
_cell_angle_beta   68.01671726
_cell_angle_gamma   60.10079703
_symmetry_Int_Tables_number   1
_chemical_formula_structural   Cs2CuP2O7
_chemical_formula_sum   'Cs4 Cu2 P4 O14'
_cell_volume   465.50447016
_cell_formula_units_Z   2
loop_
 _symmetry_equiv_pos_site_id
 _symmetry_equiv_pos_as_xyz
  1  'x, y, z'
loop_
 _atom_site_type_symbol
 _atom_site_label
 _atom_site_symmetry_multiplicity
 _atom_site_fract_x
 _atom_site_fract_y
 _atom_site_fract_z
 _atom_site_occupancy
  Cs  Cs0  1  0.51285063  0.58875814  0.86869782  1
  Cs  Cs1  1  0.10160877  0.41124186  0.36869782  1
  Cs  Cs2  1  0.91262867  0.91850465  0.68806782  1
  Cs  Cs3  1  0.83113331  0.08149535  0.18806782  1
  Cu  Cu4  1  0.30278852  0.26460178  0.71096924  1
  Cu  Cu5  1  0.56739030  0.73539822  0.21096924  1
  P  P6  1  0.38463138  0.09887772  0.00183465  1
  P  P7  1  0.48350910  0.90112228  0.50183465  1
  P  P8  1  0.01753980  0.51185368  0.00674352  1
  P  P9  1  0.52939348  0.48814632  0.50674352  1
  O  O10  1  0.69502763  0.34181735  0.57717421  1
  O  O11  1  0.03684497  0.65818265  0.07717421  1
  O  O12  1  0.41931268  0.71739101  0.57163983  1
  O  O13  1  0.13670370  0.28260899  0.07163983  1
  O  O14  1  0.54726578  0.16160768  0.99886373  1
  O  O15  1  0.70887346  0.83839232  0.49886373  1
  O  O16  1  0.13402648  0.49562076  0.84356800  1
  O  O17  1  0.62964724  0.50437924  0.34356800  1
  O  O18  1  0.78179590  0.55303633  0.04475539  1
  O  O19  1  0.33483223  0.44696367  0.54475539  1
  O  O20  1  0.37883648  0.91852779  0.10030257  1
  O  O21  1  0.29736427  0.08147221  0.60030257  1
  O  O22  1  0.39673718  0.05920085  0.85243322  1
  O  O23  1  0.45593803  0.94079915  0.35243322  1
