# generated using pymatgen
data_Yb7Ni4Sn13
_symmetry_space_group_name_H-M   'P 1'
_cell_length_a   4.58424826
_cell_length_b   11.20912212
_cell_length_c   11.20912212
_cell_angle_alpha   90.00000000
_cell_angle_beta   90.00000000
_cell_angle_gamma   90.00000000
_symmetry_Int_Tables_number   1
_chemical_formula_structural   Yb7Ni4Sn13
_chemical_formula_sum   'Yb7 Ni4 Sn13'
_cell_volume   575.98520781
_cell_formula_units_Z   1
loop_
 _symmetry_equiv_pos_site_id
 _symmetry_equiv_pos_as_xyz
  1  'x, y, z'
loop_
 _atom_site_type_symbol
 _atom_site_label
 _atom_site_symmetry_multiplicity
 _atom_site_fract_x
 _atom_site_fract_y
 _atom_site_fract_z
 _atom_site_occupancy
  Yb  Yb0  1  -0.00000000  -0.00000000  -0.00000000  1
  Yb  Yb1  1  0.50000000  0.67098304  0.33833087  1
  Yb  Yb2  1  0.50000000  0.32901696  0.66166913  1
  Yb  Yb3  1  0.50000000  0.33833087  0.32901696  1
  Yb  Yb4  1  0.50000000  0.66166913  0.67098304  1
  Yb  Yb5  1  0.50000000  -0.00000000  0.50000000  1
  Yb  Yb6  1  0.50000000  0.50000000  -0.00000000  1
  Ni  Ni7  1  -0.00000000  0.72384233  0.12011166  1
  Ni  Ni8  1  0.00000000  0.27615767  0.87988834  1
  Ni  Ni9  1  -0.00000000  0.12011166  0.27615767  1
  Ni  Ni10  1  0.00000000  0.87988834  0.72384233  1
  Sn  Sn11  1  -0.00000000  0.88936549  0.28416955  1
  Sn  Sn12  1  0.00000000  0.11063451  0.71583045  1
  Sn  Sn13  1  -0.00000000  0.28416955  0.11063451  1
  Sn  Sn14  1  0.00000000  0.71583045  0.88936549  1
  Sn  Sn15  1  0.50000000  0.80959968  0.07689299  1
  Sn  Sn16  1  0.50000000  0.19040032  0.92310701  1
  Sn  Sn17  1  0.50000000  0.07689299  0.19040032  1
  Sn  Sn18  1  0.50000000  0.92310701  0.80959968  1
  Sn  Sn19  1  -0.00000000  0.78461081  0.51879331  1
  Sn  Sn20  1  0.00000000  0.21538919  0.48120669  1
  Sn  Sn21  1  0.00000000  0.51879331  0.21538919  1
  Sn  Sn22  1  -0.00000000  0.48120669  0.78461081  1
  Sn  Sn23  1  0.00000000  0.50000000  0.50000000  1
