# generated using pymatgen
data_VIn(SeO4)2
_symmetry_space_group_name_H-M   'P 1'
_cell_length_a   4.82675299
_cell_length_b   6.95732447
_cell_length_c   10.78822728
_cell_angle_alpha   90.00000000
_cell_angle_beta   98.09503161
_cell_angle_gamma   90.00000000
_symmetry_Int_Tables_number   1
_chemical_formula_structural   VIn(SeO4)2
_chemical_formula_sum   'V2 In2 Se4 O16'
_cell_volume   358.67272345
_cell_formula_units_Z   2
loop_
 _symmetry_equiv_pos_site_id
 _symmetry_equiv_pos_as_xyz
  1  'x, y, z'
loop_
 _atom_site_type_symbol
 _atom_site_label
 _atom_site_symmetry_multiplicity
 _atom_site_fract_x
 _atom_site_fract_y
 _atom_site_fract_z
 _atom_site_occupancy
  V  V0  1  0.12602050  0.75082843  0.45799267  1
  V  V1  1  0.12602050  0.24917157  0.45799267  1
  In  In2  1  0.21422591  0.75019998  0.94857323  1
  In  In3  1  0.21422591  0.24980002  0.94857323  1
  Se  Se4  1  0.65583925  0.50000000  0.76298221  1
  Se  Se5  1  0.76501689  -0.00000000  0.13779676  1
  Se  Se6  1  0.47252499  -0.00000000  0.69648245  1
  Se  Se7  1  0.31802269  0.50000000  0.23189938  1
  O  O8  1  0.82330726  0.69988785  0.83102658  1
  O  O9  1  0.82330726  0.30011215  0.83102658  1
  O  O10  1  0.00423381  -0.00000000  0.02362852  1
  O  O11  1  0.56711617  0.80140182  0.09031538  1
  O  O12  1  0.56711617  0.19859818  0.09031538  1
  O  O13  1  0.15461010  0.50000000  0.07384896  1
  O  O14  1  0.36709094  0.50000000  0.85107416  1
  O  O15  1  0.34002174  -0.00000000  0.84192469  1
  O  O16  1  0.28616193  0.80094811  0.63528065  1
  O  O17  1  0.28616193  0.19905189  0.63528065  1
  O  O18  1  0.24446273  0.50000000  0.48819792  1
  O  O19  1  0.79206034  0.75361147  0.46462457  1
  O  O20  1  0.79206034  0.24638853  0.46462457  1
  O  O21  1  0.13504705  0.69609426  0.27877570  1
  O  O22  1  0.13504705  0.30390574  0.27877570  1
  O  O23  1  0.22119854  -0.00000000  0.42516741  1
