# generated using pymatgen
data_Tb3SbO7
_symmetry_space_group_name_H-M   'P 1'
_cell_length_a   6.50508048
_cell_length_b   6.50508048
_cell_length_c   7.55823156
_cell_angle_alpha   90.00000000
_cell_angle_beta   90.00000000
_cell_angle_gamma   109.33431129
_symmetry_Int_Tables_number   1
_chemical_formula_structural   Tb3SbO7
_chemical_formula_sum   'Tb6 Sb2 O14'
_cell_volume   301.79690899
_cell_formula_units_Z   2
loop_
 _symmetry_equiv_pos_site_id
 _symmetry_equiv_pos_as_xyz
  1  'x, y, z'
loop_
 _atom_site_type_symbol
 _atom_site_label
 _atom_site_symmetry_multiplicity
 _atom_site_fract_x
 _atom_site_fract_y
 _atom_site_fract_z
 _atom_site_occupancy
  Tb  Tb0  1  0.50000000  0.50000000  0.50000000  1
  Tb  Tb1  1  0.50000000  0.50000000  -0.00000000  1
  Tb  Tb2  1  0.00016979  0.53210707  0.25000000  1
  Tb  Tb3  1  0.53210707  0.00016979  0.75000000  1
  Tb  Tb4  1  0.99983021  0.46789293  0.75000000  1
  Tb  Tb5  1  0.46789293  0.99983021  0.25000000  1
  Sb  Sb6  1  -0.00000000  -0.00000000  0.50000000  1
  Sb  Sb7  1  -0.00000000  -0.00000000  0.00000000  1
  O  O8  1  0.92792967  0.67890780  0.52926041  1
  O  O9  1  0.67890780  0.92792967  0.47073959  1
  O  O10  1  0.92792967  0.67890780  0.97073959  1
  O  O11  1  0.67890780  0.92792967  0.02926041  1
  O  O12  1  0.07207033  0.32109220  0.47073959  1
  O  O13  1  0.32109220  0.07207033  0.52926041  1
  O  O14  1  0.07207033  0.32109220  0.02926041  1
  O  O15  1  0.32109220  0.07207033  0.97073959  1
  O  O16  1  0.06928692  0.93071308  0.25000000  1
  O  O17  1  0.93071308  0.06928692  0.75000000  1
  O  O18  1  0.63019226  0.36980774  0.25000000  1
  O  O19  1  0.36980774  0.63019226  0.75000000  1
  O  O20  1  0.36312529  0.63687471  0.25000000  1
  O  O21  1  0.63687471  0.36312529  0.75000000  1
