# generated using pymatgen
data_NdEuCuS3
_symmetry_space_group_name_H-M   'P 1'
_cell_length_a   4.04315346
_cell_length_b   11.03674371
_cell_length_c   11.42447110
_cell_angle_alpha   90.00000000
_cell_angle_beta   90.00000000
_cell_angle_gamma   90.00000000
_symmetry_Int_Tables_number   1
_chemical_formula_structural   NdEuCuS3
_chemical_formula_sum   'Nd4 Eu4 Cu4 S12'
_cell_volume   509.79701308
_cell_formula_units_Z   4
loop_
 _symmetry_equiv_pos_site_id
 _symmetry_equiv_pos_as_xyz
  1  'x, y, z'
loop_
 _atom_site_type_symbol
 _atom_site_label
 _atom_site_symmetry_multiplicity
 _atom_site_fract_x
 _atom_site_fract_y
 _atom_site_fract_z
 _atom_site_occupancy
  Nd  Nd0  1  0.75000000  0.48834941  0.31663091  1
  Nd  Nd1  1  0.75000000  0.98834941  0.18336909  1
  Nd  Nd2  1  0.25000000  0.51165059  0.68336909  1
  Nd  Nd3  1  0.25000000  0.01165059  0.81663091  1
  Eu  Eu4  1  0.75000000  0.81695828  0.50455278  1
  Eu  Eu5  1  0.75000000  0.31695828  0.99544722  1
  Eu  Eu6  1  0.25000000  0.18304172  0.49544722  1
  Eu  Eu7  1  0.25000000  0.68304172  0.00455278  1
  Cu  Cu8  1  0.75000000  0.24409120  0.71366633  1
  Cu  Cu9  1  0.75000000  0.74409120  0.78633367  1
  Cu  Cu10  1  0.25000000  0.75590880  0.28633367  1
  Cu  Cu11  1  0.25000000  0.25590880  0.21366633  1
  S  S12  1  0.75000000  0.38416422  0.55742817  1
  S  S13  1  0.75000000  0.88416422  0.94257183  1
  S  S14  1  0.25000000  0.61583578  0.44257183  1
  S  S15  1  0.25000000  0.11583578  0.05742817  1
  S  S16  1  0.75000000  0.04854927  0.63844323  1
  S  S17  1  0.75000000  0.54854927  0.86155677  1
  S  S18  1  0.25000000  0.95145073  0.36155677  1
  S  S19  1  0.25000000  0.45145073  0.13844323  1
  S  S20  1  0.75000000  0.22288869  0.30859423  1
  S  S21  1  0.75000000  0.72288869  0.19140577  1
  S  S22  1  0.25000000  0.77711131  0.69140577  1
  S  S23  1  0.25000000  0.27711131  0.80859423  1
