# generated using pymatgen
data_DyH3
_symmetry_space_group_name_H-M   'P 1'
_cell_length_a   6.32511809
_cell_length_b   6.32512507
_cell_length_c   6.59592238
_cell_angle_alpha   90.00017101
_cell_angle_beta   89.99840517
_cell_angle_gamma   120.00008429
_symmetry_Int_Tables_number   1
_chemical_formula_structural   DyH3
_chemical_formula_sum   'Dy6 H18'
_cell_volume   228.53017618
_cell_formula_units_Z   6
loop_
 _symmetry_equiv_pos_site_id
 _symmetry_equiv_pos_as_xyz
  1  'x, y, z'
loop_
 _atom_site_type_symbol
 _atom_site_label
 _atom_site_symmetry_multiplicity
 _atom_site_fract_x
 _atom_site_fract_y
 _atom_site_fract_z
 _atom_site_occupancy
  Dy  Dy0  1  0.33660189  0.33659946  0.75000142  1
  Dy  Dy1  1  0.66341048  0.00001211  0.75001092  1
  Dy  Dy2  1  -0.00000263  0.66339427  0.75000975  1
  Dy  Dy3  1  0.33658952  0.99998789  0.24998908  1
  Dy  Dy4  1  0.00000263  0.33660573  0.24999025  1
  Dy  Dy5  1  0.66339811  0.66340054  0.24999858  1
  H  H6  1  0.67888227  0.65117894  0.59244910  1
  H  H7  1  0.34881449  0.02769173  0.59244922  1
  H  H8  1  0.97230575  0.32112965  0.59244772  1
  H  H9  1  0.67888236  0.02770215  0.09245033  1
  H  H10  1  0.97230577  0.65117684  0.09244754  1
  H  H11  1  0.34881692  0.32112539  0.09245075  1
  H  H12  1  0.32111773  0.34882106  0.40755090  1
  H  H13  1  0.65118551  0.97230827  0.40755078  1
  H  H14  1  0.02769425  0.67887035  0.40755228  1
  H  H15  1  0.32111764  0.97229785  0.90754967  1
  H  H16  1  0.02769423  0.34882316  0.90755246  1
  H  H17  1  0.65118308  0.67887461  0.90754925  1
  H  H18  1  -0.00000234  -0.00000476  0.74999853  1
  H  H19  1  0.00000234  0.00000476  0.25000147  1
  H  H20  1  0.33333214  0.66666931  0.68073745  1
  H  H21  1  0.33333228  0.66666714  0.18074030  1
  H  H22  1  0.66666786  0.33333069  0.31926255  1
  H  H23  1  0.66666772  0.33333286  0.81925970  1
