# generated using pymatgen
data_LiDySn
_symmetry_space_group_name_H-M   'P 1'
_cell_length_a   7.33331271
_cell_length_b   9.36957352
_cell_length_c   9.36957352
_cell_angle_alpha   119.99882330
_cell_angle_beta   90.00000000
_cell_angle_gamma   90.00000000
_symmetry_Int_Tables_number   1
_chemical_formula_structural   LiDySn
_chemical_formula_sum   'Li8 Dy8 Sn8'
_cell_volume   557.53948813
_cell_formula_units_Z   8
loop_
 _symmetry_equiv_pos_site_id
 _symmetry_equiv_pos_as_xyz
  1  'x, y, z'
loop_
 _atom_site_type_symbol
 _atom_site_label
 _atom_site_symmetry_multiplicity
 _atom_site_fract_x
 _atom_site_fract_y
 _atom_site_fract_z
 _atom_site_occupancy
  Li  Li0  1  0.28881049  0.16610879  0.33220910  1
  Li  Li1  1  0.28880740  0.16609928  0.83390072  1
  Li  Li2  1  0.28881049  0.66779090  0.83389121  1
  Li  Li3  1  0.78881049  0.83389121  0.66779090  1
  Li  Li4  1  0.78880740  0.83390072  0.16609928  1
  Li  Li5  1  0.78881049  0.33220910  0.16610879  1
  Li  Li6  1  0.66131695  0.33332255  0.66667745  1
  Li  Li7  1  0.16131695  0.66667745  0.33332255  1
  Dy  Dy8  1  0.49505395  0.51344283  0.02688624  1
  Dy  Dy9  1  0.49505888  0.51343919  0.48656081  1
  Dy  Dy10  1  0.49505395  0.97311376  0.48655717  1
  Dy  Dy11  1  0.99505395  0.48655717  0.97311376  1
  Dy  Dy12  1  0.99505888  0.48656081  0.51343919  1
  Dy  Dy13  1  0.99505395  0.02688624  0.51344283  1
  Dy  Dy14  1  0.50280052  0.99999878  0.00000122  1
  Dy  Dy15  1  0.00280052  0.00000122  0.99999878  1
  Sn  Sn16  1  0.73012869  0.16733492  0.33467488  1
  Sn  Sn17  1  0.73012932  0.16732966  0.83267034  1
  Sn  Sn18  1  0.73012869  0.66532512  0.83266508  1
  Sn  Sn19  1  0.23012869  0.83266508  0.66532512  1
  Sn  Sn20  1  0.23012932  0.83267034  0.16732966  1
  Sn  Sn21  1  0.23012869  0.33467488  0.16733492  1
  Sn  Sn22  1  0.26490066  0.33333631  0.66666369  1
  Sn  Sn23  1  0.76490066  0.66666369  0.33333631  1
