# generated using pymatgen
data_La5In11Ni6
_symmetry_space_group_name_H-M   'P 1'
_cell_length_a   4.49446913
_cell_length_b   10.45374199
_cell_length_c   10.45374199
_cell_angle_alpha   89.66091583
_cell_angle_beta   90.00000000
_cell_angle_gamma   90.00000000
_symmetry_Int_Tables_number   1
_chemical_formula_structural   La5In11Ni6
_chemical_formula_sum   'La5 In11 Ni6'
_cell_volume   491.15022810
_cell_formula_units_Z   1
loop_
 _symmetry_equiv_pos_site_id
 _symmetry_equiv_pos_as_xyz
  1  'x, y, z'
loop_
 _atom_site_type_symbol
 _atom_site_label
 _atom_site_symmetry_multiplicity
 _atom_site_fract_x
 _atom_site_fract_y
 _atom_site_fract_z
 _atom_site_occupancy
  La  La0  1  -0.00000000  0.96308364  0.31149684  1
  La  La1  1  -0.00000000  0.03691636  0.68850316  1
  La  La2  1  0.00000000  0.31149684  0.96308364  1
  La  La3  1  0.00000000  0.68850316  0.03691636  1
  La  La4  1  0.50000000  0.50000000  0.50000000  1
  In  In5  1  0.50000000  0.84698648  0.53676296  1
  In  In6  1  0.50000000  0.15301352  0.46323704  1
  In  In7  1  0.50000000  0.53676296  0.84698648  1
  In  In8  1  0.50000000  0.46323704  0.15301352  1
  In  In9  1  0.00000000  0.30446563  0.30446563  1
  In  In10  1  -0.00000000  0.69553437  0.69553437  1
  In  In11  1  0.50000000  0.83883129  0.83883129  1
  In  In12  1  0.50000000  0.16116871  0.16116871  1
  In  In13  1  0.50000000  0.72503146  0.27496854  1
  In  In14  1  0.50000000  0.27496854  0.72503146  1
  In  In15  1  -0.00000000  0.00000000  -0.00000000  1
  Ni  Ni16  1  0.00000000  0.72143881  0.44450752  1
  Ni  Ni17  1  0.00000000  0.27856119  0.55549248  1
  Ni  Ni18  1  0.00000000  0.44450752  0.72143881  1
  Ni  Ni19  1  -0.00000000  0.55549248  0.27856119  1
  Ni  Ni20  1  0.50000000  0.90810555  0.09189445  1
  Ni  Ni21  1  0.50000000  0.09189445  0.90810555  1
