# generated using pymatgen
data_BaCr2(P2O7)2
_symmetry_space_group_name_H-M   'P 1'
_cell_length_a   6.25289829
_cell_length_b   6.28250341
_cell_length_c   7.97788892
_cell_angle_alpha   96.61015380
_cell_angle_beta   101.51968745
_cell_angle_gamma   105.89906460
_symmetry_Int_Tables_number   1
_chemical_formula_structural   BaCr2(P2O7)2
_chemical_formula_sum   'Ba1 Cr2 P4 O14'
_cell_volume   290.50658811
_cell_formula_units_Z   1
loop_
 _symmetry_equiv_pos_site_id
 _symmetry_equiv_pos_as_xyz
  1  'x, y, z'
loop_
 _atom_site_type_symbol
 _atom_site_label
 _atom_site_symmetry_multiplicity
 _atom_site_fract_x
 _atom_site_fract_y
 _atom_site_fract_z
 _atom_site_occupancy
  Ba  Ba0  1  0.00000000  0.00000000  0.00000000  1
  Cr  Cr1  1  0.62543095  0.31129767  0.77111382  1
  Cr  Cr2  1  0.37456905  0.68870233  0.22888618  1
  P  P3  1  0.81715574  0.53773447  0.19435435  1
  P  P4  1  0.18284426  0.46226553  0.80564565  1
  P  P5  1  0.51416767  0.75705701  0.66530573  1
  P  P6  1  0.48583233  0.24294299  0.33469427  1
  O  O7  1  0.93395472  0.31881722  0.73289407  1
  O  O8  1  0.06604528  0.68118278  0.26710593  1
  O  O9  1  0.68089999  0.63923401  0.75674156  1
  O  O10  1  0.31910001  0.36076599  0.24325844  1
  O  O11  1  0.67393914  0.70044062  0.16793457  1
  O  O12  1  0.32606086  0.29955938  0.83206543  1
  O  O13  1  0.56875800  0.98362684  0.78639061  1
  O  O14  1  0.43124200  0.01637316  0.21360939  1
  O  O15  1  0.52358561  0.77315342  0.48010215  1
  O  O16  1  0.47641439  0.22684658  0.51989785  1
  O  O17  1  0.25558630  0.60630039  0.65967820  1
  O  O18  1  0.74441370  0.39369961  0.34032180  1
  O  O19  1  0.22017588  0.63584953  0.96978515  1
  O  O20  1  0.77982412  0.36415047  0.03021485  1
