# generated using pymatgen
data_Rb2U(PdSe2)3
_symmetry_space_group_name_H-M   'P 1'
_cell_length_a   9.30881919
_cell_length_b   9.30881919
_cell_length_c   10.14145173
_cell_angle_alpha   105.82312605
_cell_angle_beta   105.82312605
_cell_angle_gamma   113.94658559
_symmetry_Int_Tables_number   1
_chemical_formula_structural   Rb2U(PdSe2)3
_chemical_formula_sum   'Rb4 U2 Pd6 Se12'
_cell_volume   695.42209996
_cell_formula_units_Z   2
loop_
 _symmetry_equiv_pos_site_id
 _symmetry_equiv_pos_as_xyz
  1  'x, y, z'
loop_
 _atom_site_type_symbol
 _atom_site_label
 _atom_site_symmetry_multiplicity
 _atom_site_fract_x
 _atom_site_fract_y
 _atom_site_fract_z
 _atom_site_occupancy
  Rb  Rb0  1  0.75000000  0.25000000  0.50000000  1
  Rb  Rb1  1  0.25000000  0.75000000  0.50000000  1
  Rb  Rb2  1  0.69297088  0.30702912  0.00000000  1
  Rb  Rb3  1  0.30702912  0.69297088  0.00000000  1
  U  U4  1  0.16820404  0.16820404  0.33640809  1
  U  U5  1  0.83179596  0.83179596  0.66359191  1
  Pd  Pd6  1  0.82685320  0.82685320  0.32195788  1
  Pd  Pd7  1  0.50489532  0.50489532  0.67804212  1
  Pd  Pd8  1  0.17314680  0.17314680  0.67804212  1
  Pd  Pd9  1  0.49510468  0.49510468  0.32195788  1
  Pd  Pd10  1  0.83191367  0.83191367  0.00000000  1
  Pd  Pd11  1  0.16808633  0.16808633  0.00000000  1
  Se  Se12  1  0.80470869  0.02647176  0.20382074  1
  Se  Se13  1  0.82265102  0.60088795  0.79617926  1
  Se  Se14  1  0.97352824  0.19529131  0.79617926  1
  Se  Se15  1  0.39911205  0.17734898  0.20382074  1
  Se  Se16  1  0.19529131  0.97352824  0.79617926  1
  Se  Se17  1  0.17734898  0.39911205  0.20382074  1
  Se  Se18  1  0.02647176  0.80470869  0.20382074  1
  Se  Se19  1  0.60088795  0.82265102  0.79617926  1
  Se  Se20  1  0.18794528  0.40696420  0.59490948  1
  Se  Se21  1  0.81205472  0.59303580  0.40509052  1
  Se  Se22  1  0.59303580  0.81205472  0.40509052  1
  Se  Se23  1  0.40696420  0.18794528  0.59490948  1
