# generated using pymatgen
data_Lu2Fe12P7
_symmetry_space_group_name_H-M   'P 1'
_cell_length_a   3.61943347
_cell_length_b   8.92937675
_cell_length_c   8.93069985
_cell_angle_alpha   119.93711979
_cell_angle_beta   90.00000000
_cell_angle_gamma   90.00000000
_symmetry_Int_Tables_number   1
_chemical_formula_structural   Lu2Fe12P7
_chemical_formula_sum   'Lu2 Fe12 P7'
_cell_volume   250.12246548
_cell_formula_units_Z   1
loop_
 _symmetry_equiv_pos_site_id
 _symmetry_equiv_pos_as_xyz
  1  'x, y, z'
loop_
 _atom_site_type_symbol
 _atom_site_label
 _atom_site_symmetry_multiplicity
 _atom_site_fract_x
 _atom_site_fract_y
 _atom_site_fract_z
 _atom_site_occupancy
  Lu  Lu0  1  0.00000000  0.66637409  0.33311284  1
  Lu  Lu1  1  0.50000000  0.33356895  0.66686988  1
  Fe  Fe2  1  -0.00000000  0.37169865  0.94387533  1
  Fe  Fe3  1  0.00000000  0.05617112  0.42803982  1
  Fe  Fe4  1  -0.00000000  0.57226347  0.62845031  1
  Fe  Fe5  1  0.00000000  0.88073062  0.72366971  1
  Fe  Fe6  1  -0.00000000  0.27595522  0.15673775  1
  Fe  Fe7  1  0.00000000  0.84333926  0.11932373  1
  Fe  Fe8  1  0.50000000  0.95145958  0.56691321  1
  Fe  Fe9  1  0.50000000  0.43313104  0.38446903  1
  Fe  Fe10  1  0.50000000  0.61527159  0.04852382  1
  Fe  Fe11  1  0.50000000  0.12013457  0.90454107  1
  Fe  Fe12  1  0.50000000  0.09561885  0.21566497  1
  Fe  Fe13  1  0.50000000  0.78435929  0.87984453  1
  P  P14  1  0.00000000  0.11651116  0.70411382  1
  P  P15  1  0.00000000  0.29660093  0.41255636  1
  P  P16  1  0.00000000  0.58766688  0.88407827  1
  P  P17  1  0.50000000  0.71050703  0.59655202  1
  P  P18  1  0.50000000  0.40315569  0.11413677  1
  P  P19  1  0.50000000  0.88543652  0.28873352  1
  P  P20  1  0.00000000  0.00004548  0.99979323  1
