# generated using pymatgen
data_DyB4W
_symmetry_space_group_name_H-M   'P 1'
_cell_length_a   3.62601275
_cell_length_b   6.03674800
_cell_length_c   11.67608425
_cell_angle_alpha   90.00000000
_cell_angle_beta   90.00000000
_cell_angle_gamma   90.00000000
_symmetry_Int_Tables_number   1
_chemical_formula_structural   DyB4W
_chemical_formula_sum   'Dy4 B16 W4'
_cell_volume   255.58160540
_cell_formula_units_Z   4
loop_
 _symmetry_equiv_pos_site_id
 _symmetry_equiv_pos_as_xyz
  1  'x, y, z'
loop_
 _atom_site_type_symbol
 _atom_site_label
 _atom_site_symmetry_multiplicity
 _atom_site_fract_x
 _atom_site_fract_y
 _atom_site_fract_z
 _atom_site_occupancy
  Dy  Dy0  1  0.00000000  0.62667601  0.35018677  1
  Dy  Dy1  1  -0.00000000  0.37332399  0.64981323  1
  Dy  Dy2  1  -0.00000000  0.12667601  0.14981323  1
  Dy  Dy3  1  -0.00000000  0.87332399  0.85018677  1
  B  B4  1  0.50000000  0.78618450  0.18655471  1
  B  B5  1  0.50000000  0.21381550  0.81344529  1
  B  B6  1  0.50000000  0.28618450  0.31344529  1
  B  B7  1  0.50000000  0.71381550  0.68655471  1
  B  B8  1  0.50000000  0.86664269  0.03225927  1
  B  B9  1  0.50000000  0.13335731  0.96774073  1
  B  B10  1  0.50000000  0.36664269  0.46774073  1
  B  B11  1  0.50000000  0.63335731  0.53225927  1
  B  B12  1  0.50000000  0.88563088  0.45287681  1
  B  B13  1  0.50000000  0.11436912  0.54712319  1
  B  B14  1  0.50000000  0.38563088  0.04712319  1
  B  B15  1  0.50000000  0.61436912  0.95287681  1
  B  B16  1  0.50000000  0.97554008  0.30692213  1
  B  B17  1  0.50000000  0.02445992  0.69307787  1
  B  B18  1  0.50000000  0.47554008  0.19307787  1
  B  B19  1  0.50000000  0.52445992  0.80692213  1
  W  W20  1  0.00000000  0.63070748  0.08447292  1
  W  W21  1  -0.00000000  0.36929252  0.91552708  1
  W  W22  1  0.00000000  0.13070748  0.41552708  1
  W  W23  1  0.00000000  0.86929252  0.58447292  1
