# generated using pymatgen
data_RbU3TiTe9
_symmetry_space_group_name_H-M   'P 1'
_cell_length_a   6.11536554
_cell_length_b   8.35728254
_cell_length_c   17.55748391
_cell_angle_alpha   96.73407085
_cell_angle_beta   90.00000000
_cell_angle_gamma   90.00000000
_symmetry_Int_Tables_number   1
_chemical_formula_structural   RbU3TiTe9
_chemical_formula_sum   'Rb2 U6 Ti2 Te18'
_cell_volume   891.13447755
_cell_formula_units_Z   2
loop_
 _symmetry_equiv_pos_site_id
 _symmetry_equiv_pos_as_xyz
  1  'x, y, z'
loop_
 _atom_site_type_symbol
 _atom_site_label
 _atom_site_symmetry_multiplicity
 _atom_site_fract_x
 _atom_site_fract_y
 _atom_site_fract_z
 _atom_site_occupancy
  Rb  Rb0  1  0.75000000  0.53251576  0.12806799  1
  Rb  Rb1  1  0.25000000  0.46748424  0.87193201  1
  U  U2  1  0.75000000  0.95382183  0.81382380  1
  U  U3  1  0.25000000  0.04617817  0.18617620  1
  U  U4  1  0.75000000  0.89665941  0.59157993  1
  U  U5  1  0.25000000  0.10334059  0.40842007  1
  U  U6  1  0.75000000  0.39939671  0.59517752  1
  U  U7  1  0.25000000  0.60060329  0.40482248  1
  Ti  Ti8  1  0.50000000  0.00000000  -0.00000000  1
  Ti  Ti9  1  0.00000000  0.00000000  -0.00000000  1
  Te  Te10  1  0.49805238  0.82959498  0.29999225  1
  Te  Te11  1  0.99805238  0.17040502  0.70000775  1
  Te  Te12  1  0.50194762  0.17040502  0.70000775  1
  Te  Te13  1  0.00194762  0.82959498  0.29999225  1
  Te  Te14  1  0.50193007  0.67916507  0.70082944  1
  Te  Te15  1  0.00193007  0.32083493  0.29917056  1
  Te  Te16  1  0.49806993  0.32083493  0.29917056  1
  Te  Te17  1  0.99806993  0.67916507  0.70082944  1
  Te  Te18  1  0.75000000  0.73145957  0.93781369  1
  Te  Te19  1  0.25000000  0.26854043  0.06218631  1
  Te  Te20  1  0.75000000  0.61215866  0.46115820  1
  Te  Te21  1  0.25000000  0.38784134  0.53884180  1
  Te  Te22  1  0.75000000  0.23768921  0.93786020  1
  Te  Te23  1  0.25000000  0.76231079  0.06213980  1
  Te  Te24  1  0.75000000  0.11910927  0.46348569  1
  Te  Te25  1  0.25000000  0.88089073  0.53651431  1
  Te  Te26  1  0.75000000  0.03384470  0.13698893  1
  Te  Te27  1  0.25000000  0.96615530  0.86301107  1
