# generated using pymatgen
data_Sr2V3HO9
_symmetry_space_group_name_H-M   'P 1'
_cell_length_a   6.23016620
_cell_length_b   7.71827444
_cell_length_c   8.88997130
_cell_angle_alpha   111.61748053
_cell_angle_beta   90.00000000
_cell_angle_gamma   90.00000000
_symmetry_Int_Tables_number   1
_chemical_formula_structural   Sr2V3HO9
_chemical_formula_sum   'Sr4 V6 H2 O18'
_cell_volume   397.41685532
_cell_formula_units_Z   2
loop_
 _symmetry_equiv_pos_site_id
 _symmetry_equiv_pos_as_xyz
  1  'x, y, z'
loop_
 _atom_site_type_symbol
 _atom_site_label
 _atom_site_symmetry_multiplicity
 _atom_site_fract_x
 _atom_site_fract_y
 _atom_site_fract_z
 _atom_site_occupancy
  Sr  Sr0  1  0.75000000  0.32674471  0.40878490  1
  Sr  Sr1  1  0.25000000  0.67325529  0.59121510  1
  Sr  Sr2  1  0.75000000  0.73552516  0.24862047  1
  Sr  Sr3  1  0.25000000  0.26447484  0.75137953  1
  V  V4  1  0.50000000  -0.00000000  -0.00000000  1
  V  V5  1  -0.00000000  -0.00000000  -0.00000000  1
  V  V6  1  0.25000000  0.03822803  0.34054810  1
  V  V7  1  0.75000000  0.96177197  0.65945190  1
  V  V8  1  0.75000000  0.55776916  0.82241248  1
  V  V9  1  0.25000000  0.44223084  0.17758752  1
  H  H10  1  0.75000000  0.28203035  0.03429438  1
  H  H11  1  0.25000000  0.71796965  0.96570562  1
  O  O12  1  0.49003277  0.98477556  0.22101357  1
  O  O13  1  0.99003277  0.01522444  0.77898643  1
  O  O14  1  0.50996723  0.01522444  0.77898643  1
  O  O15  1  0.00996723  0.98477556  0.22101357  1
  O  O16  1  0.52592273  0.49027149  0.69880879  1
  O  O17  1  0.02592273  0.50972851  0.30119121  1
  O  O18  1  0.47407727  0.50972851  0.30119121  1
  O  O19  1  0.97407727  0.49027149  0.69880879  1
  O  O20  1  0.75000000  0.80665957  0.94174427  1
  O  O21  1  0.25000000  0.19334043  0.05825573  1
  O  O22  1  0.25000000  0.26960147  0.45747353  1
  O  O23  1  0.75000000  0.73039853  0.54252647  1
  O  O24  1  0.75000000  0.18058791  0.08010632  1
  O  O25  1  0.25000000  0.81941209  0.91989368  1
  O  O26  1  0.25000000  0.92033459  0.46902337  1
  O  O27  1  0.75000000  0.07966541  0.53097663  1
  O  O28  1  0.75000000  0.45429669  0.96291883  1
  O  O29  1  0.25000000  0.54570331  0.03708117  1
