# generated using pymatgen
data_Hf9NiW4
_symmetry_space_group_name_H-M   'P 1'
_cell_length_a   8.48196465
_cell_length_b   8.72066685
_cell_length_c   8.72066685
_cell_angle_alpha   119.98350643
_cell_angle_beta   90.00000000
_cell_angle_gamma   90.00000000
_symmetry_Int_Tables_number   1
_chemical_formula_structural   Hf9NiW4
_chemical_formula_sum   'Hf18 Ni2 W8'
_cell_volume   558.72568512
_cell_formula_units_Z   2
loop_
 _symmetry_equiv_pos_site_id
 _symmetry_equiv_pos_as_xyz
  1  'x, y, z'
loop_
 _atom_site_type_symbol
 _atom_site_label
 _atom_site_symmetry_multiplicity
 _atom_site_fract_x
 _atom_site_fract_y
 _atom_site_fract_z
 _atom_site_occupancy
  Hf  Hf0  1  0.55872234  0.80078012  0.60157320  1
  Hf  Hf1  1  0.55871834  0.80078548  0.19921452  1
  Hf  Hf2  1  0.55872234  0.39842680  0.19921988  1
  Hf  Hf3  1  0.44127766  0.19921988  0.39842680  1
  Hf  Hf4  1  0.44128166  0.19921452  0.80078548  1
  Hf  Hf5  1  0.44127766  0.60157320  0.80078012  1
  Hf  Hf6  1  0.05872234  0.19921988  0.39842680  1
  Hf  Hf7  1  0.05871834  0.19921452  0.80078548  1
  Hf  Hf8  1  0.05872234  0.60157320  0.80078012  1
  Hf  Hf9  1  0.94127766  0.80078012  0.60157320  1
  Hf  Hf10  1  0.94128166  0.80078548  0.19921452  1
  Hf  Hf11  1  0.94127766  0.39842680  0.19921988  1
  Hf  Hf12  1  0.75000000  0.45898017  0.91793463  1
  Hf  Hf13  1  0.75000000  0.45897575  0.54102425  1
  Hf  Hf14  1  0.75000000  0.08206537  0.54101983  1
  Hf  Hf15  1  0.25000000  0.54101983  0.08206537  1
  Hf  Hf16  1  0.25000000  0.54102425  0.45897575  1
  Hf  Hf17  1  0.25000000  0.91793463  0.45898017  1
  Ni  Ni18  1  0.75000000  0.66661931  0.33338069  1
  Ni  Ni19  1  0.25000000  0.33338069  0.66661931  1
  W  W20  1  0.75000000  0.11179943  0.22360641  1
  W  W21  1  0.75000000  0.11180152  0.88819848  1
  W  W22  1  0.75000000  0.77639359  0.88820057  1
  W  W23  1  0.25000000  0.88820057  0.77639359  1
  W  W24  1  0.25000000  0.88819848  0.11180152  1
  W  W25  1  0.25000000  0.22360641  0.11179943  1
  W  W26  1  0.50000000  0.00000000  0.00000000  1
  W  W27  1  -0.00000000  0.00000000  0.00000000  1
