# generated using pymatgen
data_Sr14(SnAs4)3
_symmetry_space_group_name_H-M   'P 1'
_cell_length_a   9.59301466
_cell_length_b   9.59301466
_cell_length_c   9.59301487
_cell_angle_alpha   87.04530394
_cell_angle_beta   87.04530394
_cell_angle_gamma   87.04530799
_symmetry_Int_Tables_number   1
_chemical_formula_structural   Sr14(SnAs4)3
_chemical_formula_sum   'Sr14 Sn3 As12'
_cell_volume   879.40201154
_cell_formula_units_Z   1
loop_
 _symmetry_equiv_pos_site_id
 _symmetry_equiv_pos_as_xyz
  1  'x, y, z'
loop_
 _atom_site_type_symbol
 _atom_site_label
 _atom_site_symmetry_multiplicity
 _atom_site_fract_x
 _atom_site_fract_y
 _atom_site_fract_z
 _atom_site_occupancy
  Sr  Sr0  1  0.27096799  0.41336172  0.77403923  1
  Sr  Sr1  1  0.41336172  0.77403923  0.27096799  1
  Sr  Sr2  1  0.77403923  0.27096799  0.41336172  1
  Sr  Sr3  1  0.53745448  0.98866980  0.65284422  1
  Sr  Sr4  1  0.98866980  0.65284422  0.53745448  1
  Sr  Sr5  1  0.65284422  0.53745448  0.98866980  1
  Sr  Sr6  1  0.53583413  0.17439644  0.02090010  1
  Sr  Sr7  1  0.17439644  0.02090010  0.53583413  1
  Sr  Sr8  1  0.02090010  0.53583413  0.17439644  1
  Sr  Sr9  1  0.26587695  0.76394257  0.90912616  1
  Sr  Sr10  1  0.76394257  0.90912616  0.26587695  1
  Sr  Sr11  1  0.90912616  0.26587695  0.76394257  1
  Sr  Sr12  1  0.18744887  0.18744887  0.18744887  1
  Sr  Sr13  1  0.40071297  0.40071297  0.40071297  1
  Sn  Sn14  1  0.00032661  0.00032661  0.00032661  1
  Sn  Sn15  1  0.83607486  0.83607486  0.83607486  1
  Sn  Sn16  1  0.61011329  0.61011329  0.61011329  1
  As  As17  1  0.32920844  0.70339819  0.58787951  1
  As  As18  1  0.70339819  0.58787951  0.32920844  1
  As  As19  1  0.58787951  0.32920844  0.70339819  1
  As  As20  1  0.96847127  0.58602475  0.85930629  1
  As  As21  1  0.58602475  0.85930629  0.96847127  1
  As  As22  1  0.85930629  0.96847127  0.58602475  1
  As  As23  1  0.34242612  0.47312283  0.08443992  1
  As  As24  1  0.47312283  0.08443992  0.34242612  1
  As  As25  1  0.08443992  0.34242612  0.47312283  1
  As  As26  1  0.22610043  0.09726260  0.85499928  1
  As  As27  1  0.09726260  0.85499928  0.22610043  1
  As  As28  1  0.85499928  0.22610043  0.09726260  1
