# generated using pymatgen
data_Y10Cd3Ru
_symmetry_space_group_name_H-M   'P 1'
_cell_length_a   9.63869753
_cell_length_b   9.63869753
_cell_length_c   9.87110622
_cell_angle_alpha   90.00000000
_cell_angle_beta   90.00000000
_cell_angle_gamma   119.99999456
_symmetry_Int_Tables_number   1
_chemical_formula_structural   Y10Cd3Ru
_chemical_formula_sum   'Y20 Cd6 Ru2'
_cell_volume   794.20603803
_cell_formula_units_Z   2
loop_
 _symmetry_equiv_pos_site_id
 _symmetry_equiv_pos_as_xyz
  1  'x, y, z'
loop_
 _atom_site_type_symbol
 _atom_site_label
 _atom_site_symmetry_multiplicity
 _atom_site_fract_x
 _atom_site_fract_y
 _atom_site_fract_z
 _atom_site_occupancy
  Y  Y0  1  -0.00000000  -0.00000000  0.50000000  1
  Y  Y1  1  -0.00000000  -0.00000000  0.00000000  1
  Y  Y2  1  0.79017115  0.58034429  0.56019089  1
  Y  Y3  1  0.79017315  0.20982885  0.56019089  1
  Y  Y4  1  0.41965571  0.20982685  0.56019089  1
  Y  Y5  1  0.20982885  0.41965571  0.43980911  1
  Y  Y6  1  0.20982685  0.79017115  0.43980911  1
  Y  Y7  1  0.58034429  0.79017315  0.43980911  1
  Y  Y8  1  0.20982885  0.41965571  0.06019089  1
  Y  Y9  1  0.20982685  0.79017115  0.06019089  1
  Y  Y10  1  0.58034429  0.79017315  0.06019089  1
  Y  Y11  1  0.79017115  0.58034429  0.93980911  1
  Y  Y12  1  0.79017315  0.20982885  0.93980911  1
  Y  Y13  1  0.41965571  0.20982685  0.93980911  1
  Y  Y14  1  0.45868447  0.91736894  0.75000000  1
  Y  Y15  1  0.45868447  0.54131553  0.75000000  1
  Y  Y16  1  0.08263106  0.54131553  0.75000000  1
  Y  Y17  1  0.54131553  0.08263106  0.25000000  1
  Y  Y18  1  0.54131553  0.45868447  0.25000000  1
  Y  Y19  1  0.91736894  0.45868447  0.25000000  1
  Cd  Cd20  1  0.11456412  0.22912824  0.75000000  1
  Cd  Cd21  1  0.11456412  0.88543588  0.75000000  1
  Cd  Cd22  1  0.77087176  0.88543588  0.75000000  1
  Cd  Cd23  1  0.88543588  0.77087176  0.25000000  1
  Cd  Cd24  1  0.88543588  0.11456412  0.25000000  1
  Cd  Cd25  1  0.22912824  0.11456412  0.25000000  1
  Ru  Ru26  1  0.66666700  0.33333300  0.75000000  1
  Ru  Ru27  1  0.33333300  0.66666700  0.25000000  1
