# generated using pymatgen
data_Cs2Th(AsO4)2
_symmetry_space_group_name_H-M   'P 1'
_cell_length_a   7.42909027
_cell_length_b   7.42909027
_cell_length_c   10.79034361
_cell_angle_alpha   110.13584637
_cell_angle_beta   110.13584637
_cell_angle_gamma   90.00000000
_symmetry_Int_Tables_number   1
_chemical_formula_structural   Cs2Th(AsO4)2
_chemical_formula_sum   'Cs4 Th2 As4 O16'
_cell_volume   520.19399995
_cell_formula_units_Z   2
loop_
 _symmetry_equiv_pos_site_id
 _symmetry_equiv_pos_as_xyz
  1  'x, y, z'
loop_
 _atom_site_type_symbol
 _atom_site_label
 _atom_site_symmetry_multiplicity
 _atom_site_fract_x
 _atom_site_fract_y
 _atom_site_fract_z
 _atom_site_occupancy
  Cs  Cs0  1  0.00000000  0.50000000  0.50000000  1
  Cs  Cs1  1  0.50000000  0.00000000  0.00000000  1
  Cs  Cs2  1  0.50000000  0.50000000  0.00000000  1
  Cs  Cs3  1  0.50000000  0.50000000  0.50000000  1
  Th  Th4  1  0.87500000  0.12500000  0.75000000  1
  Th  Th5  1  0.12500000  0.87500000  0.25000000  1
  As  As6  1  0.70082973  0.95082973  0.40165946  1
  As  As7  1  0.95082973  0.70082973  0.90165946  1
  As  As8  1  0.29917027  0.04917027  0.59834054  1
  As  As9  1  0.04917027  0.29917027  0.09834054  1
  O  O10  1  0.83072314  0.89583496  0.29166992  1
  O  O11  1  0.89583496  0.83072314  0.79166992  1
  O  O12  1  0.89583496  0.46094678  0.79166992  1
  O  O13  1  0.46094678  0.89583496  0.29166992  1
  O  O14  1  0.16927686  0.10416504  0.70833008  1
  O  O15  1  0.10416504  0.16927686  0.20833008  1
  O  O16  1  0.10416504  0.53905322  0.20833008  1
  O  O17  1  0.53905322  0.10416504  0.70833008  1
  O  O18  1  0.75924767  0.83093866  0.51849534  1
  O  O19  1  0.75924767  0.18755669  0.51849534  1
  O  O20  1  0.83093866  0.75924767  0.01849534  1
  O  O21  1  0.18755669  0.75924767  0.01849534  1
  O  O22  1  0.24075233  0.16906134  0.48150466  1
  O  O23  1  0.24075233  0.81244331  0.48150466  1
  O  O24  1  0.16906134  0.24075233  0.98150466  1
  O  O25  1  0.81244331  0.24075233  0.98150466  1
