# generated using pymatgen
data_K(GeAs)3
_symmetry_space_group_name_H-M   'P 1'
_cell_length_a   3.87500357
_cell_length_b   10.14849252
_cell_length_c   18.93880153
_cell_angle_alpha   90.00000000
_cell_angle_beta   90.00000000
_cell_angle_gamma   90.00000000
_symmetry_Int_Tables_number   1
_chemical_formula_structural   K(GeAs)3
_chemical_formula_sum   'K4 Ge12 As12'
_cell_volume   744.77679311
_cell_formula_units_Z   4
loop_
 _symmetry_equiv_pos_site_id
 _symmetry_equiv_pos_as_xyz
  1  'x, y, z'
loop_
 _atom_site_type_symbol
 _atom_site_label
 _atom_site_symmetry_multiplicity
 _atom_site_fract_x
 _atom_site_fract_y
 _atom_site_fract_z
 _atom_site_occupancy
  K  K0  1  0.75000000  0.27869215  0.95741932  1
  K  K1  1  0.75000000  0.77869215  0.54258068  1
  K  K2  1  0.25000000  0.72130785  0.04258068  1
  K  K3  1  0.25000000  0.22130785  0.45741932  1
  Ge  Ge4  1  0.75000000  0.19230114  0.65671131  1
  Ge  Ge5  1  0.75000000  0.69230114  0.84328869  1
  Ge  Ge6  1  0.25000000  0.80769886  0.34328869  1
  Ge  Ge7  1  0.25000000  0.30769886  0.15671131  1
  Ge  Ge8  1  0.75000000  0.08644239  0.25626251  1
  Ge  Ge9  1  0.75000000  0.58644239  0.24373749  1
  Ge  Ge10  1  0.25000000  0.91355761  0.74373749  1
  Ge  Ge11  1  0.25000000  0.41355761  0.75626251  1
  Ge  Ge12  1  0.75000000  0.97942403  0.13126720  1
  Ge  Ge13  1  0.75000000  0.47942403  0.36873280  1
  Ge  Ge14  1  0.25000000  0.02057597  0.86873280  1
  Ge  Ge15  1  0.25000000  0.52057597  0.63126720  1
  As  As16  1  0.75000000  0.45613923  0.13070807  1
  As  As17  1  0.75000000  0.95613923  0.36929193  1
  As  As18  1  0.25000000  0.54386077  0.86929193  1
  As  As19  1  0.25000000  0.04386077  0.63070807  1
  As  As20  1  0.75000000  0.38594048  0.57950670  1
  As  As21  1  0.75000000  0.88594048  0.92049330  1
  As  As22  1  0.25000000  0.61405952  0.42049330  1
  As  As23  1  0.25000000  0.11405952  0.07950670  1
  As  As24  1  0.75000000  0.26122636  0.78121759  1
  As  As25  1  0.75000000  0.76122636  0.71878241  1
  As  As26  1  0.25000000  0.73877364  0.21878241  1
  As  As27  1  0.25000000  0.23877364  0.28121759  1
