# generated using pymatgen
data_CsPPbO4
_symmetry_space_group_name_H-M   'P 1'
_cell_length_a   5.80160765
_cell_length_b   9.16267512
_cell_length_c   10.08387486
_cell_angle_alpha   90.00000000
_cell_angle_beta   90.00000000
_cell_angle_gamma   90.00000000
_symmetry_Int_Tables_number   1
_chemical_formula_structural   CsPPbO4
_chemical_formula_sum   'Cs4 P4 Pb4 O16'
_cell_volume   536.04110115
_cell_formula_units_Z   4
loop_
 _symmetry_equiv_pos_site_id
 _symmetry_equiv_pos_as_xyz
  1  'x, y, z'
loop_
 _atom_site_type_symbol
 _atom_site_label
 _atom_site_symmetry_multiplicity
 _atom_site_fract_x
 _atom_site_fract_y
 _atom_site_fract_z
 _atom_site_occupancy
  Cs  Cs0  1  0.75000000  0.64797010  0.02296770  1
  Cs  Cs1  1  0.75000000  0.85202990  0.52296770  1
  Cs  Cs2  1  0.25000000  0.35202990  0.97703230  1
  Cs  Cs3  1  0.25000000  0.14797010  0.47703230  1
  P  P4  1  0.75000000  0.09064454  0.83503621  1
  P  P5  1  0.75000000  0.40935546  0.33503621  1
  P  P6  1  0.25000000  0.90935546  0.16496379  1
  P  P7  1  0.25000000  0.59064454  0.66496379  1
  Pb  Pb8  1  0.75000000  0.08759216  0.15721616  1
  Pb  Pb9  1  0.75000000  0.41240784  0.65721616  1
  Pb  Pb10  1  0.25000000  0.91240784  0.84278384  1
  Pb  Pb11  1  0.25000000  0.58759216  0.34278384  1
  O  O12  1  0.75000000  0.96540368  0.94211318  1
  O  O13  1  0.75000000  0.53459632  0.44211318  1
  O  O14  1  0.25000000  0.03459632  0.05788682  1
  O  O15  1  0.25000000  0.46540368  0.55788682  1
  O  O16  1  0.75000000  0.24212820  0.90336116  1
  O  O17  1  0.75000000  0.25787180  0.40336116  1
  O  O18  1  0.25000000  0.75787180  0.09663884  1
  O  O19  1  0.25000000  0.74212820  0.59663884  1
  O  O20  1  0.97046010  0.07193014  0.74651956  1
  O  O21  1  0.52953990  0.42806986  0.24651956  1
  O  O22  1  0.47046010  0.92806986  0.25348044  1
  O  O23  1  0.02953990  0.57193014  0.75348044  1
  O  O24  1  0.02953990  0.92806986  0.25348044  1
  O  O25  1  0.47046010  0.57193014  0.75348044  1
  O  O26  1  0.52953990  0.07193014  0.74651956  1
  O  O27  1  0.97046010  0.42806986  0.24651956  1
