# generated using pymatgen
data_Pb2SeN2O9
_symmetry_space_group_name_H-M   'P 1'
_cell_length_a   5.58190711
_cell_length_b   7.42154691
_cell_length_c   10.51590454
_cell_angle_alpha   90.00000000
_cell_angle_beta   90.00000000
_cell_angle_gamma   90.00000000
_symmetry_Int_Tables_number   1
_chemical_formula_structural   Pb2SeN2O9
_chemical_formula_sum   'Pb4 Se2 N4 O18'
_cell_volume   435.63591498
_cell_formula_units_Z   2
loop_
 _symmetry_equiv_pos_site_id
 _symmetry_equiv_pos_as_xyz
  1  'x, y, z'
loop_
 _atom_site_type_symbol
 _atom_site_label
 _atom_site_symmetry_multiplicity
 _atom_site_fract_x
 _atom_site_fract_y
 _atom_site_fract_z
 _atom_site_occupancy
  Pb  Pb0  1  0.50000000  0.89128764  0.84414732  1
  Pb  Pb1  1  0.00000000  0.39128764  0.15585268  1
  Pb  Pb2  1  0.50000000  0.07133918  0.47744409  1
  Pb  Pb3  1  0.00000000  0.57133918  0.52255591  1
  Se  Se4  1  0.50000000  0.63555627  0.32020976  1
  Se  Se5  1  -0.00000000  0.13555627  0.67979024  1
  N  N6  1  0.50000000  0.26508852  -0.00007458  1
  N  N7  1  -0.00000000  0.76508852  0.00007458  1
  N  N8  1  0.00000000  0.00675014  0.28111159  1
  N  N9  1  0.50000000  0.50675014  0.71888841  1
  O  O10  1  0.50000000  0.74350619  0.46604448  1
  O  O11  1  0.00000000  0.24350619  0.53395552  1
  O  O12  1  0.25761818  0.49015523  0.34232858  1
  O  O13  1  0.74238182  0.49015523  0.34232858  1
  O  O14  1  0.24238182  0.99015523  0.65767142  1
  O  O15  1  0.75761818  0.99015523  0.65767142  1
  O  O16  1  0.50000000  0.37318313  0.09317128  1
  O  O17  1  -0.00000000  0.87318313  0.90682872  1
  O  O18  1  0.30288842  0.20987034  0.95393392  1
  O  O19  1  0.69711158  0.20987034  0.95393392  1
  O  O20  1  0.19711158  0.70987034  0.04606608  1
  O  O21  1  0.80288842  0.70987034  0.04606608  1
  O  O22  1  0.50000000  0.36914856  0.65021678  1
  O  O23  1  0.00000000  0.86914856  0.34978322  1
  O  O24  1  0.19693937  0.07906962  0.24643623  1
  O  O25  1  0.80306063  0.07906962  0.24643623  1
  O  O26  1  0.30306063  0.57906962  0.75356377  1
  O  O27  1  0.69693937  0.57906962  0.75356377  1
