# generated using pymatgen
data_CsP(OF)2
_symmetry_space_group_name_H-M   'P 1'
_cell_length_a   6.98741986
_cell_length_b   8.33278223
_cell_length_c   8.71250133
_cell_angle_alpha   90.00000000
_cell_angle_beta   90.00000000
_cell_angle_gamma   90.00000000
_symmetry_Int_Tables_number   1
_chemical_formula_structural   CsP(OF)2
_chemical_formula_sum   'Cs4 P4 O8 F8'
_cell_volume   507.28232351
_cell_formula_units_Z   4
loop_
 _symmetry_equiv_pos_site_id
 _symmetry_equiv_pos_as_xyz
  1  'x, y, z'
loop_
 _atom_site_type_symbol
 _atom_site_label
 _atom_site_symmetry_multiplicity
 _atom_site_fract_x
 _atom_site_fract_y
 _atom_site_fract_z
 _atom_site_occupancy
  Cs  Cs0  1  0.25000000  0.35769886  0.63654961  1
  Cs  Cs1  1  0.25000000  0.14230114  0.13654961  1
  Cs  Cs2  1  0.75000000  0.64230114  0.36345039  1
  Cs  Cs3  1  0.75000000  0.85769886  0.86345039  1
  P  P4  1  0.25000000  0.81832680  0.61195896  1
  P  P5  1  0.25000000  0.68167320  0.11195896  1
  P  P6  1  0.75000000  0.18167320  0.38804104  1
  P  P7  1  0.75000000  0.31832680  0.88804104  1
  O  O8  1  0.06284920  0.73389859  0.61331281  1
  O  O9  1  0.43715080  0.76610141  0.11331281  1
  O  O10  1  0.56284920  0.26610141  0.38668719  1
  O  O11  1  0.93715080  0.23389859  0.88668719  1
  O  O12  1  0.93715080  0.26610141  0.38668719  1
  O  O13  1  0.56284920  0.23389859  0.88668719  1
  O  O14  1  0.43715080  0.73389859  0.61331281  1
  O  O15  1  0.06284920  0.76610141  0.11331281  1
  F  F16  1  0.25000000  0.94902967  0.74813700  1
  F  F17  1  0.25000000  0.55097033  0.24813700  1
  F  F18  1  0.75000000  0.05097033  0.25186300  1
  F  F19  1  0.75000000  0.44902967  0.75186300  1
  F  F20  1  0.25000000  0.94426496  0.47300176  1
  F  F21  1  0.25000000  0.55573504  0.97300176  1
  F  F22  1  0.75000000  0.05573504  0.52699824  1
  F  F23  1  0.75000000  0.44426496  0.02699824  1
