# generated using pymatgen
data_Cs3SnTe3
_symmetry_space_group_name_H-M   'P 1'
_cell_length_a   10.55194422
_cell_length_b   11.62005076
_cell_length_c   11.62005076
_cell_angle_alpha   79.05233179
_cell_angle_beta   85.19282190
_cell_angle_gamma   85.19282190
_symmetry_Int_Tables_number   1
_chemical_formula_structural   Cs3SnTe3
_chemical_formula_sum   'Cs12 Sn4 Te12'
_cell_volume   1390.57227318
_cell_formula_units_Z   4
loop_
 _symmetry_equiv_pos_site_id
 _symmetry_equiv_pos_as_xyz
  1  'x, y, z'
loop_
 _atom_site_type_symbol
 _atom_site_label
 _atom_site_symmetry_multiplicity
 _atom_site_fract_x
 _atom_site_fract_y
 _atom_site_fract_z
 _atom_site_occupancy
  Cs  Cs0  1  0.25000000  0.39604950  0.60395050  1
  Cs  Cs1  1  0.75000000  0.60395050  0.39604950  1
  Cs  Cs2  1  0.25000000  0.08575515  0.91424485  1
  Cs  Cs3  1  0.75000000  0.91424485  0.08575515  1
  Cs  Cs4  1  0.86380549  0.40313443  0.78618891  1
  Cs  Cs5  1  0.63619451  0.21381109  0.59686557  1
  Cs  Cs6  1  0.13619451  0.59686557  0.21381109  1
  Cs  Cs7  1  0.36380549  0.78618891  0.40313443  1
  Cs  Cs8  1  0.68557527  0.80777023  0.75488335  1
  Cs  Cs9  1  0.81442473  0.24511665  0.19222977  1
  Cs  Cs10  1  0.31442473  0.19222977  0.24511665  1
  Cs  Cs11  1  0.18557527  0.75488335  0.80777023  1
  Sn  Sn12  1  0.45478974  0.43439276  0.91723284  1
  Sn  Sn13  1  0.04521026  0.08276716  0.56560724  1
  Sn  Sn14  1  0.54521026  0.56560724  0.08276716  1
  Sn  Sn15  1  0.95478974  0.91723284  0.43439276  1
  Te  Te16  1  0.80914788  0.58111598  0.04733231  1
  Te  Te17  1  0.69085212  0.95266769  0.41888402  1
  Te  Te18  1  0.19085212  0.41888402  0.95266769  1
  Te  Te19  1  0.30914788  0.04733231  0.58111598  1
  Te  Te20  1  0.42319116  0.78923117  0.05023114  1
  Te  Te21  1  0.07680884  0.94976886  0.21076883  1
  Te  Te22  1  0.57680884  0.21076883  0.94976886  1
  Te  Te23  1  0.92319116  0.05023114  0.78923117  1
  Te  Te24  1  0.52275075  0.54909159  0.68795450  1
  Te  Te25  1  0.97724925  0.31204550  0.45090841  1
  Te  Te26  1  0.47724925  0.45090841  0.31204550  1
  Te  Te27  1  0.02275075  0.68795450  0.54909159  1
