# generated using pymatgen
data_Sr(YSe2)2
_symmetry_space_group_name_H-M   'P 1'
_cell_length_a   4.15307694
_cell_length_b   12.76120884
_cell_length_c   15.01164906
_cell_angle_alpha   90.00000000
_cell_angle_beta   90.00000000
_cell_angle_gamma   90.00000000
_symmetry_Int_Tables_number   1
_chemical_formula_structural   Sr(YSe2)2
_chemical_formula_sum   'Sr4 Y8 Se16'
_cell_volume   795.59161257
_cell_formula_units_Z   4
loop_
 _symmetry_equiv_pos_site_id
 _symmetry_equiv_pos_as_xyz
  1  'x, y, z'
loop_
 _atom_site_type_symbol
 _atom_site_label
 _atom_site_symmetry_multiplicity
 _atom_site_fract_x
 _atom_site_fract_y
 _atom_site_fract_z
 _atom_site_occupancy
  Sr  Sr0  1  0.75000000  0.73912143  0.16936082  1
  Sr  Sr1  1  0.75000000  0.23912143  0.33063918  1
  Sr  Sr2  1  0.25000000  0.26087857  0.83063918  1
  Sr  Sr3  1  0.25000000  0.76087857  0.66936082  1
  Y  Y4  1  0.75000000  0.05767965  0.11094911  1
  Y  Y5  1  0.75000000  0.55767965  0.38905089  1
  Y  Y6  1  0.25000000  0.94232035  0.88905089  1
  Y  Y7  1  0.25000000  0.44232035  0.61094911  1
  Y  Y8  1  0.75000000  0.08623657  0.59585293  1
  Y  Y9  1  0.75000000  0.58623657  0.90414707  1
  Y  Y10  1  0.25000000  0.91376343  0.40414707  1
  Y  Y11  1  0.25000000  0.41376343  0.09585293  1
  Se  Se12  1  0.75000000  0.29801624  0.67010381  1
  Se  Se13  1  0.75000000  0.79801624  0.82989619  1
  Se  Se14  1  0.25000000  0.70198376  0.32989619  1
  Se  Se15  1  0.25000000  0.20198376  0.17010381  1
  Se  Se16  1  0.75000000  0.37196169  0.96614289  1
  Se  Se17  1  0.75000000  0.87196169  0.53385711  1
  Se  Se18  1  0.25000000  0.62803831  0.03385711  1
  Se  Se19  1  0.25000000  0.12803831  0.46614289  1
  Se  Se20  1  0.75000000  0.46694737  0.21547991  1
  Se  Se21  1  0.75000000  0.96694737  0.28452009  1
  Se  Se22  1  0.25000000  0.53305263  0.78452009  1
  Se  Se23  1  0.25000000  0.03305263  0.71547991  1
  Se  Se24  1  0.75000000  0.09320996  0.92343398  1
  Se  Se25  1  0.75000000  0.59320996  0.57656602  1
  Se  Se26  1  0.25000000  0.90679004  0.07656602  1
  Se  Se27  1  0.25000000  0.40679004  0.42343398  1
