# generated using pymatgen
data_Ba(GdS2)2
_symmetry_space_group_name_H-M   'P 1'
_cell_length_a   4.10638642
_cell_length_b   12.44659386
_cell_length_c   14.63842217
_cell_angle_alpha   90.00000000
_cell_angle_beta   90.00000000
_cell_angle_gamma   90.00000000
_symmetry_Int_Tables_number   1
_chemical_formula_structural   Ba(GdS2)2
_chemical_formula_sum   'Ba4 Gd8 S16'
_cell_volume   748.17742767
_cell_formula_units_Z   4
loop_
 _symmetry_equiv_pos_site_id
 _symmetry_equiv_pos_as_xyz
  1  'x, y, z'
loop_
 _atom_site_type_symbol
 _atom_site_label
 _atom_site_symmetry_multiplicity
 _atom_site_fract_x
 _atom_site_fract_y
 _atom_site_fract_z
 _atom_site_occupancy
  Ba  Ba0  1  0.75000000  0.74083982  0.16228946  1
  Ba  Ba1  1  0.75000000  0.24083982  0.33771054  1
  Ba  Ba2  1  0.25000000  0.25916018  0.83771054  1
  Ba  Ba3  1  0.25000000  0.75916018  0.66228946  1
  Gd  Gd4  1  0.75000000  0.06612690  0.10997757  1
  Gd  Gd5  1  0.75000000  0.56612690  0.39002243  1
  Gd  Gd6  1  0.25000000  0.93387310  0.89002243  1
  Gd  Gd7  1  0.25000000  0.43387310  0.60997757  1
  Gd  Gd8  1  0.75000000  0.08070020  0.60114505  1
  Gd  Gd9  1  0.75000000  0.58070020  0.89885495  1
  Gd  Gd10  1  0.25000000  0.91929980  0.39885495  1
  Gd  Gd11  1  0.25000000  0.41929980  0.10114505  1
  S  S12  1  0.75000000  0.29499681  0.66547118  1
  S  S13  1  0.75000000  0.79499681  0.83452882  1
  S  S14  1  0.25000000  0.70500319  0.33452882  1
  S  S15  1  0.25000000  0.20500319  0.16547118  1
  S  S16  1  0.75000000  0.37673975  0.97553692  1
  S  S17  1  0.75000000  0.87673975  0.52446308  1
  S  S18  1  0.25000000  0.62326025  0.02446308  1
  S  S19  1  0.25000000  0.12326025  0.47553692  1
  S  S20  1  0.75000000  0.97534014  0.28289635  1
  S  S21  1  0.75000000  0.47534014  0.21710365  1
  S  S22  1  0.25000000  0.02465986  0.71710365  1
  S  S23  1  0.25000000  0.52465986  0.78289635  1
  S  S24  1  0.75000000  0.08159024  0.92307106  1
  S  S25  1  0.75000000  0.58159024  0.57692894  1
  S  S26  1  0.25000000  0.91840976  0.07692894  1
  S  S27  1  0.25000000  0.41840976  0.42307106  1
