# generated using pymatgen
data_KHg6
_symmetry_space_group_name_H-M   'P 1'
_cell_length_a   5.71997289
_cell_length_b   10.95115375
_cell_length_c   14.06264507
_cell_angle_alpha   90.00000000
_cell_angle_beta   90.00000000
_cell_angle_gamma   90.00000000
_symmetry_Int_Tables_number   1
_chemical_formula_structural   KHg6
_chemical_formula_sum   'K4 Hg24'
_cell_volume   880.88834204
_cell_formula_units_Z   4
loop_
 _symmetry_equiv_pos_site_id
 _symmetry_equiv_pos_as_xyz
  1  'x, y, z'
loop_
 _atom_site_type_symbol
 _atom_site_label
 _atom_site_symmetry_multiplicity
 _atom_site_fract_x
 _atom_site_fract_y
 _atom_site_fract_z
 _atom_site_occupancy
  K  K0  1  0.25000000  0.12936488  0.81832485  1
  K  K1  1  0.25000000  0.37063512  0.31832485  1
  K  K2  1  0.75000000  0.87063512  0.18167515  1
  K  K3  1  0.75000000  0.62936488  0.68167515  1
  Hg  Hg4  1  0.25000000  0.14508044  0.54417207  1
  Hg  Hg5  1  0.25000000  0.35491956  0.04417207  1
  Hg  Hg6  1  0.75000000  0.85491956  0.45582793  1
  Hg  Hg7  1  0.75000000  0.64508044  0.95582793  1
  Hg  Hg8  1  0.25000000  0.86996863  0.59746581  1
  Hg  Hg9  1  0.25000000  0.63003137  0.09746581  1
  Hg  Hg10  1  0.75000000  0.13003137  0.40253419  1
  Hg  Hg11  1  0.75000000  0.36996863  0.90253419  1
  Hg  Hg12  1  0.25000000  0.40254823  0.63573930  1
  Hg  Hg13  1  0.25000000  0.09745177  0.13573930  1
  Hg  Hg14  1  0.75000000  0.59745177  0.36426070  1
  Hg  Hg15  1  0.75000000  0.90254823  0.86426070  1
  Hg  Hg16  1  0.25000000  0.77587647  0.80540274  1
  Hg  Hg17  1  0.25000000  0.72412353  0.30540274  1
  Hg  Hg18  1  0.75000000  0.22412353  0.19459726  1
  Hg  Hg19  1  0.75000000  0.27587647  0.69459726  1
  Hg  Hg20  1  0.25000000  0.50222062  0.84830071  1
  Hg  Hg21  1  0.25000000  -0.00222062  0.34830071  1
  Hg  Hg22  1  0.75000000  0.49777938  0.15169929  1
  Hg  Hg23  1  0.75000000  0.00222062  0.65169929  1
  Hg  Hg24  1  0.25000000  0.87677214  0.00717697  1
  Hg  Hg25  1  0.25000000  0.62322786  0.50717697  1
  Hg  Hg26  1  0.75000000  0.12322786  0.99282303  1
  Hg  Hg27  1  0.75000000  0.37677214  0.49282303  1
