# generated using pymatgen
data_Gd11In9Ni4
_symmetry_space_group_name_H-M   'P 1'
_cell_length_a   3.66891458
_cell_length_b   13.10826191
_cell_length_c   13.10826191
_cell_angle_alpha   111.15375589
_cell_angle_beta   90.00000000
_cell_angle_gamma   90.00000000
_symmetry_Int_Tables_number   1
_chemical_formula_structural   Gd11In9Ni4
_chemical_formula_sum   'Gd11 In9 Ni4'
_cell_volume   587.93645451
_cell_formula_units_Z   1
loop_
 _symmetry_equiv_pos_site_id
 _symmetry_equiv_pos_as_xyz
  1  'x, y, z'
loop_
 _atom_site_type_symbol
 _atom_site_label
 _atom_site_symmetry_multiplicity
 _atom_site_fract_x
 _atom_site_fract_y
 _atom_site_fract_z
 _atom_site_occupancy
  Gd  Gd0  1  0.00000000  0.92422445  0.58219462  1
  Gd  Gd1  1  0.00000000  0.07577555  0.41780538  1
  Gd  Gd2  1  0.00000000  0.58219462  0.92422445  1
  Gd  Gd3  1  0.00000000  0.41780538  0.07577555  1
  Gd  Gd4  1  0.00000000  0.15729698  0.84270302  1
  Gd  Gd5  1  0.00000000  0.84270302  0.15729698  1
  Gd  Gd6  1  0.00000000  0.37419388  0.62580612  1
  Gd  Gd7  1  0.00000000  0.62580612  0.37419388  1
  Gd  Gd8  1  0.00000000  0.68798197  0.68798197  1
  Gd  Gd9  1  0.00000000  0.31201803  0.31201803  1
  Gd  Gd10  1  0.00000000  0.00000000  -0.00000000  1
  In  In11  1  0.50000000  0.16189262  0.63309725  1
  In  In12  1  0.50000000  0.83810738  0.36690275  1
  In  In13  1  0.50000000  0.63309725  0.16189262  1
  In  In14  1  0.50000000  0.36690275  0.83810738  1
  In  In15  1  0.50000000  0.92201776  0.78032022  1
  In  In16  1  0.50000000  0.07798224  0.21967978  1
  In  In17  1  0.50000000  0.78032022  0.92201776  1
  In  In18  1  0.50000000  0.21967978  0.07798224  1
  In  In19  1  0.50000000  0.50000000  0.50000000  1
  Ni  Ni20  1  0.50000000  0.75650355  0.55073304  1
  Ni  Ni21  1  0.50000000  0.24349645  0.44926696  1
  Ni  Ni22  1  0.50000000  0.55073304  0.75650355  1
  Ni  Ni23  1  0.50000000  0.44926696  0.24349645  1
