# generated using pymatgen
data_Rb2MoSe4
_symmetry_space_group_name_H-M   'P 1'
_cell_length_a   7.44151392
_cell_length_b   10.25960184
_cell_length_c   13.25612974
_cell_angle_alpha   90.00000000
_cell_angle_beta   90.00000000
_cell_angle_gamma   90.00000000
_symmetry_Int_Tables_number   1
_chemical_formula_structural   Rb2MoSe4
_chemical_formula_sum   'Rb8 Mo4 Se16'
_cell_volume   1012.06533833
_cell_formula_units_Z   4
loop_
 _symmetry_equiv_pos_site_id
 _symmetry_equiv_pos_as_xyz
  1  'x, y, z'
loop_
 _atom_site_type_symbol
 _atom_site_label
 _atom_site_symmetry_multiplicity
 _atom_site_fract_x
 _atom_site_fract_y
 _atom_site_fract_z
 _atom_site_occupancy
  Rb  Rb0  1  0.75000000  0.04689648  0.66022294  1
  Rb  Rb1  1  0.75000000  0.54689648  0.83977706  1
  Rb  Rb2  1  0.25000000  0.95310352  0.33977706  1
  Rb  Rb3  1  0.25000000  0.45310352  0.16022294  1
  Rb  Rb4  1  0.75000000  0.34516087  0.38527184  1
  Rb  Rb5  1  0.75000000  0.84516087  0.11472816  1
  Rb  Rb6  1  0.25000000  0.65483913  0.61472816  1
  Rb  Rb7  1  0.25000000  0.15483913  0.88527184  1
  Mo  Mo8  1  0.75000000  0.25382553  0.06941888  1
  Mo  Mo9  1  0.75000000  0.75382553  0.43058112  1
  Mo  Mo10  1  0.25000000  0.74617447  0.93058112  1
  Mo  Mo11  1  0.25000000  0.24617447  0.56941888  1
  Se  Se12  1  0.50299186  0.34483251  0.63912112  1
  Se  Se13  1  0.99700814  0.84483251  0.86087888  1
  Se  Se14  1  0.00299186  0.65516749  0.36087888  1
  Se  Se15  1  0.49700814  0.15516749  0.13912112  1
  Se  Se16  1  0.49700814  0.65516749  0.36087888  1
  Se  Se17  1  0.00299186  0.15516749  0.13912112  1
  Se  Se18  1  0.99700814  0.34483251  0.63912112  1
  Se  Se19  1  0.50299186  0.84483251  0.86087888  1
  Se  Se20  1  0.75000000  0.97741335  0.39301378  1
  Se  Se21  1  0.75000000  0.47741335  0.10698622  1
  Se  Se22  1  0.25000000  0.02258665  0.60698622  1
  Se  Se23  1  0.25000000  0.52258665  0.89301378  1
  Se  Se24  1  0.75000000  0.21803786  0.89549529  1
  Se  Se25  1  0.75000000  0.71803786  0.60450471  1
  Se  Se26  1  0.25000000  0.78196214  0.10450471  1
  Se  Se27  1  0.25000000  0.28196214  0.39549529  1
