# generated using pymatgen
data_Rb2WSe4
_symmetry_space_group_name_H-M   'P 1'
_cell_length_a   7.46334655
_cell_length_b   10.30113103
_cell_length_c   13.17894999
_cell_angle_alpha   90.00000000
_cell_angle_beta   90.00000000
_cell_angle_gamma   90.00000000
_symmetry_Int_Tables_number   1
_chemical_formula_structural   Rb2WSe4
_chemical_formula_sum   'Rb8 W4 Se16'
_cell_volume   1013.20967775
_cell_formula_units_Z   4
loop_
 _symmetry_equiv_pos_site_id
 _symmetry_equiv_pos_as_xyz
  1  'x, y, z'
loop_
 _atom_site_type_symbol
 _atom_site_label
 _atom_site_symmetry_multiplicity
 _atom_site_fract_x
 _atom_site_fract_y
 _atom_site_fract_z
 _atom_site_occupancy
  Rb  Rb0  1  0.75000000  0.04686419  0.65794015  1
  Rb  Rb1  1  0.75000000  0.54686419  0.84205985  1
  Rb  Rb2  1  0.25000000  0.95313581  0.34205985  1
  Rb  Rb3  1  0.25000000  0.45313581  0.15794015  1
  Rb  Rb4  1  0.75000000  0.34290448  0.38507902  1
  Rb  Rb5  1  0.75000000  0.84290448  0.11492098  1
  Rb  Rb6  1  0.25000000  0.65709552  0.61492098  1
  Rb  Rb7  1  0.25000000  0.15709552  0.88507902  1
  W  W8  1  0.75000000  0.25087272  0.06977639  1
  W  W9  1  0.75000000  0.75087272  0.43022361  1
  W  W10  1  0.25000000  0.74912728  0.93022361  1
  W  W11  1  0.25000000  0.24912728  0.56977639  1
  Se  Se12  1  0.99727855  0.34904681  0.63801524  1
  Se  Se13  1  0.50272145  0.84904681  0.86198476  1
  Se  Se14  1  0.49727855  0.65095319  0.36198476  1
  Se  Se15  1  0.00272145  0.15095319  0.13801524  1
  Se  Se16  1  0.00272145  0.65095319  0.36198476  1
  Se  Se17  1  0.49727855  0.15095319  0.13801524  1
  Se  Se18  1  0.50272145  0.34904681  0.63801524  1
  Se  Se19  1  0.99727855  0.84904681  0.86198476  1
  Se  Se20  1  0.75000000  0.47298661  0.11283839  1
  Se  Se21  1  0.75000000  0.97298661  0.38716161  1
  Se  Se22  1  0.25000000  0.52701339  0.88716161  1
  Se  Se23  1  0.25000000  0.02701339  0.61283839  1
  Se  Se24  1  0.75000000  0.22022464  0.89412321  1
  Se  Se25  1  0.75000000  0.72022464  0.60587679  1
  Se  Se26  1  0.25000000  0.77977536  0.10587679  1
  Se  Se27  1  0.25000000  0.27977536  0.39412321  1
