# generated using pymatgen
data_Mn2Sb3I3O5
_symmetry_space_group_name_H-M   'P 1'
_cell_length_a   6.52306501
_cell_length_b   10.00688040
_cell_length_c   10.50123393
_cell_angle_alpha   96.66563729
_cell_angle_beta   107.96871499
_cell_angle_gamma   91.40854044
_symmetry_Int_Tables_number   1
_chemical_formula_structural   Mn2Sb3I3O5
_chemical_formula_sum   'Mn4 Sb6 I6 O10'
_cell_volume   646.30788592
_cell_formula_units_Z   2
loop_
 _symmetry_equiv_pos_site_id
 _symmetry_equiv_pos_as_xyz
  1  'x, y, z'
loop_
 _atom_site_type_symbol
 _atom_site_label
 _atom_site_symmetry_multiplicity
 _atom_site_fract_x
 _atom_site_fract_y
 _atom_site_fract_z
 _atom_site_occupancy
  Mn  Mn0  1  0.27867506  0.58252303  0.00249087  1
  Mn  Mn1  1  0.72132494  0.41747697  0.99750913  1
  Mn  Mn2  1  0.74989816  0.69435058  0.26362571  1
  Mn  Mn3  1  0.25010184  0.30564942  0.73637429  1
  Sb  Sb4  1  0.22481763  0.84264213  0.22541538  1
  Sb  Sb5  1  0.77518237  0.15735787  0.77458462  1
  Sb  Sb6  1  0.23725877  0.26945927  0.07634297  1
  Sb  Sb7  1  0.76274123  0.73054073  0.92365703  1
  Sb  Sb8  1  0.29473732  0.55259363  0.33251245  1
  Sb  Sb9  1  0.70526268  0.44740637  0.66748755  1
  I  I10  1  0.74550611  0.40001234  0.29827327  1
  I  I11  1  0.25449389  0.59998766  0.70172673  1
  I  I12  1  0.76471035  0.96904594  0.18317038  1
  I  I13  1  0.23528965  0.03095406  0.81682962  1
  I  I14  1  0.68586578  0.79516783  0.52712514  1
  I  I15  1  0.31413422  0.20483217  0.47287486  1
  O  O16  1  0.14348792  0.45088826  0.14500037  1
  O  O17  1  0.85651208  0.54911174  0.85499963  1
  O  O18  1  0.34633995  0.37608533  0.95770322  1
  O  O19  1  0.65366005  0.62391467  0.04229678  1
  O  O20  1  0.41097840  0.67317268  0.21858138  1
  O  O21  1  0.58902160  0.32682732  0.78141862  1
  O  O22  1  0.08464222  0.75316211  0.03287818  1
  O  O23  1  0.91535778  0.24683789  0.96712182  1
  O  O24  1  0.08530616  0.70667601  0.30896511  1
  O  O25  1  0.91469384  0.29332399  0.69103489  1
