# generated using pymatgen
data_Sc3Si3Ru
_symmetry_space_group_name_H-M   'P 1'
_cell_length_a   3.99848441
_cell_length_b   10.30937426
_cell_length_c   11.72848838
_cell_angle_alpha   90.00000000
_cell_angle_beta   90.00000000
_cell_angle_gamma   90.00000000
_symmetry_Int_Tables_number   1
_chemical_formula_structural   Sc3Si3Ru
_chemical_formula_sum   'Sc12 Si12 Ru4'
_cell_volume   483.47024975
_cell_formula_units_Z   4
loop_
 _symmetry_equiv_pos_site_id
 _symmetry_equiv_pos_as_xyz
  1  'x, y, z'
loop_
 _atom_site_type_symbol
 _atom_site_label
 _atom_site_symmetry_multiplicity
 _atom_site_fract_x
 _atom_site_fract_y
 _atom_site_fract_z
 _atom_site_occupancy
  Sc  Sc0  1  0.25000000  0.87685926  0.01873267  1
  Sc  Sc1  1  0.25000000  0.62314074  0.51873267  1
  Sc  Sc2  1  0.75000000  0.12314074  0.98126733  1
  Sc  Sc3  1  0.75000000  0.37685926  0.48126733  1
  Sc  Sc4  1  0.25000000  0.92223611  0.60437017  1
  Sc  Sc5  1  0.25000000  0.57776389  0.10437017  1
  Sc  Sc6  1  0.75000000  0.07776389  0.39562983  1
  Sc  Sc7  1  0.75000000  0.42223611  0.89562983  1
  Sc  Sc8  1  0.25000000  0.66094269  0.79803301  1
  Sc  Sc9  1  0.25000000  0.83905731  0.29803301  1
  Sc  Sc10  1  0.75000000  0.33905731  0.20196699  1
  Sc  Sc11  1  0.75000000  0.16094269  0.70196699  1
  Si  Si12  1  0.25000000  0.01524096  0.82230019  1
  Si  Si13  1  0.25000000  0.48475904  0.32230019  1
  Si  Si14  1  0.75000000  0.98475904  0.17769981  1
  Si  Si15  1  0.75000000  0.51524096  0.67769981  1
  Si  Si16  1  0.25000000  0.25237476  0.84273616  1
  Si  Si17  1  0.25000000  0.24762524  0.34273616  1
  Si  Si18  1  0.75000000  0.74762524  0.15726384  1
  Si  Si19  1  0.75000000  0.75237476  0.65726384  1
  Si  Si20  1  0.25000000  0.19390302  0.54544708  1
  Si  Si21  1  0.25000000  0.30609698  0.04544708  1
  Si  Si22  1  0.75000000  0.80609698  0.45455292  1
  Si  Si23  1  0.75000000  0.69390302  0.95455292  1
  Ru  Ru24  1  0.25000000  0.39075056  0.67749052  1
  Ru  Ru25  1  0.25000000  0.10924944  0.17749052  1
  Ru  Ru26  1  0.75000000  0.60924944  0.32250948  1
  Ru  Ru27  1  0.75000000  0.89075056  0.82250948  1
