# generated using pymatgen
data_Zr9NiMo4
_symmetry_space_group_name_H-M   'P 1'
_cell_length_a   8.39777060
_cell_length_b   8.83931312
_cell_length_c   8.83931312
_cell_angle_alpha   120.02343588
_cell_angle_beta   90.00000000
_cell_angle_gamma   90.00000000
_symmetry_Int_Tables_number   1
_chemical_formula_structural   Zr9NiMo4
_chemical_formula_sum   'Zr18 Ni2 Mo8'
_cell_volume   568.10559486
_cell_formula_units_Z   2
loop_
 _symmetry_equiv_pos_site_id
 _symmetry_equiv_pos_as_xyz
  1  'x, y, z'
loop_
 _atom_site_type_symbol
 _atom_site_label
 _atom_site_symmetry_multiplicity
 _atom_site_fract_x
 _atom_site_fract_y
 _atom_site_fract_z
 _atom_site_occupancy
  Zr  Zr0  1  0.55568429  0.80100999  0.60212017  1
  Zr  Zr1  1  0.55567432  0.80106152  0.19893848  1
  Zr  Zr2  1  0.55568429  0.39787983  0.19899001  1
  Zr  Zr3  1  0.44431571  0.19899001  0.39787983  1
  Zr  Zr4  1  0.44432568  0.19893848  0.80106152  1
  Zr  Zr5  1  0.44431571  0.60212017  0.80100999  1
  Zr  Zr6  1  0.05568429  0.19899001  0.39787983  1
  Zr  Zr7  1  0.05567432  0.19893848  0.80106152  1
  Zr  Zr8  1  0.05568429  0.60212017  0.80100999  1
  Zr  Zr9  1  0.94431571  0.80100999  0.60212017  1
  Zr  Zr10  1  0.94432568  0.80106152  0.19893848  1
  Zr  Zr11  1  0.94431571  0.39787983  0.19899001  1
  Zr  Zr12  1  0.75000000  0.45905700  0.91805694  1
  Zr  Zr13  1  0.75000000  0.45910517  0.54089483  1
  Zr  Zr14  1  0.75000000  0.08194306  0.54094300  1
  Zr  Zr15  1  0.25000000  0.54094300  0.08194306  1
  Zr  Zr16  1  0.25000000  0.54089483  0.45910517  1
  Zr  Zr17  1  0.25000000  0.91805694  0.45905700  1
  Ni  Ni18  1  0.75000000  0.66674397  0.33325603  1
  Ni  Ni19  1  0.25000000  0.33325603  0.66674397  1
  Mo  Mo20  1  0.75000000  0.11003056  0.22015085  1
  Mo  Mo21  1  0.75000000  0.11005736  0.88994264  1
  Mo  Mo22  1  0.75000000  0.77984915  0.88996944  1
  Mo  Mo23  1  0.25000000  0.88996944  0.77984915  1
  Mo  Mo24  1  0.25000000  0.88994264  0.11005736  1
  Mo  Mo25  1  0.25000000  0.22015085  0.11003056  1
  Mo  Mo26  1  0.50000000  -0.00000000  -0.00000000  1
  Mo  Mo27  1  -0.00000000  -0.00000000  -0.00000000  1
