# generated using pymatgen
data_KInBP2HO9
_symmetry_space_group_name_H-M   'P 1'
_cell_length_a   5.35884552
_cell_length_b   8.45056654
_cell_length_c   8.55321753
_cell_angle_alpha   87.80243057
_cell_angle_beta   79.80350927
_cell_angle_gamma   87.00047898
_symmetry_Int_Tables_number   1
_chemical_formula_structural   KInBP2HO9
_chemical_formula_sum   'K2 In2 B2 P4 H2 O18'
_cell_volume   380.52849502
_cell_formula_units_Z   2
loop_
 _symmetry_equiv_pos_site_id
 _symmetry_equiv_pos_as_xyz
  1  'x, y, z'
loop_
 _atom_site_type_symbol
 _atom_site_label
 _atom_site_symmetry_multiplicity
 _atom_site_fract_x
 _atom_site_fract_y
 _atom_site_fract_z
 _atom_site_occupancy
  K  K0  1  0.28295133  0.17312098  0.88048111  1
  K  K1  1  0.71704867  0.82687902  0.11951889  1
  In  In2  1  0.27837299  0.69103683  0.79945203  1
  In  In3  1  0.72162701  0.30896317  0.20054797  1
  B  B4  1  0.10852678  0.77115362  0.44077919  1
  B  B5  1  0.89147322  0.22884638  0.55922081  1
  P  P6  1  0.21492871  0.56923088  0.19025455  1
  P  P7  1  0.78507129  0.43076912  0.80974545  1
  P  P8  1  0.80716382  0.91993651  0.69544785  1
  P  P9  1  0.19283618  0.08006349  0.30455215  1
  H  H10  1  0.38307600  0.60736646  0.48412108  1
  H  H11  1  0.61692400  0.39263354  0.51587892  1
  O  O12  1  0.25961376  0.69417240  0.05247537  1
  O  O13  1  0.74038624  0.30582760  0.94752463  1
  O  O14  1  0.28204001  0.69285035  0.54135915  1
  O  O15  1  0.71795999  0.30714965  0.45864085  1
  O  O16  1  0.02678638  0.90465507  0.78960154  1
  O  O17  1  0.97321362  0.09534493  0.21039846  1
  O  O18  1  0.55904401  0.86498655  0.79486798  1
  O  O19  1  0.44095599  0.13501345  0.20513202  1
  O  O20  1  0.92460892  0.57229060  0.84975500  1
  O  O21  1  0.07539108  0.42770940  0.15024500  1
  O  O22  1  0.86972699  0.82691678  0.53750507  1
  O  O23  1  0.13027301  0.17308322  0.46249493  1
  O  O24  1  0.03901860  0.65599825  0.33311087  1
  O  O25  1  0.96098140  0.34400175  0.66688913  1
  O  O26  1  0.75066612  0.09800215  0.65153072  1
  O  O27  1  0.24933388  0.90199785  0.34846928  1
  O  O28  1  0.47147662  0.51966947  0.24409956  1
  O  O29  1  0.52852338  0.48033053  0.75590044  1
