# generated using pymatgen
data_KSnPS4
_symmetry_space_group_name_H-M   'P 1'
_cell_length_a   6.91589453
_cell_length_b   8.97056498
_cell_length_c   12.29583756
_cell_angle_alpha   90.00000000
_cell_angle_beta   90.00000000
_cell_angle_gamma   92.08322974
_symmetry_Int_Tables_number   1
_chemical_formula_structural   KSnPS4
_chemical_formula_sum   'K4 Sn4 P4 S16'
_cell_volume   762.32321389
_cell_formula_units_Z   4
loop_
 _symmetry_equiv_pos_site_id
 _symmetry_equiv_pos_as_xyz
  1  'x, y, z'
loop_
 _atom_site_type_symbol
 _atom_site_label
 _atom_site_symmetry_multiplicity
 _atom_site_fract_x
 _atom_site_fract_y
 _atom_site_fract_z
 _atom_site_occupancy
  K  K0  1  0.76115058  0.12961421  0.60079881  1
  K  K1  1  0.73884942  0.37038579  0.10079881  1
  K  K2  1  0.23884942  0.87038579  0.39920119  1
  K  K3  1  0.26115058  0.62961421  0.89920119  1
  Sn  Sn4  1  0.18399523  0.11481727  0.87035441  1
  Sn  Sn5  1  0.31600477  0.38518273  0.37035441  1
  Sn  Sn6  1  0.81600477  0.88518273  0.12964559  1
  Sn  Sn7  1  0.68399523  0.61481727  0.62964559  1
  P  P8  1  0.27460810  0.36997345  0.66016998  1
  P  P9  1  0.22539190  0.13002655  0.16016998  1
  P  P10  1  0.72539190  0.63002655  0.33983002  1
  P  P11  1  0.77460810  0.86997345  0.83983002  1
  S  S12  1  0.27439814  0.19959321  0.54619409  1
  S  S13  1  0.22560186  0.30040679  0.04619409  1
  S  S14  1  0.72560186  0.80040679  0.45380591  1
  S  S15  1  0.77439814  0.69959321  0.95380591  1
  S  S16  1  0.79194495  0.07200039  0.92223182  1
  S  S17  1  0.70805505  0.42799961  0.42223182  1
  S  S18  1  0.20805505  0.92799961  0.07776818  1
  S  S19  1  0.29194495  0.57200039  0.57776818  1
  S  S20  1  0.02574537  0.35552958  0.75026822  1
  S  S21  1  0.47425463  0.14447042  0.25026822  1
  S  S22  1  0.97425463  0.64447042  0.24973178  1
  S  S23  1  0.52574537  0.85552958  0.74973178  1
  S  S24  1  0.50397771  0.35624839  0.76164741  1
  S  S25  1  0.99602229  0.14375161  0.26164741  1
  S  S26  1  0.49602229  0.64375161  0.23835259  1
  S  S27  1  0.00397771  0.85624839  0.73835259  1
