# generated using pymatgen
data_GdCo9Si4
_symmetry_space_group_name_H-M   'P 1'
_cell_length_a   7.71036869
_cell_length_b   7.71036869
_cell_length_c   7.90499743
_cell_angle_alpha   119.18882858
_cell_angle_beta   119.18882858
_cell_angle_gamma   90.00000000
_symmetry_Int_Tables_number   1
_chemical_formula_structural   GdCo9Si4
_chemical_formula_sum   'Gd2 Co18 Si8'
_cell_volume   340.29017354
_cell_formula_units_Z   2
loop_
 _symmetry_equiv_pos_site_id
 _symmetry_equiv_pos_as_xyz
  1  'x, y, z'
loop_
 _atom_site_type_symbol
 _atom_site_label
 _atom_site_symmetry_multiplicity
 _atom_site_fract_x
 _atom_site_fract_y
 _atom_site_fract_z
 _atom_site_occupancy
  Gd  Gd0  1  0.75000000  0.75000000  0.50000000  1
  Gd  Gd1  1  0.25000000  0.25000000  0.50000000  1
  Co  Co2  1  0.30054742  0.56995077  1.00000000  1
  Co  Co3  1  0.69945258  0.43004923  0.00000000  1
  Co  Co4  1  0.19945258  0.06995077  0.00000000  1
  Co  Co5  1  0.80054742  0.93004923  1.00000000  1
  Co  Co6  1  0.43004923  0.30054742  1.00000000  1
  Co  Co7  1  0.56995077  0.69945258  0.00000000  1
  Co  Co8  1  0.93004923  0.19945258  0.00000000  1
  Co  Co9  1  0.06995077  0.80054742  1.00000000  1
  Co  Co10  1  0.55158931  0.30952577  0.36111508  1
  Co  Co11  1  0.80952577  0.05158931  0.36111508  1
  Co  Co12  1  0.30952577  0.80952577  0.36111508  1
  Co  Co13  1  0.05158931  0.55158931  0.36111508  1
  Co  Co14  1  0.44841069  0.69047423  0.63888492  1
  Co  Co15  1  0.19047423  0.94841069  0.63888492  1
  Co  Co16  1  0.69047423  0.19047423  0.63888492  1
  Co  Co17  1  0.94841069  0.44841069  0.63888492  1
  Co  Co18  1  0.00000000  0.50000000  -0.00000000  1
  Co  Co19  1  0.50000000  0.00000000  -0.00000000  1
  Si  Si20  1  0.95246718  0.79129365  0.24376083  1
  Si  Si21  1  0.29129365  0.45246718  0.24376083  1
  Si  Si22  1  0.79129365  0.29129365  0.24376083  1
  Si  Si23  1  0.45246718  0.95246718  0.24376083  1
  Si  Si24  1  0.04753282  0.20870635  0.75623917  1
  Si  Si25  1  0.70870635  0.54753282  0.75623917  1
  Si  Si26  1  0.20870635  0.70870635  0.75623917  1
  Si  Si27  1  0.54753282  0.04753282  0.75623917  1
