# generated using pymatgen
data_Nd2(Ga3Co)3
_symmetry_space_group_name_H-M   'P 1'
_cell_length_a   7.44603659
_cell_length_b   7.47219734
_cell_length_c   9.53761451
_cell_angle_alpha   90.00000000
_cell_angle_beta   90.00000000
_cell_angle_gamma   120.11628985
_symmetry_Int_Tables_number   1
_chemical_formula_structural   Nd2(Ga3Co)3
_chemical_formula_sum   'Nd4 Ga18 Co6'
_cell_volume   459.02230585
_cell_formula_units_Z   2
loop_
 _symmetry_equiv_pos_site_id
 _symmetry_equiv_pos_as_xyz
  1  'x, y, z'
loop_
 _atom_site_type_symbol
 _atom_site_label
 _atom_site_symmetry_multiplicity
 _atom_site_fract_x
 _atom_site_fract_y
 _atom_site_fract_z
 _atom_site_occupancy
  Nd  Nd0  1  0.67156022  0.00333466  0.25000000  1
  Nd  Nd1  1  0.67156022  0.66822556  0.75000000  1
  Nd  Nd2  1  0.32843978  0.99666534  0.75000000  1
  Nd  Nd3  1  0.32843978  0.33177444  0.25000000  1
  Ga  Ga4  1  0.66767804  0.00169000  0.92846093  1
  Ga  Ga5  1  0.66767804  0.66598804  0.07153907  1
  Ga  Ga6  1  0.66767804  0.00169000  0.57153907  1
  Ga  Ga7  1  0.66767804  0.66598804  0.42846093  1
  Ga  Ga8  1  0.33232196  0.99831000  0.07153907  1
  Ga  Ga9  1  0.33232196  0.33401196  0.92846093  1
  Ga  Ga10  1  0.33232196  0.99831000  0.42846093  1
  Ga  Ga11  1  0.33232196  0.33401196  0.57153907  1
  Ga  Ga12  1  0.00000000  0.66393781  0.94430964  1
  Ga  Ga13  1  0.00000000  0.33606219  0.05569036  1
  Ga  Ga14  1  0.00000000  0.66393781  0.55569036  1
  Ga  Ga15  1  0.00000000  0.33606219  0.44430964  1
  Ga  Ga16  1  0.00000000  0.12318417  0.75000000  1
  Ga  Ga17  1  0.00000000  0.87681583  0.25000000  1
  Ga  Ga18  1  0.21257053  0.66474767  0.25000000  1
  Ga  Ga19  1  0.21257053  0.54782286  0.75000000  1
  Ga  Ga20  1  0.78742947  0.33525233  0.75000000  1
  Ga  Ga21  1  0.78742947  0.45217714  0.25000000  1
  Co  Co22  1  0.00000000  -0.00000000  0.00000000  1
  Co  Co23  1  0.00000000  -0.00000000  0.50000000  1
  Co  Co24  1  0.34197291  0.67098646  0.00000000  1
  Co  Co25  1  0.34197291  0.67098646  0.50000000  1
  Co  Co26  1  0.65802709  0.32901354  -0.00000000  1
  Co  Co27  1  0.65802709  0.32901354  0.50000000  1
