# generated using pymatgen
data_LiMgAlH6
_symmetry_space_group_name_H-M   'P 1'
_cell_length_a   4.37376037
_cell_length_b   8.00050567
_cell_length_c   8.00049032
_cell_angle_alpha   120.00019282
_cell_angle_beta   90.00008945
_cell_angle_gamma   89.99943447
_symmetry_Int_Tables_number   1
_chemical_formula_structural   LiMgAlH6
_chemical_formula_sum   'Li3 Mg3 Al3 H18'
_cell_volume   242.44811659
_cell_formula_units_Z   3
loop_
 _symmetry_equiv_pos_site_id
 _symmetry_equiv_pos_as_xyz
  1  'x, y, z'
loop_
 _atom_site_type_symbol
 _atom_site_label
 _atom_site_symmetry_multiplicity
 _atom_site_fract_x
 _atom_site_fract_y
 _atom_site_fract_z
 _atom_site_occupancy
  Li  Li0  1  0.50000546  0.70419353  0.70418136  1
  Li  Li1  1  0.49999421  0.29580749  -0.00001131  1
  Li  Li2  1  0.50000067  0.00000155  0.29582896  1
  Mg  Mg3  1  0.99997801  0.36326669  0.36327678  1
  Mg  Mg4  1  0.00000366  0.63671912  0.00000160  1
  Mg  Mg5  1  -0.00000268  0.00000740  0.63673665  1
  Al  Al6  1  0.00000078  -0.00000122  -0.00000561  1
  Al  Al7  1  0.50315504  0.33327349  0.66663503  1
  Al  Al8  1  0.49684798  0.66672700  0.33336256  1
  H  H9  1  0.22065872  0.90565935  0.79082585  1
  H  H10  1  0.22066347  0.20918030  0.11483712  1
  H  H11  1  0.22066148  0.88516309  0.09434057  1
  H  H12  1  0.77934108  0.09434251  0.88516705  1
  H  H13  1  0.77934237  0.11483828  0.20917754  1
  H  H14  1  0.77933925  0.79082001  0.90565651  1
  H  H15  1  0.27060870  0.54452984  0.12603463  1
  H  H16  1  0.27062845  0.87393003  0.41848951  1
  H  H17  1  0.27061380  0.58149458  0.45545387  1
  H  H18  1  0.72939297  0.45547079  0.58150526  1
  H  H19  1  0.72938880  0.41850706  0.87395935  1
  H  H20  1  0.72937230  0.12607014  0.54455923  1
  H  H21  1  0.27635987  0.23602586  0.45872211  1
  H  H22  1  0.27634847  0.54130803  0.77730612  1
  H  H23  1  0.27636457  0.22271589  0.76399169  1
  H  H24  1  0.72364350  0.76397403  0.22269521  1
  H  H25  1  0.72363588  0.77728328  0.54127475  1
  H  H26  1  0.72365319  0.45869187  0.23599759  1
