# generated using pymatgen
data_U8VS17
_symmetry_space_group_name_H-M   'P 1'
_cell_length_a   7.77310397
_cell_length_b   7.77310397
_cell_length_c   10.27753225
_cell_angle_alpha   80.73119028
_cell_angle_beta   80.73119028
_cell_angle_gamma   64.69269377
_symmetry_Int_Tables_number   1
_chemical_formula_structural   U8VS17
_chemical_formula_sum   'U8 V1 S17'
_cell_volume   551.08674221
_cell_formula_units_Z   1
loop_
 _symmetry_equiv_pos_site_id
 _symmetry_equiv_pos_as_xyz
  1  'x, y, z'
loop_
 _atom_site_type_symbol
 _atom_site_label
 _atom_site_symmetry_multiplicity
 _atom_site_fract_x
 _atom_site_fract_y
 _atom_site_fract_z
 _atom_site_occupancy
  U  U0  1  0.18284619  0.70024118  0.70180317  1
  U  U1  1  0.70024118  0.18284619  0.70180317  1
  U  U2  1  0.81715381  0.29975882  0.29819683  1
  U  U3  1  0.29975882  0.81715381  0.29819683  1
  U  U4  1  0.79584517  0.79584517  0.45664146  1
  U  U5  1  0.20415483  0.20415483  0.54335854  1
  U  U6  1  0.31711611  0.31711611  0.01767203  1
  U  U7  1  0.68288389  0.68288389  0.98232797  1
  V  V8  1  -0.00000000  -0.00000000  0.00000000  1
  S  S9  1  0.17803500  0.56728505  0.46584865  1
  S  S10  1  0.56728505  0.17803500  0.46584865  1
  S  S11  1  0.82196500  0.43271495  0.53415135  1
  S  S12  1  0.43271495  0.82196500  0.53415135  1
  S  S13  1  0.05805799  0.67674568  0.97071503  1
  S  S14  1  0.67674568  0.05805799  0.97071503  1
  S  S15  1  0.94194201  0.32325432  0.02928497  1
  S  S16  1  0.32325432  0.94194201  0.02928497  1
  S  S17  1  0.78761410  0.78761410  0.72093398  1
  S  S18  1  0.21238590  0.21238590  0.27906602  1
  S  S19  1  0.93861911  0.93861911  0.22800466  1
  S  S20  1  0.06138089  0.06138089  0.77199534  1
  S  S21  1  0.69741801  0.69741801  0.24530130  1
  S  S22  1  0.30258199  0.30258199  0.75469870  1
  S  S23  1  0.47887596  0.47887596  0.16951018  1
  S  S24  1  0.52112404  0.52112404  0.83048982  1
  S  S25  1  -0.00000000  -0.00000000  0.50000000  1
