# generated using pymatgen
data_CsSnPS4
_symmetry_space_group_name_H-M   'P 1'
_cell_length_a   6.32534310
_cell_length_b   6.92179487
_cell_length_c   18.45750527
_cell_angle_alpha   90.00000000
_cell_angle_beta   90.05695661
_cell_angle_gamma   90.00000000
_symmetry_Int_Tables_number   1
_chemical_formula_structural   CsSnPS4
_chemical_formula_sum   'Cs4 Sn4 P4 S16'
_cell_volume   808.11952263
_cell_formula_units_Z   4
loop_
 _symmetry_equiv_pos_site_id
 _symmetry_equiv_pos_as_xyz
  1  'x, y, z'
loop_
 _atom_site_type_symbol
 _atom_site_label
 _atom_site_symmetry_multiplicity
 _atom_site_fract_x
 _atom_site_fract_y
 _atom_site_fract_z
 _atom_site_occupancy
  Cs  Cs0  1  0.42834004  0.25000000  0.29902039  1
  Cs  Cs1  1  0.57165996  0.75000000  0.70097961  1
  Cs  Cs2  1  0.92651593  0.75000000  0.20088020  1
  Cs  Cs3  1  0.07348407  0.25000000  0.79911980  1
  Sn  Sn4  1  0.71661129  0.25000000  0.02137245  1
  Sn  Sn5  1  0.28338871  0.75000000  0.97862755  1
  Sn  Sn6  1  0.21698962  0.75000000  0.47821259  1
  Sn  Sn7  1  0.78301038  0.25000000  0.52178741  1
  P  P8  1  0.72011747  0.75000000  0.40519704  1
  P  P9  1  0.27988253  0.25000000  0.59480296  1
  P  P10  1  0.78075785  0.75000000  0.90539680  1
  P  P11  1  0.21924215  0.25000000  0.09460320  1
  S  S12  1  0.64971922  0.75000000  0.51463401  1
  S  S13  1  0.35028078  0.25000000  0.48536599  1
  S  S14  1  0.89455083  0.50932765  0.38185874  1
  S  S15  1  0.10544917  0.00932765  0.61814126  1
  S  S16  1  0.10544917  0.49067235  0.61814126  1
  S  S17  1  0.89455083  0.99067235  0.38185874  1
  S  S18  1  0.85132525  0.75000000  0.01463587  1
  S  S19  1  0.14867475  0.25000000  0.98536413  1
  S  S20  1  0.43762112  0.75000000  0.34931134  1
  S  S21  1  0.56237888  0.25000000  0.65068866  1
  S  S22  1  0.06263411  0.75000000  0.84942253  1
  S  S23  1  0.93736589  0.25000000  0.15057747  1
  S  S24  1  0.60589132  0.50912856  0.88192154  1
  S  S25  1  0.39410868  0.00912856  0.11807846  1
  S  S26  1  0.39410868  0.49087144  0.11807846  1
  S  S27  1  0.60589132  0.99087144  0.88192154  1
