# generated using pymatgen
data_Ca2AlPbF9
_symmetry_space_group_name_H-M   'P 1'
_cell_length_a   5.44306780
_cell_length_b   5.44635046
_cell_length_c   12.37173984
_cell_angle_alpha   91.46204480
_cell_angle_beta   101.05176097
_cell_angle_gamma   91.71511755
_symmetry_Int_Tables_number   1
_chemical_formula_structural   Ca2AlPbF9
_chemical_formula_sum   'Ca4 Al2 Pb2 F18'
_cell_volume   359.61279836
_cell_formula_units_Z   2
loop_
 _symmetry_equiv_pos_site_id
 _symmetry_equiv_pos_as_xyz
  1  'x, y, z'
loop_
 _atom_site_type_symbol
 _atom_site_label
 _atom_site_symmetry_multiplicity
 _atom_site_fract_x
 _atom_site_fract_y
 _atom_site_fract_z
 _atom_site_occupancy
  Ca  Ca0  1  0.95838214  0.24216529  0.38605323  1
  Ca  Ca1  1  0.04161786  0.75783471  0.61394677  1
  Ca  Ca2  1  0.55125197  0.26564809  0.61339179  1
  Ca  Ca3  1  0.44874803  0.73435191  0.38660821  1
  Al  Al4  1  0.79636133  0.79314567  0.18136773  1
  Al  Al5  1  0.20363867  0.20685433  0.81863227  1
  Pb  Pb6  1  0.72774939  0.71784148  0.89451570  1
  Pb  Pb7  1  0.27225061  0.28215852  0.10548430  1
  F  F8  1  0.15134716  0.95125238  0.90420102  1
  F  F9  1  0.84865284  0.04874762  0.09579898  1
  F  F10  1  0.25807463  0.45068802  0.72512744  1
  F  F11  1  0.74192537  0.54931198  0.27487256  1
  F  F12  1  0.62935202  0.99956352  0.26498493  1
  F  F13  1  0.37064798  0.00043648  0.73501507  1
  F  F14  1  0.95822151  0.59395386  0.09917706  1
  F  F15  1  0.04177849  0.40604614  0.90082294  1
  F  F16  1  0.08428429  0.89009169  0.27909271  1
  F  F17  1  0.91571571  0.10990831  0.72090729  1
  F  F18  1  0.49960513  0.70378967  0.09228688  1
  F  F19  1  0.50039487  0.29621033  0.90771312  1
  F  F20  1  0.74813203  0.99208099  0.49881820  1
  F  F21  1  0.25186797  0.00791901  0.50118180  1
  F  F22  1  0.74955893  0.48822528  0.49434919  1
  F  F23  1  0.25044107  0.51177472  0.50565081  1
  F  F24  1  0.74342117  0.61358110  0.70844203  1
  F  F25  1  0.25657883  0.38641890  0.29155797  1
