# generated using pymatgen
data_Sr(HoS2)2
_symmetry_space_group_name_H-M   'P 1'
_cell_length_a   3.97721631
_cell_length_b   12.04746575
_cell_length_c   14.31585199
_cell_angle_alpha   90.00000000
_cell_angle_beta   90.00000000
_cell_angle_gamma   90.00000000
_symmetry_Int_Tables_number   1
_chemical_formula_structural   Sr(HoS2)2
_chemical_formula_sum   'Sr4 Ho8 S16'
_cell_volume   685.94944911
_cell_formula_units_Z   4
loop_
 _symmetry_equiv_pos_site_id
 _symmetry_equiv_pos_as_xyz
  1  'x, y, z'
loop_
 _atom_site_type_symbol
 _atom_site_label
 _atom_site_symmetry_multiplicity
 _atom_site_fract_x
 _atom_site_fract_y
 _atom_site_fract_z
 _atom_site_occupancy
  Sr  Sr0  1  0.75000000  0.73959913  0.16457046  1
  Sr  Sr1  1  0.75000000  0.23959913  0.33542954  1
  Sr  Sr2  1  0.25000000  0.26040087  0.83542954  1
  Sr  Sr3  1  0.25000000  0.76040087  0.66457046  1
  Ho  Ho4  1  0.75000000  0.06305551  0.11022425  1
  Ho  Ho5  1  0.75000000  0.56305551  0.38977575  1
  Ho  Ho6  1  0.25000000  0.93694449  0.88977575  1
  Ho  Ho7  1  0.25000000  0.43694449  0.61022425  1
  Ho  Ho8  1  0.75000000  0.08312475  0.59941279  1
  Ho  Ho9  1  0.75000000  0.58312475  0.90058721  1
  Ho  Ho10  1  0.25000000  0.91687525  0.40058721  1
  Ho  Ho11  1  0.25000000  0.41687525  0.09941279  1
  S  S12  1  0.75000000  0.29563106  0.67137698  1
  S  S13  1  0.75000000  0.79563106  0.82862302  1
  S  S14  1  0.25000000  0.70436894  0.32862302  1
  S  S15  1  0.25000000  0.20436894  0.17137698  1
  S  S16  1  0.75000000  0.37200623  0.97079931  1
  S  S17  1  0.75000000  0.87200623  0.52920069  1
  S  S18  1  0.25000000  0.62799377  0.02920069  1
  S  S19  1  0.25000000  0.12799377  0.47079931  1
  S  S20  1  0.75000000  0.47301664  0.21557509  1
  S  S21  1  0.75000000  0.97301664  0.28442491  1
  S  S22  1  0.25000000  0.52698336  0.78442491  1
  S  S23  1  0.25000000  0.02698336  0.71557509  1
  S  S24  1  0.75000000  0.08804243  0.92260314  1
  S  S25  1  0.75000000  0.58804243  0.57739686  1
  S  S26  1  0.25000000  0.91195757  0.07739686  1
  S  S27  1  0.25000000  0.41195757  0.42260314  1
