# generated using pymatgen
data_Y4Zn5Ge6
_symmetry_space_group_name_H-M   'P 1'
_cell_length_a   4.24302187
_cell_length_b   9.59955653
_cell_length_c   15.34892842
_cell_angle_alpha   90.00000000
_cell_angle_beta   90.00000000
_cell_angle_gamma   102.76783228
_symmetry_Int_Tables_number   1
_chemical_formula_structural   Y4Zn5Ge6
_chemical_formula_sum   'Y8 Zn10 Ge12'
_cell_volume   609.72073296
_cell_formula_units_Z   2
loop_
 _symmetry_equiv_pos_site_id
 _symmetry_equiv_pos_as_xyz
  1  'x, y, z'
loop_
 _atom_site_type_symbol
 _atom_site_label
 _atom_site_symmetry_multiplicity
 _atom_site_fract_x
 _atom_site_fract_y
 _atom_site_fract_z
 _atom_site_occupancy
  Y  Y0  1  0.98166511  0.96333023  0.76298987  1
  Y  Y1  1  0.01833489  0.03666977  0.26298987  1
  Y  Y2  1  0.82475410  0.64950821  0.31790139  1
  Y  Y3  1  0.17524590  0.35049179  0.81790139  1
  Y  Y4  1  0.83222643  0.66445286  0.95932473  1
  Y  Y5  1  0.16777357  0.33554714  0.45932473  1
  Y  Y6  1  0.96707931  0.93415862  0.49967262  1
  Y  Y7  1  0.03292069  0.06584138  0.99967262  1
  Zn  Zn8  1  0.65515643  0.31031287  0.98966007  1
  Zn  Zn9  1  0.34484357  0.68968713  0.48966007  1
  Zn  Zn10  1  0.69945622  0.39891244  0.63837832  1
  Zn  Zn11  1  0.30054378  0.60108756  0.13837832  1
  Zn  Zn12  1  0.35011182  0.70022365  0.78184273  1
  Zn  Zn13  1  0.64988818  0.29977635  0.28184273  1
  Zn  Zn14  1  0.84832168  0.69664336  0.63585820  1
  Zn  Zn15  1  0.15167832  0.30335664  0.13585820  1
  Zn  Zn16  1  0.56555848  0.13111696  0.57875951  1
  Zn  Zn17  1  0.43444152  0.86888304  0.07875951  1
  Ge  Ge18  1  0.77233870  0.54467740  0.49807938  1
  Ge  Ge19  1  0.22766130  0.45532260  0.99807938  1
  Ge  Ge20  1  0.56918392  0.13836783  0.85648628  1
  Ge  Ge21  1  0.43081608  0.86163217  0.35648628  1
  Ge  Ge22  1  0.77753484  0.55506968  0.77644453  1
  Ge  Ge23  1  0.22246516  0.44493032  0.27644453  1
  Ge  Ge24  1  0.44010116  0.88020232  0.90852667  1
  Ge  Ge25  1  0.55989884  0.11979768  0.40852667  1
  Ge  Ge26  1  0.43253404  0.86506809  0.63344994  1
  Ge  Ge27  1  0.56746596  0.13493191  0.13344994  1
  Ge  Ge28  1  0.88660297  0.77320593  0.14538576  1
  Ge  Ge29  1  0.11339703  0.22679407  0.64538576  1
