# generated using pymatgen
data_MgU8Se17
_symmetry_space_group_name_H-M   'P 1'
_cell_length_a   8.25237113
_cell_length_b   8.25237113
_cell_length_c   10.98814818
_cell_angle_alpha   79.84680923
_cell_angle_beta   79.84680923
_cell_angle_gamma   64.05274498
_symmetry_Int_Tables_number   1
_chemical_formula_structural   MgU8Se17
_chemical_formula_sum   'Mg1 U8 Se17'
_cell_volume   658.17289996
_cell_formula_units_Z   1
loop_
 _symmetry_equiv_pos_site_id
 _symmetry_equiv_pos_as_xyz
  1  'x, y, z'
loop_
 _atom_site_type_symbol
 _atom_site_label
 _atom_site_symmetry_multiplicity
 _atom_site_fract_x
 _atom_site_fract_y
 _atom_site_fract_z
 _atom_site_occupancy
  Mg  Mg0  1  -0.00000000  -0.00000000  0.00000000  1
  U  U1  1  0.18205502  0.69707631  0.69953713  1
  U  U2  1  0.69707631  0.18205502  0.69953713  1
  U  U3  1  0.81794498  0.30292369  0.30046287  1
  U  U4  1  0.30292369  0.81794498  0.30046287  1
  U  U5  1  0.79874123  0.79874123  0.46013998  1
  U  U6  1  0.20125877  0.20125877  0.53986002  1
  U  U7  1  0.32017468  0.32017468  0.01122801  1
  U  U8  1  0.67982532  0.67982532  0.98877199  1
  Se  Se9  1  0.18102699  0.56525552  0.46466585  1
  Se  Se10  1  0.56525552  0.18102699  0.46466585  1
  Se  Se11  1  0.81897301  0.43474448  0.53533415  1
  Se  Se12  1  0.43474448  0.81897301  0.53533415  1
  Se  Se13  1  0.05609168  0.67131479  0.96390351  1
  Se  Se14  1  0.67131479  0.05609168  0.96390351  1
  Se  Se15  1  0.94390832  0.32868521  0.03609649  1
  Se  Se16  1  0.32868521  0.94390832  0.03609649  1
  Se  Se17  1  0.78636805  0.78636805  0.72333061  1
  Se  Se18  1  0.21363195  0.21363195  0.27666939  1
  Se  Se19  1  0.94062039  0.94062039  0.23428637  1
  Se  Se20  1  0.05937961  0.05937961  0.76571363  1
  Se  Se21  1  0.69983398  0.69983398  0.24789881  1
  Se  Se22  1  0.30016602  0.30016602  0.75210119  1
  Se  Se23  1  0.47934366  0.47934366  0.17121768  1
  Se  Se24  1  0.52065634  0.52065634  0.82878232  1
  Se  Se25  1  -0.00000000  -0.00000000  0.50000000  1
