# generated using pymatgen
data_Ca2SiS4
_symmetry_space_group_name_H-M   'P 1'
_cell_length_a   6.24699760
_cell_length_b   8.18057351
_cell_length_c   13.78750089
_cell_angle_alpha   90.00000000
_cell_angle_beta   90.00000000
_cell_angle_gamma   90.00000000
_symmetry_Int_Tables_number   1
_chemical_formula_structural   Ca2SiS4
_chemical_formula_sum   'Ca8 Si4 S16'
_cell_volume   704.59676375
_cell_formula_units_Z   4
loop_
 _symmetry_equiv_pos_site_id
 _symmetry_equiv_pos_as_xyz
  1  'x, y, z'
loop_
 _atom_site_type_symbol
 _atom_site_label
 _atom_site_symmetry_multiplicity
 _atom_site_fract_x
 _atom_site_fract_y
 _atom_site_fract_z
 _atom_site_occupancy
  Ca  Ca0  1  0.50000000  0.00000000  0.50000000  1
  Ca  Ca1  1  -0.00000000  0.50000000  0.00000000  1
  Ca  Ca2  1  0.50000000  0.50000000  0.50000000  1
  Ca  Ca3  1  0.00000000  0.00000000  0.00000000  1
  Ca  Ca4  1  0.00611207  0.75000000  0.27256581  1
  Ca  Ca5  1  0.49388793  0.75000000  0.77256581  1
  Ca  Ca6  1  0.99388793  0.25000000  0.72743419  1
  Ca  Ca7  1  0.50611207  0.25000000  0.22743419  1
  Si  Si8  1  0.59099761  0.75000000  0.09371419  1
  Si  Si9  1  0.90900239  0.75000000  0.59371419  1
  Si  Si10  1  0.40900239  0.25000000  0.90628581  1
  Si  Si11  1  0.09099761  0.25000000  0.40628581  1
  S  S12  1  0.72957099  0.95837677  0.16543754  1
  S  S13  1  0.77042901  0.54162323  0.66543754  1
  S  S14  1  0.27042901  0.45837677  0.83456246  1
  S  S15  1  0.22957099  0.04162323  0.33456246  1
  S  S16  1  0.27042901  0.04162323  0.83456246  1
  S  S17  1  0.22957099  0.45837677  0.33456246  1
  S  S18  1  0.72957099  0.54162323  0.16543754  1
  S  S19  1  0.77042901  0.95837677  0.66543754  1
  S  S20  1  0.25174728  0.75000000  0.09525804  1
  S  S21  1  0.24825272  0.75000000  0.59525804  1
  S  S22  1  0.74825272  0.25000000  0.90474196  1
  S  S23  1  0.75174728  0.25000000  0.40474196  1
  S  S24  1  0.71974172  0.75000000  0.94863404  1
  S  S25  1  0.78025828  0.75000000  0.44863404  1
  S  S26  1  0.28025828  0.25000000  0.05136596  1
  S  S27  1  0.21974172  0.25000000  0.55136596  1
