# generated using pymatgen
data_Ca(HoS2)2
_symmetry_space_group_name_H-M   'P 1'
_cell_length_a   3.88579205
_cell_length_b   12.96501176
_cell_length_c   13.14342929
_cell_angle_alpha   90.00000000
_cell_angle_beta   90.00000000
_cell_angle_gamma   90.00000000
_symmetry_Int_Tables_number   1
_chemical_formula_structural   Ca(HoS2)2
_chemical_formula_sum   'Ca4 Ho8 S16'
_cell_volume   662.15728804
_cell_formula_units_Z   4
loop_
 _symmetry_equiv_pos_site_id
 _symmetry_equiv_pos_as_xyz
  1  'x, y, z'
loop_
 _atom_site_type_symbol
 _atom_site_label
 _atom_site_symmetry_multiplicity
 _atom_site_fract_x
 _atom_site_fract_y
 _atom_site_fract_z
 _atom_site_occupancy
  Ca  Ca0  1  0.75000000  0.13119744  0.91652670  1
  Ca  Ca1  1  0.75000000  0.63119744  0.58347330  1
  Ca  Ca2  1  0.25000000  0.86880256  0.08347330  1
  Ca  Ca3  1  0.25000000  0.36880256  0.41652670  1
  Ho  Ho4  1  0.75000000  0.39276123  0.08332906  1
  Ho  Ho5  1  0.75000000  0.89276123  0.41667094  1
  Ho  Ho6  1  0.25000000  0.60723877  0.91667094  1
  Ho  Ho7  1  0.25000000  0.10723877  0.58332906  1
  Ho  Ho8  1  0.75000000  0.35331718  0.70271291  1
  Ho  Ho9  1  0.75000000  0.85331718  0.79728709  1
  Ho  Ho10  1  0.25000000  0.64668282  0.29728709  1
  Ho  Ho11  1  0.25000000  0.14668282  0.20271291  1
  S  S12  1  0.75000000  0.28308481  0.26242050  1
  S  S13  1  0.75000000  0.78308481  0.23757950  1
  S  S14  1  0.25000000  0.71691519  0.73757950  1
  S  S15  1  0.25000000  0.21691519  0.76242050  1
  S  S16  1  0.75000000  0.24223938  0.52617478  1
  S  S17  1  0.75000000  0.74223938  0.97382522  1
  S  S18  1  0.25000000  0.75776062  0.47382522  1
  S  S19  1  0.25000000  0.25776062  0.02617478  1
  S  S20  1  0.75000000  0.03032711  0.11758677  1
  S  S21  1  0.75000000  0.53032711  0.38241323  1
  S  S22  1  0.25000000  0.96967289  0.88241323  1
  S  S23  1  0.25000000  0.46967289  0.61758677  1
  S  S24  1  0.75000000  0.46648468  0.88217526  1
  S  S25  1  0.75000000  0.96648468  0.61782474  1
  S  S26  1  0.25000000  0.53351532  0.11782474  1
  S  S27  1  0.25000000  0.03351532  0.38217526  1
