# generated using pymatgen
data_Mg30AlSnO32
_symmetry_space_group_name_H-M   'P 1'
_cell_length_a   8.62971764
_cell_length_b   8.62522472
_cell_length_c   8.62522472
_cell_angle_alpha   90.00000000
_cell_angle_beta   90.00000000
_cell_angle_gamma   90.00000000
_symmetry_Int_Tables_number   1
_chemical_formula_structural   Mg30AlSnO32
_chemical_formula_sum   'Mg30 Al1 Sn1 O32'
_cell_volume   642.00354166
_cell_formula_units_Z   1
loop_
 _symmetry_equiv_pos_site_id
 _symmetry_equiv_pos_as_xyz
  1  'x, y, z'
loop_
 _atom_site_type_symbol
 _atom_site_label
 _atom_site_symmetry_multiplicity
 _atom_site_fract_x
 _atom_site_fract_y
 _atom_site_fract_z
 _atom_site_occupancy
  Mg  Mg0  1  -0.00000000  0.00000000  0.50000000  1
  Mg  Mg1  1  -0.00000000  0.50000000  0.00000000  1
  Mg  Mg2  1  0.50000000  0.00000000  0.00000000  1
  Mg  Mg3  1  0.50000000  0.00000000  0.50000000  1
  Mg  Mg4  1  0.50000000  0.50000000  0.00000000  1
  Mg  Mg5  1  0.50000000  0.50000000  0.50000000  1
  Mg  Mg6  1  -0.00000000  0.24681381  0.24681381  1
  Mg  Mg7  1  -0.00000000  0.24681381  0.75318619  1
  Mg  Mg8  1  -0.00000000  0.75318619  0.24681381  1
  Mg  Mg9  1  -0.00000000  0.75318619  0.75318619  1
  Mg  Mg10  1  0.50000000  0.25011202  0.25011202  1
  Mg  Mg11  1  0.50000000  0.25011202  0.74988798  1
  Mg  Mg12  1  0.50000000  0.74988798  0.25011202  1
  Mg  Mg13  1  0.50000000  0.74988798  0.74988798  1
  Mg  Mg14  1  0.25120884  0.00000000  0.25034256  1
  Mg  Mg15  1  0.25120884  0.00000000  0.74965744  1
  Mg  Mg16  1  0.25476887  0.50000000  0.24642779  1
  Mg  Mg17  1  0.25476887  0.50000000  0.75357221  1
  Mg  Mg18  1  0.74879116  0.00000000  0.25034256  1
  Mg  Mg19  1  0.74879116  0.00000000  0.74965744  1
  Mg  Mg20  1  0.74523113  0.50000000  0.24642779  1
  Mg  Mg21  1  0.74523113  0.50000000  0.75357221  1
  Mg  Mg22  1  0.25120884  0.25034256  0.00000000  1
  Mg  Mg23  1  0.25476887  0.24642779  0.50000000  1
  Mg  Mg24  1  0.25120884  0.74965744  0.00000000  1
  Mg  Mg25  1  0.25476887  0.75357221  0.50000000  1
  Mg  Mg26  1  0.74879116  0.25034256  -0.00000000  1
  Mg  Mg27  1  0.74523113  0.24642779  0.50000000  1
  Mg  Mg28  1  0.74879116  0.74965744  -0.00000000  1
  Mg  Mg29  1  0.74523113  0.75357221  0.50000000  1
  Al  Al30  1  -0.00000000  0.00000000  0.00000000  1
  Sn  Sn31  1  -0.00000000  0.50000000  0.50000000  1
  O  O32  1  0.23468478  0.00000000  -0.00000000  1
  O  O33  1  0.25119729  0.00000000  0.50000000  1
  O  O34  1  0.25119729  0.50000000  -0.00000000  1
  O  O35  1  0.27081579  0.50000000  0.50000000  1
  O  O36  1  0.76531522  0.00000000  0.00000000  1
  O  O37  1  0.74880271  0.00000000  0.50000000  1
  O  O38  1  0.74880271  0.50000000  0.00000000  1
  O  O39  1  0.72918421  0.50000000  0.50000000  1
  O  O40  1  0.24881972  0.25036952  0.25036952  1
  O  O41  1  0.24881972  0.25036952  0.74963048  1
  O  O42  1  0.24881972  0.74963048  0.25036952  1
  O  O43  1  0.24881972  0.74963048  0.74963048  1
  O  O44  1  0.75118028  0.25036952  0.25036952  1
  O  O45  1  0.75118028  0.25036952  0.74963048  1
  O  O46  1  0.75118028  0.74963048  0.25036952  1
  O  O47  1  0.75118028  0.74963048  0.74963048  1
  O  O48  1  -0.00000000  0.00000000  0.23110448  1
  O  O49  1  -0.00000000  0.00000000  0.76889552  1
  O  O50  1  -0.00000000  0.50000000  0.22706567  1
  O  O51  1  -0.00000000  0.50000000  0.77293433  1
  O  O52  1  0.50000000  0.00000000  0.24708449  1
  O  O53  1  0.50000000  0.00000000  0.75291551  1
  O  O54  1  0.50000000  0.50000000  0.24615653  1
  O  O55  1  0.50000000  0.50000000  0.75384347  1
  O  O56  1  -0.00000000  0.23110448  0.00000000  1
  O  O57  1  -0.00000000  0.22706567  0.50000000  1
  O  O58  1  -0.00000000  0.76889552  -0.00000000  1
  O  O59  1  -0.00000000  0.77293433  0.50000000  1
  O  O60  1  0.50000000  0.24708449  0.00000000  1
  O  O61  1  0.50000000  0.24615653  0.50000000  1
  O  O62  1  0.50000000  0.75291551  -0.00000000  1
  O  O63  1  0.50000000  0.75384347  0.50000000  1
