# generated using pymatgen
data_Ba2HgS5
_symmetry_space_group_name_H-M   'P 1'
_cell_length_a   8.50801621
_cell_length_b   8.83269057
_cell_length_c   12.33739754
_cell_angle_alpha   90.00000000
_cell_angle_beta   90.00000000
_cell_angle_gamma   90.00000000
_symmetry_Int_Tables_number   1
_chemical_formula_structural   Ba2HgS5
_chemical_formula_sum   'Ba8 Hg4 S20'
_cell_volume   927.13907250
_cell_formula_units_Z   4
loop_
 _symmetry_equiv_pos_site_id
 _symmetry_equiv_pos_as_xyz
  1  'x, y, z'
loop_
 _atom_site_type_symbol
 _atom_site_label
 _atom_site_symmetry_multiplicity
 _atom_site_fract_x
 _atom_site_fract_y
 _atom_site_fract_z
 _atom_site_occupancy
  Ba  Ba0  1  0.85669482  0.99378403  0.68916461  1
  Ba  Ba1  1  0.64330518  0.50621597  0.18916461  1
  Ba  Ba2  1  0.14330518  0.49378403  0.31083539  1
  Ba  Ba3  1  0.35669482  0.00621597  0.81083539  1
  Ba  Ba4  1  0.14330518  0.00621597  0.31083539  1
  Ba  Ba5  1  0.35669482  0.49378403  0.81083539  1
  Ba  Ba6  1  0.85669482  0.50621597  0.68916461  1
  Ba  Ba7  1  0.64330518  0.99378403  0.18916461  1
  Hg  Hg8  1  0.48801057  0.75000000  0.49125611  1
  Hg  Hg9  1  0.01198943  0.75000000  0.99125611  1
  Hg  Hg10  1  0.51198943  0.25000000  0.50874389  1
  Hg  Hg11  1  0.98801057  0.25000000  0.00874389  1
  S  S12  1  0.93037215  0.75000000  0.47243226  1
  S  S13  1  0.56962785  0.75000000  0.97243226  1
  S  S14  1  0.06962785  0.25000000  0.52756774  1
  S  S15  1  0.43037215  0.25000000  0.02756774  1
  S  S16  1  0.40921819  0.75000000  0.30580497  1
  S  S17  1  0.09078181  0.75000000  0.80580497  1
  S  S18  1  0.59078181  0.25000000  0.69419503  1
  S  S19  1  0.90921819  0.25000000  0.19419503  1
  S  S20  1  0.55693985  0.75000000  0.67770652  1
  S  S21  1  0.94306015  0.75000000  0.17770652  1
  S  S22  1  0.44306015  0.25000000  0.32229348  1
  S  S23  1  0.05693985  0.25000000  0.82229348  1
  S  S24  1  0.80695528  0.94652491  0.43289698  1
  S  S25  1  0.69304472  0.55347509  0.93289698  1
  S  S26  1  0.19304472  0.44652491  0.56710302  1
  S  S27  1  0.30695528  0.05347509  0.06710302  1
  S  S28  1  0.19304472  0.05347509  0.56710302  1
  S  S29  1  0.30695528  0.44652491  0.06710302  1
  S  S30  1  0.80695528  0.55347509  0.43289698  1
  S  S31  1  0.69304472  0.94652491  0.93289698  1
