# generated using pymatgen
data_TlBi(SO4)2
_symmetry_space_group_name_H-M   'P 1'
_cell_length_a   7.69267783
_cell_length_b   10.89044619
_cell_length_c   11.07939843
_cell_angle_alpha   60.37715889
_cell_angle_beta   69.34011006
_cell_angle_gamma   68.70812437
_symmetry_Int_Tables_number   1
_chemical_formula_structural   TlBi(SO4)2
_chemical_formula_sum   'Tl4 Bi4 S8 O32'
_cell_volume   734.38599877
_cell_formula_units_Z   4
loop_
 _symmetry_equiv_pos_site_id
 _symmetry_equiv_pos_as_xyz
  1  'x, y, z'
loop_
 _atom_site_type_symbol
 _atom_site_label
 _atom_site_symmetry_multiplicity
 _atom_site_fract_x
 _atom_site_fract_y
 _atom_site_fract_z
 _atom_site_occupancy
  Tl  Tl0  1  0.00000000  0.50000000  0.50000000  1
  Tl  Tl1  1  0.50000000  -0.00000000  0.50000000  1
  Tl  Tl2  1  0.50000000  0.50000000  0.00000000  1
  Tl  Tl3  1  0.00000000  -0.00000000  0.00000000  1
  Bi  Bi4  1  0.03674864  0.71277574  0.74946376  1
  Bi  Bi5  1  0.96325136  0.28722426  0.25053624  1
  Bi  Bi6  1  0.53763412  0.21497859  0.75212746  1
  Bi  Bi7  1  0.46236588  0.78502141  0.24787254  1
  S  S8  1  0.95245612  0.10514811  0.61185261  1
  S  S9  1  0.04754388  0.89485189  0.38814739  1
  S  S10  1  0.55122245  0.88482374  0.88511948  1
  S  S11  1  0.44877755  0.11517626  0.11488052  1
  S  S12  1  0.45582377  0.60530991  0.61764677  1
  S  S13  1  0.54417623  0.39469009  0.38235323  1
  S  S14  1  0.05747424  0.38357373  0.88765956  1
  S  S15  1  0.94252576  0.61642627  0.11234044  1
  O  O16  1  0.77669358  0.09814360  0.58957806  1
  O  O17  1  0.22330642  0.90185640  0.41042194  1
  O  O18  1  0.27915747  0.59818595  0.59492808  1
  O  O19  1  0.72084253  0.40181405  0.40507192  1
  O  O20  1  0.16832735  0.45590979  0.91010721  1
  O  O21  1  0.83167265  0.54409021  0.08989279  1
  O  O22  1  0.66373259  0.95935291  0.90376929  1
  O  O23  1  0.33626741  0.04064709  0.09623071  1
  O  O24  1  0.45028638  0.79130929  0.02808610  1
  O  O25  1  0.54971362  0.20869071  0.97191390  1
  O  O26  1  0.67870044  0.79102969  0.81096759  1
  O  O27  1  0.32129956  0.20897031  0.18903241  1
  O  O28  1  0.18686405  0.28814722  0.81572131  1
  O  O29  1  0.81313595  0.71185278  0.18427869  1
  O  O30  1  0.56806486  0.45606064  0.69309583  1
  O  O31  1  0.43193514  0.54393936  0.30690417  1
  O  O32  1  0.06832630  0.95715949  0.68436618  1
  O  O33  1  0.93167370  0.04284051  0.31563382  1
  O  O34  1  0.88684456  0.18755687  0.70269160  1
  O  O35  1  0.11315544  0.81244313  0.29730840  1
  O  O36  1  0.40840636  0.00190278  0.80011128  1
  O  O37  1  0.59159364  0.99809722  0.19988872  1
  O  O38  1  0.38810277  0.68799957  0.70815314  1
  O  O39  1  0.61189723  0.31200043  0.29184686  1
  O  O40  1  0.57814154  0.68136651  0.47911750  1
  O  O41  1  0.42185846  0.31863349  0.52088250  1
  O  O42  1  0.07399281  0.18401835  0.47263350  1
  O  O43  1  0.92600719  0.81598165  0.52736650  1
  O  O44  1  0.05256351  0.70630164  0.97339571  1
  O  O45  1  0.94743649  0.29369836  0.02660429  1
  O  O46  1  0.92196290  0.50362373  0.79591797  1
  O  O47  1  0.07803710  0.49637627  0.20408203  1
