# generated using pymatgen
data_K3TbGe3(HO5)2
_symmetry_space_group_name_H-M   'P 1'
_cell_length_a   6.11396428
_cell_length_b   13.76150583
_cell_length_c   14.08787461
_cell_angle_alpha   90.00000000
_cell_angle_beta   90.00000000
_cell_angle_gamma   90.00000000
_symmetry_Int_Tables_number   1
_chemical_formula_structural   K3TbGe3(HO5)2
_chemical_formula_sum   'K12 Tb4 Ge12 H8 O40'
_cell_volume   1185.31650844
_cell_formula_units_Z   4
loop_
 _symmetry_equiv_pos_site_id
 _symmetry_equiv_pos_as_xyz
  1  'x, y, z'
loop_
 _atom_site_type_symbol
 _atom_site_label
 _atom_site_symmetry_multiplicity
 _atom_site_fract_x
 _atom_site_fract_y
 _atom_site_fract_z
 _atom_site_occupancy
  K  K0  1  0.41952819  0.63127566  0.25000000  1
  K  K1  1  0.08047181  0.13127566  0.25000000  1
  K  K2  1  0.58047181  0.36872434  0.75000000  1
  K  K3  1  0.91952819  0.86872434  0.75000000  1
  K  K4  1  0.08974655  0.63521040  0.01520178  1
  K  K5  1  0.41025345  0.13521040  0.48479822  1
  K  K6  1  0.91025345  0.36478960  0.51520178  1
  K  K7  1  0.58974655  0.86478960  0.98479822  1
  K  K8  1  0.91025345  0.36478960  0.98479822  1
  K  K9  1  0.58974655  0.86478960  0.51520178  1
  K  K10  1  0.08974655  0.63521040  0.48479822  1
  K  K11  1  0.41025345  0.13521040  0.01520178  1
  Tb  Tb12  1  0.58955091  0.95911932  0.25000000  1
  Tb  Tb13  1  0.91044909  0.45911932  0.25000000  1
  Tb  Tb14  1  0.41044909  0.04088068  0.75000000  1
  Tb  Tb15  1  0.08955091  0.54088068  0.75000000  1
  Ge  Ge16  1  0.91269265  0.74451541  0.25000000  1
  Ge  Ge17  1  0.58730735  0.24451541  0.25000000  1
  Ge  Ge18  1  0.08730735  0.25548459  0.75000000  1
  Ge  Ge19  1  0.41269265  0.75548459  0.75000000  1
  Ge  Ge20  1  0.09117630  0.90112842  0.10351221  1
  Ge  Ge21  1  0.40882370  0.40112842  0.39648779  1
  Ge  Ge22  1  0.90882370  0.09887158  0.60351221  1
  Ge  Ge23  1  0.59117630  0.59887158  0.89648779  1
  Ge  Ge24  1  0.90882370  0.09887158  0.89648779  1
  Ge  Ge25  1  0.59117630  0.59887158  0.60351221  1
  Ge  Ge26  1  0.09117630  0.90112842  0.39648779  1
  Ge  Ge27  1  0.40882370  0.40112842  0.10351221  1
  H  H28  1  0.11621268  0.92488952  0.93760384  1
  H  H29  1  0.38378732  0.42488952  0.56239616  1
  H  H30  1  0.88378732  0.07511048  0.43760384  1
  H  H31  1  0.61621268  0.57511048  0.06239616  1
  H  H32  1  0.88378732  0.07511048  0.06239616  1
  H  H33  1  0.61621268  0.57511048  0.43760384  1
  H  H34  1  0.11621268  0.92488952  0.56239616  1
  H  H35  1  0.38378732  0.42488952  0.93760384  1
  O  O36  1  0.65634575  0.79743680  0.25000000  1
  O  O37  1  0.84365425  0.29743680  0.25000000  1
  O  O38  1  0.34365425  0.20256320  0.75000000  1
  O  O39  1  0.15634575  0.70256320  0.75000000  1
  O  O40  1  0.92363035  0.61929195  0.25000000  1
  O  O41  1  0.57636965  0.11929195  0.25000000  1
  O  O42  1  0.07636965  0.38070805  0.75000000  1
  O  O43  1  0.42363035  0.88070805  0.75000000  1
  O  O44  1  0.08681613  0.86618762  0.97877467  1
  O  O45  1  0.41318387  0.36618762  0.52122533  1
  O  O46  1  0.91318387  0.13381238  0.47877467  1
  O  O47  1  0.58681613  0.63381238  0.02122533  1
  O  O48  1  0.91318387  0.13381238  0.02122533  1
  O  O49  1  0.58681613  0.63381238  0.47877467  1
  O  O50  1  0.08681613  0.86618762  0.52122533  1
  O  O51  1  0.41318387  0.36618762  0.97877467  1
  O  O52  1  0.33841177  0.95786250  0.12997058  1
  O  O53  1  0.16158823  0.45786250  0.37002942  1
  O  O54  1  0.66158823  0.04213750  0.62997058  1
  O  O55  1  0.83841177  0.54213750  0.87002942  1
  O  O56  1  0.66158823  0.04213750  0.87002942  1
  O  O57  1  0.83841177  0.54213750  0.62997058  1
  O  O58  1  0.33841177  0.95786250  0.37002942  1
  O  O59  1  0.16158823  0.45786250  0.12997058  1
  O  O60  1  0.07880794  0.77896524  0.14898262  1
  O  O61  1  0.42119206  0.27896524  0.35101738  1
  O  O62  1  0.92119206  0.22103476  0.64898262  1
  O  O63  1  0.57880794  0.72103476  0.85101738  1
  O  O64  1  0.92119206  0.22103476  0.85101738  1
  O  O65  1  0.57880794  0.72103476  0.64898262  1
  O  O66  1  0.07880794  0.77896524  0.35101738  1
  O  O67  1  0.42119206  0.27896524  0.14898262  1
  O  O68  1  0.86025095  0.97125212  0.13157619  1
  O  O69  1  0.63974905  0.47125212  0.36842381  1
  O  O70  1  0.13974905  0.02874788  0.63157619  1
  O  O71  1  0.36025095  0.52874788  0.86842381  1
  O  O72  1  0.13974905  0.02874788  0.86842381  1
  O  O73  1  0.36025095  0.52874788  0.63157619  1
  O  O74  1  0.86025095  0.97125212  0.36842381  1
  O  O75  1  0.63974905  0.47125212  0.13157619  1
