# generated using pymatgen
data_La3VH3O8
_symmetry_space_group_name_H-M   'P 1'
_cell_length_a   5.75600112
_cell_length_b   6.41456776
_cell_length_c   10.83530746
_cell_angle_alpha   90.00000000
_cell_angle_beta   90.00000000
_cell_angle_gamma   104.39621264
_symmetry_Int_Tables_number   1
_chemical_formula_structural   La3VH3O8
_chemical_formula_sum   'La6 V2 H6 O16'
_cell_volume   387.50185919
_cell_formula_units_Z   2
loop_
 _symmetry_equiv_pos_site_id
 _symmetry_equiv_pos_as_xyz
  1  'x, y, z'
loop_
 _atom_site_type_symbol
 _atom_site_label
 _atom_site_symmetry_multiplicity
 _atom_site_fract_x
 _atom_site_fract_y
 _atom_site_fract_z
 _atom_site_occupancy
  La  La0  1  0.77429953  0.80139984  0.75000000  1
  La  La1  1  0.22570047  0.19860016  0.25000000  1
  La  La2  1  0.68845334  0.30372403  0.54238865  1
  La  La3  1  0.31154666  0.69627597  0.04238865  1
  La  La4  1  0.31154666  0.69627597  0.45761135  1
  La  La5  1  0.68845334  0.30372403  0.95761135  1
  V  V6  1  0.18973152  0.46975705  0.75000000  1
  V  V7  1  0.81026848  0.53024295  0.25000000  1
  H  H8  1  0.84577994  0.89528059  0.46749551  1
  H  H9  1  0.15422006  0.10471941  0.96749551  1
  H  H10  1  0.15422006  0.10471941  0.53250449  1
  H  H11  1  0.84577994  0.89528059  0.03250449  1
  H  H12  1  0.37836232  0.09728834  0.75000000  1
  H  H13  1  0.62163768  0.90271166  0.25000000  1
  O  O14  1  0.00767626  0.59362191  0.62752500  1
  O  O15  1  0.99232374  0.40637809  0.12752500  1
  O  O16  1  0.99232374  0.40637809  0.37247500  1
  O  O17  1  0.00767626  0.59362191  0.87247500  1
  O  O18  1  0.45731790  0.54080602  0.63189293  1
  O  O19  1  0.54268210  0.45919398  0.13189293  1
  O  O20  1  0.54268210  0.45919398  0.36810707  1
  O  O21  1  0.45731790  0.54080602  0.86810707  1
  O  O22  1  0.73268298  0.93269351  0.52512533  1
  O  O23  1  0.26731702  0.06730649  0.02512533  1
  O  O24  1  0.26731702  0.06730649  0.47487467  1
  O  O25  1  0.73268298  0.93269351  0.97487467  1
  O  O26  1  0.06381030  0.19354258  0.75000000  1
  O  O27  1  0.93618970  0.80645742  0.25000000  1
  O  O28  1  0.54990269  0.10011201  0.75000000  1
  O  O29  1  0.45009731  0.89988799  0.25000000  1
