# generated using pymatgen
data_Eu3GaP3
_symmetry_space_group_name_H-M   'P 1'
_cell_length_a   6.25795619
_cell_length_b   9.73232685
_cell_length_c   12.17554229
_cell_angle_alpha   90.00000000
_cell_angle_beta   90.00000000
_cell_angle_gamma   108.75388051
_symmetry_Int_Tables_number   1
_chemical_formula_structural   Eu3GaP3
_chemical_formula_sum   'Eu12 Ga4 P12'
_cell_volume   702.17516885
_cell_formula_units_Z   4
loop_
 _symmetry_equiv_pos_site_id
 _symmetry_equiv_pos_as_xyz
  1  'x, y, z'
loop_
 _atom_site_type_symbol
 _atom_site_label
 _atom_site_symmetry_multiplicity
 _atom_site_fract_x
 _atom_site_fract_y
 _atom_site_fract_z
 _atom_site_occupancy
  Eu  Eu0  1  0.67968082  -0.00000000  0.85159051  1
  Eu  Eu1  1  0.32031918  -0.00000000  0.14840949  1
  Eu  Eu2  1  0.82031918  -0.00000000  0.35159051  1
  Eu  Eu3  1  0.17968082  -0.00000000  0.64840949  1
  Eu  Eu4  1  0.01387909  0.64683890  0.36854822  1
  Eu  Eu5  1  0.63295981  0.64683890  0.63145178  1
  Eu  Eu6  1  0.13295981  0.64683890  0.86854822  1
  Eu  Eu7  1  0.51387909  0.64683890  0.13145178  1
  Eu  Eu8  1  0.98612091  0.35316110  0.63145178  1
  Eu  Eu9  1  0.36704019  0.35316110  0.36854822  1
  Eu  Eu10  1  0.86704019  0.35316110  0.13145178  1
  Eu  Eu11  1  0.48612091  0.35316110  0.86854822  1
  Ga  Ga12  1  0.41325756  0.82651512  0.50000000  1
  Ga  Ga13  1  0.91325756  0.82651512  0.00000000  1
  Ga  Ga14  1  0.58674244  0.17348488  0.50000000  1
  Ga  Ga15  1  0.08674244  0.17348488  0.00000000  1
  P  P16  1  0.21481355  -0.00000000  0.89343578  1
  P  P17  1  0.78518645  -0.00000000  0.10656422  1
  P  P18  1  0.28518645  -0.00000000  0.39343578  1
  P  P19  1  0.71481355  -0.00000000  0.60656422  1
  P  P20  1  0.62647245  0.67734759  0.87698169  1
  P  P21  1  0.05087514  0.67734759  0.12301831  1
  P  P22  1  0.55087514  0.67734759  0.37698169  1
  P  P23  1  0.12647245  0.67734759  0.62301831  1
  P  P24  1  0.37352755  0.32265241  0.12301831  1
  P  P25  1  0.94912486  0.32265241  0.87698169  1
  P  P26  1  0.44912486  0.32265241  0.62301831  1
  P  P27  1  0.87352755  0.32265241  0.37698169  1
