# generated using pymatgen
data_TmMoBrO4
_symmetry_space_group_name_H-M   'P 1'
_cell_length_a   6.93463793
_cell_length_b   7.23145855
_cell_length_c   10.85649604
_cell_angle_alpha   103.51927012
_cell_angle_beta   107.72106250
_cell_angle_gamma   94.67889823
_symmetry_Int_Tables_number   1
_chemical_formula_structural   TmMoBrO4
_chemical_formula_sum   'Tm4 Mo4 Br4 O16'
_cell_volume   497.32077531
_cell_formula_units_Z   4
loop_
 _symmetry_equiv_pos_site_id
 _symmetry_equiv_pos_as_xyz
  1  'x, y, z'
loop_
 _atom_site_type_symbol
 _atom_site_label
 _atom_site_symmetry_multiplicity
 _atom_site_fract_x
 _atom_site_fract_y
 _atom_site_fract_z
 _atom_site_occupancy
  Tm  Tm0  1  0.65806329  0.10702134  0.73041278  1
  Tm  Tm1  1  0.34193671  0.89297866  0.26958722  1
  Tm  Tm2  1  0.38271537  0.66222688  0.76792519  1
  Tm  Tm3  1  0.61728463  0.33777312  0.23207481  1
  Mo  Mo4  1  0.72941736  0.81443784  0.13432992  1
  Mo  Mo5  1  0.27058264  0.18556216  0.86567008  1
  Mo  Mo6  1  0.77289872  0.58831744  0.62690221  1
  Mo  Mo7  1  0.22710128  0.41168256  0.37309779  1
  Br  Br8  1  0.26314187  0.00196230  0.52016605  1
  Br  Br9  1  0.73685813  0.99803770  0.47983395  1
  Br  Br10  1  0.19033443  0.71943659  0.98284175  1
  Br  Br11  1  0.80966557  0.28056341  0.01715825  1
  O  O12  1  0.66000648  0.73145240  0.95710585  1
  O  O13  1  0.33999352  0.26854760  0.04289415  1
  O  O14  1  0.00110643  0.88012501  0.20631984  1
  O  O15  1  0.99889357  0.11987499  0.79368016  1
  O  O16  1  0.63814532  0.63278870  0.20074409  1
  O  O17  1  0.36185468  0.36721130  0.79925591  1
  O  O18  1  0.40437527  0.98555056  0.81598079  1
  O  O19  1  0.59562473  0.01444944  0.18401921  1
  O  O20  1  0.04234298  0.65255099  0.66983513  1
  O  O21  1  0.95765702  0.34744901  0.33016487  1
  O  O22  1  0.72540715  0.39959097  0.69930627  1
  O  O23  1  0.27459285  0.60040903  0.30069373  1
  O  O24  1  0.66836276  0.50368849  0.44765257  1
  O  O25  1  0.33163724  0.49631151  0.55234743  1
  O  O26  1  0.65530918  0.78698947  0.70342490  1
  O  O27  1  0.34469082  0.21301053  0.29657510  1
