# generated using pymatgen
data_Sn3Ir2Se3
_symmetry_space_group_name_H-M   'P 1'
_cell_length_a   9.09534284
_cell_length_b   9.09534279
_cell_length_c   9.09534287
_cell_angle_alpha   89.93777927
_cell_angle_beta   89.93777929
_cell_angle_gamma   89.93777981
_symmetry_Int_Tables_number   1
_chemical_formula_structural   Sn3Ir2Se3
_chemical_formula_sum   'Sn12 Ir8 Se12'
_cell_volume   752.41328221
_cell_formula_units_Z   4
loop_
 _symmetry_equiv_pos_site_id
 _symmetry_equiv_pos_as_xyz
  1  'x, y, z'
loop_
 _atom_site_type_symbol
 _atom_site_label
 _atom_site_symmetry_multiplicity
 _atom_site_fract_x
 _atom_site_fract_y
 _atom_site_fract_z
 _atom_site_occupancy
  Sn  Sn0  1  0.65105668  0.83171385  0.49934302  1
  Sn  Sn1  1  0.49934302  0.65105668  0.83171385  1
  Sn  Sn2  1  0.83171385  0.49934302  0.65105668  1
  Sn  Sn3  1  0.34894332  0.16828615  0.50065698  1
  Sn  Sn4  1  0.50065698  0.34894332  0.16828615  1
  Sn  Sn5  1  0.16828615  0.50065698  0.34894332  1
  Sn  Sn6  1  0.15180267  0.66779975  0.00155681  1
  Sn  Sn7  1  0.00155681  0.15180267  0.66779975  1
  Sn  Sn8  1  0.66779975  0.00155681  0.15180267  1
  Sn  Sn9  1  0.84819733  0.33220025  0.99844319  1
  Sn  Sn10  1  0.99844319  0.84819733  0.33220025  1
  Sn  Sn11  1  0.33220025  0.99844319  0.84819733  1
  Ir  Ir12  1  0.75484262  0.75484262  0.75484262  1
  Ir  Ir13  1  0.24515738  0.24515738  0.24515738  1
  Ir  Ir14  1  0.25447414  0.25584649  0.75550969  1
  Ir  Ir15  1  0.75550969  0.25447414  0.25584649  1
  Ir  Ir16  1  0.25584649  0.75550969  0.25447414  1
  Ir  Ir17  1  0.74552586  0.74415351  0.24449031  1
  Ir  Ir18  1  0.24449031  0.74552586  0.74415351  1
  Ir  Ir19  1  0.74415351  0.24449031  0.74552586  1
  Se  Se20  1  0.00132170  0.14884492  0.34653438  1
  Se  Se21  1  0.34653438  0.00132170  0.14884492  1
  Se  Se22  1  0.14884492  0.34653438  0.00132170  1
  Se  Se23  1  0.99867830  0.85115508  0.65346562  1
  Se  Se24  1  0.65346562  0.99867830  0.85115508  1
  Se  Se25  1  0.85115508  0.65346562  0.99867830  1
  Se  Se26  1  0.50022488  0.34957977  0.84754630  1
  Se  Se27  1  0.84754630  0.50022488  0.34957977  1
  Se  Se28  1  0.34957977  0.84754630  0.50022488  1
  Se  Se29  1  0.49977512  0.65042023  0.15245370  1
  Se  Se30  1  0.15245370  0.49977512  0.65042023  1
  Se  Se31  1  0.65042023  0.15245370  0.49977512  1
