# generated using pymatgen
data_TaTlV2O8
_symmetry_space_group_name_H-M   'P 1'
_cell_length_a   5.67936688
_cell_length_b   9.12558848
_cell_length_c   15.13544643
_cell_angle_alpha   90.00000000
_cell_angle_beta   90.00000000
_cell_angle_gamma   90.00000000
_symmetry_Int_Tables_number   1
_chemical_formula_structural   TaTlV2O8
_chemical_formula_sum   'Ta4 Tl4 V8 O32'
_cell_volume   784.43333326
_cell_formula_units_Z   4
loop_
 _symmetry_equiv_pos_site_id
 _symmetry_equiv_pos_as_xyz
  1  'x, y, z'
loop_
 _atom_site_type_symbol
 _atom_site_label
 _atom_site_symmetry_multiplicity
 _atom_site_fract_x
 _atom_site_fract_y
 _atom_site_fract_z
 _atom_site_occupancy
  Ta  Ta0  1  0.25000000  0.99469519  0.65861872  1
  Ta  Ta1  1  0.25000000  0.50530481  0.15861872  1
  Ta  Ta2  1  0.75000000  0.00530481  0.34138128  1
  Ta  Ta3  1  0.75000000  0.49469519  0.84138128  1
  Tl  Tl4  1  0.25000000  0.44007287  0.60539546  1
  Tl  Tl5  1  0.25000000  0.05992713  0.10539546  1
  Tl  Tl6  1  0.75000000  0.55992713  0.39460454  1
  Tl  Tl7  1  0.75000000  0.94007287  0.89460454  1
  V  V8  1  0.25000000  0.24403287  0.84014606  1
  V  V9  1  0.25000000  0.25596713  0.34014606  1
  V  V10  1  0.75000000  0.75596713  0.15985394  1
  V  V11  1  0.75000000  0.74403287  0.65985394  1
  V  V12  1  0.25000000  0.81647256  0.43776833  1
  V  V13  1  0.25000000  0.68352744  0.93776833  1
  V  V14  1  0.75000000  0.18352744  0.56223167  1
  V  V15  1  0.75000000  0.31647256  0.06223167  1
  O  O16  1  0.99761986  0.34862186  0.81154711  1
  O  O17  1  0.50238014  0.15137814  0.31154711  1
  O  O18  1  0.49761986  0.65137814  0.18845289  1
  O  O19  1  0.00238014  0.84862186  0.68845289  1
  O  O20  1  0.00238014  0.65137814  0.18845289  1
  O  O21  1  0.49761986  0.84862186  0.68845289  1
  O  O22  1  0.50238014  0.34862186  0.81154711  1
  O  O23  1  0.99761986  0.15137814  0.31154711  1
  O  O24  1  0.99542219  0.85815343  0.37423869  1
  O  O25  1  0.50457781  0.64184657  0.87423869  1
  O  O26  1  0.49542219  0.14184657  0.62576131  1
  O  O27  1  0.00457781  0.35815343  0.12576131  1
  O  O28  1  0.00457781  0.14184657  0.62576131  1
  O  O29  1  0.49542219  0.35815343  0.12576131  1
  O  O30  1  0.50457781  0.85815343  0.37423869  1
  O  O31  1  0.99542219  0.64184657  0.87423869  1
  O  O32  1  0.25000000  0.07476464  0.78066287  1
  O  O33  1  0.25000000  0.42523536  0.28066287  1
  O  O34  1  0.75000000  0.92523536  0.21933713  1
  O  O35  1  0.75000000  0.57476464  0.71933713  1
  O  O36  1  0.25000000  0.92210734  0.53494503  1
  O  O37  1  0.25000000  0.57789266  0.03494503  1
  O  O38  1  0.75000000  0.07789266  0.46505497  1
  O  O39  1  0.75000000  0.42210734  0.96505497  1
  O  O40  1  0.25000000  0.20998614  0.94738246  1
  O  O41  1  0.25000000  0.29001386  0.44738246  1
  O  O42  1  0.75000000  0.79001386  0.05261754  1
  O  O43  1  0.75000000  0.70998614  0.55261754  1
  O  O44  1  0.25000000  0.63734300  0.46015640  1
  O  O45  1  0.25000000  0.86265700  0.96015640  1
  O  O46  1  0.75000000  0.36265700  0.53984360  1
  O  O47  1  0.75000000  0.13734300  0.03984360  1
