# generated using pymatgen
data_BaMnPClO4F
_symmetry_space_group_name_H-M   'P 1'
_cell_length_a   7.34611271
_cell_length_b   8.71032132
_cell_length_c   9.06037938
_cell_angle_alpha   90.00000000
_cell_angle_beta   107.50587653
_cell_angle_gamma   90.00000000
_symmetry_Int_Tables_number   1
_chemical_formula_structural   BaMnPClO4F
_chemical_formula_sum   'Ba4 Mn4 P4 Cl4 O16 F4'
_cell_volume   552.89619534
_cell_formula_units_Z   4
loop_
 _symmetry_equiv_pos_site_id
 _symmetry_equiv_pos_as_xyz
  1  'x, y, z'
loop_
 _atom_site_type_symbol
 _atom_site_label
 _atom_site_symmetry_multiplicity
 _atom_site_fract_x
 _atom_site_fract_y
 _atom_site_fract_z
 _atom_site_occupancy
  Ba  Ba0  1  0.95802806  0.23169190  0.11541609  1
  Ba  Ba1  1  0.04197194  0.73169190  0.38458391  1
  Ba  Ba2  1  0.04197194  0.76830810  0.88458391  1
  Ba  Ba3  1  0.95802806  0.26830810  0.61541609  1
  Mn  Mn4  1  0.61132255  0.00140829  0.77400238  1
  Mn  Mn5  1  0.38867745  0.50140829  0.72599762  1
  Mn  Mn6  1  0.38867745  0.99859171  0.22599762  1
  Mn  Mn7  1  0.61132255  0.49859171  0.27400238  1
  P  P8  1  0.44725785  0.24855005  0.98790863  1
  P  P9  1  0.55274215  0.74855005  0.51209137  1
  P  P10  1  0.55274215  0.75144995  0.01209137  1
  P  P11  1  0.44725785  0.25144995  0.48790863  1
  Cl  Cl12  1  0.23237717  0.96615707  0.67246337  1
  Cl  Cl13  1  0.76762283  0.46615707  0.82753663  1
  Cl  Cl14  1  0.76762283  0.03384293  0.32753663  1
  Cl  Cl15  1  0.23237717  0.53384293  0.17246337  1
  O  O16  1  0.58882788  0.34848983  0.11204437  1
  O  O17  1  0.41117212  0.84848983  0.38795563  1
  O  O18  1  0.41117212  0.65151017  0.88795563  1
  O  O19  1  0.58882788  0.15151017  0.61204437  1
  O  O20  1  0.58297765  0.14625747  0.92878069  1
  O  O21  1  0.41702235  0.64625747  0.57121931  1
  O  O22  1  0.41702235  0.85374253  0.07121931  1
  O  O23  1  0.58297765  0.35374253  0.42878069  1
  O  O24  1  0.31312885  0.34487572  0.85606950  1
  O  O25  1  0.68687115  0.84487572  0.64393050  1
  O  O26  1  0.68687115  0.65512428  0.14393050  1
  O  O27  1  0.31312885  0.15512428  0.35606950  1
  O  O28  1  0.31616370  0.15395148  0.05931291  1
  O  O29  1  0.68383630  0.65395148  0.44068709  1
  O  O30  1  0.68383630  0.84604852  0.94068709  1
  O  O31  1  0.31616370  0.34604852  0.55931291  1
  F  F32  1  0.90827831  0.06979065  0.84424034  1
  F  F33  1  0.09172169  0.56979065  0.65575966  1
  F  F34  1  0.09172169  0.93020935  0.15575966  1
  F  F35  1  0.90827831  0.43020935  0.34424034  1
