# generated using pymatgen
data_FePH12(CCl)4
_symmetry_space_group_name_H-M   'P 1'
_cell_length_a   8.11885840
_cell_length_b   8.11880237
_cell_length_c   13.27265742
_cell_angle_alpha   90.00000000
_cell_angle_beta   90.00000000
_cell_angle_gamma   119.99479314
_symmetry_Int_Tables_number   1
_chemical_formula_structural   FePH12(CCl)4
_chemical_formula_sum   'Fe2 P2 H24 C8 Cl8'
_cell_volume   757.70165762
_cell_formula_units_Z   2
loop_
 _symmetry_equiv_pos_site_id
 _symmetry_equiv_pos_as_xyz
  1  'x, y, z'
loop_
 _atom_site_type_symbol
 _atom_site_label
 _atom_site_symmetry_multiplicity
 _atom_site_fract_x
 _atom_site_fract_y
 _atom_site_fract_z
 _atom_site_occupancy
  Fe  Fe0  1  0.99998856  0.99999378  0.03913929  1
  Fe  Fe1  1  0.00001144  0.00000622  0.53913929  1
  P  P2  1  0.66666864  0.33332892  0.29576782  1
  P  P3  1  0.33333136  0.66667108  0.79576782  1
  H  H4  1  0.74058032  0.25941864  0.45755952  1
  H  H5  1  0.51893977  0.25943953  0.45755451  1
  H  H6  1  0.74056342  0.48106158  0.45755431  1
  H  H7  1  0.25941968  0.74058136  0.95755952  1
  H  H8  1  0.48106023  0.74056047  0.95755451  1
  H  H9  1  0.25943658  0.51893842  0.95755431  1
  H  H10  1  0.54715175  0.09437422  0.16802728  1
  H  H11  1  0.54723150  0.45284094  0.16806586  1
  H  H12  1  0.90562555  0.45277734  0.16802620  1
  H  H13  1  0.45284825  0.90562578  0.66802728  1
  H  H14  1  0.45276850  0.54715906  0.66806586  1
  H  H15  1  0.09437445  0.54722266  0.66802620  1
  H  H16  1  0.39944256  0.02085634  0.27876403  1
  H  H17  1  0.62142173  0.60056803  0.27877021  1
  H  H18  1  0.97913732  0.37860623  0.27875531  1
  H  H19  1  0.62126470  0.02091337  0.27873360  1
  H  H20  1  0.97909279  0.60037810  0.27874216  1
  H  H21  1  0.39961449  0.37870940  0.27874898  1
  H  H22  1  0.60055744  0.97914366  0.77876403  1
  H  H23  1  0.37857827  0.39943197  0.77877021  1
  H  H24  1  0.02086268  0.62139377  0.77875531  1
  H  H25  1  0.37873530  0.97908663  0.77873360  1
  H  H26  1  0.02090721  0.39962190  0.77874216  1
  H  H27  1  0.60038551  0.62129060  0.77874898  1
  C  C28  1  0.66668774  0.33331559  0.43086194  1
  C  C29  1  0.33331226  0.66668441  0.93086194  1
  C  C30  1  0.54659432  0.09302985  0.25081988  1
  C  C31  1  0.54650254  0.45342891  0.25078393  1
  C  C32  1  0.90697728  0.45348930  0.25082218  1
  C  C33  1  0.45340568  0.90697015  0.75081988  1
  C  C34  1  0.45349746  0.54657109  0.75078393  1
  C  C35  1  0.09302272  0.54651070  0.75082218  1
  Cl  Cl36  1  0.99999830  0.00000185  0.20565706  1
  Cl  Cl37  1  0.00000170  0.99999815  0.70565706  1
  Cl  Cl38  1  0.29779518  0.14889972  0.98498298  1
  Cl  Cl39  1  0.85110401  0.70218807  0.98498068  1
  Cl  Cl40  1  0.85108517  0.14890478  0.98498230  1
  Cl  Cl41  1  0.70220482  0.85110028  0.48498298  1
  Cl  Cl42  1  0.14889599  0.29781193  0.48498068  1
  Cl  Cl43  1  0.14891483  0.85109522  0.48498230  1
