# generated using pymatgen
data_CsTaV2O8
_symmetry_space_group_name_H-M   'P 1'
_cell_length_a   5.71194005
_cell_length_b   9.30666184
_cell_length_c   17.04228024
_cell_angle_alpha   106.14553253
_cell_angle_beta   90.00000000
_cell_angle_gamma   90.00000000
_symmetry_Int_Tables_number   1
_chemical_formula_structural   CsTaV2O8
_chemical_formula_sum   'Cs4 Ta4 V8 O32'
_cell_volume   870.22004604
_cell_formula_units_Z   4
loop_
 _symmetry_equiv_pos_site_id
 _symmetry_equiv_pos_as_xyz
  1  'x, y, z'
loop_
 _atom_site_type_symbol
 _atom_site_label
 _atom_site_symmetry_multiplicity
 _atom_site_fract_x
 _atom_site_fract_y
 _atom_site_fract_z
 _atom_site_occupancy
  Cs  Cs0  1  0.75000000  0.60205577  0.61091573  1
  Cs  Cs1  1  0.25000000  0.39794423  0.38908427  1
  Cs  Cs2  1  0.75000000  0.41570809  0.88320257  1
  Cs  Cs3  1  0.25000000  0.58429191  0.11679743  1
  Ta  Ta4  1  0.75000000  0.93689594  0.84876070  1
  Ta  Ta5  1  0.25000000  0.06310406  0.15123930  1
  Ta  Ta6  1  0.75000000  0.07105558  0.65336034  1
  Ta  Ta7  1  0.25000000  0.92894442  0.34663966  1
  V  V8  1  0.25000000  0.16591506  0.95602097  1
  V  V9  1  0.75000000  0.83408494  0.04397903  1
  V  V10  1  0.25000000  0.84432424  0.54993145  1
  V  V11  1  0.75000000  0.15567576  0.45006855  1
  V  V12  1  0.25000000  0.31323260  0.66780057  1
  V  V13  1  0.75000000  0.68676740  0.33219943  1
  V  V14  1  0.25000000  0.68204057  0.79844627  1
  V  V15  1  0.75000000  0.31795943  0.20155373  1
  O  O16  1  0.99502082  0.07705119  0.90488591  1
  O  O17  1  0.49502082  0.92294881  0.09511409  1
  O  O18  1  0.00497918  0.92294881  0.09511409  1
  O  O19  1  0.50497918  0.07705119  0.90488591  1
  O  O20  1  0.25000000  0.16004085  0.05794107  1
  O  O21  1  0.75000000  0.83995915  0.94205893  1
  O  O22  1  0.99291012  0.78525580  0.79396039  1
  O  O23  1  0.49291012  0.21474420  0.20603961  1
  O  O24  1  0.00708988  0.21474420  0.20603961  1
  O  O25  1  0.50708988  0.78525580  0.79396039  1
  O  O26  1  0.75000000  0.01991485  0.75601693  1
  O  O27  1  0.25000000  0.98008515  0.24398307  1
  O  O28  1  0.99327465  0.23356425  0.69629878  1
  O  O29  1  0.49327465  0.76643575  0.30370122  1
  O  O30  1  0.00672535  0.76643575  0.30370122  1
  O  O31  1  0.50672535  0.23356425  0.69629878  1
  O  O32  1  0.25000000  0.87182559  0.45270688  1
  O  O33  1  0.75000000  0.12817441  0.54729312  1
  O  O34  1  0.99660835  0.92424072  0.60690424  1
  O  O35  1  0.49660835  0.07575928  0.39309576  1
  O  O36  1  0.00339165  0.07575928  0.39309576  1
  O  O37  1  0.50339165  0.92424072  0.60690424  1
  O  O38  1  0.25000000  0.34253097  0.95220502  1
  O  O39  1  0.75000000  0.65746903  0.04779498  1
  O  O40  1  0.25000000  0.66261785  0.54240348  1
  O  O41  1  0.75000000  0.33738215  0.45759652  1
  O  O42  1  0.25000000  0.28684933  0.56864818  1
  O  O43  1  0.75000000  0.71315067  0.43135182  1
  O  O44  1  0.25000000  0.51604158  0.71219326  1
  O  O45  1  0.75000000  0.48395842  0.28780674  1
  O  O46  1  0.25000000  0.63040015  0.88290634  1
  O  O47  1  0.75000000  0.36959985  0.11709366  1
