# generated using pymatgen
data_Na3MoO4F
_symmetry_space_group_name_H-M   'P 1'
_cell_length_a   5.66470740
_cell_length_b   7.61201761
_cell_length_c   13.04212769
_cell_angle_alpha   90.00000000
_cell_angle_beta   90.00000000
_cell_angle_gamma   90.00000000
_symmetry_Int_Tables_number   1
_chemical_formula_structural   Na3MoO4F
_chemical_formula_sum   'Na12 Mo4 O16 F4'
_cell_volume   562.37462207
_cell_formula_units_Z   4
loop_
 _symmetry_equiv_pos_site_id
 _symmetry_equiv_pos_as_xyz
  1  'x, y, z'
loop_
 _atom_site_type_symbol
 _atom_site_label
 _atom_site_symmetry_multiplicity
 _atom_site_fract_x
 _atom_site_fract_y
 _atom_site_fract_z
 _atom_site_occupancy
  Na  Na0  1  0.22703355  0.25000000  0.60730555  1
  Na  Na1  1  0.72703355  0.25000000  0.89269445  1
  Na  Na2  1  0.77296645  0.75000000  0.39269445  1
  Na  Na3  1  0.27296645  0.75000000  0.10730555  1
  Na  Na4  1  0.22998271  0.53957401  0.32064796  1
  Na  Na5  1  0.72998271  0.96042599  0.17935204  1
  Na  Na6  1  0.77001729  0.03957401  0.67935204  1
  Na  Na7  1  0.27001729  0.46042599  0.82064796  1
  Na  Na8  1  0.77001729  0.46042599  0.67935204  1
  Na  Na9  1  0.27001729  0.03957401  0.82064796  1
  Na  Na10  1  0.22998271  0.96042599  0.32064796  1
  Na  Na11  1  0.72998271  0.53957401  0.17935204  1
  Mo  Mo12  1  0.70926239  0.25000000  0.41600800  1
  Mo  Mo13  1  0.20926239  0.25000000  0.08399200  1
  Mo  Mo14  1  0.29073761  0.75000000  0.58399200  1
  Mo  Mo15  1  0.79073761  0.75000000  0.91600800  1
  O  O16  1  0.82416888  0.25000000  0.54420077  1
  O  O17  1  0.32416888  0.25000000  0.95579923  1
  O  O18  1  0.17583112  0.75000000  0.45579923  1
  O  O19  1  0.67583112  0.75000000  0.04420077  1
  O  O20  1  0.81058891  0.44241634  0.34939265  1
  O  O21  1  0.31058891  0.05758366  0.15060735  1
  O  O22  1  0.18941109  0.94241634  0.65060735  1
  O  O23  1  0.68941109  0.55758366  0.84939265  1
  O  O24  1  0.18941109  0.55758366  0.65060735  1
  O  O25  1  0.68941109  0.94241634  0.84939265  1
  O  O26  1  0.81058891  0.05758366  0.34939265  1
  O  O27  1  0.31058891  0.44241634  0.15060735  1
  O  O28  1  0.39045199  0.25000000  0.42111755  1
  O  O29  1  0.89045199  0.25000000  0.07888245  1
  O  O30  1  0.60954801  0.75000000  0.57888245  1
  O  O31  1  0.10954801  0.75000000  0.92111755  1
  F  F32  1  0.50211630  0.25000000  0.73282010  1
  F  F33  1  0.00211630  0.25000000  0.76717990  1
  F  F34  1  0.49788370  0.75000000  0.26717990  1
  F  F35  1  0.99788370  0.75000000  0.23282010  1
