# generated using pymatgen
data_Na5Mn3S4(O4F)4
_symmetry_space_group_name_H-M   'P 1'
_cell_length_a   6.74532934
_cell_length_b   6.79429055
_cell_length_c   9.10793635
_cell_angle_alpha   94.62946552
_cell_angle_beta   97.01110749
_cell_angle_gamma   92.30985344
_symmetry_Int_Tables_number   1
_chemical_formula_structural   Na5Mn3S4(O4F)4
_chemical_formula_sum   'Na5 Mn3 S4 O16 F4'
_cell_volume   412.41035368
_cell_formula_units_Z   1
loop_
 _symmetry_equiv_pos_site_id
 _symmetry_equiv_pos_as_xyz
  1  'x, y, z'
loop_
 _atom_site_type_symbol
 _atom_site_label
 _atom_site_symmetry_multiplicity
 _atom_site_fract_x
 _atom_site_fract_y
 _atom_site_fract_z
 _atom_site_occupancy
  Na  Na0  1  0.50000000  -0.00000000  0.00000000  1
  Na  Na1  1  0.96445366  0.73766349  0.01812285  1
  Na  Na2  1  0.03554634  0.26233651  0.98187715  1
  Na  Na3  1  0.26051264  0.49406796  0.33914534  1
  Na  Na4  1  0.73948736  0.50593204  0.66085466  1
  Mn  Mn5  1  0.72792530  0.83888284  0.35744291  1
  Mn  Mn6  1  0.27207470  0.16111716  0.64255709  1
  Mn  Mn7  1  0.50000000  0.50000000  0.00000000  1
  S  S8  1  0.22270477  0.95519346  0.29804612  1
  S  S9  1  0.77729523  0.04480654  0.70195388  1
  S  S10  1  0.74788538  0.34556117  0.28054897  1
  S  S11  1  0.25211462  0.65443883  0.71945103  1
  O  O12  1  0.93184094  0.39183786  0.21749479  1
  O  O13  1  0.06815906  0.60816214  0.78250521  1
  O  O14  1  0.04168324  0.82799170  0.31502206  1
  O  O15  1  0.95831676  0.17200830  0.68497794  1
  O  O16  1  0.40039131  0.83725000  0.33686509  1
  O  O17  1  0.59960869  0.16275000  0.66313491  1
  O  O18  1  0.76450194  0.85978488  0.59941117  1
  O  O19  1  0.23549806  0.14021512  0.40058883  1
  O  O20  1  0.74982221  0.15786310  0.34959357  1
  O  O21  1  0.25017779  0.84213690  0.65040643  1
  O  O22  1  0.57199935  0.31946193  0.15474573  1
  O  O23  1  0.42800065  0.68053807  0.84525427  1
  O  O24  1  0.70116709  0.50953355  0.38880548  1
  O  O25  1  0.29883291  0.49046645  0.61119452  1
  O  O26  1  0.20963173  0.00585888  0.14123830  1
  O  O27  1  0.79036827  0.99414112  0.85876170  1
  F  F28  1  0.74045652  0.46041344  0.91874751  1
  F  F29  1  0.25954348  0.53958656  0.08125249  1
  F  F30  1  0.66195311  0.75647759  0.12152597  1
  F  F31  1  0.33804689  0.24352241  0.87847403  1
