# generated using pymatgen
data_BaMg30CdO32
_symmetry_space_group_name_H-M   'P 1'
_cell_length_a   8.69503450
_cell_length_b   8.69503450
_cell_length_c   8.72606512
_cell_angle_alpha   90.00000000
_cell_angle_beta   90.00000000
_cell_angle_gamma   90.00000000
_symmetry_Int_Tables_number   1
_chemical_formula_structural   BaMg30CdO32
_chemical_formula_sum   'Ba1 Mg30 Cd1 O32'
_cell_volume   659.72215468
_cell_formula_units_Z   1
loop_
 _symmetry_equiv_pos_site_id
 _symmetry_equiv_pos_as_xyz
  1  'x, y, z'
loop_
 _atom_site_type_symbol
 _atom_site_label
 _atom_site_symmetry_multiplicity
 _atom_site_fract_x
 _atom_site_fract_y
 _atom_site_fract_z
 _atom_site_occupancy
  Ba  Ba0  1  -0.00000000  0.00000000  0.00000000  1
  Mg  Mg1  1  -0.00000000  0.50000000  0.00000000  1
  Mg  Mg2  1  -0.00000000  0.50000000  0.50000000  1
  Mg  Mg3  1  0.50000000  0.00000000  0.00000000  1
  Mg  Mg4  1  0.50000000  0.00000000  0.50000000  1
  Mg  Mg5  1  0.50000000  0.50000000  0.00000000  1
  Mg  Mg6  1  0.50000000  0.50000000  0.50000000  1
  Mg  Mg7  1  -0.00000000  0.26078834  0.25559721  1
  Mg  Mg8  1  -0.00000000  0.26078834  0.74440279  1
  Mg  Mg9  1  -0.00000000  0.73921166  0.25559721  1
  Mg  Mg10  1  -0.00000000  0.73921166  0.74440279  1
  Mg  Mg11  1  0.50000000  0.25127348  0.25074665  1
  Mg  Mg12  1  0.50000000  0.25127348  0.74925335  1
  Mg  Mg13  1  0.50000000  0.74872652  0.25074665  1
  Mg  Mg14  1  0.50000000  0.74872652  0.74925335  1
  Mg  Mg15  1  0.26078834  0.00000000  0.25559721  1
  Mg  Mg16  1  0.26078834  0.00000000  0.74440279  1
  Mg  Mg17  1  0.25127348  0.50000000  0.25074665  1
  Mg  Mg18  1  0.25127348  0.50000000  0.74925335  1
  Mg  Mg19  1  0.73921166  0.00000000  0.25559721  1
  Mg  Mg20  1  0.73921166  0.00000000  0.74440279  1
  Mg  Mg21  1  0.74872652  0.50000000  0.25074665  1
  Mg  Mg22  1  0.74872652  0.50000000  0.74925335  1
  Mg  Mg23  1  0.25760332  0.25760332  0.00000000  1
  Mg  Mg24  1  0.25277321  0.25277321  0.50000000  1
  Mg  Mg25  1  0.25760332  0.74239668  0.00000000  1
  Mg  Mg26  1  0.25277321  0.74722679  0.50000000  1
  Mg  Mg27  1  0.74239668  0.25760332  0.00000000  1
  Mg  Mg28  1  0.74722679  0.25277321  0.50000000  1
  Mg  Mg29  1  0.74239668  0.74239668  0.00000000  1
  Mg  Mg30  1  0.74722679  0.74722679  0.50000000  1
  Cd  Cd31  1  -0.00000000  0.00000000  0.50000000  1
  O  O32  1  0.27939831  0.00000000  0.00000000  1
  O  O33  1  0.26954557  0.00000000  0.50000000  1
  O  O34  1  0.25622886  0.50000000  0.00000000  1
  O  O35  1  0.25388096  0.50000000  0.50000000  1
  O  O36  1  0.72060169  0.00000000  0.00000000  1
  O  O37  1  0.73045443  0.00000000  0.50000000  1
  O  O38  1  0.74377114  0.50000000  0.00000000  1
  O  O39  1  0.74611904  0.50000000  0.50000000  1
  O  O40  1  0.24929474  0.24929474  0.24981193  1
  O  O41  1  0.24929474  0.24929474  0.75018807  1
  O  O42  1  0.24929474  0.75070526  0.24981193  1
  O  O43  1  0.24929474  0.75070526  0.75018807  1
  O  O44  1  0.75070526  0.24929474  0.24981193  1
  O  O45  1  0.75070526  0.24929474  0.75018807  1
  O  O46  1  0.75070526  0.75070526  0.24981193  1
  O  O47  1  0.75070526  0.75070526  0.75018807  1
  O  O48  1  -0.00000000  0.00000000  0.26666215  1
  O  O49  1  -0.00000000  0.00000000  0.73333785  1
  O  O50  1  -0.00000000  0.50000000  0.25322077  1
  O  O51  1  -0.00000000  0.50000000  0.74677923  1
  O  O52  1  0.50000000  0.00000000  0.25322077  1
  O  O53  1  0.50000000  0.00000000  0.74677923  1
  O  O54  1  0.50000000  0.50000000  0.25082796  1
  O  O55  1  0.50000000  0.50000000  0.74917204  1
  O  O56  1  -0.00000000  0.27939831  0.00000000  1
  O  O57  1  -0.00000000  0.26954557  0.50000000  1
  O  O58  1  -0.00000000  0.72060169  0.00000000  1
  O  O59  1  -0.00000000  0.73045443  0.50000000  1
  O  O60  1  0.50000000  0.25622886  0.00000000  1
  O  O61  1  0.50000000  0.25388096  0.50000000  1
  O  O62  1  0.50000000  0.74377114  0.00000000  1
  O  O63  1  0.50000000  0.74611904  0.50000000  1
