# generated using pymatgen
data_CaNp(HO)9
_symmetry_space_group_name_H-M   'P 1'
_cell_length_a   6.52163878
_cell_length_b   8.10068738
_cell_length_c   8.52814430
_cell_angle_alpha   80.89335166
_cell_angle_beta   69.11130811
_cell_angle_gamma   77.25247555
_symmetry_Int_Tables_number   1
_chemical_formula_structural   CaNp(HO)9
_chemical_formula_sum   'Ca2 Np2 H18 O18'
_cell_volume   408.98365211
_cell_formula_units_Z   2
loop_
 _symmetry_equiv_pos_site_id
 _symmetry_equiv_pos_as_xyz
  1  'x, y, z'
loop_
 _atom_site_type_symbol
 _atom_site_label
 _atom_site_symmetry_multiplicity
 _atom_site_fract_x
 _atom_site_fract_y
 _atom_site_fract_z
 _atom_site_occupancy
  Ca  Ca0  1  0.17798379  0.28649540  0.87165973  1
  Ca  Ca1  1  0.82201621  0.71350460  0.12834027  1
  Np  Np2  1  0.50000000  0.50000000  0.00000000  1
  Np  Np3  1  0.50000000  0.50000000  0.50000000  1
  H  H4  1  0.79171649  0.55816112  0.66513802  1
  H  H5  1  0.20828351  0.44183888  0.33486198  1
  H  H6  1  0.92490757  0.28650624  0.23650453  1
  H  H7  1  0.07509243  0.71349376  0.76349547  1
  H  H8  1  0.10535000  0.12429992  0.24364308  1
  H  H9  1  0.89465000  0.87570008  0.75635692  1
  H  H10  1  0.06765801  0.15523651  0.59837810  1
  H  H11  1  0.93234199  0.84476349  0.40162190  1
  H  H12  1  0.82732836  0.22714296  0.72581280  1
  H  H13  1  0.17267164  0.77285704  0.27418720  1
  H  H14  1  0.17606848  0.92985777  0.84576333  1
  H  H15  1  0.82393152  0.07014223  0.15423667  1
  H  H16  1  0.35556696  0.90317003  0.93697162  1
  H  H17  1  0.64443304  0.09682997  0.06302838  1
  H  H18  1  0.66363870  0.04128263  0.59347507  1
  H  H19  1  0.33636130  0.95871737  0.40652493  1
  H  H20  1  0.64675916  0.84722109  0.64018702  1
  H  H21  1  0.35324084  0.15277891  0.35981298  1
  O  O22  1  0.48469737  0.72535771  0.05025405  1
  O  O23  1  0.51530263  0.27464229  0.94974595  1
  O  O24  1  0.80116139  0.45501448  0.99443182  1
  O  O25  1  0.19883861  0.54498552  0.00556818  1
  O  O26  1  0.79597362  0.46175334  0.34200095  1
  O  O27  1  0.20402638  0.53824666  0.65799905  1
  O  O28  1  0.52593296  0.27254626  0.60114430  1
  O  O29  1  0.47406704  0.72745374  0.39885570  1
  O  O30  1  0.62837119  0.58091804  0.70337508  1
  O  O31  1  0.37162881  0.41908196  0.29662492  1
  O  O32  1  0.01552720  0.18643813  0.17299518  1
  O  O33  1  0.98447280  0.81356187  0.82700482  1
  O  O34  1  0.98746367  0.21345553  0.70359971  1
  O  O35  1  0.01253633  0.78654447  0.29640029  1
  O  O36  1  0.28514057  0.98616958  0.86470043  1
  O  O37  1  0.71485943  0.01383042  0.13529957  1
  O  O38  1  0.75406617  0.92567110  0.59422308  1
  O  O39  1  0.24593383  0.07432890  0.40577692  1
