# generated using pymatgen
data_YB3H33N7
_symmetry_space_group_name_H-M   'P 1'
_cell_length_a   8.38699374
_cell_length_b   13.81823210
_cell_length_c   14.85590827
_cell_angle_alpha   90.00000000
_cell_angle_beta   90.00000000
_cell_angle_gamma   90.00000000
_symmetry_Int_Tables_number   1
_chemical_formula_structural   YB3H33N7
_chemical_formula_sum   'Y4 B12 H132 N28'
_cell_volume   1721.70210754
_cell_formula_units_Z   4
loop_
 _symmetry_equiv_pos_site_id
 _symmetry_equiv_pos_as_xyz
  1  'x, y, z'
loop_
 _atom_site_type_symbol
 _atom_site_label
 _atom_site_symmetry_multiplicity
 _atom_site_fract_x
 _atom_site_fract_y
 _atom_site_fract_z
 _atom_site_occupancy
  Y  Y0  1  0.24858884  0.71642759  0.58386434  1
  Y  Y1  1  0.75141116  0.21642759  0.41613566  1
  Y  Y2  1  0.24858884  0.21642759  0.91613566  1
  Y  Y3  1  0.75141116  0.71642759  0.08386434  1
  B  B4  1  0.81337708  0.40787903  0.08507212  1
  B  B5  1  0.18662292  0.90787903  0.91492788  1
  B  B6  1  0.81337708  0.90787903  0.41492788  1
  B  B7  1  0.18662292  0.40787903  0.58507212  1
  B  B8  1  0.76802490  0.72671387  0.74607705  1
  B  B9  1  0.23197510  0.22671387  0.25392295  1
  B  B10  1  0.76802490  0.22671387  0.75392295  1
  B  B11  1  0.23197510  0.72671387  0.24607705  1
  B  B12  1  0.67919355  0.55265185  0.41436846  1
  B  B13  1  0.32080645  0.05265185  0.58563154  1
  B  B14  1  0.67919355  0.05265185  0.08563154  1
  B  B15  1  0.32080645  0.55265185  0.91436846  1
  H  H16  1  0.78703602  0.61817991  0.26854363  1
  H  H17  1  0.21296398  0.11817991  0.73145637  1
  H  H18  1  0.78703602  0.11817991  0.23145637  1
  H  H19  1  0.21296398  0.61817991  0.76854363  1
  H  H20  1  0.75876432  0.04390051  0.53450002  1
  H  H21  1  0.24123568  0.54390051  0.46549998  1
  H  H22  1  0.75876432  0.54390051  0.96549998  1
  H  H23  1  0.24123568  0.04390051  0.03450002  1
  H  H24  1  0.18023981  0.35378380  0.75800468  1
  H  H25  1  0.81976019  0.85378380  0.24199532  1
  H  H26  1  0.18023981  0.85378380  0.74199532  1
  H  H27  1  0.81976019  0.35378380  0.25800468  1
  H  H28  1  0.44491029  0.80269144  0.15909723  1
  H  H29  1  0.55508971  0.30269144  0.84090277  1
  H  H30  1  0.44491029  0.30269144  0.34090277  1
  H  H31  1  0.55508971  0.80269144  0.65909723  1
  H  H32  1  0.72566845  0.31833993  0.59649412  1
  H  H33  1  0.27433155  0.81833993  0.40350588  1
  H  H34  1  0.72566845  0.81833993  0.90350588  1
  H  H35  1  0.27433155  0.31833993  0.09649412  1
  H  H36  1  0.52918064  0.61874606  0.67793298  1
  H  H37  1  0.47081936  0.11874606  0.32206702  1
  H  H38  1  0.52918064  0.11874606  0.82206702  1
  H  H39  1  0.47081936  0.61874606  0.17793298  1
  H  H40  1  0.89089004  0.19798083  0.90216261  1
  H  H41  1  0.10910996  0.69798083  0.09783739  1
  H  H42  1  0.89089004  0.69798083  0.59783739  1
  H  H43  1  0.10910996  0.19798083  0.40216261  1
  H  H44  1  0.53735495  0.58842525  0.57120258  1
  H  H45  1  0.46264505  0.08842525  0.42879742  1
  H  H46  1  0.53735495  0.08842525  0.92879742  1
  H  H47  1  0.46264505  0.58842525  0.07120258  1
  H  H48  1  0.87744027  0.55651711  0.18896601  1
  H  H49  1  0.12255973  0.05651711  0.81103399  1
  H  H50  1  0.87744027  0.05651711  0.31103399  1
  H  H51  1  0.12255973  0.55651711  0.68896601  1
  H  H52  1  0.01339262  0.33730636  0.81242885  1
  H  H53  1  0.98660738  0.83730636  0.18757115  1
  H  H54  1  0.01339262  0.83730636  0.68757115  1
  H  H55  1  0.98660738  0.33730636  0.31242885  1
  H  H56  1  0.89521888  0.35534697  0.55576336  1
  H  H57  1  0.10478112  0.85534697  0.44423664  1
  H  H58  1  0.89521888  0.85534697  0.94423664  1
  H  H59  1  0.10478112  0.35534697  0.05576336  1
  H  H60  1  0.77773014  0.13621252  0.60629240  1
  H  H61  1  0.22226986  0.63621252  0.39370760  1
  H  H62  1  0.77773014  0.63621252  0.89370760  1
  H  H63  1  0.22226986  0.13621252  0.10629240  1
  H  H64  1  0.43960709  0.82403265  0.05116800  1
  H  H65  1  0.56039291  0.32403265  0.94883200  1
  H  H66  1  0.43960709  0.32403265  0.44883200  1
  H  H67  1  0.56039291  0.82403265  0.55116800  1
  H  H68  1  0.92071801  0.24937764  0.00017678  1
  H  H69  1  0.07928199  0.74937764  0.99982322  1
  H  H70  1  0.92071801  0.74937764  0.49982322  1
  H  H71  1  0.07928199  0.24937764  0.50017678  1
  H  H72  1  0.93365570  0.13230400  0.99066438  1
  H  H73  1  0.06634430  0.63230400  0.00933562  1
  H  H74  1  0.93365570  0.63230400  0.50933562  1
  H  H75  1  0.06634430  0.13230400  0.49066438  1
  H  H76  1  0.40897304  0.53368389  0.63687595  1
  H  H77  1  0.59102696  0.03368389  0.36312405  1
  H  H78  1  0.40897304  0.03368389  0.86312405  1
  H  H79  1  0.59102696  0.53368389  0.13687595  1
  H  H80  1  0.60132979  0.10463709  0.56879419  1
  H  H81  1  0.39867021  0.60463709  0.43120581  1
  H  H82  1  0.60132979  0.60463709  0.93120581  1
  H  H83  1  0.39867021  0.10463709  0.06879419  1
  H  H84  1  0.14814856  0.41524021  0.85063653  1
  H  H85  1  0.85185144  0.91524021  0.14936347  1
  H  H86  1  0.14814856  0.91524021  0.64936347  1
  H  H87  1  0.85185144  0.41524021  0.35063653  1
  H  H88  1  0.96720876  0.65046140  0.23603749  1
  H  H89  1  0.03279124  0.15046140  0.76396251  1
  H  H90  1  0.96720876  0.15046140  0.26396251  1
  H  H91  1  0.03279124  0.65046140  0.73603749  1
  H  H92  1  0.54930973  0.89257896  0.11534757  1
  H  H93  1  0.45069027  0.39257896  0.88465243  1
  H  H94  1  0.54930973  0.39257896  0.38465243  1
  H  H95  1  0.45069027  0.89257896  0.61534757  1
  H  H96  1  0.72968297  0.40552398  0.51977021  1
  H  H97  1  0.27031703  0.90552398  0.48022979  1
  H  H98  1  0.72968297  0.90552398  0.98022979  1
  H  H99  1  0.27031703  0.40552398  0.01977021  1
  H  H100  1  0.90820132  0.47577105  0.07802058  1
  H  H101  1  0.09179868  0.97577105  0.92197942  1
  H  H102  1  0.90820132  0.97577105  0.42197942  1
  H  H103  1  0.09179868  0.47577105  0.57802058  1
  H  H104  1  0.87191512  0.72163497  0.80440775  1
  H  H105  1  0.12808488  0.22163497  0.19559225  1
  H  H106  1  0.87191512  0.22163497  0.69559225  1
  H  H107  1  0.12808488  0.72163497  0.30440775  1
  H  H108  1  0.61490672  0.51000301  0.47761536  1
  H  H109  1  0.38509328  0.01000301  0.52238464  1
  H  H110  1  0.61490672  0.01000301  0.02238464  1
  H  H111  1  0.38509328  0.51000301  0.97761536  1
  H  H112  1  0.65067505  0.63960178  0.41913777  1
  H  H113  1  0.34932495  0.13960178  0.58086223  1
  H  H114  1  0.65067505  0.13960178  0.08086223  1
  H  H115  1  0.34932495  0.63960178  0.91913777  1
  H  H116  1  0.73812003  0.39888165  0.01445581  1
  H  H117  1  0.26187997  0.89888165  0.98554419  1
  H  H118  1  0.73812003  0.89888165  0.48554419  1
  H  H119  1  0.26187997  0.39888165  0.51445581  1
  H  H120  1  0.76574650  0.65062095  0.70299912  1
  H  H121  1  0.23425350  0.15062095  0.29700088  1
  H  H122  1  0.76574650  0.15062095  0.79700088  1
  H  H123  1  0.23425350  0.65062095  0.20299912  1
  H  H124  1  0.82435618  0.53887024  0.41804847  1
  H  H125  1  0.17564382  0.03887024  0.58195153  1
  H  H126  1  0.82435618  0.03887024  0.08195153  1
  H  H127  1  0.17564382  0.53887024  0.91804847  1
  H  H128  1  0.63705683  0.74000180  0.78147369  1
  H  H129  1  0.36294317  0.24000180  0.21852631  1
  H  H130  1  0.63705683  0.24000180  0.71852631  1
  H  H131  1  0.36294317  0.74000180  0.28147369  1
  H  H132  1  0.71955696  0.42274712  0.14764954  1
  H  H133  1  0.28044304  0.92274712  0.85235046  1
  H  H134  1  0.71955696  0.92274712  0.35235046  1
  H  H135  1  0.28044304  0.42274712  0.64764954  1
  H  H136  1  0.62550735  0.51981451  0.34339396  1
  H  H137  1  0.37449265  0.01981451  0.65660604  1
  H  H138  1  0.62550735  0.01981451  0.15660604  1
  H  H139  1  0.37449265  0.51981451  0.84339396  1
  H  H140  1  0.79861395  0.79549603  0.69628045  1
  H  H141  1  0.20138605  0.29549603  0.30371955  1
  H  H142  1  0.79861395  0.29549603  0.80371955  1
  H  H143  1  0.20138605  0.79549603  0.19628045  1
  H  H144  1  0.88695411  0.33302186  0.10187645  1
  H  H145  1  0.11304589  0.83302186  0.89812355  1
  H  H146  1  0.88695411  0.83302186  0.39812355  1
  H  H147  1  0.11304589  0.33302186  0.60187645  1
  N  N148  1  0.71877371  0.11239436  0.54985108  1
  N  N149  1  0.28122629  0.61239436  0.45014892  1
  N  N150  1  0.71877371  0.61239436  0.95014892  1
  N  N151  1  0.28122629  0.11239436  0.04985108  1
  N  N152  1  0.96285635  0.19565861  0.95834904  1
  N  N153  1  0.03714365  0.69565861  0.04165096  1
  N  N154  1  0.96285635  0.69565861  0.54165096  1
  N  N155  1  0.03714365  0.19565861  0.45834904  1
  N  N156  1  0.85900930  0.62562030  0.21296261  1
  N  N157  1  0.14099070  0.12562030  0.78703739  1
  N  N158  1  0.85900930  0.12562030  0.28703739  1
  N  N159  1  0.14099070  0.62562030  0.71296261  1
  N  N160  1  0.51605706  0.82157920  0.10536164  1
  N  N161  1  0.48394294  0.32157920  0.89463836  1
  N  N162  1  0.51605706  0.32157920  0.39463836  1
  N  N163  1  0.48394294  0.82157920  0.60536164  1
  N  N164  1  0.45958049  0.60018572  0.62372665  1
  N  N165  1  0.54041951  0.10018572  0.37627335  1
  N  N166  1  0.45958049  0.10018572  0.87627335  1
  N  N167  1  0.54041951  0.60018572  0.12372665  1
  N  N168  1  0.13364556  0.34798578  0.82195494  1
  N  N169  1  0.86635444  0.84798578  0.17804506  1
  N  N170  1  0.13364556  0.84798578  0.67804506  1
  N  N171  1  0.86635444  0.34798578  0.32195494  1
  N  N172  1  0.77925924  0.34016820  0.53772698  1
  N  N173  1  0.22074076  0.84016820  0.46227302  1
  N  N174  1  0.77925924  0.84016820  0.96227302  1
  N  N175  1  0.22074076  0.34016820  0.03772698  1
