# generated using pymatgen
data_Ba3NaGd3(Si3O10)2
_symmetry_space_group_name_H-M   'P 1'
_cell_length_a   5.61062934
_cell_length_b   12.38538485
_cell_length_c   14.90206308
_cell_angle_alpha   90.00000000
_cell_angle_beta   90.00000000
_cell_angle_gamma   103.09121799
_symmetry_Int_Tables_number   1
_chemical_formula_structural   Ba3NaGd3(Si3O10)2
_chemical_formula_sum   'Ba6 Na2 Gd6 Si12 O40'
_cell_volume   1008.62843602
_cell_formula_units_Z   2
loop_
 _symmetry_equiv_pos_site_id
 _symmetry_equiv_pos_as_xyz
  1  'x, y, z'
loop_
 _atom_site_type_symbol
 _atom_site_label
 _atom_site_symmetry_multiplicity
 _atom_site_fract_x
 _atom_site_fract_y
 _atom_site_fract_z
 _atom_site_occupancy
  Ba  Ba0  1  0.84884313  0.83803102  0.75000000  1
  Ba  Ba1  1  0.01081211  0.16196898  0.25000000  1
  Ba  Ba2  1  0.17380698  0.48589661  0.11347692  1
  Ba  Ba3  1  0.68791037  0.51410339  0.88652308  1
  Ba  Ba4  1  0.17380698  0.48589661  0.38652308  1
  Ba  Ba5  1  0.68791037  0.51410339  0.61347692  1
  Na  Na6  1  0.24622339  0.77702424  0.25000000  1
  Na  Na7  1  0.46919916  0.22297576  0.75000000  1
  Gd  Gd8  1  0.39333528  0.77945449  0.96983427  1
  Gd  Gd9  1  0.61388079  0.22054551  0.03016573  1
  Gd  Gd10  1  0.39333528  0.77945449  0.53016573  1
  Gd  Gd11  1  0.61388079  0.22054551  0.46983427  1
  Gd  Gd12  1  0.00157883  -0.00000000  0.00000000  1
  Gd  Gd13  1  0.00157883  -0.00000000  0.50000000  1
  Si  Si14  1  0.28159747  0.64153852  0.75000000  1
  Si  Si15  1  0.64005895  0.35846148  0.25000000  1
  Si  Si16  1  0.81237916  0.69810822  0.05714226  1
  Si  Si17  1  0.11427094  0.30189178  0.94285774  1
  Si  Si18  1  0.81237916  0.69810822  0.44285774  1
  Si  Si19  1  0.11427094  0.30189178  0.55714226  1
  Si  Si20  1  0.44170838  0.00084567  0.13919607  1
  Si  Si21  1  0.44086271  0.99915433  0.86080393  1
  Si  Si22  1  0.44170838  0.00084567  0.36080393  1
  Si  Si23  1  0.44086271  0.99915433  0.63919607  1
  Si  Si24  1  0.71488114  0.61929367  0.25000000  1
  Si  Si25  1  0.09558748  0.38070633  0.75000000  1
  O  O26  1  0.78697750  0.82352891  0.03423906  1
  O  O27  1  0.96344859  0.17647109  0.96576094  1
  O  O28  1  0.78697750  0.82352891  0.46576094  1
  O  O29  1  0.96344859  0.17647109  0.53423906  1
  O  O30  1  0.54188918  0.62231704  0.03084651  1
  O  O31  1  0.91957214  0.37768296  0.96915349  1
  O  O32  1  0.54188918  0.62231704  0.46915349  1
  O  O33  1  0.91957214  0.37768296  0.53084651  1
  O  O34  1  0.43383773  0.97603267  0.25000000  1
  O  O35  1  0.45780506  0.02396733  0.75000000  1
  O  O36  1  0.87670548  0.68371742  0.16511271  1
  O  O37  1  0.19298806  0.31628258  0.83488729  1
  O  O38  1  0.87670548  0.68371742  0.33488729  1
  O  O39  1  0.19298806  0.31628258  0.66511271  1
  O  O40  1  0.29022308  0.50459968  0.75000000  1
  O  O41  1  0.78562339  0.49540032  0.25000000  1
  O  O42  1  0.72320963  0.05360563  0.10728287  1
  O  O43  1  0.66960400  0.94639437  0.89271713  1
  O  O44  1  0.72320963  0.05360563  0.39271713  1
  O  O45  1  0.66960400  0.94639437  0.60728287  1
  O  O46  1  0.02623137  0.65610352  0.00199843  1
  O  O47  1  0.37012785  0.34389648  0.99800157  1
  O  O48  1  0.02623137  0.65610352  0.49800157  1
  O  O49  1  0.37012785  0.34389648  0.50199843  1
  O  O50  1  0.44483851  0.69197141  0.83826896  1
  O  O51  1  0.75286710  0.30802859  0.16173104  1
  O  O52  1  0.44483851  0.69197141  0.66173104  1
  O  O53  1  0.75286710  0.30802859  0.33826896  1
  O  O54  1  0.19066629  0.90381813  0.88521040  1
  O  O55  1  0.28684816  0.09618187  0.11478960  1
  O  O56  1  0.19066629  0.90381813  0.61478960  1
  O  O57  1  0.28684816  0.09618187  0.38521040  1
  O  O58  1  0.99618074  0.64730216  0.75000000  1
  O  O59  1  0.34887858  0.35269784  0.25000000  1
  O  O60  1  0.30323104  0.88867128  0.08720148  1
  O  O61  1  0.41455976  0.11132872  0.91279852  1
  O  O62  1  0.30323104  0.88867128  0.41279852  1
  O  O63  1  0.41455976  0.11132872  0.58720148  1
  O  O64  1  0.42987490  0.61829743  0.25000000  1
  O  O65  1  0.81157747  0.38170257  0.75000000  1
