# generated using pymatgen
data_Mg30CrBiO32
_symmetry_space_group_name_H-M   'P 1'
_cell_length_a   8.65077872
_cell_length_b   8.64408783
_cell_length_c   8.64408783
_cell_angle_alpha   90.00000000
_cell_angle_beta   90.00000000
_cell_angle_gamma   90.00000000
_symmetry_Int_Tables_number   1
_chemical_formula_structural   Mg30CrBiO32
_chemical_formula_sum   'Mg30 Cr1 Bi1 O32'
_cell_volume   646.38838683
_cell_formula_units_Z   1
loop_
 _symmetry_equiv_pos_site_id
 _symmetry_equiv_pos_as_xyz
  1  'x, y, z'
loop_
 _atom_site_type_symbol
 _atom_site_label
 _atom_site_symmetry_multiplicity
 _atom_site_fract_x
 _atom_site_fract_y
 _atom_site_fract_z
 _atom_site_occupancy
  Mg  Mg0  1  0.00000000  -0.00000000  0.50000000  1
  Mg  Mg1  1  0.00000000  0.50000000  -0.00000000  1
  Mg  Mg2  1  0.50000000  -0.00000000  -0.00000000  1
  Mg  Mg3  1  0.50000000  -0.00000000  0.50000000  1
  Mg  Mg4  1  0.50000000  0.50000000  -0.00000000  1
  Mg  Mg5  1  0.50000000  0.50000000  0.50000000  1
  Mg  Mg6  1  0.00000000  0.24116445  0.24116445  1
  Mg  Mg7  1  0.00000000  0.24116445  0.75883555  1
  Mg  Mg8  1  0.00000000  0.75883555  0.24116445  1
  Mg  Mg9  1  0.00000000  0.75883555  0.75883555  1
  Mg  Mg10  1  0.50000000  0.24813829  0.24813829  1
  Mg  Mg11  1  0.50000000  0.24813829  0.75186171  1
  Mg  Mg12  1  0.50000000  0.75186171  0.24813829  1
  Mg  Mg13  1  0.50000000  0.75186171  0.75186171  1
  Mg  Mg14  1  0.25067974  -0.00000000  0.24797938  1
  Mg  Mg15  1  0.25067974  -0.00000000  0.75202062  1
  Mg  Mg16  1  0.25751034  0.50000000  0.24148140  1
  Mg  Mg17  1  0.25751034  0.50000000  0.75851860  1
  Mg  Mg18  1  0.74932026  -0.00000000  0.24797938  1
  Mg  Mg19  1  0.74932026  -0.00000000  0.75202062  1
  Mg  Mg20  1  0.74248966  0.50000000  0.24148140  1
  Mg  Mg21  1  0.74248966  0.50000000  0.75851860  1
  Mg  Mg22  1  0.25067974  0.24797938  0.00000000  1
  Mg  Mg23  1  0.25751034  0.24148140  0.50000000  1
  Mg  Mg24  1  0.25067974  0.75202062  0.00000000  1
  Mg  Mg25  1  0.25751034  0.75851860  0.50000000  1
  Mg  Mg26  1  0.74932026  0.24797938  -0.00000000  1
  Mg  Mg27  1  0.74248966  0.24148140  0.50000000  1
  Mg  Mg28  1  0.74932026  0.75202062  -0.00000000  1
  Mg  Mg29  1  0.74248966  0.75851860  0.50000000  1
  Cr  Cr30  1  0.00000000  -0.00000000  0.00000000  1
  Bi  Bi31  1  0.00000000  0.50000000  0.50000000  1
  O  O32  1  0.26644659  -0.00000000  0.00000000  1
  O  O33  1  0.25438649  -0.00000000  0.50000000  1
  O  O34  1  0.25438649  0.50000000  -0.00000000  1
  O  O35  1  0.26628860  0.50000000  0.50000000  1
  O  O36  1  0.73355341  -0.00000000  -0.00000000  1
  O  O37  1  0.74561351  -0.00000000  0.50000000  1
  O  O38  1  0.74561351  0.50000000  0.00000000  1
  O  O39  1  0.73371140  0.50000000  0.50000000  1
  O  O40  1  0.24895612  0.25083868  0.25083868  1
  O  O41  1  0.24895612  0.25083868  0.74916132  1
  O  O42  1  0.24895612  0.74916132  0.25083868  1
  O  O43  1  0.24895612  0.74916132  0.74916132  1
  O  O44  1  0.75104388  0.25083868  0.25083868  1
  O  O45  1  0.75104388  0.25083868  0.74916132  1
  O  O46  1  0.75104388  0.74916132  0.25083868  1
  O  O47  1  0.75104388  0.74916132  0.74916132  1
  O  O48  1  0.00000000  -0.00000000  0.26335189  1
  O  O49  1  0.00000000  -0.00000000  0.73664811  1
  O  O50  1  0.00000000  0.50000000  0.23512497  1
  O  O51  1  0.00000000  0.50000000  0.76487503  1
  O  O52  1  0.50000000  -0.00000000  0.25192677  1
  O  O53  1  0.50000000  -0.00000000  0.74807323  1
  O  O54  1  0.50000000  0.50000000  0.24978122  1
  O  O55  1  0.50000000  0.50000000  0.75021878  1
  O  O56  1  0.00000000  0.26335189  -0.00000000  1
  O  O57  1  0.00000000  0.23512497  0.50000000  1
  O  O58  1  0.00000000  0.73664811  -0.00000000  1
  O  O59  1  0.00000000  0.76487503  0.50000000  1
  O  O60  1  0.50000000  0.25192677  -0.00000000  1
  O  O61  1  0.50000000  0.24978122  0.50000000  1
  O  O62  1  0.50000000  0.74807323  0.00000000  1
  O  O63  1  0.50000000  0.75021878  0.50000000  1
