# generated using pymatgen
data_CeTlP2S7
_symmetry_space_group_name_H-M   'P 1'
_cell_length_a   9.12993843
_cell_length_b   9.84180035
_cell_length_c   12.50062229
_cell_angle_alpha   90.00000000
_cell_angle_beta   90.00000000
_cell_angle_gamma   90.38480569
_symmetry_Int_Tables_number   1
_chemical_formula_structural   CeTlP2S7
_chemical_formula_sum   'Ce4 Tl4 P8 S28'
_cell_volume   1123.21847327
_cell_formula_units_Z   4
loop_
 _symmetry_equiv_pos_site_id
 _symmetry_equiv_pos_as_xyz
  1  'x, y, z'
loop_
 _atom_site_type_symbol
 _atom_site_label
 _atom_site_symmetry_multiplicity
 _atom_site_fract_x
 _atom_site_fract_y
 _atom_site_fract_z
 _atom_site_occupancy
  Ce  Ce0  1  0.89073274  0.14397614  0.35729669  1
  Ce  Ce1  1  0.60926726  0.85602386  0.85729669  1
  Ce  Ce2  1  0.10926726  0.85602386  0.64270331  1
  Ce  Ce3  1  0.39073274  0.14397614  0.14270331  1
  Tl  Tl4  1  0.62873755  0.60268491  0.19002769  1
  Tl  Tl5  1  0.87126245  0.39731509  0.69002769  1
  Tl  Tl6  1  0.37126245  0.39731509  0.80997231  1
  Tl  Tl7  1  0.12873755  0.60268491  0.30997231  1
  P  P8  1  0.52157674  0.27639047  0.40157158  1
  P  P9  1  0.97842326  0.72360953  0.90157158  1
  P  P10  1  0.47842326  0.72360953  0.59842842  1
  P  P11  1  0.02157674  0.27639047  0.09842842  1
  P  P12  1  0.69810887  0.18927256  0.96180329  1
  P  P13  1  0.80189113  0.81072744  0.46180329  1
  P  P14  1  0.30189113  0.81072744  0.03819671  1
  P  P15  1  0.19810887  0.18927256  0.53819671  1
  S  S16  1  0.68017902  0.02372672  0.05888945  1
  S  S17  1  0.81982098  0.97627328  0.55888945  1
  S  S18  1  0.31982098  0.97627328  0.94111055  1
  S  S19  1  0.18017902  0.02372672  0.44111055  1
  S  S20  1  0.89000308  0.37362203  0.20442521  1
  S  S21  1  0.60999692  0.62637797  0.70442521  1
  S  S22  1  0.10999692  0.62637797  0.79557479  1
  S  S23  1  0.39000308  0.37362203  0.29557479  1
  S  S24  1  0.70948492  0.37013055  0.44458958  1
  S  S25  1  0.79051508  0.62986945  0.94458958  1
  S  S26  1  0.29051508  0.62986945  0.55541042  1
  S  S27  1  0.20948492  0.37013055  0.05541042  1
  S  S28  1  0.64574657  0.14938430  0.80676872  1
  S  S29  1  0.85425343  0.85061570  0.30676872  1
  S  S30  1  0.35425343  0.85061570  0.19323128  1
  S  S31  1  0.14574657  0.14938430  0.69323128  1
  S  S32  1  0.56782588  0.09027603  0.33734590  1
  S  S33  1  0.93217412  0.90972397  0.83734590  1
  S  S34  1  0.43217412  0.90972397  0.66265410  1
  S  S35  1  0.06782588  0.09027603  0.16265410  1
  S  S36  1  0.92098552  0.25378719  0.94420927  1
  S  S37  1  0.57901448  0.74621281  0.44420927  1
  S  S38  1  0.07901448  0.74621281  0.05579073  1
  S  S39  1  0.42098552  0.25378719  0.55579073  1
  S  S40  1  0.56980173  0.33935456  0.02170545  1
  S  S41  1  0.93019827  0.66064544  0.52170545  1
  S  S42  1  0.43019827  0.66064544  0.97829455  1
  S  S43  1  0.06980173  0.33935456  0.47829455  1
