# generated using pymatgen
data_RbLa2C6N6ClO6
_symmetry_space_group_name_H-M   'P 1'
_cell_length_a   6.84015835
_cell_length_b   6.84009446
_cell_length_c   14.72758656
_cell_angle_alpha   90.00000000
_cell_angle_beta   90.00000000
_cell_angle_gamma   119.99986781
_symmetry_Int_Tables_number   1
_chemical_formula_structural   RbLa2C6N6ClO6
_chemical_formula_sum   'Rb2 La4 C12 N12 Cl2 O12'
_cell_volume   596.74810551
_cell_formula_units_Z   2
loop_
 _symmetry_equiv_pos_site_id
 _symmetry_equiv_pos_as_xyz
  1  'x, y, z'
loop_
 _atom_site_type_symbol
 _atom_site_label
 _atom_site_symmetry_multiplicity
 _atom_site_fract_x
 _atom_site_fract_y
 _atom_site_fract_z
 _atom_site_occupancy
  Rb  Rb0  1  0.66660843  0.33330463  0.25000000  1
  Rb  Rb1  1  0.33339157  0.66669537  0.75000000  1
  La  La2  1  0.33333877  0.66666623  0.05215577  1
  La  La3  1  0.66666123  0.33333377  0.55215577  1
  La  La4  1  0.66666123  0.33333377  0.94784423  1
  La  La5  1  0.33333877  0.66666623  0.44784423  1
  C  C6  1  0.95539205  0.16751151  0.09698882  1
  C  C7  1  0.83249446  0.78788116  0.09698891  1
  C  C8  1  0.21211934  0.04461116  0.09698899  1
  C  C9  1  0.04460795  0.83248849  0.59698882  1
  C  C10  1  0.16750554  0.21211884  0.59698891  1
  C  C11  1  0.78788066  0.95538884  0.59698899  1
  C  C12  1  0.04460795  0.83248849  0.90301118  1
  C  C13  1  0.16750554  0.21211884  0.90301109  1
  C  C14  1  0.78788066  0.95538884  0.90301101  1
  C  C15  1  0.95539205  0.16751151  0.40301118  1
  C  C16  1  0.83249446  0.78788116  0.40301109  1
  C  C17  1  0.21211934  0.04461116  0.40301101  1
  N  N18  1  0.17530662  0.22086666  0.10057122  1
  N  N19  1  0.77913909  0.95444125  0.10056868  1
  N  N20  1  0.04556201  0.82469580  0.10057084  1
  N  N21  1  0.82469338  0.77913334  0.60057122  1
  N  N22  1  0.22086091  0.04555875  0.60056868  1
  N  N23  1  0.95443799  0.17530420  0.60057084  1
  N  N24  1  0.82469338  0.77913334  0.89942878  1
  N  N25  1  0.22086091  0.04555875  0.89943132  1
  N  N26  1  0.95443799  0.17530420  0.89942916  1
  N  N27  1  0.17530662  0.22086666  0.39942878  1
  N  N28  1  0.77913909  0.95444125  0.39943132  1
  N  N29  1  0.04556201  0.82469580  0.39942916  1
  Cl  Cl30  1  0.33338941  0.66669256  0.25000000  1
  Cl  Cl31  1  0.66661059  0.33330744  0.75000000  1
  O  O32  1  0.92202318  0.33670652  0.08309352  1
  O  O33  1  0.66329935  0.58531881  0.08309363  1
  O  O34  1  0.41468190  0.07797787  0.08309251  1
  O  O35  1  0.07797682  0.66329348  0.58309352  1
  O  O36  1  0.33670065  0.41468119  0.58309363  1
  O  O37  1  0.58531810  0.92202213  0.58309251  1
  O  O38  1  0.07797682  0.66329348  0.91690648  1
  O  O39  1  0.33670065  0.41468119  0.91690637  1
  O  O40  1  0.58531810  0.92202213  0.91690749  1
  O  O41  1  0.92202318  0.33670652  0.41690648  1
  O  O42  1  0.66329935  0.58531881  0.41690637  1
  O  O43  1  0.41468190  0.07797787  0.41690749  1
