# generated using pymatgen
data_U2PbS5
_symmetry_space_group_name_H-M   'P 1'
_cell_length_a   7.45362591
_cell_length_b   8.24695031
_cell_length_c   11.69213815
_cell_angle_alpha   90.18713100
_cell_angle_beta   90.00000000
_cell_angle_gamma   90.00000000
_symmetry_Int_Tables_number   1
_chemical_formula_structural   U2PbS5
_chemical_formula_sum   'U8 Pb4 S20'
_cell_volume   718.70818661
_cell_formula_units_Z   4
loop_
 _symmetry_equiv_pos_site_id
 _symmetry_equiv_pos_as_xyz
  1  'x, y, z'
loop_
 _atom_site_type_symbol
 _atom_site_label
 _atom_site_symmetry_multiplicity
 _atom_site_fract_x
 _atom_site_fract_y
 _atom_site_fract_z
 _atom_site_occupancy
  U  U0  1  0.51956761  0.49811106  0.18224783  1
  U  U1  1  0.01956761  0.50188894  0.31775217  1
  U  U2  1  0.48043239  0.50188894  0.81775217  1
  U  U3  1  0.98043239  0.49811106  0.68224783  1
  U  U4  1  0.57546221  0.74353106  0.49271165  1
  U  U5  1  0.07546221  0.25646894  0.00728835  1
  U  U6  1  0.42453779  0.25646894  0.50728835  1
  U  U7  1  0.92453779  0.74353106  0.99271165  1
  Pb  Pb8  1  0.51384469  0.99070610  0.17658787  1
  Pb  Pb9  1  0.01384469  0.00929390  0.32341213  1
  Pb  Pb10  1  0.48615531  0.00929390  0.82341213  1
  Pb  Pb11  1  0.98615531  0.99070610  0.67658787  1
  S  S12  1  0.66349109  0.45275795  0.40229240  1
  S  S13  1  0.16349109  0.54724205  0.09770760  1
  S  S14  1  0.33650891  0.54724205  0.59770760  1
  S  S15  1  0.83650891  0.45275795  0.90229240  1
  S  S16  1  0.95339953  0.71590850  0.49877058  1
  S  S17  1  0.45339953  0.28409150  0.00122942  1
  S  S18  1  0.04660047  0.28409150  0.50122942  1
  S  S19  1  0.54660047  0.71590850  0.99877058  1
  S  S20  1  0.83622729  0.28072097  0.18436820  1
  S  S21  1  0.33622729  0.71927903  0.31563180  1
  S  S22  1  0.16377271  0.71927903  0.81563180  1
  S  S23  1  0.66377271  0.28072097  0.68436820  1
  S  S24  1  0.15968656  0.96177429  0.08614692  1
  S  S25  1  0.65968656  0.03822571  0.41385308  1
  S  S26  1  0.84031344  0.03822571  0.91385308  1
  S  S27  1  0.34031344  0.96177429  0.58614692  1
  S  S28  1  0.80471884  0.72887450  0.21723025  1
  S  S29  1  0.30471884  0.27112550  0.28276975  1
  S  S30  1  0.19528116  0.27112550  0.78276975  1
  S  S31  1  0.69528116  0.72887450  0.71723025  1
