# generated using pymatgen
data_BaGeS3
_symmetry_space_group_name_H-M   'P 1'
_cell_length_a   5.83511493
_cell_length_b   13.55109521
_cell_length_c   15.62669068
_cell_angle_alpha   115.48925514
_cell_angle_beta   90.00000000
_cell_angle_gamma   90.00000000
_symmetry_Int_Tables_number   1
_chemical_formula_structural   BaGeS3
_chemical_formula_sum   'Ba8 Ge8 S24'
_cell_volume   1115.36731325
_cell_formula_units_Z   8
loop_
 _symmetry_equiv_pos_site_id
 _symmetry_equiv_pos_as_xyz
  1  'x, y, z'
loop_
 _atom_site_type_symbol
 _atom_site_label
 _atom_site_symmetry_multiplicity
 _atom_site_fract_x
 _atom_site_fract_y
 _atom_site_fract_z
 _atom_site_occupancy
  Ba  Ba0  1  0.25950862  0.60619329  0.13651885  1
  Ba  Ba1  1  0.75950862  0.89380671  0.86348115  1
  Ba  Ba2  1  0.74049138  0.39380671  0.86348115  1
  Ba  Ba3  1  0.24049138  0.10619329  0.13651885  1
  Ba  Ba4  1  0.75305592  0.96966322  0.36296655  1
  Ba  Ba5  1  0.25305592  0.53033678  0.63703345  1
  Ba  Ba6  1  0.24694408  0.03033678  0.63703345  1
  Ba  Ba7  1  0.74694408  0.46966322  0.36296655  1
  Ge  Ge8  1  0.15926528  0.73337604  0.42537442  1
  Ge  Ge9  1  0.65926528  0.76662396  0.57462558  1
  Ge  Ge10  1  0.84073472  0.26662396  0.57462558  1
  Ge  Ge11  1  0.34073472  0.23337604  0.42537442  1
  Ge  Ge12  1  0.84454853  0.80686663  0.07493659  1
  Ge  Ge13  1  0.34454853  0.69313337  0.92506341  1
  Ge  Ge14  1  0.15545147  0.19313337  0.92506341  1
  Ge  Ge15  1  0.65545147  0.30686663  0.07493659  1
  S  S16  1  0.24326583  0.56743258  0.32160362  1
  S  S17  1  0.74326583  0.93256742  0.67839638  1
  S  S18  1  0.75673417  0.43256742  0.67839638  1
  S  S19  1  0.25673417  0.06743258  0.32160362  1
  S  S20  1  0.76483303  0.73859119  0.42466466  1
  S  S21  1  0.26483303  0.76140881  0.57533534  1
  S  S22  1  0.23516697  0.26140881  0.57533534  1
  S  S23  1  0.73516697  0.23859119  0.42466466  1
  S  S24  1  0.25012867  0.87541188  0.40011672  1
  S  S25  1  0.75012867  0.62458812  0.59988328  1
  S  S26  1  0.74987133  0.12458812  0.59988328  1
  S  S27  1  0.24987133  0.37541188  0.40011672  1
  S  S28  1  0.76254850  0.74438986  0.17912443  1
  S  S29  1  0.26254850  0.75561014  0.82087557  1
  S  S30  1  0.23745150  0.25561014  0.82087557  1
  S  S31  1  0.73745150  0.24438986  0.17912443  1
  S  S32  1  0.23923430  0.81360315  0.07492958  1
  S  S33  1  0.73923430  0.68639685  0.92507042  1
  S  S34  1  0.76076570  0.18639685  0.92507042  1
  S  S35  1  0.26076570  0.31360315  0.07492958  1
  S  S36  1  0.75164070  0.97384626  0.10056751  1
  S  S37  1  0.25164070  0.52615374  0.89943249  1
  S  S38  1  0.24835930  0.02615374  0.89943249  1
  S  S39  1  0.74835930  0.47384626  0.10056751  1
