# generated using pymatgen
data_Ni5H2Se6(ClO4)4
_symmetry_space_group_name_H-M   'P 1'
_cell_length_a   8.57591033
_cell_length_b   11.87926761
_cell_length_c   13.01810282
_cell_angle_alpha   116.49917237
_cell_angle_beta   90.00000000
_cell_angle_gamma   111.15924081
_symmetry_Int_Tables_number   1
_chemical_formula_structural   Ni5H2Se6(ClO4)4
_chemical_formula_sum   'Ni10 H4 Se12 Cl8 O32'
_cell_volume   1086.06995162
_cell_formula_units_Z   2
loop_
 _symmetry_equiv_pos_site_id
 _symmetry_equiv_pos_as_xyz
  1  'x, y, z'
loop_
 _atom_site_type_symbol
 _atom_site_label
 _atom_site_symmetry_multiplicity
 _atom_site_fract_x
 _atom_site_fract_y
 _atom_site_fract_z
 _atom_site_occupancy
  Ni  Ni0  1  0.07846548  0.32826909  0.19130096  1
  Ni  Ni1  1  0.75019639  0.67173091  0.30869904  1
  Ni  Ni2  1  0.92153452  0.67173091  0.80869904  1
  Ni  Ni3  1  0.24980361  0.32826909  0.69130096  1
  Ni  Ni4  1  0.95312849  0.51327659  0.12394875  1
  Ni  Ni5  1  0.43985190  0.48672341  0.37605125  1
  Ni  Ni6  1  0.04687151  0.48672341  0.87605125  1
  Ni  Ni7  1  0.56014810  0.51327659  0.62394875  1
  Ni  Ni8  1  -0.00000000  0.00000000  0.00000000  1
  Ni  Ni9  1  -0.00000000  0.00000000  0.50000000  1
  H  H10  1  0.68038423  0.04613329  0.92433304  1
  H  H11  1  0.63425094  0.95386671  0.57566696  1
  H  H12  1  0.31961577  0.95386671  0.07566696  1
  H  H13  1  0.36574906  0.04613329  0.42433304  1
  Se  Se14  1  0.74134067  0.36147432  0.28921900  1
  Se  Se15  1  0.37986635  0.63852568  0.21078100  1
  Se  Se16  1  0.25865933  0.63852568  0.71078100  1
  Se  Se17  1  0.62013365  0.36147432  0.78921900  1
  Se  Se18  1  0.60051122  0.76772878  0.90014502  1
  Se  Se19  1  0.83278244  0.23227122  0.59985498  1
  Se  Se20  1  0.39948878  0.23227122  0.09985498  1
  Se  Se21  1  0.16721756  0.76772878  0.40014502  1
  Se  Se22  1  0.91051787  0.19751066  0.90026676  1
  Se  Se23  1  0.71300721  0.80248934  0.59973324  1
  Se  Se24  1  0.08948213  0.80248934  0.09973324  1
  Se  Se25  1  0.28699279  0.19751066  0.40026676  1
  Cl  Cl26  1  0.95038554  0.11923050  0.19742009  1
  Cl  Cl27  1  0.83115504  0.88076950  0.30257991  1
  Cl  Cl28  1  0.04961446  0.88076950  0.80257991  1
  Cl  Cl29  1  0.16884496  0.11923050  0.69742009  1
  Cl  Cl30  1  0.16091834  0.47738879  0.40315720  1
  Cl  Cl31  1  0.68352955  0.52261121  0.09684280  1
  Cl  Cl32  1  0.83908166  0.52261121  0.59684280  1
  Cl  Cl33  1  0.31647045  0.47738879  0.90315720  1
  O  O34  1  0.86492669  0.37314974  0.18816134  1
  O  O35  1  0.49177695  0.62685026  0.31183866  1
  O  O36  1  0.13507331  0.62685026  0.81183866  1
  O  O37  1  0.50822305  0.37314974  0.68816134  1
  O  O38  1  0.74348209  0.93030029  0.94709850  1
  O  O39  1  0.81318181  0.06969971  0.55290150  1
  O  O40  1  0.25651791  0.06969971  0.05290150  1
  O  O41  1  0.18681819  0.93030029  0.44709850  1
  O  O42  1  0.02661021  0.19688071  0.00830039  1
  O  O43  1  0.82972950  0.80311929  0.49169961  1
  O  O44  1  0.97338979  0.80311929  0.99169961  1
  O  O45  1  0.17027050  0.19688071  0.50830039  1
  O  O46  1  0.67837196  0.49415974  0.33020616  1
  O  O47  1  0.18421223  0.50584026  0.16979384  1
  O  O48  1  0.32162804  0.50584026  0.66979384  1
  O  O49  1  0.81578777  0.49415974  0.83020616  1
  O  O50  1  0.31775468  0.32993139  0.20853685  1
  O  O51  1  0.98782329  0.67006861  0.29146315  1
  O  O52  1  0.68224532  0.67006861  0.79146315  1
  O  O53  1  0.01217671  0.32993139  0.70853685  1
  O  O54  1  0.54366074  0.21673971  0.19356660  1
  O  O55  1  0.32692103  0.78326029  0.30643340  1
  O  O56  1  0.45633926  0.78326029  0.80643340  1
  O  O57  1  0.67307897  0.21673971  0.69356660  1
  O  O58  1  0.07115377  0.63582625  0.04649660  1
  O  O59  1  0.43532753  0.36417375  0.45350340  1
  O  O60  1  0.92884623  0.36417375  0.95350340  1
  O  O61  1  0.56467247  0.63582625  0.54649660  1
  O  O62  1  0.69555337  0.13209744  0.92168334  1
  O  O63  1  0.56345592  0.86790256  0.57831666  1
  O  O64  1  0.30444663  0.86790256  0.07831666  1
  O  O65  1  0.43654408  0.13209744  0.42168334  1
