# generated using pymatgen
data_SnH12N3F7
_symmetry_space_group_name_H-M   'P 1'
_cell_length_a   12.24727005
_cell_length_b   12.24727005
_cell_length_c   12.24727005
_cell_angle_alpha   90.00000000
_cell_angle_beta   90.00000000
_cell_angle_gamma   90.00000000
_symmetry_Int_Tables_number   1
_chemical_formula_structural   SnH12N3F7
_chemical_formula_sum   'Sn8 H96 N24 F56'
_cell_volume   1837.03690950
_cell_formula_units_Z   8
loop_
 _symmetry_equiv_pos_site_id
 _symmetry_equiv_pos_as_xyz
  1  'x, y, z'
loop_
 _atom_site_type_symbol
 _atom_site_label
 _atom_site_symmetry_multiplicity
 _atom_site_fract_x
 _atom_site_fract_y
 _atom_site_fract_z
 _atom_site_occupancy
  Sn  Sn0  1  0.00000000  -0.00000000  -0.00000000  1
  Sn  Sn1  1  0.00000000  0.50000000  0.50000000  1
  Sn  Sn2  1  0.50000000  -0.00000000  0.50000000  1
  Sn  Sn3  1  0.50000000  0.50000000  -0.00000000  1
  Sn  Sn4  1  0.00000000  -0.00000000  0.50000000  1
  Sn  Sn5  1  0.00000000  0.50000000  -0.00000000  1
  Sn  Sn6  1  0.50000000  -0.00000000  -0.00000000  1
  Sn  Sn7  1  0.50000000  0.50000000  0.50000000  1
  H  H8  1  0.25114583  0.99618824  0.33368133  1
  H  H9  1  0.74885417  0.49618824  0.16631867  1
  H  H10  1  0.24885417  0.00381176  0.83368133  1
  H  H11  1  0.75114583  0.50381176  0.66631867  1
  H  H12  1  0.33368133  0.25114583  0.99618824  1
  H  H13  1  0.16631867  0.74885417  0.49618824  1
  H  H14  1  0.83368133  0.24885417  0.00381176  1
  H  H15  1  0.66631867  0.75114583  0.50381176  1
  H  H16  1  0.99618824  0.33368133  0.25114583  1
  H  H17  1  0.49618824  0.16631867  0.74885417  1
  H  H18  1  0.00381176  0.83368133  0.24885417  1
  H  H19  1  0.50381176  0.66631867  0.75114583  1
  H  H20  1  0.74885417  0.00381176  0.66631867  1
  H  H21  1  0.25114583  0.50381176  0.83368133  1
  H  H22  1  0.75114583  0.99618824  0.16631867  1
  H  H23  1  0.24885417  0.49618824  0.33368133  1
  H  H24  1  0.66631867  0.74885417  0.00381176  1
  H  H25  1  0.83368133  0.25114583  0.50381176  1
  H  H26  1  0.16631867  0.75114583  0.99618824  1
  H  H27  1  0.33368133  0.24885417  0.49618824  1
  H  H28  1  0.00381176  0.66631867  0.74885417  1
  H  H29  1  0.50381176  0.83368133  0.25114583  1
  H  H30  1  0.99618824  0.16631867  0.75114583  1
  H  H31  1  0.49618824  0.33368133  0.24885417  1
  H  H32  1  0.34519199  0.00358081  0.23241801  1
  H  H33  1  0.65480801  0.50358081  0.26758199  1
  H  H34  1  0.15480801  0.99641919  0.73241801  1
  H  H35  1  0.84519199  0.49641919  0.76758199  1
  H  H36  1  0.23241801  0.34519199  0.00358081  1
  H  H37  1  0.26758199  0.65480801  0.50358081  1
  H  H38  1  0.73241801  0.15480801  0.99641919  1
  H  H39  1  0.76758199  0.84519199  0.49641919  1
  H  H40  1  0.00358081  0.23241801  0.34519199  1
  H  H41  1  0.50358081  0.26758199  0.65480801  1
  H  H42  1  0.99641919  0.73241801  0.15480801  1
  H  H43  1  0.49641919  0.76758199  0.84519199  1
  H  H44  1  0.65480801  0.99641919  0.76758199  1
  H  H45  1  0.34519199  0.49641919  0.73241801  1
  H  H46  1  0.84519199  0.00358081  0.26758199  1
  H  H47  1  0.15480801  0.50358081  0.23241801  1
  H  H48  1  0.76758199  0.65480801  0.99641919  1
  H  H49  1  0.73241801  0.34519199  0.49641919  1
  H  H50  1  0.26758199  0.84519199  0.00358081  1
  H  H51  1  0.23241801  0.15480801  0.50358081  1
  H  H52  1  0.99641919  0.76758199  0.65480801  1
  H  H53  1  0.49641919  0.73241801  0.34519199  1
  H  H54  1  0.00358081  0.26758199  0.84519199  1
  H  H55  1  0.50358081  0.23241801  0.15480801  1
  H  H56  1  0.21126726  0.98793309  0.20165136  1
  H  H57  1  0.78873274  0.48793309  0.29834864  1
  H  H58  1  0.28873274  0.01206691  0.70165136  1
  H  H59  1  0.71126726  0.51206691  0.79834864  1
  H  H60  1  0.20165136  0.21126726  0.98793309  1
  H  H61  1  0.29834864  0.78873274  0.48793309  1
  H  H62  1  0.70165136  0.28873274  0.01206691  1
  H  H63  1  0.79834864  0.71126726  0.51206691  1
  H  H64  1  0.98793309  0.20165136  0.21126726  1
  H  H65  1  0.48793309  0.29834864  0.78873274  1
  H  H66  1  0.01206691  0.70165136  0.28873274  1
  H  H67  1  0.51206691  0.79834864  0.71126726  1
  H  H68  1  0.78873274  0.01206691  0.79834864  1
  H  H69  1  0.21126726  0.51206691  0.70165136  1
  H  H70  1  0.71126726  0.98793309  0.29834864  1
  H  H71  1  0.28873274  0.48793309  0.20165136  1
  H  H72  1  0.79834864  0.78873274  0.01206691  1
  H  H73  1  0.70165136  0.21126726  0.51206691  1
  H  H74  1  0.29834864  0.71126726  0.98793309  1
  H  H75  1  0.20165136  0.28873274  0.48793309  1
  H  H76  1  0.01206691  0.79834864  0.78873274  1
  H  H77  1  0.51206691  0.70165136  0.21126726  1
  H  H78  1  0.98793309  0.29834864  0.71126726  1
  H  H79  1  0.48793309  0.20165136  0.28873274  1
  H  H80  1  0.25519668  0.10949268  0.25232618  1
  H  H81  1  0.74480332  0.60949268  0.24767382  1
  H  H82  1  0.24480332  0.89050732  0.75232618  1
  H  H83  1  0.75519668  0.39050732  0.74767382  1
  H  H84  1  0.25232618  0.25519668  0.10949268  1
  H  H85  1  0.24767382  0.74480332  0.60949268  1
  H  H86  1  0.75232618  0.24480332  0.89050732  1
  H  H87  1  0.74767382  0.75519668  0.39050732  1
  H  H88  1  0.10949268  0.25232618  0.25519668  1
  H  H89  1  0.60949268  0.24767382  0.74480332  1
  H  H90  1  0.89050732  0.75232618  0.24480332  1
  H  H91  1  0.39050732  0.74767382  0.75519668  1
  H  H92  1  0.74480332  0.89050732  0.74767382  1
  H  H93  1  0.25519668  0.39050732  0.75232618  1
  H  H94  1  0.75519668  0.10949268  0.24767382  1
  H  H95  1  0.24480332  0.60949268  0.25232618  1
  H  H96  1  0.74767382  0.74480332  0.89050732  1
  H  H97  1  0.75232618  0.25519668  0.39050732  1
  H  H98  1  0.24767382  0.75519668  0.10949268  1
  H  H99  1  0.25232618  0.24480332  0.60949268  1
  H  H100  1  0.89050732  0.74767382  0.74480332  1
  H  H101  1  0.39050732  0.75232618  0.25519668  1
  H  H102  1  0.10949268  0.24767382  0.75519668  1
  H  H103  1  0.60949268  0.25232618  0.24480332  1
  N  N104  1  0.26610571  0.02300571  0.25565803  1
  N  N105  1  0.73389429  0.52300571  0.24434197  1
  N  N106  1  0.23389429  0.97699429  0.75565803  1
  N  N107  1  0.76610571  0.47699429  0.74434197  1
  N  N108  1  0.25565803  0.26610571  0.02300571  1
  N  N109  1  0.24434197  0.73389429  0.52300571  1
  N  N110  1  0.75565803  0.23389429  0.97699429  1
  N  N111  1  0.74434197  0.76610571  0.47699429  1
  N  N112  1  0.02300571  0.25565803  0.26610571  1
  N  N113  1  0.52300571  0.24434197  0.73389429  1
  N  N114  1  0.97699429  0.75565803  0.23389429  1
  N  N115  1  0.47699429  0.74434197  0.76610571  1
  N  N116  1  0.73389429  0.97699429  0.74434197  1
  N  N117  1  0.26610571  0.47699429  0.75565803  1
  N  N118  1  0.76610571  0.02300571  0.24434197  1
  N  N119  1  0.23389429  0.52300571  0.25565803  1
  N  N120  1  0.74434197  0.73389429  0.97699429  1
  N  N121  1  0.75565803  0.26610571  0.47699429  1
  N  N122  1  0.24434197  0.76610571  0.02300571  1
  N  N123  1  0.25565803  0.23389429  0.52300571  1
  N  N124  1  0.97699429  0.74434197  0.73389429  1
  N  N125  1  0.47699429  0.75565803  0.26610571  1
  N  N126  1  0.02300571  0.24434197  0.76610571  1
  N  N127  1  0.52300571  0.25565803  0.23389429  1
  F  F128  1  0.26834818  0.73165182  0.23165182  1
  F  F129  1  0.73165182  0.23165182  0.26834818  1
  F  F130  1  0.23165182  0.26834818  0.73165182  1
  F  F131  1  0.76834818  0.76834818  0.76834818  1
  F  F132  1  0.73165182  0.26834818  0.76834818  1
  F  F133  1  0.26834818  0.76834818  0.73165182  1
  F  F134  1  0.76834818  0.73165182  0.26834818  1
  F  F135  1  0.23165182  0.23165182  0.23165182  1
  F  F136  1  0.10477226  0.94392430  0.11332466  1
  F  F137  1  0.89522774  0.44392430  0.38667534  1
  F  F138  1  0.39522774  0.05607570  0.61332466  1
  F  F139  1  0.60477226  0.55607570  0.88667534  1
  F  F140  1  0.11332466  0.10477226  0.94392430  1
  F  F141  1  0.38667534  0.89522774  0.44392430  1
  F  F142  1  0.61332466  0.39522774  0.05607570  1
  F  F143  1  0.88667534  0.60477226  0.55607570  1
  F  F144  1  0.94392430  0.11332466  0.10477226  1
  F  F145  1  0.44392430  0.38667534  0.89522774  1
  F  F146  1  0.05607570  0.61332466  0.39522774  1
  F  F147  1  0.55607570  0.88667534  0.60477226  1
  F  F148  1  0.89522774  0.05607570  0.88667534  1
  F  F149  1  0.10477226  0.55607570  0.61332466  1
  F  F150  1  0.60477226  0.94392430  0.38667534  1
  F  F151  1  0.39522774  0.44392430  0.11332466  1
  F  F152  1  0.88667534  0.89522774  0.05607570  1
  F  F153  1  0.61332466  0.10477226  0.55607570  1
  F  F154  1  0.38667534  0.60477226  0.94392430  1
  F  F155  1  0.11332466  0.39522774  0.44392430  1
  F  F156  1  0.05607570  0.88667534  0.89522774  1
  F  F157  1  0.55607570  0.61332466  0.10477226  1
  F  F158  1  0.94392430  0.38667534  0.60477226  1
  F  F159  1  0.44392430  0.11332466  0.39522774  1
  F  F160  1  0.97485414  0.97147262  0.34039941  1
  F  F161  1  0.02514586  0.47147262  0.15960059  1
  F  F162  1  0.52514586  0.02852738  0.84039941  1
  F  F163  1  0.47485414  0.52852738  0.65960059  1
  F  F164  1  0.34039941  0.97485414  0.97147262  1
  F  F165  1  0.15960059  0.02514586  0.47147262  1
  F  F166  1  0.84039941  0.52514586  0.02852738  1
  F  F167  1  0.65960059  0.47485414  0.52852738  1
  F  F168  1  0.97147262  0.34039941  0.97485414  1
  F  F169  1  0.47147262  0.15960059  0.02514586  1
  F  F170  1  0.02852738  0.84039941  0.52514586  1
  F  F171  1  0.52852738  0.65960059  0.47485414  1
  F  F172  1  0.02514586  0.02852738  0.65960059  1
  F  F173  1  0.97485414  0.52852738  0.84039941  1
  F  F174  1  0.47485414  0.97147262  0.15960059  1
  F  F175  1  0.52514586  0.47147262  0.34039941  1
  F  F176  1  0.65960059  0.02514586  0.02852738  1
  F  F177  1  0.84039941  0.97485414  0.52852738  1
  F  F178  1  0.15960059  0.47485414  0.97147262  1
  F  F179  1  0.34039941  0.52514586  0.47147262  1
  F  F180  1  0.02852738  0.65960059  0.02514586  1
  F  F181  1  0.52852738  0.84039941  0.97485414  1
  F  F182  1  0.97147262  0.15960059  0.47485414  1
  F  F183  1  0.47147262  0.34039941  0.52514586  1
