# generated using pymatgen
data_NaTbH2S2O9
_symmetry_space_group_name_H-M   'P 1'
_cell_length_a   6.98052268
_cell_length_b   6.98052267
_cell_length_c   12.79769926
_cell_angle_alpha   90.00000000
_cell_angle_beta   90.00000000
_cell_angle_gamma   119.99999681
_symmetry_Int_Tables_number   1
_chemical_formula_structural   NaTbH2S2O9
_chemical_formula_sum   'Na3 Tb3 H6 S6 O27'
_cell_volume   540.05554562
_cell_formula_units_Z   3
loop_
 _symmetry_equiv_pos_site_id
 _symmetry_equiv_pos_as_xyz
  1  'x, y, z'
loop_
 _atom_site_type_symbol
 _atom_site_label
 _atom_site_symmetry_multiplicity
 _atom_site_fract_x
 _atom_site_fract_y
 _atom_site_fract_z
 _atom_site_occupancy
  Na  Na0  1  0.52769299  0.52769692  0.66663711  1
  Na  Na1  1  0.47230308  0.99999607  0.99997111  1
  Na  Na2  1  0.00000393  0.47230701  0.33330411  1
  Tb  Tb3  1  0.00000082  0.44127727  0.83333113  1
  Tb  Tb4  1  0.55872273  0.55872355  0.16666513  1
  Tb  Tb5  1  0.44127645  -0.00000082  0.49999813  1
  H  H6  1  0.10562541  0.06956379  0.79719424  1
  H  H7  1  0.93043621  0.03606162  0.13052824  1
  H  H8  1  0.96393838  0.89437459  0.46386124  1
  H  H9  1  0.89437321  0.96393528  0.86947206  1
  H  H10  1  0.03606472  0.93043793  0.20280606  1
  H  H11  1  0.06956207  0.10562679  0.53613906  1
  S  S12  1  0.01384401  0.45780512  0.07362911  1
  S  S13  1  0.54219488  0.55603890  0.40696311  1
  S  S14  1  0.44396110  0.98615599  0.74029611  1
  S  S15  1  0.98615167  0.44395862  0.59303561  1
  S  S16  1  0.55604138  0.54219306  0.92636961  1
  S  S17  1  0.45780694  0.01384833  0.25970261  1
  O  O18  1  0.87534873  0.26136929  0.00535960  1
  O  O19  1  0.73863071  0.61397944  0.33869360  1
  O  O20  1  0.38602056  0.12465127  0.67202660  1
  O  O21  1  0.12465018  0.38602056  0.66130504  1
  O  O22  1  0.61397944  0.73862962  0.99463904  1
  O  O23  1  0.26137038  0.87534982  0.32797204  1
  O  O24  1  0.13229440  0.64597672  0.99901671  1
  O  O25  1  0.35402328  0.48631767  0.33235071  1
  O  O26  1  0.51368233  0.86770560  0.66568371  1
  O  O27  1  0.86770554  0.51368149  0.66764888  1
  O  O28  1  0.48631851  0.35402406  0.00098288  1
  O  O29  1  0.64597594  0.13229446  0.33431588  1
  O  O30  1  0.00000046  0.09883278  0.83333345  1
  O  O31  1  0.90116722  0.90116768  0.16666745  1
  O  O32  1  0.09883232  -0.00000046  0.50000045  1
  O  O33  1  0.87476864  0.49577438  0.14854733  1
  O  O34  1  0.50422562  0.37899426  0.48188133  1
  O  O35  1  0.62100574  0.12523136  0.81521433  1
  O  O36  1  0.12523146  0.62100530  0.51811696  1
  O  O37  1  0.37899470  0.50422616  0.85145096  1
  O  O38  1  0.49577384  0.87476854  0.18478396  1
  O  O39  1  0.17084691  0.41756238  0.13514461  1
  O  O40  1  0.58243762  0.75328453  0.46847861  1
  O  O41  1  0.24671547  0.82915309  0.80181161  1
  O  O42  1  0.82914976  0.24671315  0.53152317  1
  O  O43  1  0.75328685  0.58243662  0.86485717  1
  O  O44  1  0.41756339  0.17085024  0.19819017  1
