# generated using pymatgen
data_Co4Se3Cl2O9
_symmetry_space_group_name_H-M   'P 1'
_cell_length_a   8.08577069
_cell_length_b   9.83471962
_cell_length_c   14.61249660
_cell_angle_alpha   90.00000000
_cell_angle_beta   90.00000000
_cell_angle_gamma   90.00000000
_symmetry_Int_Tables_number   1
_chemical_formula_structural   Co4Se3Cl2O9
_chemical_formula_sum   'Co16 Se12 Cl8 O36'
_cell_volume   1162.00454538
_cell_formula_units_Z   4
loop_
 _symmetry_equiv_pos_site_id
 _symmetry_equiv_pos_as_xyz
  1  'x, y, z'
loop_
 _atom_site_type_symbol
 _atom_site_label
 _atom_site_symmetry_multiplicity
 _atom_site_fract_x
 _atom_site_fract_y
 _atom_site_fract_z
 _atom_site_occupancy
  Co  Co0  1  0.96671037  0.73475076  0.62698159  1
  Co  Co1  1  0.46671037  0.76524924  0.87301841  1
  Co  Co2  1  0.03328963  0.26524924  0.12698159  1
  Co  Co3  1  0.53328963  0.23475076  0.37301841  1
  Co  Co4  1  0.03328963  0.26524924  0.37301841  1
  Co  Co5  1  0.53328963  0.23475076  0.12698159  1
  Co  Co6  1  0.96671037  0.73475076  0.87301841  1
  Co  Co7  1  0.46671037  0.76524924  0.62698159  1
  Co  Co8  1  0.20372484  0.50108340  0.52238551  1
  Co  Co9  1  0.70372484  0.99891660  0.97761449  1
  Co  Co10  1  0.79627516  0.49891660  0.02238551  1
  Co  Co11  1  0.29627516  0.00108340  0.47761449  1
  Co  Co12  1  0.79627516  0.49891660  0.47761449  1
  Co  Co13  1  0.29627516  0.00108340  0.02238551  1
  Co  Co14  1  0.20372484  0.50108340  0.97761449  1
  Co  Co15  1  0.70372484  0.99891660  0.52238551  1
  Se  Se16  1  0.97184875  0.78760911  0.42189310  1
  Se  Se17  1  0.47184875  0.71239089  0.07810690  1
  Se  Se18  1  0.02815125  0.21239089  0.92189310  1
  Se  Se19  1  0.52815125  0.28760911  0.57810690  1
  Se  Se20  1  0.02815125  0.21239089  0.57810690  1
  Se  Se21  1  0.52815125  0.28760911  0.92189310  1
  Se  Se22  1  0.97184875  0.78760911  0.07810690  1
  Se  Se23  1  0.47184875  0.71239089  0.42189310  1
  Se  Se24  1  0.25658092  0.54217865  0.75000000  1
  Se  Se25  1  0.75658092  0.95782135  0.75000000  1
  Se  Se26  1  0.74341908  0.45782135  0.25000000  1
  Se  Se27  1  0.24341908  0.04217865  0.25000000  1
  Cl  Cl28  1  0.72989131  0.58684082  0.63045343  1
  Cl  Cl29  1  0.22989131  0.91315918  0.86954657  1
  Cl  Cl30  1  0.27010869  0.41315918  0.13045343  1
  Cl  Cl31  1  0.77010869  0.08684082  0.36954657  1
  Cl  Cl32  1  0.27010869  0.41315918  0.36954657  1
  Cl  Cl33  1  0.77010869  0.08684082  0.13045343  1
  Cl  Cl34  1  0.72989131  0.58684082  0.86954657  1
  Cl  Cl35  1  0.22989131  0.91315918  0.63045343  1
  O  O36  1  0.16506206  0.85399329  0.40870626  1
  O  O37  1  0.66506206  0.64600671  0.09129374  1
  O  O38  1  0.83493794  0.14600671  0.90870626  1
  O  O39  1  0.33493794  0.35399329  0.59129374  1
  O  O40  1  0.83493794  0.14600671  0.59129374  1
  O  O41  1  0.33493794  0.35399329  0.90870626  1
  O  O42  1  0.16506206  0.85399329  0.09129374  1
  O  O43  1  0.66506206  0.64600671  0.40870626  1
  O  O44  1  0.13529896  0.58710780  0.65660739  1
  O  O45  1  0.63529896  0.91289220  0.84339261  1
  O  O46  1  0.86470104  0.41289220  0.15660739  1
  O  O47  1  0.36470104  0.08710780  0.34339261  1
  O  O48  1  0.86470104  0.41289220  0.34339261  1
  O  O49  1  0.36470104  0.08710780  0.15660739  1
  O  O50  1  0.13529896  0.58710780  0.84339261  1
  O  O51  1  0.63529896  0.91289220  0.65660739  1
  O  O52  1  0.40510340  0.67313696  0.75000000  1
  O  O53  1  0.90510340  0.82686304  0.75000000  1
  O  O54  1  0.59489660  0.32686304  0.25000000  1
  O  O55  1  0.09489660  0.17313696  0.25000000  1
  O  O56  1  0.00853489  0.63224993  0.48004390  1
  O  O57  1  0.50853489  0.86775007  0.01995610  1
  O  O58  1  0.99146511  0.36775007  0.98004390  1
  O  O59  1  0.49146511  0.13224993  0.51995610  1
  O  O60  1  0.99146511  0.36775007  0.51995610  1
  O  O61  1  0.49146511  0.13224993  0.98004390  1
  O  O62  1  0.00853489  0.63224993  0.01995610  1
  O  O63  1  0.50853489  0.86775007  0.48004390  1
  O  O64  1  0.89618073  0.86420158  0.52230035  1
  O  O65  1  0.39618073  0.63579842  0.97769965  1
  O  O66  1  0.10381927  0.13579842  0.02230035  1
  O  O67  1  0.60381927  0.36420158  0.47769965  1
  O  O68  1  0.10381927  0.13579842  0.47769965  1
  O  O69  1  0.60381927  0.36420158  0.02230035  1
  O  O70  1  0.89618073  0.86420158  0.97769965  1
  O  O71  1  0.39618073  0.63579842  0.52230035  1
