# generated using pymatgen
data_Sr3(SnAs2)2
_symmetry_space_group_name_H-M   'P 1'
_cell_length_a   13.01416141
_cell_length_b   14.63108351
_cell_length_c   19.37734852
_cell_angle_alpha   90.00000000
_cell_angle_beta   90.00000000
_cell_angle_gamma   116.40693727
_symmetry_Int_Tables_number   1
_chemical_formula_structural   Sr3(SnAs2)2
_chemical_formula_sum   'Sr36 Sn24 As48'
_cell_volume   3304.67837310
_cell_formula_units_Z   12
loop_
 _symmetry_equiv_pos_site_id
 _symmetry_equiv_pos_as_xyz
  1  'x, y, z'
loop_
 _atom_site_type_symbol
 _atom_site_label
 _atom_site_symmetry_multiplicity
 _atom_site_fract_x
 _atom_site_fract_y
 _atom_site_fract_z
 _atom_site_occupancy
  Sr  Sr0  1  0.87107405  0.16813961  0.36941846  1
  Sr  Sr1  1  0.29706557  0.16813961  0.63058154  1
  Sr  Sr2  1  0.79706557  0.16813961  0.86941846  1
  Sr  Sr3  1  0.37107405  0.16813961  0.13058154  1
  Sr  Sr4  1  0.12892595  0.83186039  0.63058154  1
  Sr  Sr5  1  0.70293443  0.83186039  0.36941846  1
  Sr  Sr6  1  0.20293443  0.83186039  0.13058154  1
  Sr  Sr7  1  0.62892595  0.83186039  0.86941846  1
  Sr  Sr8  1  0.71536694  0.33765517  0.24268649  1
  Sr  Sr9  1  0.62228823  0.33765517  0.75731351  1
  Sr  Sr10  1  0.12228823  0.33765517  0.74268649  1
  Sr  Sr11  1  0.21536694  0.33765517  0.25731351  1
  Sr  Sr12  1  0.28463306  0.66234483  0.75731351  1
  Sr  Sr13  1  0.37771177  0.66234483  0.24268649  1
  Sr  Sr14  1  0.87771177  0.66234483  0.25731351  1
  Sr  Sr15  1  0.78463306  0.66234483  0.74268649  1
  Sr  Sr16  1  0.04433028  0.51203292  0.37243168  1
  Sr  Sr17  1  0.46770264  0.51203292  0.62756832  1
  Sr  Sr18  1  0.96770264  0.51203292  0.87243168  1
  Sr  Sr19  1  0.54433028  0.51203292  0.12756832  1
  Sr  Sr20  1  0.95566972  0.48796708  0.62756832  1
  Sr  Sr21  1  0.53229736  0.48796708  0.37243168  1
  Sr  Sr22  1  0.03229736  0.48796708  0.12756832  1
  Sr  Sr23  1  0.45566972  0.48796708  0.87243168  1
  Sr  Sr24  1  0.55911519  1.00000000  0.22799635  1
  Sr  Sr25  1  0.44088481  0.00000000  0.77200365  1
  Sr  Sr26  1  0.94088481  0.00000000  0.72799635  1
  Sr  Sr27  1  0.05911519  1.00000000  0.27200365  1
  Sr  Sr28  1  0.82579222  0.65158443  0.50000000  1
  Sr  Sr29  1  0.32579222  0.65158443  -0.00000000  1
  Sr  Sr30  1  0.17420778  0.34841557  0.50000000  1
  Sr  Sr31  1  0.67420778  0.34841557  -0.00000000  1
  Sr  Sr32  1  0.00000000  -0.00000000  0.50000000  1
  Sr  Sr33  1  0.50000000  -0.00000000  -0.00000000  1
  Sr  Sr34  1  0.50000000  -0.00000000  0.50000000  1
  Sr  Sr35  1  0.00000000  -0.00000000  -0.00000000  1
  Sn  Sn36  1  0.93182293  0.17109011  0.17870683  1
  Sn  Sn37  1  0.23926717  0.17109011  0.82129317  1
  Sn  Sn38  1  0.73926717  0.17109011  0.67870683  1
  Sn  Sn39  1  0.43182293  0.17109011  0.32129317  1
  Sn  Sn40  1  0.06817707  0.82890989  0.82129317  1
  Sn  Sn41  1  0.76073283  0.82890989  0.17870683  1
  Sn  Sn42  1  0.26073283  0.82890989  0.32129317  1
  Sn  Sn43  1  0.56817707  0.82890989  0.67870683  1
  Sn  Sn44  1  0.72585401  0.32493549  0.43968531  1
  Sn  Sn45  1  0.59908147  0.32493549  0.56031469  1
  Sn  Sn46  1  0.09908147  0.32493549  0.93968531  1
  Sn  Sn47  1  0.22585401  0.32493549  0.06031469  1
  Sn  Sn48  1  0.27414599  0.67506451  0.56031469  1
  Sn  Sn49  1  0.40091853  0.67506451  0.43968531  1
  Sn  Sn50  1  0.90091853  0.67506451  0.06031469  1
  Sn  Sn51  1  0.77414599  0.67506451  0.93968531  1
  Sn  Sn52  1  0.12636187  0.83570139  0.43393740  1
  Sn  Sn53  1  0.70933952  0.83570139  0.56606260  1
  Sn  Sn54  1  0.20933952  0.83570139  0.93393740  1
  Sn  Sn55  1  0.62636187  0.83570139  0.06606260  1
  Sn  Sn56  1  0.87363813  0.16429861  0.56606260  1
  Sn  Sn57  1  0.29066048  0.16429861  0.43393740  1
  Sn  Sn58  1  0.79066048  0.16429861  0.06606260  1
  Sn  Sn59  1  0.37363813  0.16429861  0.93393740  1
  As  As60  1  0.61644004  0.15181429  0.36617490  1
  As  As61  1  0.53537425  0.15181429  0.63382510  1
  As  As62  1  0.03537425  0.15181429  0.86617490  1
  As  As63  1  0.11644004  0.15181429  0.13382510  1
  As  As64  1  0.38355996  0.84818571  0.63382510  1
  As  As65  1  0.46462575  0.84818571  0.36617490  1
  As  As66  1  0.96462575  0.84818571  0.13382510  1
  As  As67  1  0.88355996  0.84818571  0.86617490  1
  As  As68  1  0.61102701  0.17479388  0.11785120  1
  As  As69  1  0.56376687  0.17479388  0.88214880  1
  As  As70  1  0.06376687  0.17479388  0.61785120  1
  As  As71  1  0.11102701  0.17479388  0.38214880  1
  As  As72  1  0.38897299  0.82520612  0.88214880  1
  As  As73  1  0.43623313  0.82520612  0.11785120  1
  As  As74  1  0.93623313  0.82520612  0.38214880  1
  As  As75  1  0.88897299  0.82520612  0.61785120  1
  As  As76  1  0.96245807  0.33119878  0.25273587  1
  As  As77  1  0.36874071  0.33119878  0.74726413  1
  As  As78  1  0.86874071  0.33119878  0.75273587  1
  As  As79  1  0.46245807  0.33119878  0.24726413  1
  As  As80  1  0.03754193  0.66880122  0.74726413  1
  As  As81  1  0.63125929  0.66880122  0.25273587  1
  As  As82  1  0.13125929  0.66880122  0.24726413  1
  As  As83  1  0.53754193  0.66880122  0.75273587  1
  As  As84  1  0.92161447  0.33420111  0.49185517  1
  As  As85  1  0.41258663  0.33420111  0.50814483  1
  As  As86  1  0.91258663  0.33420111  0.99185517  1
  As  As87  1  0.42161447  0.33420111  0.00814483  1
  As  As88  1  0.07838553  0.66579889  0.50814483  1
  As  As89  1  0.58741337  0.66579889  0.49185517  1
  As  As90  1  0.08741337  0.66579889  0.00814483  1
  As  As91  1  0.57838553  0.66579889  0.99185517  1
  As  As92  1  0.78621573  0.49482053  0.37342203  1
  As  As93  1  0.70860480  0.49482053  0.62657797  1
  As  As94  1  0.20860480  0.49482053  0.87342203  1
  As  As95  1  0.28621573  0.49482053  0.12657797  1
  As  As96  1  0.21378427  0.50517947  0.62657797  1
  As  As97  1  0.29139520  0.50517947  0.37342203  1
  As  As98  1  0.79139520  0.50517947  0.12657797  1
  As  As99  1  0.71378427  0.50517947  0.87342203  1
  As  As100  1  0.74803907  0.00000000  0.48692184  1
  As  As101  1  0.25196093  1.00000000  0.51307816  1
  As  As102  1  0.75196093  1.00000000  0.98692184  1
  As  As103  1  0.24803907  0.00000000  0.01307816  1
  As  As104  1  0.80961096  0.00000000  0.25223034  1
  As  As105  1  0.19038904  1.00000000  0.74776966  1
  As  As106  1  0.69038904  1.00000000  0.75223034  1
  As  As107  1  0.30961096  0.00000000  0.24776966  1
