# generated using pymatgen
data_KIn(TeO3)2
_symmetry_space_group_name_H-M   'P 1'
_cell_length_a   5.93776637
_cell_length_b   8.45691066
_cell_length_c   13.61080783
_cell_angle_alpha   90.00000000
_cell_angle_beta   90.00000000
_cell_angle_gamma   90.00000000
_symmetry_Int_Tables_number   1
_chemical_formula_structural   KIn(TeO3)2
_chemical_formula_sum   'K4 In4 Te8 O24'
_cell_volume   683.46888898
_cell_formula_units_Z   4
loop_
 _symmetry_equiv_pos_site_id
 _symmetry_equiv_pos_as_xyz
  1  'x, y, z'
loop_
 _atom_site_type_symbol
 _atom_site_label
 _atom_site_symmetry_multiplicity
 _atom_site_fract_x
 _atom_site_fract_y
 _atom_site_fract_z
 _atom_site_occupancy
  K  K0  1  0.25000000  0.00422517  0.62984075  1
  K  K1  1  0.25000000  0.49577483  0.12984075  1
  K  K2  1  0.75000000  0.99577483  0.37015925  1
  K  K3  1  0.75000000  0.50422517  0.87015925  1
  In  In4  1  0.25000000  0.78900461  0.90645816  1
  In  In5  1  0.25000000  0.71099539  0.40645816  1
  In  In6  1  0.75000000  0.21099539  0.09354184  1
  In  In7  1  0.75000000  0.28900461  0.59354184  1
  Te  Te8  1  0.75000000  0.01028569  0.80286062  1
  Te  Te9  1  0.75000000  0.48971431  0.30286062  1
  Te  Te10  1  0.25000000  0.98971431  0.19713938  1
  Te  Te11  1  0.25000000  0.51028569  0.69713938  1
  Te  Te12  1  0.75000000  0.71292725  0.57384128  1
  Te  Te13  1  0.75000000  0.78707275  0.07384128  1
  Te  Te14  1  0.25000000  0.28707275  0.42615872  1
  Te  Te15  1  0.25000000  0.21292725  0.92615872  1
  O  O16  1  0.99468497  0.86635190  0.79783731  1
  O  O17  1  0.50531503  0.63364810  0.29783731  1
  O  O18  1  0.49468497  0.13364810  0.20216269  1
  O  O19  1  0.00531503  0.36635190  0.70216269  1
  O  O20  1  0.00531503  0.13364810  0.20216269  1
  O  O21  1  0.49468497  0.36635190  0.70216269  1
  O  O22  1  0.50531503  0.86635190  0.79783731  1
  O  O23  1  0.99468497  0.63364810  0.29783731  1
  O  O24  1  0.75000000  0.05299118  0.66473322  1
  O  O25  1  0.75000000  0.44700882  0.16473322  1
  O  O26  1  0.25000000  0.94700882  0.33526678  1
  O  O27  1  0.25000000  0.55299118  0.83526678  1
  O  O28  1  0.99300090  0.80607144  0.50561553  1
  O  O29  1  0.50699910  0.69392856  0.00561553  1
  O  O30  1  0.49300090  0.19392856  0.49438447  1
  O  O31  1  0.00699910  0.30607144  0.99438447  1
  O  O32  1  0.00699910  0.19392856  0.49438447  1
  O  O33  1  0.49300090  0.30607144  0.99438447  1
  O  O34  1  0.50699910  0.80607144  0.50561553  1
  O  O35  1  0.99300090  0.69392856  0.00561553  1
  O  O36  1  0.75000000  0.51135098  0.51255468  1
  O  O37  1  0.75000000  0.98864902  0.01255468  1
  O  O38  1  0.25000000  0.48864902  0.48744532  1
  O  O39  1  0.25000000  0.01135098  0.98744532  1
