# generated using pymatgen
data_ThTeSO7
_symmetry_space_group_name_H-M   'P 1'
_cell_length_a   5.70131441
_cell_length_b   7.68021588
_cell_length_c   14.02645162
_cell_angle_alpha   90.00000000
_cell_angle_beta   90.00000000
_cell_angle_gamma   109.42141281
_symmetry_Int_Tables_number   1
_chemical_formula_structural   ThTeSO7
_chemical_formula_sum   'Th4 Te4 S4 O28'
_cell_volume   579.23296648
_cell_formula_units_Z   4
loop_
 _symmetry_equiv_pos_site_id
 _symmetry_equiv_pos_as_xyz
  1  'x, y, z'
loop_
 _atom_site_type_symbol
 _atom_site_label
 _atom_site_symmetry_multiplicity
 _atom_site_fract_x
 _atom_site_fract_y
 _atom_site_fract_z
 _atom_site_occupancy
  Th  Th0  1  0.41936225  0.59026265  0.36695995  1
  Th  Th1  1  0.08063775  0.40973735  0.86695995  1
  Th  Th2  1  0.58063775  0.40973735  0.63304005  1
  Th  Th3  1  0.91936225  0.59026265  0.13304005  1
  Te  Te4  1  0.72879027  0.26537445  0.37376573  1
  Te  Te5  1  0.77120973  0.73462555  0.87376573  1
  Te  Te6  1  0.27120973  0.73462555  0.62623427  1
  Te  Te7  1  0.22879027  0.26537445  0.12623427  1
  S  S8  1  0.10481524  0.88475041  0.36098628  1
  S  S9  1  0.39518476  0.11524959  0.86098628  1
  S  S10  1  0.89518476  0.11524959  0.63901372  1
  S  S11  1  0.60481524  0.88475041  0.13901372  1
  O  O12  1  0.04598280  0.41470436  0.41306786  1
  O  O13  1  0.45401720  0.58529564  0.91306786  1
  O  O14  1  0.95401720  0.58529564  0.58693214  1
  O  O15  1  0.54598280  0.41470436  0.08693214  1
  O  O16  1  0.17239035  0.07491926  0.32686966  1
  O  O17  1  0.32760965  0.92508074  0.82686966  1
  O  O18  1  0.82760965  0.92508074  0.67313034  1
  O  O19  1  0.67239035  0.07491926  0.17313034  1
  O  O20  1  0.85001895  0.81740421  0.40072590  1
  O  O21  1  0.64998105  0.18259579  0.90072590  1
  O  O22  1  0.14998105  0.18259579  0.59927410  1
  O  O23  1  0.35001895  0.81740421  0.09927410  1
  O  O24  1  0.29115792  0.86313446  0.43222721  1
  O  O25  1  0.20884208  0.13686554  0.93222721  1
  O  O26  1  0.70884208  0.13686554  0.56777279  1
  O  O27  1  0.79115792  0.86313446  0.06777279  1
  O  O28  1  0.12828779  0.75668218  0.28098044  1
  O  O29  1  0.37171221  0.24331782  0.78098044  1
  O  O30  1  0.87171221  0.24331782  0.71901956  1
  O  O31  1  0.62828779  0.75668218  0.21901956  1
  O  O32  1  0.54682256  0.36784634  0.45914749  1
  O  O33  1  0.95317744  0.63215366  0.95914749  1
  O  O34  1  0.45317744  0.63215366  0.54085251  1
  O  O35  1  0.04682256  0.36784634  0.04085251  1
  O  O36  1  0.67520575  0.43294948  0.28079854  1
  O  O37  1  0.82479425  0.56705052  0.78079854  1
  O  O38  1  0.32479425  0.56705052  0.71920146  1
  O  O39  1  0.17520575  0.43294948  0.21920146  1
