# generated using pymatgen
data_BaHo4Si5O17
_symmetry_space_group_name_H-M   'P 1'
_cell_length_a   5.57047700
_cell_length_b   6.92317708
_cell_length_c   19.94370076
_cell_angle_alpha   90.00000000
_cell_angle_beta   90.00000000
_cell_angle_gamma   106.65619197
_symmetry_Int_Tables_number   1
_chemical_formula_structural   BaHo4Si5O17
_chemical_formula_sum   'Ba2 Ho8 Si10 O34'
_cell_volume   736.86527518
_cell_formula_units_Z   2
loop_
 _symmetry_equiv_pos_site_id
 _symmetry_equiv_pos_as_xyz
  1  'x, y, z'
loop_
 _atom_site_type_symbol
 _atom_site_label
 _atom_site_symmetry_multiplicity
 _atom_site_fract_x
 _atom_site_fract_y
 _atom_site_fract_z
 _atom_site_occupancy
  Ba  Ba0  1  0.75638264  0.18728073  0.75000000  1
  Ba  Ba1  1  0.24361736  0.81271927  0.25000000  1
  Ho  Ho2  1  0.69859779  0.88300008  0.53891324  1
  Ho  Ho3  1  0.30140221  0.11699992  0.03891324  1
  Ho  Ho4  1  0.30140221  0.11699992  0.46108676  1
  Ho  Ho5  1  0.69859779  0.88300008  0.96108676  1
  Ho  Ho6  1  0.35201592  0.51861042  0.65832718  1
  Ho  Ho7  1  0.64798408  0.48138958  0.15832718  1
  Ho  Ho8  1  0.64798408  0.48138958  0.34167282  1
  Ho  Ho9  1  0.35201592  0.51861042  0.84167282  1
  Si  Si10  1  0.93535525  0.71804952  0.75000000  1
  Si  Si11  1  0.06464475  0.28195048  0.25000000  1
  Si  Si12  1  0.22939208  0.99282783  0.63565339  1
  Si  Si13  1  0.77060792  0.00717217  0.13565339  1
  Si  Si14  1  0.77060792  0.00717217  0.36434661  1
  Si  Si15  1  0.22939208  0.99282783  0.86434661  1
  Si  Si16  1  0.80260268  0.40476585  0.56082726  1
  Si  Si17  1  0.19739732  0.59523415  0.06082726  1
  Si  Si18  1  0.19739732  0.59523415  0.43917274  1
  Si  Si19  1  0.80260268  0.40476585  0.93917274  1
  O  O20  1  0.13426563  0.58385491  0.75000000  1
  O  O21  1  0.86573437  0.41614509  0.25000000  1
  O  O22  1  0.64128089  0.58138872  0.75000000  1
  O  O23  1  0.35871911  0.41861128  0.25000000  1
  O  O24  1  0.98141845  0.86929879  0.68361901  1
  O  O25  1  0.01858155  0.13070121  0.18361901  1
  O  O26  1  0.01858155  0.13070121  0.31638099  1
  O  O27  1  0.98141845  0.86929879  0.81638099  1
  O  O28  1  0.36153867  0.20477664  0.67349649  1
  O  O29  1  0.63846133  0.79522336  0.17349649  1
  O  O30  1  0.63846133  0.79522336  0.32650351  1
  O  O31  1  0.36153867  0.20477664  0.82650351  1
  O  O32  1  0.42241895  0.85225364  0.62987715  1
  O  O33  1  0.57758105  0.14774636  0.12987715  1
  O  O34  1  0.57758105  0.14774636  0.37012285  1
  O  O35  1  0.42241895  0.85225364  0.87012285  1
  O  O36  1  0.10253556  0.01822745  0.56308600  1
  O  O37  1  0.89746444  0.98177255  0.06308600  1
  O  O38  1  0.89746444  0.98177255  0.43691400  1
  O  O39  1  0.10253556  0.01822745  0.93691400  1
  O  O40  1  0.95858693  0.38513874  0.62817213  1
  O  O41  1  0.04141307  0.61486126  0.12817213  1
  O  O42  1  0.04141307  0.61486126  0.37182787  1
  O  O43  1  0.95858693  0.38513874  0.87182787  1
  O  O44  1  0.62532922  0.18630090  0.53357015  1
  O  O45  1  0.37467078  0.81369910  0.03357015  1
  O  O46  1  0.37467078  0.81369910  0.46642985  1
  O  O47  1  0.62532922  0.18630090  0.96642985  1
  O  O48  1  -0.00000000  0.50000000  0.50000000  1
  O  O49  1  -0.00000000  0.50000000  0.00000000  1
  O  O50  1  0.62971594  0.56012782  0.57342144  1
  O  O51  1  0.37028406  0.43987218  0.07342144  1
  O  O52  1  0.37028406  0.43987218  0.42657856  1
  O  O53  1  0.62971594  0.56012782  0.92657856  1
