# generated using pymatgen
data_Te4S5O23
_symmetry_space_group_name_H-M   'P 1'
_cell_length_a   8.76741774
_cell_length_b   8.76741774
_cell_length_c   22.80650903
_cell_angle_alpha   90.00000000
_cell_angle_beta   90.00000000
_cell_angle_gamma   119.99999840
_symmetry_Int_Tables_number   1
_chemical_formula_structural   Te4S5O23
_chemical_formula_sum   'Te12 S15 O69'
_cell_volume   1518.21350900
_cell_formula_units_Z   3
loop_
 _symmetry_equiv_pos_site_id
 _symmetry_equiv_pos_as_xyz
  1  'x, y, z'
loop_
 _atom_site_type_symbol
 _atom_site_label
 _atom_site_symmetry_multiplicity
 _atom_site_fract_x
 _atom_site_fract_y
 _atom_site_fract_z
 _atom_site_occupancy
  Te  Te0  1  0.27291949  0.92047284  0.42346407  1
  Te  Te1  1  0.64755335  0.72708051  0.75679807  1
  Te  Te2  1  0.07952716  0.35244665  0.09013107  1
  Te  Te3  1  0.35245314  0.07952920  0.57654392  1
  Te  Te4  1  0.92047080  0.27292394  0.24320992  1
  Te  Te5  1  0.72707606  0.64754686  0.90987692  1
  Te  Te6  1  0.55246666  0.73149114  0.44861510  1
  Te  Te7  1  0.17902449  0.44753334  0.78194910  1
  Te  Te8  1  0.26850886  0.82097551  0.11528210  1
  Te  Te9  1  0.82097393  0.26850865  0.55138551  1
  Te  Te10  1  0.73149135  0.55246528  0.21805151  1
  Te  Te11  1  0.44753472  0.17902607  0.88471851  1
  S  S12  1  0.25853378  0.31159112  0.47214543  1
  S  S13  1  0.05305734  0.74146622  0.80547943  1
  S  S14  1  0.68840888  0.94694266  0.13881243  1
  S  S15  1  0.94693776  0.68840622  0.52785560  1
  S  S16  1  0.31159378  0.25853154  0.19452160  1
  S  S17  1  0.74146846  0.05306224  0.86118860  1
  S  S18  1  0.70447784  0.18970508  0.41118220  1
  S  S19  1  0.48522724  0.29552216  0.74451620  1
  S  S20  1  0.81029492  0.51477276  0.07784920  1
  S  S21  1  0.51477393  0.81029473  0.58882006  1
  S  S22  1  0.18970527  0.70447920  0.25548606  1
  S  S23  1  0.29552080  0.48522607  0.92215306  1
  S  S24  1  0.77178370  0.77177856  0.33333678  1
  S  S25  1  -0.00000513  0.22821630  0.66667078  1
  S  S26  1  0.22822144  0.00000513  0.00000378  1
  O  O27  1  0.38023303  0.99999160  0.50000583  1
  O  O28  1  0.61975857  0.61976697  0.83333983  1
  O  O29  1  0.00000840  0.38024143  0.16667283  1
  O  O30  1  0.51165095  0.11676892  0.38984183  1
  O  O31  1  0.60511797  0.48834905  0.72317583  1
  O  O32  1  0.88323108  0.39488203  0.05650883  1
  O  O33  1  0.39488521  0.88323158  0.61016316  1
  O  O34  1  0.11676842  0.51165363  0.27682916  1
  O  O35  1  0.48834637  0.60511479  0.94349616  1
  O  O36  1  0.41113281  0.46598419  0.43619922  1
  O  O37  1  0.05485138  0.58886719  0.76953322  1
  O  O38  1  0.53401581  0.94514862  0.10286622  1
  O  O39  1  0.94514857  0.53401405  0.56380118  1
  O  O40  1  0.46598595  0.41113452  0.23046718  1
  O  O41  1  0.58886548  0.05485143  0.89713418  1
  O  O42  1  0.34241641  0.29661170  0.52741479  1
  O  O43  1  0.95419529  0.65758359  0.86074879  1
  O  O44  1  0.70338830  0.04580471  0.19408179  1
  O  O45  1  0.04580398  0.70338829  0.47258724  1
  O  O46  1  0.29661171  0.34241569  0.13925324  1
  O  O47  1  0.65758431  0.95419602  0.80592024  1
  O  O48  1  0.81642341  0.27203628  0.36132603  1
  O  O49  1  0.45561287  0.18357659  0.69466003  1
  O  O50  1  0.72796372  0.54438713  0.02799303  1
  O  O51  1  0.54438917  0.72796274  0.63867361  1
  O  O52  1  0.27203726  0.81642643  0.30533961  1
  O  O53  1  0.18357357  0.45561083  0.97200661  1
  O  O54  1  0.12226560  0.35519163  0.48271294  1
  O  O55  1  0.23292604  0.87773440  0.81604694  1
  O  O56  1  0.64480837  0.76707396  0.14937994  1
  O  O57  1  0.76707468  0.64480712  0.51728713  1
  O  O58  1  0.35519287  0.12226756  0.18395313  1
  O  O59  1  0.87773244  0.23292532  0.85062013  1
  O  O60  1  0.20296128  0.15570866  0.43440410  1
  O  O61  1  0.95274739  0.79703872  0.76773810  1
  O  O62  1  0.84429134  0.04725261  0.10107110  1
  O  O63  1  0.04724936  0.84429099  0.56559784  1
  O  O64  1  0.15570901  0.20295837  0.23226384  1
  O  O65  1  0.79704163  0.95275064  0.89893084  1
  O  O66  1  0.58915364  0.72991397  0.35859438  1
  O  O67  1  0.14076033  0.41084636  0.69192838  1
  O  O68  1  0.27008603  0.85923967  0.02526138  1
  O  O69  1  0.85924124  0.27008633  0.64140587  1
  O  O70  1  0.72991367  0.58915491  0.30807187  1
  O  O71  1  0.41084509  0.14075876  0.97473887  1
  O  O72  1  0.73607835  0.31743880  0.45988067  1
  O  O73  1  0.58136045  0.26392165  0.79321467  1
  O  O74  1  0.68256120  0.41863955  0.12654767  1
  O  O75  1  0.41863839  0.68256365  0.54012031  1
  O  O76  1  0.31743635  0.73607474  0.20678631  1
  O  O77  1  0.26392526  0.58136161  0.87345331  1
  O  O78  1  0.71931890  0.04055566  0.43680121  1
  O  O79  1  0.32123676  0.28068110  0.77013521  1
  O  O80  1  0.95944434  0.67876324  0.10346821  1
  O  O81  1  0.67876178  0.95944788  0.56319939  1
  O  O82  1  0.04055212  0.71931390  0.22986539  1
  O  O83  1  0.28068610  0.32123822  0.89653239  1
  O  O84  1  0.35249188  0.74829485  0.42433656  1
  O  O85  1  0.39580297  0.64750812  0.75767056  1
  O  O86  1  0.25170515  0.60419703  0.09100356  1
  O  O87  1  0.60419989  0.25171211  0.57566649  1
  O  O88  1  0.74828789  0.35248778  0.24233249  1
  O  O89  1  0.64751222  0.39580011  0.90899949  1
  O  O90  1  0.89400004  0.81617456  0.38143655  1
  O  O91  1  0.92217452  0.10599996  0.71477055  1
  O  O92  1  0.18382544  0.07782548  0.04810355  1
  O  O93  1  0.07783032  0.18382460  0.61856101  1
  O  O94  1  0.81617540  0.89400572  0.28522701  1
  O  O95  1  0.10599428  0.92216968  0.95189401  1
