# generated using pymatgen
data_Tm2ReB6
_symmetry_space_group_name_H-M   'P 1'
_cell_length_a   3.63528382
_cell_length_b   9.10042229
_cell_length_c   11.46922237
_cell_angle_alpha   90.00000000
_cell_angle_beta   90.00000000
_cell_angle_gamma   90.00000000
_symmetry_Int_Tables_number   1
_chemical_formula_structural   Tm2ReB6
_chemical_formula_sum   'Tm8 Re4 B24'
_cell_volume   379.43190135
_cell_formula_units_Z   4
loop_
 _symmetry_equiv_pos_site_id
 _symmetry_equiv_pos_as_xyz
  1  'x, y, z'
loop_
 _atom_site_type_symbol
 _atom_site_label
 _atom_site_symmetry_multiplicity
 _atom_site_fract_x
 _atom_site_fract_y
 _atom_site_fract_z
 _atom_site_occupancy
  Tm  Tm0  1  0.00000000  0.32393155  0.41384747  1
  Tm  Tm1  1  -0.00000000  0.67606845  0.58615253  1
  Tm  Tm2  1  0.00000000  0.82393155  0.08615253  1
  Tm  Tm3  1  0.00000000  0.17606845  0.91384747  1
  Tm  Tm4  1  -0.00000000  0.94383717  0.37025283  1
  Tm  Tm5  1  -0.00000000  0.05616283  0.62974717  1
  Tm  Tm6  1  0.00000000  0.44383717  0.12974717  1
  Tm  Tm7  1  -0.00000000  0.55616283  0.87025283  1
  Re  Re8  1  0.00000000  0.63894335  0.32087319  1
  Re  Re9  1  0.00000000  0.36105665  0.67912681  1
  Re  Re10  1  -0.00000000  0.13894335  0.17912681  1
  Re  Re11  1  -0.00000000  0.86105665  0.82087319  1
  B  B12  1  0.50000000  0.55337670  0.43332910  1
  B  B13  1  0.50000000  0.44662330  0.56667090  1
  B  B14  1  0.50000000  0.05337670  0.06667090  1
  B  B15  1  0.50000000  0.94662330  0.93332910  1
  B  B16  1  0.50000000  0.75065666  0.41986137  1
  B  B17  1  0.50000000  0.24934334  0.58013863  1
  B  B18  1  0.50000000  0.25065666  0.08013863  1
  B  B19  1  0.50000000  0.74934334  0.91986137  1
  B  B20  1  0.50000000  0.79348215  0.26558267  1
  B  B21  1  0.50000000  0.20651785  0.73441733  1
  B  B22  1  0.50000000  0.29348215  0.23441733  1
  B  B23  1  0.50000000  0.70651785  0.76558267  1
  B  B24  1  0.50000000  0.63156730  0.18515389  1
  B  B25  1  0.50000000  0.36843270  0.81484611  1
  B  B26  1  0.50000000  0.13156730  0.31484611  1
  B  B27  1  0.50000000  0.86843270  0.68515389  1
  B  B28  1  0.50000000  0.98220820  0.21228937  1
  B  B29  1  0.50000000  0.01779180  0.78771063  1
  B  B30  1  0.50000000  0.48220820  0.28771063  1
  B  B31  1  0.50000000  0.51779180  0.71228937  1
  B  B32  1  0.50000000  0.59984203  0.02789410  1
  B  B33  1  0.50000000  0.40015797  0.97210590  1
  B  B34  1  0.50000000  0.09984203  0.47210590  1
  B  B35  1  0.50000000  0.90015797  0.52789410  1
