# generated using pymatgen
data_Zn(H15N8)2
_symmetry_space_group_name_H-M   'P 1'
_cell_length_a   9.30568721
_cell_length_b   9.69468426
_cell_length_c   10.50525456
_cell_angle_alpha   90.00000000
_cell_angle_beta   90.00000000
_cell_angle_gamma   101.59996609
_symmetry_Int_Tables_number   1
_chemical_formula_structural   Zn(H15N8)2
_chemical_formula_sum   'Zn2 H60 N32'
_cell_volume   928.38166976
_cell_formula_units_Z   2
loop_
 _symmetry_equiv_pos_site_id
 _symmetry_equiv_pos_as_xyz
  1  'x, y, z'
loop_
 _atom_site_type_symbol
 _atom_site_label
 _atom_site_symmetry_multiplicity
 _atom_site_fract_x
 _atom_site_fract_y
 _atom_site_fract_z
 _atom_site_occupancy
  Zn  Zn0  1  0.50000000  0.50000000  0.00000000  1
  Zn  Zn1  1  0.00000000  0.00000000  0.50000000  1
  H  H2  1  0.26811088  0.59246253  0.11600038  1
  H  H3  1  0.76811088  0.09246253  0.38399962  1
  H  H4  1  0.73188912  0.40753747  0.88399962  1
  H  H5  1  0.23188912  0.90753747  0.61600038  1
  H  H6  1  0.27296081  0.63397018  0.96426980  1
  H  H7  1  0.77296081  0.13397018  0.53573020  1
  H  H8  1  0.72703919  0.36602982  0.03573020  1
  H  H9  1  0.22703919  0.86602982  0.46426980  1
  H  H10  1  0.19969965  0.47004636  0.00935273  1
  H  H11  1  0.69969965  0.97004636  0.49064727  1
  H  H12  1  0.80030035  0.52995364  0.99064727  1
  H  H13  1  0.30030035  0.02995364  0.50935273  1
  H  H14  1  0.50761722  0.44369490  0.74231048  1
  H  H15  1  0.00761722  0.94369490  0.75768952  1
  H  H16  1  0.49238278  0.55630510  0.25768952  1
  H  H17  1  0.99238278  0.05630510  0.24231048  1
  H  H18  1  0.33832271  0.46082202  0.77272734  1
  H  H19  1  0.83832271  0.96082202  0.72727266  1
  H  H20  1  0.66167729  0.53917798  0.22727266  1
  H  H21  1  0.16167729  0.03917798  0.27272734  1
  H  H22  1  0.39021659  0.31087107  0.80651869  1
  H  H23  1  0.89021659  0.81087107  0.69348131  1
  H  H24  1  0.60978341  0.68912893  0.19348131  1
  H  H25  1  0.10978341  0.18912893  0.30651869  1
  H  H26  1  0.35277955  0.31238638  0.16825690  1
  H  H27  1  0.85277955  0.81238638  0.33174310  1
  H  H28  1  0.64722045  0.68761362  0.83174310  1
  H  H29  1  0.14722045  0.18761362  0.66825690  1
  H  H30  1  0.34667156  0.22873997  0.03008545  1
  H  H31  1  0.84667156  0.72873997  0.46991455  1
  H  H32  1  0.65332844  0.77126003  0.96991455  1
  H  H33  1  0.15332844  0.27126003  0.53008545  1
  H  H34  1  0.49363264  0.24471162  0.12076362  1
  H  H35  1  0.99363264  0.74471162  0.37923638  1
  H  H36  1  0.50636736  0.75528838  0.87923638  1
  H  H37  1  0.00636736  0.25528838  0.62076362  1
  H  H38  1  0.95780297  0.25345739  0.03185222  1
  H  H39  1  0.45780297  0.75345739  0.46814778  1
  H  H40  1  0.04219703  0.74654261  0.96814778  1
  H  H41  1  0.54219703  0.24654261  0.53185222  1
  H  H42  1  0.98640692  0.31482132  0.88760421  1
  H  H43  1  0.48640692  0.81482132  0.61239579  1
  H  H44  1  0.01359308  0.68517868  0.11239579  1
  H  H45  1  0.51359308  0.18517868  0.38760421  1
  H  H46  1  0.08605015  0.20734219  0.94285380  1
  H  H47  1  0.58605015  0.70734219  0.55714620  1
  H  H48  1  0.91394985  0.79265781  0.05714620  1
  H  H49  1  0.41394985  0.29265781  0.44285380  1
  H  H50  1  0.06815190  0.52366538  0.71608676  1
  H  H51  1  0.56815190  0.02366538  0.78391324  1
  H  H52  1  0.93184810  0.47633462  0.28391324  1
  H  H53  1  0.43184810  0.97633462  0.21608676  1
  H  H54  1  0.19664025  0.66581765  0.73745783  1
  H  H55  1  0.69664025  0.16581765  0.76254217  1
  H  H56  1  0.80335975  0.33418235  0.26254217  1
  H  H57  1  0.30335975  0.83418235  0.23745783  1
  H  H58  1  0.18515217  0.57851241  0.60267073  1
  H  H59  1  0.68515217  0.07851241  0.89732927  1
  H  H60  1  0.81484783  0.42148759  0.39732927  1
  H  H61  1  0.31484783  0.92148759  0.10267073  1
  N  N62  1  0.25158603  0.40902435  0.35516358  1
  N  N63  1  0.75158603  0.90902435  0.14483642  1
  N  N64  1  0.74841397  0.59097565  0.64483642  1
  N  N65  1  0.24841397  0.09097565  0.85516358  1
  N  N66  1  0.22523408  0.52367733  0.34897857  1
  N  N67  1  0.72523408  0.02367733  0.15102143  1
  N  N68  1  0.77476592  0.47632267  0.65102143  1
  N  N69  1  0.27476592  0.97632267  0.84897857  1
  N  N70  1  0.19940194  0.63895749  0.34138648  1
  N  N71  1  0.69940194  0.13895749  0.15861352  1
  N  N72  1  0.80059806  0.36104251  0.65861352  1
  N  N73  1  0.30059806  0.86104251  0.84138648  1
  N  N74  1  0.28415123  0.55574596  0.02677667  1
  N  N75  1  0.78415123  0.05574596  0.47322333  1
  N  N76  1  0.71584877  0.44425404  0.97322333  1
  N  N77  1  0.21584877  0.94425404  0.52677667  1
  N  N78  1  0.42433978  0.41819043  0.80684894  1
  N  N79  1  0.92433978  0.91819043  0.69315106  1
  N  N80  1  0.57566022  0.58180957  0.19315106  1
  N  N81  1  0.07566022  0.08180957  0.30684894  1
  N  N82  1  0.41360885  0.29583756  0.09052428  1
  N  N83  1  0.91360885  0.79583756  0.40947572  1
  N  N84  1  0.58639115  0.70416244  0.90947572  1
  N  N85  1  0.08639115  0.20416244  0.59052428  1
  N  N86  1  0.03885727  0.29047011  0.96748559  1
  N  N87  1  0.53885727  0.79047011  0.53251441  1
  N  N88  1  0.96114273  0.70952989  0.03251441  1
  N  N89  1  0.46114273  0.20952989  0.46748559  1
  N  N90  1  0.17626131  0.56628706  0.69926116  1
  N  N91  1  0.67626131  0.06628706  0.80073884  1
  N  N92  1  0.82373869  0.43371294  0.30073884  1
  N  N93  1  0.32373869  0.93371294  0.19926116  1
