# generated using pymatgen
data_Na3MnS2(O4F)2
_symmetry_space_group_name_H-M   'P 1'
_cell_length_a   6.78824596
_cell_length_b   9.19340434
_cell_length_c   13.91790075
_cell_angle_alpha   90.00000000
_cell_angle_beta   90.00000000
_cell_angle_gamma   90.00000000
_symmetry_Int_Tables_number   1
_chemical_formula_structural   Na3MnS2(O4F)2
_chemical_formula_sum   'Na12 Mn4 S8 O32 F8'
_cell_volume   868.57568290
_cell_formula_units_Z   4
loop_
 _symmetry_equiv_pos_site_id
 _symmetry_equiv_pos_as_xyz
  1  'x, y, z'
loop_
 _atom_site_type_symbol
 _atom_site_label
 _atom_site_symmetry_multiplicity
 _atom_site_fract_x
 _atom_site_fract_y
 _atom_site_fract_z
 _atom_site_occupancy
  Na  Na0  1  0.53120505  0.66369578  0.90603268  1
  Na  Na1  1  0.03120505  0.83630422  0.59396732  1
  Na  Na2  1  0.46879495  0.16369578  0.59396732  1
  Na  Na3  1  0.96879495  0.33630422  0.90603268  1
  Na  Na4  1  0.46879495  0.33630422  0.09396732  1
  Na  Na5  1  0.96879495  0.16369578  0.40603268  1
  Na  Na6  1  0.53120505  0.83630422  0.40603268  1
  Na  Na7  1  0.03120505  0.66369578  0.09396732  1
  Na  Na8  1  0.75000000  -0.00000000  0.06109456  1
  Na  Na9  1  0.25000000  0.50000000  0.43890544  1
  Na  Na10  1  0.25000000  -0.00000000  0.93890544  1
  Na  Na11  1  0.75000000  0.50000000  0.56109456  1
  Mn  Mn12  1  0.75000000  -0.00000000  0.80691775  1
  Mn  Mn13  1  0.25000000  0.50000000  0.69308225  1
  Mn  Mn14  1  0.25000000  -0.00000000  0.19308225  1
  Mn  Mn15  1  0.75000000  0.50000000  0.30691775  1
  S  S16  1  0.01867715  0.69099888  0.85427387  1
  S  S17  1  0.51867715  0.80900112  0.64572613  1
  S  S18  1  0.98132285  0.19099888  0.64572613  1
  S  S19  1  0.48132285  0.30900112  0.85427387  1
  S  S20  1  0.98132285  0.30900112  0.14572613  1
  S  S21  1  0.48132285  0.19099888  0.35427387  1
  S  S22  1  0.01867715  0.80900112  0.35427387  1
  S  S23  1  0.51867715  0.69099888  0.14572613  1
  O  O24  1  0.43710500  0.44570737  0.79499818  1
  O  O25  1  0.93710500  0.05429263  0.70500182  1
  O  O26  1  0.56289500  0.94570737  0.70500182  1
  O  O27  1  0.06289500  0.55429263  0.79499818  1
  O  O28  1  0.56289500  0.55429263  0.20500182  1
  O  O29  1  0.06289500  0.94570737  0.29499818  1
  O  O30  1  0.43710500  0.05429263  0.29499818  1
  O  O31  1  0.93710500  0.44570737  0.20500182  1
  O  O32  1  0.20016481  0.75308451  0.89435128  1
  O  O33  1  0.70016481  0.74691549  0.60564872  1
  O  O34  1  0.79983519  0.25308451  0.60564872  1
  O  O35  1  0.29983519  0.24691549  0.89435128  1
  O  O36  1  0.79983519  0.24691549  0.10564872  1
  O  O37  1  0.29983519  0.25308451  0.39435128  1
  O  O38  1  0.20016481  0.74691549  0.39435128  1
  O  O39  1  0.70016481  0.75308451  0.10564872  1
  O  O40  1  0.88480206  0.63812643  0.93060023  1
  O  O41  1  0.38480206  0.86187357  0.56939977  1
  O  O42  1  0.11519794  0.13812643  0.56939977  1
  O  O43  1  0.61519794  0.36187357  0.93060023  1
  O  O44  1  0.11519794  0.36187357  0.06939977  1
  O  O45  1  0.61519794  0.13812643  0.43060023  1
  O  O46  1  0.88480206  0.86187357  0.43060023  1
  O  O47  1  0.38480206  0.63812643  0.06939977  1
  O  O48  1  0.41923351  0.70384489  0.71042077  1
  O  O49  1  0.91923351  0.79615511  0.78957923  1
  O  O50  1  0.58076649  0.20384489  0.78957923  1
  O  O51  1  0.08076649  0.29615511  0.71042077  1
  O  O52  1  0.58076649  0.29615511  0.28957923  1
  O  O53  1  0.08076649  0.20384489  0.21042077  1
  O  O54  1  0.41923351  0.79615511  0.21042077  1
  O  O55  1  0.91923351  0.70384489  0.28957923  1
  F  F56  1  0.58372575  0.92447286  0.90638367  1
  F  F57  1  0.08372575  0.57552714  0.59361633  1
  F  F58  1  0.41627425  0.42447286  0.59361633  1
  F  F59  1  0.91627425  0.07552714  0.90638367  1
  F  F60  1  0.41627425  0.07552714  0.09361633  1
  F  F61  1  0.91627425  0.42447286  0.40638367  1
  F  F62  1  0.58372575  0.57552714  0.40638367  1
  F  F63  1  0.08372575  0.92447286  0.09361633  1
