# generated using pymatgen
data_InAs(H2O3)2
_symmetry_space_group_name_H-M   'P 1'
_cell_length_a   9.19807881
_cell_length_b   10.49429155
_cell_length_c   10.79799473
_cell_angle_alpha   90.00000000
_cell_angle_beta   90.00000000
_cell_angle_gamma   90.00000000
_symmetry_Int_Tables_number   1
_chemical_formula_structural   InAs(H2O3)2
_chemical_formula_sum   'In8 As8 H32 O48'
_cell_volume   1042.30150057
_cell_formula_units_Z   8
loop_
 _symmetry_equiv_pos_site_id
 _symmetry_equiv_pos_as_xyz
  1  'x, y, z'
loop_
 _atom_site_type_symbol
 _atom_site_label
 _atom_site_symmetry_multiplicity
 _atom_site_fract_x
 _atom_site_fract_y
 _atom_site_fract_z
 _atom_site_occupancy
  In  In0  1  0.35263357  0.81491372  0.62569452  1
  In  In1  1  0.85263357  0.68508628  0.37430548  1
  In  In2  1  0.64736643  0.31491372  0.87430548  1
  In  In3  1  0.14736643  0.18508628  0.12569452  1
  In  In4  1  0.64736643  0.18508628  0.37430548  1
  In  In5  1  0.14736643  0.31491372  0.62569452  1
  In  In6  1  0.35263357  0.68508628  0.12569452  1
  In  In7  1  0.85263357  0.81491372  0.87430548  1
  As  As8  1  0.03492527  0.63089323  0.65451645  1
  As  As9  1  0.53492527  0.86910677  0.34548355  1
  As  As10  1  0.96507473  0.13089323  0.84548355  1
  As  As11  1  0.46507473  0.36910677  0.15451645  1
  As  As12  1  0.96507473  0.36910677  0.34548355  1
  As  As13  1  0.46507473  0.13089323  0.65451645  1
  As  As14  1  0.03492527  0.86910677  0.15451645  1
  As  As15  1  0.53492527  0.63089323  0.84548355  1
  H  H16  1  0.13273223  0.59157432  0.96461162  1
  H  H17  1  0.63273223  0.90842568  0.03538838  1
  H  H18  1  0.86726777  0.09157432  0.53538838  1
  H  H19  1  0.36726777  0.40842568  0.46461162  1
  H  H20  1  0.86726777  0.40842568  0.03538838  1
  H  H21  1  0.36726777  0.09157432  0.96461162  1
  H  H22  1  0.13273223  0.90842568  0.46461162  1
  H  H23  1  0.63273223  0.59157432  0.53538838  1
  H  H24  1  0.19961560  0.47979902  0.05301492  1
  H  H25  1  0.69961560  0.02020098  0.94698508  1
  H  H26  1  0.80038440  0.97979902  0.44698508  1
  H  H27  1  0.30038440  0.52020098  0.55301492  1
  H  H28  1  0.80038440  0.52020098  0.94698508  1
  H  H29  1  0.30038440  0.97979902  0.05301492  1
  H  H30  1  0.19961560  0.02020098  0.55301492  1
  H  H31  1  0.69961560  0.47979902  0.44698508  1
  H  H32  1  0.31798223  0.67558886  0.36837524  1
  H  H33  1  0.81798223  0.82441114  0.63162476  1
  H  H34  1  0.68201777  0.17558886  0.13162476  1
  H  H35  1  0.18201777  0.32441114  0.86837524  1
  H  H36  1  0.68201777  0.32441114  0.63162476  1
  H  H37  1  0.18201777  0.17558886  0.36837524  1
  H  H38  1  0.31798223  0.82441114  0.86837524  1
  H  H39  1  0.81798223  0.67558886  0.13162476  1
  H  H40  1  0.17361969  0.59172570  0.32281347  1
  H  H41  1  0.67361969  0.90827430  0.67718653  1
  H  H42  1  0.82638031  0.09172570  0.17718653  1
  H  H43  1  0.32638031  0.40827430  0.82281347  1
  H  H44  1  0.82638031  0.40827430  0.67718653  1
  H  H45  1  0.32638031  0.09172570  0.32281347  1
  H  H46  1  0.17361969  0.90827430  0.82281347  1
  H  H47  1  0.67361969  0.59172570  0.17718653  1
  O  O48  1  0.01864395  0.68629983  0.80360505  1
  O  O49  1  0.51864395  0.81370017  0.19639495  1
  O  O50  1  0.98135605  0.18629983  0.69639495  1
  O  O51  1  0.48135605  0.31370017  0.30360505  1
  O  O52  1  0.98135605  0.31370017  0.19639495  1
  O  O53  1  0.48135605  0.18629983  0.80360505  1
  O  O54  1  0.01864395  0.81370017  0.30360505  1
  O  O55  1  0.51864395  0.68629983  0.69639495  1
  O  O56  1  0.91709194  0.71882369  0.56304415  1
  O  O57  1  0.41709194  0.78117631  0.43695585  1
  O  O58  1  0.08290806  0.21882369  0.93695585  1
  O  O59  1  0.58290806  0.28117631  0.06304415  1
  O  O60  1  0.08290806  0.28117631  0.43695585  1
  O  O61  1  0.58290806  0.21882369  0.56304415  1
  O  O62  1  0.91709194  0.78117631  0.06304415  1
  O  O63  1  0.41709194  0.71882369  0.93695585  1
  O  O64  1  0.21219208  0.64946210  0.60414917  1
  O  O65  1  0.71219208  0.85053790  0.39585083  1
  O  O66  1  0.78780792  0.14946210  0.89585083  1
  O  O67  1  0.28780792  0.35053790  0.10414917  1
  O  O68  1  0.78780792  0.35053790  0.39585083  1
  O  O69  1  0.28780792  0.14946210  0.60414917  1
  O  O70  1  0.21219208  0.85053790  0.10414917  1
  O  O71  1  0.71219208  0.64946210  0.89585083  1
  O  O72  1  0.99150943  0.47135111  0.64113673  1
  O  O73  1  0.49150943  0.02864889  0.35886327  1
  O  O74  1  0.00849057  0.97135111  0.85886327  1
  O  O75  1  0.50849057  0.52864889  0.14113673  1
  O  O76  1  0.00849057  0.52864889  0.35886327  1
  O  O77  1  0.50849057  0.97135111  0.64113673  1
  O  O78  1  0.99150943  0.02864889  0.14113673  1
  O  O79  1  0.49150943  0.47135111  0.85886327  1
  O  O80  1  0.16588173  0.57079923  0.04875176  1
  O  O81  1  0.66588173  0.92920077  0.95124824  1
  O  O82  1  0.83411827  0.07079923  0.45124824  1
  O  O83  1  0.33411827  0.42920077  0.54875176  1
  O  O84  1  0.83411827  0.42920077  0.95124824  1
  O  O85  1  0.33411827  0.07079923  0.04875176  1
  O  O86  1  0.16588173  0.92920077  0.54875176  1
  O  O87  1  0.66588173  0.57079923  0.45124824  1
  O  O88  1  0.27778560  0.61307829  0.30574411  1
  O  O89  1  0.77778560  0.88692171  0.69425589  1
  O  O90  1  0.72221440  0.11307829  0.19425589  1
  O  O91  1  0.22221440  0.38692171  0.80574411  1
  O  O92  1  0.72221440  0.38692171  0.69425589  1
  O  O93  1  0.22221440  0.11307829  0.30574411  1
  O  O94  1  0.27778560  0.88692171  0.80574411  1
  O  O95  1  0.77778560  0.61307829  0.19425589  1
