# generated using pymatgen
data_GdPS4
_symmetry_space_group_name_H-M   'P 1'
_cell_length_a   10.80715360
_cell_length_b   10.80715360
_cell_length_c   12.27734316
_cell_angle_alpha   116.11191220
_cell_angle_beta   116.11191220
_cell_angle_gamma   90.00000000
_symmetry_Int_Tables_number   1
_chemical_formula_structural   GdPS4
_chemical_formula_sum   'Gd8 P8 S32'
_cell_volume   1122.29724802
_cell_formula_units_Z   8
loop_
 _symmetry_equiv_pos_site_id
 _symmetry_equiv_pos_as_xyz
  1  'x, y, z'
loop_
 _atom_site_type_symbol
 _atom_site_label
 _atom_site_symmetry_multiplicity
 _atom_site_fract_x
 _atom_site_fract_y
 _atom_site_fract_z
 _atom_site_occupancy
  Gd  Gd0  1  0.87500000  0.12500000  0.75000000  1
  Gd  Gd1  1  0.37500000  0.62500000  0.75000000  1
  Gd  Gd2  1  0.12500000  0.87500000  0.25000000  1
  Gd  Gd3  1  0.62500000  0.37500000  0.25000000  1
  Gd  Gd4  1  0.12500000  0.37500000  0.25000000  1
  Gd  Gd5  1  0.62500000  0.87500000  0.25000000  1
  Gd  Gd6  1  0.37500000  0.12500000  0.75000000  1
  Gd  Gd7  1  0.87500000  0.62500000  0.75000000  1
  P  P8  1  0.25000000  0.28755185  0.00000000  1
  P  P9  1  0.25000000  0.78755185  0.00000000  1
  P  P10  1  0.21244815  0.75000000  0.50000000  1
  P  P11  1  0.78755185  0.25000000  0.50000000  1
  P  P12  1  0.75000000  0.71244815  -0.00000000  1
  P  P13  1  0.75000000  0.21244815  -0.00000000  1
  P  P14  1  0.71244815  0.75000000  0.50000000  1
  P  P15  1  0.28755185  0.25000000  0.50000000  1
  S  S16  1  0.77024998  0.34174082  0.67646544  1
  S  S17  1  0.40621546  0.84174082  0.67646544  1
  S  S18  1  0.83472463  0.90621546  0.17646544  1
  S  S19  1  0.84174082  0.40621546  0.17646544  1
  S  S20  1  0.22975002  0.65825918  0.32353456  1
  S  S21  1  0.59378454  0.15825918  0.32353456  1
  S  S22  1  0.16527537  0.09378454  0.82353456  1
  S  S23  1  0.15825918  0.59378454  0.82353456  1
  S  S24  1  0.27024998  0.33472463  0.67646544  1
  S  S25  1  0.90621546  0.83472463  0.67646544  1
  S  S26  1  0.33472463  0.27024998  0.17646544  1
  S  S27  1  0.34174082  0.77024998  0.17646544  1
  S  S28  1  0.72975002  0.66527537  0.32353456  1
  S  S29  1  0.09378454  0.16527537  0.32353456  1
  S  S30  1  0.66527537  0.72975002  0.82353456  1
  S  S31  1  0.65825918  0.22975002  0.82353456  1
  S  S32  1  0.89072693  0.09225736  0.50595781  1
  S  S33  1  0.11523088  0.59225736  0.50595781  1
  S  S34  1  0.91370045  0.61523088  0.00595781  1
  S  S35  1  0.59225736  0.11523088  0.00595781  1
  S  S36  1  0.10927307  0.90774264  0.49404219  1
  S  S37  1  0.88476912  0.40774264  0.49404219  1
  S  S38  1  0.08629955  0.38476912  0.99404219  1
  S  S39  1  0.40774264  0.88476912  0.99404219  1
  S  S40  1  0.39072693  0.41370045  0.50595781  1
  S  S41  1  0.61523088  0.91370045  0.50595781  1
  S  S42  1  0.41370045  0.39072693  0.00595781  1
  S  S43  1  0.09225736  0.89072693  0.00595781  1
  S  S44  1  0.60927307  0.58629955  0.49404219  1
  S  S45  1  0.38476912  0.08629955  0.49404219  1
  S  S46  1  0.58629955  0.60927307  0.99404219  1
  S  S47  1  0.90774264  0.10927307  0.99404219  1
