# generated using pymatgen
data_LuGe2Ru
_symmetry_space_group_name_H-M   'P 1'
_cell_length_a   8.30848134
_cell_length_b   9.59377108
_cell_length_c   10.54818611
_cell_angle_alpha   90.00000000
_cell_angle_beta   90.00000000
_cell_angle_gamma   90.00000000
_symmetry_Int_Tables_number   1
_chemical_formula_structural   LuGe2Ru
_chemical_formula_sum   'Lu12 Ge24 Ru12'
_cell_volume   840.79241281
_cell_formula_units_Z   12
loop_
 _symmetry_equiv_pos_site_id
 _symmetry_equiv_pos_as_xyz
  1  'x, y, z'
loop_
 _atom_site_type_symbol
 _atom_site_label
 _atom_site_symmetry_multiplicity
 _atom_site_fract_x
 _atom_site_fract_y
 _atom_site_fract_z
 _atom_site_occupancy
  Lu  Lu0  1  0.24417391  0.82338626  0.44992976  1
  Lu  Lu1  1  0.24417391  0.17661374  0.55007024  1
  Lu  Lu2  1  0.75582609  0.32338626  0.05007024  1
  Lu  Lu3  1  0.75582609  0.67661374  0.94992976  1
  Lu  Lu4  1  0.75582609  0.17661374  0.55007024  1
  Lu  Lu5  1  0.75582609  0.82338626  0.44992976  1
  Lu  Lu6  1  0.24417391  0.67661374  0.94992976  1
  Lu  Lu7  1  0.24417391  0.32338626  0.05007024  1
  Lu  Lu8  1  0.00000000  0.83553980  0.17682897  1
  Lu  Lu9  1  0.00000000  0.16446020  0.82317103  1
  Lu  Lu10  1  -0.00000000  0.33553980  0.32317103  1
  Lu  Lu11  1  -0.00000000  0.66446020  0.67682897  1
  Ge  Ge12  1  0.34714188  0.84209390  0.17948471  1
  Ge  Ge13  1  0.34714188  0.15790610  0.82051529  1
  Ge  Ge14  1  0.65285812  0.34209390  0.32051529  1
  Ge  Ge15  1  0.65285812  0.65790610  0.67948471  1
  Ge  Ge16  1  0.65285812  0.15790610  0.82051529  1
  Ge  Ge17  1  0.65285812  0.84209390  0.17948471  1
  Ge  Ge18  1  0.34714188  0.65790610  0.67948471  1
  Ge  Ge19  1  0.34714188  0.34209390  0.32051529  1
  Ge  Ge20  1  0.50000000  0.54305325  0.11824329  1
  Ge  Ge21  1  0.50000000  0.45694675  0.88175671  1
  Ge  Ge22  1  0.50000000  0.04305325  0.38175671  1
  Ge  Ge23  1  0.50000000  0.95694675  0.61824329  1
  Ge  Ge24  1  0.00000000  0.53565502  0.11880671  1
  Ge  Ge25  1  -0.00000000  0.46434498  0.88119329  1
  Ge  Ge26  1  0.00000000  0.03565502  0.38119329  1
  Ge  Ge27  1  0.00000000  0.96434498  0.61880671  1
  Ge  Ge28  1  0.50000000  0.62390195  0.40388982  1
  Ge  Ge29  1  0.50000000  0.37609805  0.59611018  1
  Ge  Ge30  1  0.50000000  0.12390195  0.09611018  1
  Ge  Ge31  1  0.50000000  0.87609805  0.90388982  1
  Ge  Ge32  1  -0.00000000  0.62892144  0.39881755  1
  Ge  Ge33  1  0.00000000  0.37107856  0.60118245  1
  Ge  Ge34  1  0.00000000  0.12892144  0.10118245  1
  Ge  Ge35  1  -0.00000000  0.87107856  0.89881755  1
  Ru  Ru36  1  0.25092320  0.58861240  0.23700730  1
  Ru  Ru37  1  0.25092320  0.41138760  0.76299270  1
  Ru  Ru38  1  0.74907680  0.08861240  0.26299270  1
  Ru  Ru39  1  0.74907680  0.91138760  0.73700730  1
  Ru  Ru40  1  0.74907680  0.41138760  0.76299270  1
  Ru  Ru41  1  0.74907680  0.58861240  0.23700730  1
  Ru  Ru42  1  0.25092320  0.91138760  0.73700730  1
  Ru  Ru43  1  0.25092320  0.08861240  0.26299270  1
  Ru  Ru44  1  0.24840582  0.50000000  0.50000000  1
  Ru  Ru45  1  0.75159418  0.00000000  -0.00000000  1
  Ru  Ru46  1  0.75159418  0.50000000  0.50000000  1
  Ru  Ru47  1  0.24840582  0.00000000  -0.00000000  1
