# generated using pymatgen
data_Sc2ReB6
_symmetry_space_group_name_H-M   'P 1'
_cell_length_a   3.51757421
_cell_length_b   8.93209773
_cell_length_c   11.22111745
_cell_angle_alpha   90.00000000
_cell_angle_beta   90.00000000
_cell_angle_gamma   90.00000000
_symmetry_Int_Tables_number   1
_chemical_formula_structural   Sc2ReB6
_chemical_formula_sum   'Sc8 Re4 B24'
_cell_volume   352.55984195
_cell_formula_units_Z   4
loop_
 _symmetry_equiv_pos_site_id
 _symmetry_equiv_pos_as_xyz
  1  'x, y, z'
loop_
 _atom_site_type_symbol
 _atom_site_label
 _atom_site_symmetry_multiplicity
 _atom_site_fract_x
 _atom_site_fract_y
 _atom_site_fract_z
 _atom_site_occupancy
  Sc  Sc0  1  0.00000000  0.32234046  0.41313764  1
  Sc  Sc1  1  -0.00000000  0.67765954  0.58686236  1
  Sc  Sc2  1  -0.00000000  0.82234046  0.08686236  1
  Sc  Sc3  1  0.00000000  0.17765954  0.91313764  1
  Sc  Sc4  1  0.00000000  0.94475384  0.37125772  1
  Sc  Sc5  1  -0.00000000  0.05524616  0.62874228  1
  Sc  Sc6  1  -0.00000000  0.44475384  0.12874228  1
  Sc  Sc7  1  0.00000000  0.55524616  0.87125772  1
  Re  Re8  1  -0.00000000  0.64029003  0.32034754  1
  Re  Re9  1  -0.00000000  0.35970997  0.67965246  1
  Re  Re10  1  -0.00000000  0.14029003  0.17965246  1
  Re  Re11  1  -0.00000000  0.85970997  0.82034754  1
  B  B12  1  0.50000000  0.55337472  0.43493126  1
  B  B13  1  0.50000000  0.44662528  0.56506874  1
  B  B14  1  0.50000000  0.05337472  0.06506874  1
  B  B15  1  0.50000000  0.94662528  0.93493126  1
  B  B16  1  0.50000000  0.75409166  0.42224943  1
  B  B17  1  0.50000000  0.24590834  0.57775057  1
  B  B18  1  0.50000000  0.25409166  0.07775057  1
  B  B19  1  0.50000000  0.74590834  0.92224943  1
  B  B20  1  0.50000000  0.79625357  0.26452300  1
  B  B21  1  0.50000000  0.20374643  0.73547700  1
  B  B22  1  0.50000000  0.29625357  0.23547700  1
  B  B23  1  0.50000000  0.70374643  0.76452300  1
  B  B24  1  0.50000000  0.63091364  0.18243134  1
  B  B25  1  0.50000000  0.36908636  0.81756866  1
  B  B26  1  0.50000000  0.13091364  0.31756866  1
  B  B27  1  0.50000000  0.86908636  0.68243134  1
  B  B28  1  0.50000000  0.97995821  0.21252521  1
  B  B29  1  0.50000000  0.02004179  0.78747479  1
  B  B30  1  0.50000000  0.47995821  0.28747479  1
  B  B31  1  0.50000000  0.52004179  0.71252521  1
  B  B32  1  0.50000000  0.59740828  0.02725185  1
  B  B33  1  0.50000000  0.40259172  0.97274815  1
  B  B34  1  0.50000000  0.09740828  0.47274815  1
  B  B35  1  0.50000000  0.90259172  0.52725185  1
