# generated using pymatgen
data_Mg5Bi
_symmetry_space_group_name_H-M   'P 1'
_cell_length_a   5.62263302
_cell_length_b   5.62263324
_cell_length_c   16.06068269
_cell_angle_alpha   90.00000000
_cell_angle_beta   90.00000000
_cell_angle_gamma   119.99999873
_symmetry_Int_Tables_number   1
_chemical_formula_structural   Mg5Bi
_chemical_formula_sum   'Mg15 Bi3'
_cell_volume   439.71788786
_cell_formula_units_Z   3
loop_
 _symmetry_equiv_pos_site_id
 _symmetry_equiv_pos_as_xyz
  1  'x, y, z'
loop_
 _atom_site_type_symbol
 _atom_site_label
 _atom_site_symmetry_multiplicity
 _atom_site_fract_x
 _atom_site_fract_y
 _atom_site_fract_z
 _atom_site_occupancy
  Mg  Mg0  1  0.66821346  0.66821346  -0.00000000  1
  Mg  Mg1  1  0.00000000  -0.00000000  0.16702561  1
  Mg  Mg2  1  0.00000000  0.33178654  -0.00000000  1
  Mg  Mg3  1  0.33178654  -0.00000000  -0.00000000  1
  Mg  Mg4  1  0.66666700  0.33333300  0.16630839  1
  Mg  Mg5  1  0.33487946  0.00154646  0.33333300  1
  Mg  Mg6  1  0.66666700  0.33333300  0.50035861  1
  Mg  Mg7  1  0.66666700  0.66512054  0.33333300  1
  Mg  Mg8  1  0.99845354  0.33333300  0.33333300  1
  Mg  Mg9  1  0.33333300  0.66666700  0.49964139  1
  Mg  Mg10  1  0.00154646  0.33487946  0.66666700  1
  Mg  Mg11  1  0.33333300  0.66666700  0.83369161  1
  Mg  Mg12  1  0.33333300  0.99845354  0.66666700  1
  Mg  Mg13  1  0.66512054  0.66666700  0.66666700  1
  Mg  Mg14  1  0.00000000  -0.00000000  0.83297439  1
  Bi  Bi15  1  0.33333300  0.66666700  0.16666700  1
  Bi  Bi16  1  0.00000000  -0.00000000  0.50000000  1
  Bi  Bi17  1  0.66666700  0.33333300  0.83333300  1
