# generated using pymatgen
data_BaMn2Si2O7
_symmetry_space_group_name_H-M   'P 1'
_cell_length_a   7.43933037
_cell_length_b   7.53719278
_cell_length_c   14.22875723
_cell_angle_alpha   90.28889817
_cell_angle_beta   90.58541167
_cell_angle_gamma   60.42858371
_symmetry_Int_Tables_number   1
_chemical_formula_structural   BaMn2Si2O7
_chemical_formula_sum   'Ba4 Mn8 Si8 O28'
_cell_volume   693.86955418
_cell_formula_units_Z   4
loop_
 _symmetry_equiv_pos_site_id
 _symmetry_equiv_pos_as_xyz
  1  'x, y, z'
loop_
 _atom_site_type_symbol
 _atom_site_label
 _atom_site_symmetry_multiplicity
 _atom_site_fract_x
 _atom_site_fract_y
 _atom_site_fract_z
 _atom_site_occupancy
  Ba  Ba0  1  0.28113918  0.02988844  0.37782134  1
  Ba  Ba1  1  0.68897237  0.02988844  0.12217866  1
  Ba  Ba2  1  0.71886082  0.97011156  0.62217866  1
  Ba  Ba3  1  0.31102763  0.97011156  0.87782134  1
  Mn  Mn4  1  0.73294842  0.53410316  0.25000000  1
  Mn  Mn5  1  0.26705158  0.46589684  0.75000000  1
  Mn  Mn6  1  0.26979946  0.46040108  0.25000000  1
  Mn  Mn7  1  0.73020054  0.53959892  0.75000000  1
  Mn  Mn8  1  0.23277615  0.46690114  0.99116525  1
  Mn  Mn9  1  0.30032271  0.46690114  0.50883475  1
  Mn  Mn10  1  0.76722385  0.53309886  0.00883475  1
  Mn  Mn11  1  0.69967729  0.53309886  0.49116525  1
  Si  Si12  1  0.90669489  0.75347728  0.36525444  1
  Si  Si13  1  0.33982783  0.75347728  0.13474556  1
  Si  Si14  1  0.09330511  0.24652272  0.63474556  1
  Si  Si15  1  0.66017217  0.24652272  0.86525444  1
  Si  Si16  1  0.07509655  0.20211534  0.11913267  1
  Si  Si17  1  0.72278812  0.20211534  0.38086733  1
  Si  Si18  1  0.92490345  0.79788466  0.88086733  1
  Si  Si19  1  0.27721188  0.79788466  0.61913267  1
  O  O20  1  0.13540660  0.55519656  0.38450096  1
  O  O21  1  0.30939684  0.55519656  0.11549904  1
  O  O22  1  0.86459340  0.44480344  0.61549904  1
  O  O23  1  0.69060316  0.44480344  0.88450096  1
  O  O24  1  0.21557983  0.22495013  0.20101566  1
  O  O25  1  0.55947003  0.22495013  0.29898434  1
  O  O26  1  0.78442017  0.77504987  0.79898434  1
  O  O27  1  0.44052997  0.77504987  0.70101566  1
  O  O28  1  0.88466883  0.73432441  0.98548748  1
  O  O29  1  0.38100676  0.73432441  0.51451252  1
  O  O30  1  0.11533117  0.26567559  0.01451252  1
  O  O31  1  0.61899324  0.26567559  0.48548748  1
  O  O32  1  0.83298538  0.34437098  0.36678802  1
  O  O33  1  0.82264364  0.34437098  0.13321198  1
  O  O34  1  0.16701462  0.65562902  0.63321198  1
  O  O35  1  0.17735636  0.65562902  0.86678802  1
  O  O36  1  0.92644973  0.96460832  0.37936028  1
  O  O37  1  0.10894195  0.96460832  0.12063972  1
  O  O38  1  0.07355027  0.03539168  0.62063972  1
  O  O39  1  0.89105805  0.03539168  0.87936028  1
  O  O40  1  0.85394225  0.73168222  0.25434065  1
  O  O41  1  0.41437553  0.73168222  0.24565935  1
  O  O42  1  0.14605775  0.26831778  0.74565935  1
  O  O43  1  0.58562447  0.26831778  0.75434065  1
  O  O44  1  0.72803899  0.77835802  0.43850197  1
  O  O45  1  0.49360299  0.77835802  0.06149803  1
  O  O46  1  0.27196101  0.22164198  0.56149803  1
  O  O47  1  0.50639701  0.22164198  0.93850197  1
