# generated using pymatgen
data_Ga2Se2O7
_symmetry_space_group_name_H-M   'P 1'
_cell_length_a   6.68654838
_cell_length_b   12.86793980
_cell_length_c   13.57105667
_cell_angle_alpha   90.00000000
_cell_angle_beta   90.00000000
_cell_angle_gamma   90.00000000
_symmetry_Int_Tables_number   1
_chemical_formula_structural   Ga2Se2O7
_chemical_formula_sum   'Ga16 Se16 O56'
_cell_volume   1167.68224257
_cell_formula_units_Z   8
loop_
 _symmetry_equiv_pos_site_id
 _symmetry_equiv_pos_as_xyz
  1  'x, y, z'
loop_
 _atom_site_type_symbol
 _atom_site_label
 _atom_site_symmetry_multiplicity
 _atom_site_fract_x
 _atom_site_fract_y
 _atom_site_fract_z
 _atom_site_occupancy
  Ga  Ga0  1  0.47670306  0.37774138  0.47309673  1
  Ga  Ga1  1  0.02329694  0.12225862  0.47309673  1
  Ga  Ga2  1  0.97670306  0.62225862  0.02690327  1
  Ga  Ga3  1  0.52329694  0.87774138  0.02690327  1
  Ga  Ga4  1  0.52329694  0.62225862  0.52690327  1
  Ga  Ga5  1  0.97670306  0.87774138  0.52690327  1
  Ga  Ga6  1  0.02329694  0.37774138  0.97309673  1
  Ga  Ga7  1  0.47670306  0.12225862  0.97309673  1
  Ga  Ga8  1  0.25000000  0.25000000  0.29660067  1
  Ga  Ga9  1  0.75000000  0.75000000  0.20339933  1
  Ga  Ga10  1  0.75000000  0.75000000  0.70339933  1
  Ga  Ga11  1  0.25000000  0.25000000  0.79660067  1
  Ga  Ga12  1  0.75000000  0.25000000  0.33113190  1
  Ga  Ga13  1  0.25000000  0.75000000  0.16886810  1
  Ga  Ga14  1  0.25000000  0.75000000  0.66886810  1
  Ga  Ga15  1  0.75000000  0.25000000  0.83113190  1
  Se  Se16  1  0.51747597  0.13410934  0.53538041  1
  Se  Se17  1  0.98252403  0.36589066  0.53538041  1
  Se  Se18  1  0.01747597  0.86589066  0.96461959  1
  Se  Se19  1  0.48252403  0.63410934  0.96461959  1
  Se  Se20  1  0.48252403  0.86589066  0.46461959  1
  Se  Se21  1  0.01747597  0.63410934  0.46461959  1
  Se  Se22  1  0.98252403  0.13410934  0.03538041  1
  Se  Se23  1  0.51747597  0.36589066  0.03538041  1
  Se  Se24  1  0.50711002  0.44765184  0.71829862  1
  Se  Se25  1  0.99288998  0.05234816  0.71829862  1
  Se  Se26  1  0.00711002  0.55234816  0.78170138  1
  Se  Se27  1  0.49288998  0.94765184  0.78170138  1
  Se  Se28  1  0.49288998  0.55234816  0.28170138  1
  Se  Se29  1  0.00711002  0.94765184  0.28170138  1
  Se  Se30  1  0.99288998  0.44765184  0.21829862  1
  Se  Se31  1  0.50711002  0.05234816  0.21829862  1
  O  O32  1  0.51170771  0.47560107  0.58931152  1
  O  O33  1  0.98829229  0.02439893  0.58931152  1
  O  O34  1  0.01170771  0.52439893  0.91068848  1
  O  O35  1  0.48829229  0.97560107  0.91068848  1
  O  O36  1  0.48829229  0.52439893  0.41068848  1
  O  O37  1  0.01170771  0.97560107  0.41068848  1
  O  O38  1  0.98829229  0.47560107  0.08931152  1
  O  O39  1  0.51170771  0.02439893  0.08931152  1
  O  O40  1  0.48727969  0.26231052  0.56455351  1
  O  O41  1  0.01272031  0.23768948  0.56455351  1
  O  O42  1  0.98727969  0.73768948  0.93544649  1
  O  O43  1  0.51272031  0.76231052  0.93544649  1
  O  O44  1  0.51272031  0.73768948  0.43544649  1
  O  O45  1  0.98727969  0.76231052  0.43544649  1
  O  O46  1  0.01272031  0.26231052  0.06455351  1
  O  O47  1  0.48727969  0.23768948  0.06455351  1
  O  O48  1  0.48462098  0.29671112  0.35239054  1
  O  O49  1  0.01537902  0.20328888  0.35239054  1
  O  O50  1  0.98462098  0.70328888  0.14760946  1
  O  O51  1  0.51537902  0.79671112  0.14760946  1
  O  O52  1  0.51537902  0.70328888  0.64760946  1
  O  O53  1  0.98462098  0.79671112  0.64760946  1
  O  O54  1  0.01537902  0.29671112  0.85239054  1
  O  O55  1  0.48462098  0.20328888  0.85239054  1
  O  O56  1  0.71158081  0.13408608  0.44650603  1
  O  O57  1  0.78841919  0.36591392  0.44650603  1
  O  O58  1  0.21158081  0.86591392  0.05349397  1
  O  O59  1  0.28841919  0.63408608  0.05349397  1
  O  O60  1  0.28841919  0.86591392  0.55349397  1
  O  O61  1  0.21158081  0.63408608  0.55349397  1
  O  O62  1  0.78841919  0.13408608  0.94650603  1
  O  O63  1  0.71158081  0.36591392  0.94650603  1
  O  O64  1  0.29336446  0.37148658  0.71965491  1
  O  O65  1  0.20663554  0.12851342  0.71965491  1
  O  O66  1  0.79336446  0.62851342  0.78034509  1
  O  O67  1  0.70663554  0.87148658  0.78034509  1
  O  O68  1  0.70663554  0.62851342  0.28034509  1
  O  O69  1  0.79336446  0.87148658  0.28034509  1
  O  O70  1  0.20663554  0.37148658  0.21965491  1
  O  O71  1  0.29336446  0.12851342  0.21965491  1
  O  O72  1  0.32004452  0.10860259  0.45526914  1
  O  O73  1  0.17995548  0.39139741  0.45526914  1
  O  O74  1  0.82004452  0.89139741  0.04473086  1
  O  O75  1  0.67995548  0.60860259  0.04473086  1
  O  O76  1  0.67995548  0.89139741  0.54473086  1
  O  O77  1  0.82004452  0.60860259  0.54473086  1
  O  O78  1  0.17995548  0.10860259  0.95526914  1
  O  O79  1  0.32004452  0.39139741  0.95526914  1
  O  O80  1  0.69965769  0.36116867  0.72954425  1
  O  O81  1  0.80034231  0.13883133  0.72954425  1
  O  O82  1  0.19965769  0.63883133  0.77045575  1
  O  O83  1  0.30034231  0.86116867  0.77045575  1
  O  O84  1  0.30034231  0.63883133  0.27045575  1
  O  O85  1  0.19965769  0.86116867  0.27045575  1
  O  O86  1  0.80034231  0.36116867  0.22954425  1
  O  O87  1  0.69965769  0.13883133  0.22954425  1
