# generated using pymatgen
data_CaH24(BrN4)2
_symmetry_space_group_name_H-M   'P 1'
_cell_length_a   7.75496928
_cell_length_b   12.80788719
_cell_length_c   15.99015975
_cell_angle_alpha   90.00000000
_cell_angle_beta   90.00000000
_cell_angle_gamma   90.00000000
_symmetry_Int_Tables_number   1
_chemical_formula_structural   CaH24(BrN4)2
_chemical_formula_sum   'Ca4 H96 Br8 N32'
_cell_volume   1588.21896662
_cell_formula_units_Z   4
loop_
 _symmetry_equiv_pos_site_id
 _symmetry_equiv_pos_as_xyz
  1  'x, y, z'
loop_
 _atom_site_type_symbol
 _atom_site_label
 _atom_site_symmetry_multiplicity
 _atom_site_fract_x
 _atom_site_fract_y
 _atom_site_fract_z
 _atom_site_occupancy
  Ca  Ca0  1  0.75000000  0.76406818  0.85920114  1
  Ca  Ca1  1  0.75000000  0.26406818  0.64079886  1
  Ca  Ca2  1  0.25000000  0.23593182  0.14079886  1
  Ca  Ca3  1  0.25000000  0.73593182  0.35920114  1
  H  H4  1  0.93150700  0.97393371  0.88369537  1
  H  H5  1  0.56849300  0.47393371  0.61630463  1
  H  H6  1  0.43150700  0.02606629  0.11630463  1
  H  H7  1  0.06849300  0.52606629  0.38369537  1
  H  H8  1  0.06849300  0.02606629  0.11630463  1
  H  H9  1  0.43150700  0.52606629  0.38369537  1
  H  H10  1  0.56849300  0.97393371  0.88369537  1
  H  H11  1  0.93150700  0.47393371  0.61630463  1
  H  H12  1  0.07288832  0.89000234  0.91820934  1
  H  H13  1  0.42711168  0.39000234  0.58179066  1
  H  H14  1  0.57288832  0.10999766  0.08179066  1
  H  H15  1  0.92711168  0.60999766  0.41820934  1
  H  H16  1  0.92711168  0.10999766  0.08179066  1
  H  H17  1  0.57288832  0.60999766  0.41820934  1
  H  H18  1  0.42711168  0.89000234  0.91820934  1
  H  H19  1  0.07288832  0.39000234  0.58179066  1
  H  H20  1  0.06331889  0.91689220  0.81746136  1
  H  H21  1  0.43668111  0.41689220  0.68253864  1
  H  H22  1  0.56331889  0.08310780  0.18253864  1
  H  H23  1  0.93668111  0.58310780  0.31746136  1
  H  H24  1  0.93668111  0.08310780  0.18253864  1
  H  H25  1  0.56331889  0.58310780  0.31746136  1
  H  H26  1  0.43668111  0.91689220  0.81746136  1
  H  H27  1  0.06331889  0.41689220  0.68253864  1
  H  H28  1  0.04673348  0.61840265  0.77380877  1
  H  H29  1  0.45326652  0.11840265  0.72619123  1
  H  H30  1  0.54673348  0.38159735  0.22619123  1
  H  H31  1  0.95326652  0.88159735  0.27380877  1
  H  H32  1  0.95326652  0.38159735  0.22619123  1
  H  H33  1  0.54673348  0.88159735  0.27380877  1
  H  H34  1  0.45326652  0.61840265  0.77380877  1
  H  H35  1  0.04673348  0.11840265  0.72619123  1
  H  H36  1  0.91699791  0.66122544  0.69960755  1
  H  H37  1  0.58300209  0.16122544  0.80039245  1
  H  H38  1  0.41699791  0.33877456  0.30039245  1
  H  H39  1  0.08300209  0.83877456  0.19960755  1
  H  H40  1  0.08300209  0.33877456  0.30039245  1
  H  H41  1  0.41699791  0.83877456  0.19960755  1
  H  H42  1  0.58300209  0.66122544  0.69960755  1
  H  H43  1  0.91699791  0.16122544  0.80039245  1
  H  H44  1  0.05715872  0.74011939  0.74211389  1
  H  H45  1  0.44284128  0.24011939  0.75788611  1
  H  H46  1  0.55715872  0.25988061  0.25788611  1
  H  H47  1  0.94284128  0.75988061  0.24211389  1
  H  H48  1  0.94284128  0.25988061  0.25788611  1
  H  H49  1  0.55715872  0.75988061  0.24211389  1
  H  H50  1  0.44284128  0.74011939  0.74211389  1
  H  H51  1  0.05715872  0.24011939  0.75788611  1
  H  H52  1  0.05757965  0.69346054  0.97082362  1
  H  H53  1  0.44242035  0.19346054  0.52917638  1
  H  H54  1  0.55757965  0.30653946  0.02917638  1
  H  H55  1  0.94242035  0.80653946  0.47082362  1
  H  H56  1  0.94242035  0.30653946  0.02917638  1
  H  H57  1  0.55757965  0.80653946  0.47082362  1
  H  H58  1  0.44242035  0.69346054  0.97082362  1
  H  H59  1  0.05757965  0.19346054  0.52917638  1
  H  H60  1  0.90337756  0.61695745  0.00282656  1
  H  H61  1  0.59662244  0.11695745  0.49717344  1
  H  H62  1  0.40337756  0.38304255  0.99717344  1
  H  H63  1  0.09662244  0.88304255  0.50282656  1
  H  H64  1  0.09662244  0.38304255  0.99717344  1
  H  H65  1  0.40337756  0.88304255  0.50282656  1
  H  H66  1  0.59662244  0.61695745  0.00282656  1
  H  H67  1  0.90337756  0.11695745  0.49717344  1
  H  H68  1  0.01944036  0.58429089  0.92090083  1
  H  H69  1  0.48055964  0.08429089  0.57909917  1
  H  H70  1  0.51944036  0.41570911  0.07909917  1
  H  H71  1  0.98055964  0.91570911  0.42090083  1
  H  H72  1  0.98055964  0.41570911  0.07909917  1
  H  H73  1  0.51944036  0.91570911  0.42090083  1
  H  H74  1  0.48055964  0.58429089  0.92090083  1
  H  H75  1  0.01944036  0.08429089  0.57909917  1
  H  H76  1  0.85586191  0.81793217  0.04835752  1
  H  H77  1  0.64413809  0.31793217  0.45164248  1
  H  H78  1  0.35586191  0.18206783  0.95164248  1
  H  H79  1  0.14413809  0.68206783  0.54835752  1
  H  H80  1  0.14413809  0.18206783  0.95164248  1
  H  H81  1  0.35586191  0.68206783  0.54835752  1
  H  H82  1  0.64413809  0.81793217  0.04835752  1
  H  H83  1  0.85586191  0.31793217  0.45164248  1
  H  H84  1  0.75000000  0.92002936  0.01501573  1
  H  H85  1  0.75000000  0.42002936  0.48498427  1
  H  H86  1  0.25000000  0.07997064  0.98498427  1
  H  H87  1  0.25000000  0.57997064  0.51501573  1
  H  H88  1  0.85613946  0.91849773  0.70127261  1
  H  H89  1  0.64386054  0.41849773  0.79872739  1
  H  H90  1  0.35613946  0.08150227  0.29872739  1
  H  H91  1  0.14386054  0.58150227  0.20127261  1
  H  H92  1  0.14386054  0.08150227  0.29872739  1
  H  H93  1  0.35613946  0.58150227  0.20127261  1
  H  H94  1  0.64386054  0.91849773  0.70127261  1
  H  H95  1  0.85613946  0.41849773  0.79872739  1
  H  H96  1  0.75000000  0.82071447  0.66128927  1
  H  H97  1  0.75000000  0.32071447  0.83871073  1
  H  H98  1  0.25000000  0.17928553  0.33871073  1
  H  H99  1  0.25000000  0.67928553  0.16128927  1
  Br  Br100  1  0.75000000  0.14743216  0.94488386  1
  Br  Br101  1  0.75000000  0.64743216  0.55511614  1
  Br  Br102  1  0.25000000  0.85256784  0.05511614  1
  Br  Br103  1  0.25000000  0.35256784  0.44488386  1
  Br  Br104  1  0.75000000  0.55817239  0.17080794  1
  Br  Br105  1  0.75000000  0.05817239  0.32919206  1
  Br  Br106  1  0.25000000  0.44182761  0.82919206  1
  Br  Br107  1  0.25000000  0.94182761  0.67080794  1
  N  N108  1  0.98886293  0.90400298  0.86974179  1
  N  N109  1  0.51113707  0.40400298  0.63025821  1
  N  N110  1  0.48886293  0.09599702  0.13025821  1
  N  N111  1  0.01113707  0.59599702  0.36974179  1
  N  N112  1  0.01113707  0.09599702  0.13025821  1
  N  N113  1  0.48886293  0.59599702  0.36974179  1
  N  N114  1  0.51113707  0.90400298  0.86974179  1
  N  N115  1  0.98886293  0.40400298  0.63025821  1
  N  N116  1  0.97289113  0.68068082  0.75591620  1
  N  N117  1  0.52710887  0.18068082  0.74408380  1
  N  N118  1  0.47289113  0.31931918  0.24408380  1
  N  N119  1  0.02710887  0.81931918  0.25591620  1
  N  N120  1  0.02710887  0.31931918  0.24408380  1
  N  N121  1  0.47289113  0.81931918  0.25591620  1
  N  N122  1  0.52710887  0.68068082  0.75591620  1
  N  N123  1  0.97289113  0.18068082  0.74408380  1
  N  N124  1  0.96018793  0.64591070  0.94966640  1
  N  N125  1  0.53981207  0.14591070  0.55033360  1
  N  N126  1  0.46018793  0.35408930  0.05033360  1
  N  N127  1  0.03981207  0.85408930  0.44966640  1
  N  N128  1  0.03981207  0.35408930  0.05033360  1
  N  N129  1  0.46018793  0.85408930  0.44966640  1
  N  N130  1  0.53981207  0.64591070  0.94966640  1
  N  N131  1  0.96018793  0.14591070  0.55033360  1
  N  N132  1  0.75000000  0.84008422  0.01456086  1
  N  N133  1  0.75000000  0.34008422  0.48543914  1
  N  N134  1  0.25000000  0.15991578  0.98543914  1
  N  N135  1  0.25000000  0.65991578  0.51456086  1
  N  N136  1  0.75000000  0.87231996  0.71024757  1
  N  N137  1  0.75000000  0.37231996  0.78975243  1
  N  N138  1  0.25000000  0.12768004  0.28975243  1
  N  N139  1  0.25000000  0.62768004  0.21024757  1
