# generated using pymatgen
data_BPH4NO4F
_symmetry_space_group_name_H-M   'P 1'
_cell_length_a   7.70761304
_cell_length_b   7.70761304
_cell_length_c   7.70761304
_cell_angle_alpha   90.00000000
_cell_angle_beta   90.00000000
_cell_angle_gamma   90.00000000
_symmetry_Int_Tables_number   1
_chemical_formula_structural   BPH4NO4F
_chemical_formula_sum   'B4 P4 H16 N4 O16 F4'
_cell_volume   457.88847070
_cell_formula_units_Z   4
loop_
 _symmetry_equiv_pos_site_id
 _symmetry_equiv_pos_as_xyz
  1  'x, y, z'
loop_
 _atom_site_type_symbol
 _atom_site_label
 _atom_site_symmetry_multiplicity
 _atom_site_fract_x
 _atom_site_fract_y
 _atom_site_fract_z
 _atom_site_occupancy
  B  B0  1  0.13433397  0.63433397  0.86566603  1
  B  B1  1  0.63433397  0.86566603  0.13433397  1
  B  B2  1  0.86566603  0.13433397  0.63433397  1
  B  B3  1  0.36566603  0.36566603  0.36566603  1
  P  P4  1  0.90150661  0.90150661  0.90150661  1
  P  P5  1  0.09849339  0.40150661  0.59849339  1
  P  P6  1  0.40150661  0.59849339  0.09849339  1
  P  P7  1  0.59849339  0.09849339  0.40150661  1
  H  H8  1  0.08371616  0.74975316  0.39441781  1
  H  H9  1  0.60558219  0.58371616  0.75024684  1
  H  H10  1  0.24975316  0.10558219  0.91628384  1
  H  H11  1  0.58371616  0.75024684  0.60558219  1
  H  H12  1  0.10558219  0.91628384  0.24975316  1
  H  H13  1  0.74975316  0.39441781  0.08371616  1
  H  H14  1  0.91628384  0.24975316  0.10558219  1
  H  H15  1  0.39441781  0.08371616  0.74975316  1
  H  H16  1  0.75024684  0.60558219  0.58371616  1
  H  H17  1  0.41628384  0.25024684  0.89441781  1
  H  H18  1  0.89441781  0.41628384  0.25024684  1
  H  H19  1  0.25024684  0.89441781  0.41628384  1
  H  H20  1  0.04529590  0.95470410  0.45470410  1
  H  H21  1  0.54529590  0.54529590  0.54529590  1
  H  H22  1  0.45470410  0.04529590  0.95470410  1
  H  H23  1  0.95470410  0.45470410  0.04529590  1
  N  N24  1  0.12219243  0.87780757  0.37780757  1
  N  N25  1  0.62219243  0.62219243  0.62219243  1
  N  N26  1  0.37780757  0.12219243  0.87780757  1
  N  N27  1  0.87780757  0.37780757  0.12219243  1
  O  O28  1  0.95909226  0.70706616  0.88910142  1
  O  O29  1  0.11089858  0.45909226  0.79293384  1
  O  O30  1  0.20706616  0.61089858  0.04090774  1
  O  O31  1  0.45909226  0.79293384  0.11089858  1
  O  O32  1  0.61089858  0.04090774  0.20706616  1
  O  O33  1  0.70706616  0.88910142  0.95909226  1
  O  O34  1  0.04090774  0.20706616  0.61089858  1
  O  O35  1  0.88910142  0.95909226  0.70706616  1
  O  O36  1  0.79293384  0.11089858  0.45909226  1
  O  O37  1  0.54090774  0.29293384  0.38910142  1
  O  O38  1  0.38910142  0.54090774  0.29293384  1
  O  O39  1  0.29293384  0.38910142  0.54090774  1
  O  O40  1  0.01472061  0.01472061  0.01472061  1
  O  O41  1  0.98527939  0.51472061  0.48527939  1
  O  O42  1  0.51472061  0.48527939  0.98527939  1
  O  O43  1  0.48527939  0.98527939  0.51472061  1
  F  F44  1  0.24027008  0.74027008  0.75972992  1
  F  F45  1  0.74027008  0.75972992  0.24027008  1
  F  F46  1  0.75972992  0.24027008  0.74027008  1
  F  F47  1  0.25972992  0.25972992  0.25972992  1
