# generated using pymatgen
data_Pr3Si2BO10
_symmetry_space_group_name_H-M   'P 1'
_cell_length_a   7.22211502
_cell_length_b   9.94071814
_cell_length_c   23.36359130
_cell_angle_alpha   90.00000000
_cell_angle_beta   90.00000000
_cell_angle_gamma   90.00000000
_symmetry_Int_Tables_number   1
_chemical_formula_structural   Pr3Si2BO10
_chemical_formula_sum   'Pr24 Si16 B8 O80'
_cell_volume   1677.34253889
_cell_formula_units_Z   8
loop_
 _symmetry_equiv_pos_site_id
 _symmetry_equiv_pos_as_xyz
  1  'x, y, z'
loop_
 _atom_site_type_symbol
 _atom_site_label
 _atom_site_symmetry_multiplicity
 _atom_site_fract_x
 _atom_site_fract_y
 _atom_site_fract_z
 _atom_site_occupancy
  Pr  Pr0  1  0.63993220  0.00817951  0.92848855  1
  Pr  Pr1  1  0.86006780  0.50817951  0.07151145  1
  Pr  Pr2  1  0.13993220  0.99182049  0.57151145  1
  Pr  Pr3  1  0.36006780  0.49182049  0.42848855  1
  Pr  Pr4  1  0.36006780  0.99182049  0.07151145  1
  Pr  Pr5  1  0.13993220  0.49182049  0.92848855  1
  Pr  Pr6  1  0.86006780  0.00817951  0.42848855  1
  Pr  Pr7  1  0.63993220  0.50817951  0.57151145  1
  Pr  Pr8  1  0.67453588  0.36559652  0.83696366  1
  Pr  Pr9  1  0.82546412  0.86559652  0.16303634  1
  Pr  Pr10  1  0.17453588  0.63440348  0.66303634  1
  Pr  Pr11  1  0.32546412  0.13440348  0.33696366  1
  Pr  Pr12  1  0.32546412  0.63440348  0.16303634  1
  Pr  Pr13  1  0.17453588  0.13440348  0.83696366  1
  Pr  Pr14  1  0.82546412  0.36559652  0.33696366  1
  Pr  Pr15  1  0.67453588  0.86559652  0.66303634  1
  Pr  Pr16  1  0.90502946  0.23227019  0.68213605  1
  Pr  Pr17  1  0.59497054  0.73227019  0.31786395  1
  Pr  Pr18  1  0.40502946  0.76772981  0.81786395  1
  Pr  Pr19  1  0.09497054  0.26772981  0.18213605  1
  Pr  Pr20  1  0.09497054  0.76772981  0.31786395  1
  Pr  Pr21  1  0.40502946  0.26772981  0.68213605  1
  Pr  Pr22  1  0.59497054  0.23227019  0.18213605  1
  Pr  Pr23  1  0.90502946  0.73227019  0.81786395  1
  Si  Si24  1  0.64209151  0.12289723  0.57858501  1
  Si  Si25  1  0.85790849  0.62289723  0.42141499  1
  Si  Si26  1  0.14209151  0.87710277  0.92141499  1
  Si  Si27  1  0.35790849  0.37710277  0.07858501  1
  Si  Si28  1  0.35790849  0.87710277  0.42141499  1
  Si  Si29  1  0.14209151  0.37710277  0.57858501  1
  Si  Si30  1  0.85790849  0.12289723  0.07858501  1
  Si  Si31  1  0.64209151  0.62289723  0.92141499  1
  Si  Si32  1  0.68261885  0.06205477  0.77932417  1
  Si  Si33  1  0.81738115  0.56205477  0.22067583  1
  Si  Si34  1  0.18261885  0.93794523  0.72067583  1
  Si  Si35  1  0.31738115  0.43794523  0.27932417  1
  Si  Si36  1  0.31738115  0.93794523  0.22067583  1
  Si  Si37  1  0.18261885  0.43794523  0.77932417  1
  Si  Si38  1  0.81738115  0.06205477  0.27932417  1
  Si  Si39  1  0.68261885  0.56205477  0.72067583  1
  B  B40  1  0.64927520  0.25342327  0.47219746  1
  B  B41  1  0.85072480  0.75342327  0.52780254  1
  B  B42  1  0.14927520  0.74657673  0.02780254  1
  B  B43  1  0.35072480  0.24657673  0.97219746  1
  B  B44  1  0.35072480  0.74657673  0.52780254  1
  B  B45  1  0.14927520  0.24657673  0.47219746  1
  B  B46  1  0.85072480  0.25342327  0.97219746  1
  B  B47  1  0.64927520  0.75342327  0.02780254  1
  O  O48  1  0.72975123  0.23690591  0.41938530  1
  O  O49  1  0.77024877  0.73690591  0.58061470  1
  O  O50  1  0.22975123  0.76309409  0.08061470  1
  O  O51  1  0.27024877  0.26309409  0.91938530  1
  O  O52  1  0.27024877  0.76309409  0.58061470  1
  O  O53  1  0.22975123  0.26309409  0.41938530  1
  O  O54  1  0.77024877  0.23690591  0.91938530  1
  O  O55  1  0.72975123  0.73690591  0.08061470  1
  O  O56  1  0.57215392  0.36883537  0.49152264  1
  O  O57  1  0.92784608  0.86883537  0.50847736  1
  O  O58  1  0.07215392  0.63116463  0.00847736  1
  O  O59  1  0.42784608  0.13116463  0.99152264  1
  O  O60  1  0.42784608  0.63116463  0.50847736  1
  O  O61  1  0.07215392  0.13116463  0.49152264  1
  O  O62  1  0.92784608  0.36883537  0.99152264  1
  O  O63  1  0.57215392  0.86883537  0.00847736  1
  O  O64  1  0.65334043  0.13552822  0.50771595  1
  O  O65  1  0.84665957  0.63552822  0.49228405  1
  O  O66  1  0.15334043  0.86447178  0.99228405  1
  O  O67  1  0.34665957  0.36447178  0.00771595  1
  O  O68  1  0.34665957  0.86447178  0.49228405  1
  O  O69  1  0.15334043  0.36447178  0.50771595  1
  O  O70  1  0.84665957  0.13552822  0.00771595  1
  O  O71  1  0.65334043  0.63552822  0.99228405  1
  O  O72  1  0.82545439  0.04803891  0.60533959  1
  O  O73  1  0.67454561  0.54803891  0.39466041  1
  O  O74  1  0.32545439  0.95196109  0.89466041  1
  O  O75  1  0.17454561  0.45196109  0.10533959  1
  O  O76  1  0.17454561  0.95196109  0.39466041  1
  O  O77  1  0.32545439  0.45196109  0.60533959  1
  O  O78  1  0.67454561  0.04803891  0.10533959  1
  O  O79  1  0.82545439  0.54803891  0.89466041  1
  O  O80  1  0.64731272  0.27331289  0.60901552  1
  O  O81  1  0.85268728  0.77331289  0.39098448  1
  O  O82  1  0.14731272  0.72668711  0.89098448  1
  O  O83  1  0.35268728  0.22668711  0.10901552  1
  O  O84  1  0.35268728  0.72668711  0.39098448  1
  O  O85  1  0.14731272  0.22668711  0.60901552  1
  O  O86  1  0.85268728  0.27331289  0.10901552  1
  O  O87  1  0.64731272  0.77331289  0.89098448  1
  O  O88  1  0.46413640  0.03763456  0.60189128  1
  O  O89  1  0.03586360  0.53763456  0.39810872  1
  O  O90  1  0.96413640  0.96236544  0.89810872  1
  O  O91  1  0.53586360  0.46236544  0.10189128  1
  O  O92  1  0.53586360  0.96236544  0.39810872  1
  O  O93  1  0.96413640  0.46236544  0.60189128  1
  O  O94  1  0.03586360  0.03763456  0.10189128  1
  O  O95  1  0.46413640  0.53763456  0.89810872  1
  O  O96  1  0.70109330  0.89668451  0.77892991  1
  O  O97  1  0.79890670  0.39668451  0.22107009  1
  O  O98  1  0.20109330  0.10331549  0.72107009  1
  O  O99  1  0.29890670  0.60331549  0.27892991  1
  O  O100  1  0.29890670  0.10331549  0.22107009  1
  O  O101  1  0.20109330  0.60331549  0.77892991  1
  O  O102  1  0.79890670  0.89668451  0.27892991  1
  O  O103  1  0.70109330  0.39668451  0.72107009  1
  O  O104  1  0.62937162  0.09862916  0.71215011  1
  O  O105  1  0.87062838  0.59862916  0.28784989  1
  O  O106  1  0.12937162  0.90137084  0.78784989  1
  O  O107  1  0.37062838  0.40137084  0.21215011  1
  O  O108  1  0.37062838  0.90137084  0.28784989  1
  O  O109  1  0.12937162  0.40137084  0.71215011  1
  O  O110  1  0.87062838  0.09862916  0.21215011  1
  O  O111  1  0.62937162  0.59862916  0.78784989  1
  O  O112  1  0.53402070  0.10818743  0.82837129  1
  O  O113  1  0.96597930  0.60818743  0.17162871  1
  O  O114  1  0.03402070  0.89181257  0.67162871  1
  O  O115  1  0.46597930  0.39181257  0.32837129  1
  O  O116  1  0.46597930  0.89181257  0.17162871  1
  O  O117  1  0.03402070  0.39181257  0.82837129  1
  O  O118  1  0.96597930  0.10818743  0.32837129  1
  O  O119  1  0.53402070  0.60818743  0.67162871  1
  O  O120  1  0.86902758  0.15509525  0.78910496  1
  O  O121  1  0.63097242  0.65509525  0.21089504  1
  O  O122  1  0.36902758  0.84490475  0.71089504  1
  O  O123  1  0.13097242  0.34490475  0.28910496  1
  O  O124  1  0.13097242  0.84490475  0.21089504  1
  O  O125  1  0.36902758  0.34490475  0.78910496  1
  O  O126  1  0.63097242  0.15509525  0.28910496  1
  O  O127  1  0.86902758  0.65509525  0.71089504  1
