# generated using pymatgen
data_K2AsH13O10
_symmetry_space_group_name_H-M   'P 1'
_cell_length_a   6.67449113
_cell_length_b   6.67449113
_cell_length_c   12.86579356
_cell_angle_alpha   91.92076596
_cell_angle_beta   91.92076596
_cell_angle_gamma   91.10199216
_symmetry_Int_Tables_number   1
_chemical_formula_structural   K2AsH13O10
_chemical_formula_sum   'K4 As2 H26 O20'
_cell_volume   572.39329051
_cell_formula_units_Z   2
loop_
 _symmetry_equiv_pos_site_id
 _symmetry_equiv_pos_as_xyz
  1  'x, y, z'
loop_
 _atom_site_type_symbol
 _atom_site_label
 _atom_site_symmetry_multiplicity
 _atom_site_fract_x
 _atom_site_fract_y
 _atom_site_fract_z
 _atom_site_occupancy
  K  K0  1  0.63775099  0.90013151  0.59655526  1
  K  K1  1  0.90013151  0.63775099  0.09655526  1
  K  K2  1  0.90933652  0.38707106  0.38139070  1
  K  K3  1  0.38707106  0.90933652  0.88139070  1
  As  As4  1  0.35150129  0.02078495  0.34110254  1
  As  As5  1  0.02078495  0.35150129  0.84110254  1
  H  H6  1  0.43623409  0.29669373  0.44938779  1
  H  H7  1  0.29669373  0.43623409  0.94938779  1
  H  H8  1  0.34427937  0.62196900  0.42900908  1
  H  H9  1  0.62196900  0.34427937  0.92900908  1
  H  H10  1  0.28321107  0.56651685  0.54171100  1
  H  H11  1  0.56651685  0.28321107  0.04171100  1
  H  H12  1  0.93156065  0.85708280  0.32980330  1
  H  H13  1  0.85708280  0.93156065  0.82980330  1
  H  H14  1  0.70296033  0.77715287  0.31959730  1
  H  H15  1  0.77715287  0.70296033  0.81959730  1
  H  H16  1  0.20923111  0.62084870  0.69700754  1
  H  H17  1  0.62084870  0.20923111  0.19700754  1
  H  H18  1  0.17622352  0.83518007  0.64609471  1
  H  H19  1  0.83518007  0.17622352  0.14609471  1
  H  H20  1  0.07543761  0.03878890  0.51334660  1
  H  H21  1  0.03878890  0.07543761  0.01334660  1
  H  H22  1  0.05808114  0.15209682  0.62541821  1
  H  H23  1  0.15209682  0.05808114  0.12541821  1
  H  H24  1  0.89303254  0.47774896  0.63145461  1
  H  H25  1  0.47774896  0.89303254  0.13145461  1
  H  H26  1  0.67144001  0.42327179  0.60406202  1
  H  H27  1  0.42327179  0.67144001  0.10406202  1
  H  H28  1  0.37705009  0.30041366  0.70905453  1
  H  H29  1  0.30041366  0.37705009  0.20905453  1
  H  H30  1  0.59970704  0.32007565  0.75675763  1
  H  H31  1  0.32007565  0.59970704  0.25675763  1
  O  O32  1  0.38191175  0.10729743  0.21781697  1
  O  O33  1  0.10729743  0.38191175  0.71781697  1
  O  O34  1  0.11343940  0.04115782  0.38269774  1
  O  O35  1  0.04115782  0.11343940  0.88269774  1
  O  O36  1  0.51214605  0.17330486  0.42800047  1
  O  O37  1  0.17330486  0.51214605  0.92800047  1
  O  O38  1  0.44647009  0.78554742  0.35125487  1
  O  O39  1  0.78554742  0.44647009  0.85125487  1
  O  O40  1  0.29283977  0.50785264  0.47080933  1
  O  O41  1  0.50785264  0.29283977  0.97080933  1
  O  O42  1  0.84252536  0.74764387  0.30033830  1
  O  O43  1  0.74764387  0.84252536  0.80033830  1
  O  O44  1  0.28015623  0.74018821  0.67019661  1
  O  O45  1  0.74018821  0.28015623  0.17019661  1
  O  O46  1  0.03268235  0.02359005  0.58690853  1
  O  O47  1  0.02359005  0.03268235  0.08690853  1
  O  O48  1  0.78446831  0.50341513  0.57948006  1
  O  O49  1  0.50341513  0.78446831  0.07948006  1
  O  O50  1  0.51566907  0.25473948  0.69981933  1
  O  O51  1  0.25473948  0.51566907  0.19981933  1
