# generated using pymatgen
data_Pr5Zr3(Ni4As3)4
_symmetry_space_group_name_H-M   'P 1'
_cell_length_a   4.01199684
_cell_length_b   12.87152551
_cell_length_c   12.86935190
_cell_angle_alpha   120.00558859
_cell_angle_beta   90.00000000
_cell_angle_gamma   90.00000000
_symmetry_Int_Tables_number   1
_chemical_formula_structural   Pr5Zr3(Ni4As3)4
_chemical_formula_sum   'Pr5 Zr3 Ni16 As12'
_cell_volume   575.51076593
_cell_formula_units_Z   1
loop_
 _symmetry_equiv_pos_site_id
 _symmetry_equiv_pos_as_xyz
  1  'x, y, z'
loop_
 _atom_site_type_symbol
 _atom_site_label
 _atom_site_symmetry_multiplicity
 _atom_site_fract_x
 _atom_site_fract_y
 _atom_site_fract_z
 _atom_site_occupancy
  Pr  Pr0  1  0.50000000  0.99990323  0.18372133  1
  Pr  Pr1  1  0.50000000  0.18369376  0.00000000  1
  Pr  Pr2  1  0.50000000  0.81618190  0.81627867  1
  Pr  Pr3  1  -0.00000000  0.33339978  0.66668144  1
  Pr  Pr4  1  -0.00000000  0.66671834  0.33331856  1
  Zr  Zr5  1  -0.00000000  0.99996721  0.56389795  1
  Zr  Zr6  1  -0.00000000  0.56407356  0.00000000  1
  Zr  Zr7  1  -0.00000000  0.43606926  0.43610205  1
  Ni  Ni8  1  0.50000000  0.99999665  0.72106928  1
  Ni  Ni9  1  0.50000000  0.72107703  1.00000000  1
  Ni  Ni10  1  0.50000000  0.27892737  0.27893072  1
  Ni  Ni11  1  -0.00000000  0.19376387  0.37555781  1
  Ni  Ni12  1  0.00000000  0.18177594  0.80619690  1
  Ni  Ni13  1  -0.00000000  0.62448888  0.81816444  1
  Ni  Ni14  1  -0.00000000  0.81820606  0.62444219  1
  Ni  Ni15  1  0.00000000  0.37557904  0.19380310  1
  Ni  Ni16  1  -0.00000000  0.80632443  0.18183556  1
  Ni  Ni17  1  0.50000000  0.11911966  0.48085973  1
  Ni  Ni18  1  0.50000000  0.36170474  0.88088426  1
  Ni  Ni19  1  0.50000000  0.51917817  0.63822986  1
  Ni  Ni20  1  0.50000000  0.63825993  0.51914027  1
  Ni  Ni21  1  0.50000000  0.48082048  0.11911574  1
  Ni  Ni22  1  0.50000000  0.88094831  0.36177014  1
  Ni  Ni23  1  -0.00000000  0.99998696  0.00000000  1
  As  As24  1  -0.00000000  0.99999138  0.81844447  1
  As  As25  1  -0.00000000  0.81843257  1.00000000  1
  As  As26  1  -0.00000000  0.18154691  0.18155553  1
  As  As27  1  0.50000000  0.30611867  0.47527912  1
  As  As28  1  0.50000000  0.16912796  0.69387627  1
  As  As29  1  0.50000000  0.52468994  0.83082968  1
  As  As30  1  0.50000000  0.83083955  0.52472088  1
  As  As31  1  0.50000000  0.47525169  0.30612373  1
  As  As32  1  0.50000000  0.69386025  0.16917032  1
  As  As33  1  -0.00000000  0.99993996  0.35900485  1
  As  As34  1  -0.00000000  0.35900145  0.00000000  1
  As  As35  1  -0.00000000  0.64093510  0.64099515  1
