# generated using pymatgen
data_SrCo3(P2O7)2
_symmetry_space_group_name_H-M   'P 1'
_cell_length_a   7.56140861
_cell_length_b   7.80851727
_cell_length_c   9.61464798
_cell_angle_alpha   90.00000000
_cell_angle_beta   111.96955047
_cell_angle_gamma   90.00000000
_symmetry_Int_Tables_number   1
_chemical_formula_structural   SrCo3(P2O7)2
_chemical_formula_sum   'Sr2 Co6 P8 O28'
_cell_volume   526.45797719
_cell_formula_units_Z   2
loop_
 _symmetry_equiv_pos_site_id
 _symmetry_equiv_pos_as_xyz
  1  'x, y, z'
loop_
 _atom_site_type_symbol
 _atom_site_label
 _atom_site_symmetry_multiplicity
 _atom_site_fract_x
 _atom_site_fract_y
 _atom_site_fract_z
 _atom_site_occupancy
  Sr  Sr0  1  0.00000000  0.50000000  0.50000000  1
  Sr  Sr1  1  0.00000000  -0.00000000  0.00000000  1
  Co  Co2  1  0.50000000  0.50000000  0.50000000  1
  Co  Co3  1  0.50000000  -0.00000000  0.00000000  1
  Co  Co4  1  0.68611814  0.37510425  0.02758736  1
  Co  Co5  1  0.31388186  0.87510425  0.47241264  1
  Co  Co6  1  0.31388186  0.62489575  0.97241264  1
  Co  Co7  1  0.68611814  0.12489575  0.52758736  1
  P  P8  1  0.61221645  0.79603600  0.30608790  1
  P  P9  1  0.38778355  0.29603600  0.19391210  1
  P  P10  1  0.38778355  0.20396400  0.69391210  1
  P  P11  1  0.61221645  0.70396400  0.80608790  1
  P  P12  1  0.89608898  0.44229960  0.79827606  1
  P  P13  1  0.10391102  0.94229960  0.70172394  1
  P  P14  1  0.10391102  0.55770040  0.20172394  1
  P  P15  1  0.89608898  0.05770040  0.29827606  1
  O  O16  1  0.12343931  0.82014161  0.58458374  1
  O  O17  1  0.87656069  0.32014161  0.91541626  1
  O  O18  1  0.87656069  0.17985839  0.41541626  1
  O  O19  1  0.12343931  0.67985839  0.08458374  1
  O  O20  1  0.34290262  0.37594911  0.61244751  1
  O  O21  1  0.65709738  0.87594911  0.88755249  1
  O  O22  1  0.65709738  0.62405089  0.38755249  1
  O  O23  1  0.34290262  0.12405089  0.11244751  1
  O  O24  1  0.81755662  0.62837453  0.82246962  1
  O  O25  1  0.18244338  0.12837453  0.67753038  1
  O  O26  1  0.18244338  0.37162547  0.17753038  1
  O  O27  1  0.81755662  0.87162547  0.32246962  1
  O  O28  1  0.47336549  0.42233125  0.11341501  1
  O  O29  1  0.52663451  0.92233125  0.38658499  1
  O  O30  1  0.52663451  0.57766875  0.88658499  1
  O  O31  1  0.47336549  0.07766875  0.61341501  1
  O  O32  1  0.77151597  0.38468860  0.63543617  1
  O  O33  1  0.22848403  0.88468860  0.86456383  1
  O  O34  1  0.22848403  0.61531140  0.36456383  1
  O  O35  1  0.77151597  0.11531140  0.13543617  1
  O  O36  1  0.50217835  0.78843413  0.13520008  1
  O  O37  1  0.49782165  0.28843413  0.36479992  1
  O  O38  1  0.49782165  0.21156587  0.86479992  1
  O  O39  1  0.50217835  0.71156587  0.63520008  1
  O  O40  1  0.09804654  0.48228075  0.80659381  1
  O  O41  1  0.90195346  0.98228075  0.69340619  1
  O  O42  1  0.90195346  0.51771925  0.19340619  1
  O  O43  1  0.09804654  0.01771925  0.30659381  1
