# generated using pymatgen
data_Cs2UAs2O9
_symmetry_space_group_name_H-M   'P 1'
_cell_length_a   6.48138302
_cell_length_b   13.20276942
_cell_length_c   13.45183392
_cell_angle_alpha   90.00000000
_cell_angle_beta   90.00000000
_cell_angle_gamma   90.00000000
_symmetry_Int_Tables_number   1
_chemical_formula_structural   Cs2UAs2O9
_chemical_formula_sum   'Cs8 U4 As8 O36'
_cell_volume   1151.10309704
_cell_formula_units_Z   4
loop_
 _symmetry_equiv_pos_site_id
 _symmetry_equiv_pos_as_xyz
  1  'x, y, z'
loop_
 _atom_site_type_symbol
 _atom_site_label
 _atom_site_symmetry_multiplicity
 _atom_site_fract_x
 _atom_site_fract_y
 _atom_site_fract_z
 _atom_site_occupancy
  Cs  Cs0  1  0.51053773  0.00000000  0.32409046  1
  Cs  Cs1  1  0.51053773  0.00000000  0.67590954  1
  Cs  Cs2  1  0.48946227  0.50000000  0.82409046  1
  Cs  Cs3  1  0.48946227  0.50000000  0.17590954  1
  Cs  Cs4  1  0.49124868  0.82275963  -0.00000000  1
  Cs  Cs5  1  0.50875132  0.32275963  0.50000000  1
  Cs  Cs6  1  0.50875132  0.67724037  0.50000000  1
  Cs  Cs7  1  0.49124868  0.17724037  -0.00000000  1
  U  U8  1  0.00000000  0.75000000  0.25000000  1
  U  U9  1  0.00000000  0.75000000  0.75000000  1
  U  U10  1  0.00000000  0.25000000  0.75000000  1
  U  U11  1  0.00000000  0.25000000  0.25000000  1
  As  As12  1  0.98488050  0.62425735  -0.00000000  1
  As  As13  1  0.01511950  0.12425735  0.50000000  1
  As  As14  1  0.01511950  0.87574265  0.50000000  1
  As  As15  1  0.98488050  0.37574265  -0.00000000  1
  As  As16  1  0.00881304  0.00000000  0.12126839  1
  As  As17  1  0.00881304  0.00000000  0.87873161  1
  As  As18  1  0.99118696  0.50000000  0.62126839  1
  As  As19  1  0.99118696  0.50000000  0.37873161  1
  O  O20  1  0.72833981  0.61893160  -0.00000000  1
  O  O21  1  0.27166019  0.11893160  0.50000000  1
  O  O22  1  0.27166019  0.88106840  0.50000000  1
  O  O23  1  0.72833981  0.38106840  -0.00000000  1
  O  O24  1  0.88979516  0.89520335  0.17213893  1
  O  O25  1  0.88979516  0.89520335  0.82786107  1
  O  O26  1  0.11020484  0.39520335  0.67213893  1
  O  O27  1  0.11020484  0.60479665  0.32786107  1
  O  O28  1  0.88979516  0.10479665  0.82786107  1
  O  O29  1  0.88979516  0.10479665  0.17213893  1
  O  O30  1  0.11020484  0.60479665  0.67213893  1
  O  O31  1  0.11020484  0.39520335  0.32786107  1
  O  O32  1  0.26563279  0.00000000  0.11654631  1
  O  O33  1  0.26563279  0.00000000  0.88345369  1
  O  O34  1  0.73436721  0.50000000  0.61654631  1
  O  O35  1  0.73436721  0.50000000  0.38345369  1
  O  O36  1  0.10519586  0.50000000  -0.00000000  1
  O  O37  1  0.89480414  0.00000000  0.50000000  1
  O  O38  1  0.10267066  0.67998950  0.10128072  1
  O  O39  1  0.10267066  0.67998950  0.89871928  1
  O  O40  1  0.89732934  0.17998950  0.60128072  1
  O  O41  1  0.89732934  0.82001050  0.39871928  1
  O  O42  1  0.10267066  0.32001050  0.89871928  1
  O  O43  1  0.10267066  0.32001050  0.10128072  1
  O  O44  1  0.89732934  0.82001050  0.60128072  1
  O  O45  1  0.89732934  0.17998950  0.39871928  1
  O  O46  1  0.88828599  0.00000000  -0.00000000  1
  O  O47  1  0.11171401  0.50000000  0.50000000  1
  O  O48  1  0.73962523  0.69985503  0.23585970  1
  O  O49  1  0.73962523  0.69985503  0.76414030  1
  O  O50  1  0.26037477  0.19985503  0.73585970  1
  O  O51  1  0.26037477  0.80014497  0.26414030  1
  O  O52  1  0.73962523  0.30014497  0.76414030  1
  O  O53  1  0.73962523  0.30014497  0.23585970  1
  O  O54  1  0.26037477  0.80014497  0.73585970  1
  O  O55  1  0.26037477  0.19985503  0.26414030  1
