# generated using pymatgen
data_Bi4BPO10
_symmetry_space_group_name_H-M   'P 1'
_cell_length_a   5.59864188
_cell_length_b   14.45065963
_cell_length_c   22.64914227
_cell_angle_alpha   90.00000000
_cell_angle_beta   90.00000000
_cell_angle_gamma   90.00000000
_symmetry_Int_Tables_number   1
_chemical_formula_structural   Bi4BPO10
_chemical_formula_sum   'Bi32 B8 P8 O80'
_cell_volume   1832.40775084
_cell_formula_units_Z   8
loop_
 _symmetry_equiv_pos_site_id
 _symmetry_equiv_pos_as_xyz
  1  'x, y, z'
loop_
 _atom_site_type_symbol
 _atom_site_label
 _atom_site_symmetry_multiplicity
 _atom_site_fract_x
 _atom_site_fract_y
 _atom_site_fract_z
 _atom_site_occupancy
  Bi  Bi0  1  0.07169173  0.78613781  0.30844649  1
  Bi  Bi1  1  0.42830827  0.21386219  0.80844649  1
  Bi  Bi2  1  0.57169173  0.71386219  0.69155351  1
  Bi  Bi3  1  0.92830827  0.28613781  0.19155351  1
  Bi  Bi4  1  0.92830827  0.21386219  0.69155351  1
  Bi  Bi5  1  0.57169173  0.78613781  0.19155351  1
  Bi  Bi6  1  0.42830827  0.28613781  0.30844649  1
  Bi  Bi7  1  0.07169173  0.71386219  0.80844649  1
  Bi  Bi8  1  0.56669685  0.76244891  0.41572555  1
  Bi  Bi9  1  0.93330315  0.23755109  0.91572555  1
  Bi  Bi10  1  0.06669685  0.73755109  0.58427445  1
  Bi  Bi11  1  0.43330315  0.26244891  0.08427445  1
  Bi  Bi12  1  0.43330315  0.23755109  0.58427445  1
  Bi  Bi13  1  0.06669685  0.76244891  0.08427445  1
  Bi  Bi14  1  0.93330315  0.26244891  0.41572555  1
  Bi  Bi15  1  0.56669685  0.73755109  0.91572555  1
  Bi  Bi16  1  0.45204681  0.45594569  0.42591085  1
  Bi  Bi17  1  0.04795319  0.54405431  0.92591085  1
  Bi  Bi18  1  0.95204681  0.04405431  0.57408915  1
  Bi  Bi19  1  0.54795319  0.95594569  0.07408915  1
  Bi  Bi20  1  0.54795319  0.54405431  0.57408915  1
  Bi  Bi21  1  0.95204681  0.45594569  0.07408915  1
  Bi  Bi22  1  0.04795319  0.95594569  0.42591085  1
  Bi  Bi23  1  0.45204681  0.04405431  0.92591085  1
  Bi  Bi24  1  0.92661211  0.47445079  0.30603385  1
  Bi  Bi25  1  0.57338789  0.52554921  0.80603385  1
  Bi  Bi26  1  0.42661211  0.02554921  0.69396615  1
  Bi  Bi27  1  0.07338789  0.97445079  0.19396615  1
  Bi  Bi28  1  0.07338789  0.52554921  0.69396615  1
  Bi  Bi29  1  0.42661211  0.47445079  0.19396615  1
  Bi  Bi30  1  0.57338789  0.97445079  0.30603385  1
  Bi  Bi31  1  0.92661211  0.02554921  0.80603385  1
  B  B32  1  0.42955582  0.60654897  0.31357282  1
  B  B33  1  0.07044418  0.39345103  0.81357282  1
  B  B34  1  0.92955582  0.89345103  0.68642718  1
  B  B35  1  0.57044418  0.10654897  0.18642718  1
  B  B36  1  0.57044418  0.39345103  0.68642718  1
  B  B37  1  0.92955582  0.60654897  0.18642718  1
  B  B38  1  0.07044418  0.10654897  0.31357282  1
  B  B39  1  0.42955582  0.89345103  0.81357282  1
  P  P40  1  0.99982315  0.62144143  0.45242930  1
  P  P41  1  0.50017685  0.37855857  0.95242930  1
  P  P42  1  0.49982315  0.87855857  0.54757070  1
  P  P43  1  0.00017685  0.12144143  0.04757070  1
  P  P44  1  0.00017685  0.37855857  0.54757070  1
  P  P45  1  0.49982315  0.62144143  0.04757070  1
  P  P46  1  0.50017685  0.12144143  0.45242930  1
  P  P47  1  0.99982315  0.87855857  0.95242930  1
  O  O48  1  0.22202214  0.36624242  0.37404528  1
  O  O49  1  0.27797786  0.63375758  0.87404528  1
  O  O50  1  0.72202214  0.13375758  0.62595472  1
  O  O51  1  0.77797786  0.86624242  0.12595472  1
  O  O52  1  0.77797786  0.63375758  0.62595472  1
  O  O53  1  0.72202214  0.36624242  0.12595472  1
  O  O54  1  0.27797786  0.86624242  0.37404528  1
  O  O55  1  0.22202214  0.13375758  0.87404528  1
  O  O56  1  0.71660415  0.36459660  0.36957582  1
  O  O57  1  0.78339585  0.63540340  0.86957582  1
  O  O58  1  0.21660415  0.13540340  0.63042418  1
  O  O59  1  0.28339585  0.86459660  0.13042418  1
  O  O60  1  0.28339585  0.63540340  0.63042418  1
  O  O61  1  0.21660415  0.36459660  0.13042418  1
  O  O62  1  0.78339585  0.86459660  0.36957582  1
  O  O63  1  0.71660415  0.13540340  0.86957582  1
  O  O64  1  0.31230918  0.87866618  0.25136577  1
  O  O65  1  0.18769082  0.12133382  0.75136577  1
  O  O66  1  0.81230918  0.62133382  0.74863423  1
  O  O67  1  0.68769082  0.37866618  0.24863423  1
  O  O68  1  0.68769082  0.12133382  0.74863423  1
  O  O69  1  0.81230918  0.87866618  0.24863423  1
  O  O70  1  0.18769082  0.37866618  0.25136577  1
  O  O71  1  0.31230918  0.62133382  0.75136577  1
  O  O72  1  0.75438766  0.60782649  0.48282362  1
  O  O73  1  0.74561234  0.39217351  0.98282362  1
  O  O74  1  0.25438766  0.89217351  0.51717638  1
  O  O75  1  0.24561234  0.10782649  0.01717638  1
  O  O76  1  0.24561234  0.39217351  0.51717638  1
  O  O77  1  0.25438766  0.60782649  0.01717638  1
  O  O78  1  0.74561234  0.10782649  0.48282362  1
  O  O79  1  0.75438766  0.89217351  0.98282362  1
  O  O80  1  0.95950254  0.70337729  0.40733098  1
  O  O81  1  0.54049746  0.29662271  0.90733098  1
  O  O82  1  0.45950254  0.79662271  0.59266902  1
  O  O83  1  0.04049746  0.20337729  0.09266902  1
  O  O84  1  0.04049746  0.29662271  0.59266902  1
  O  O85  1  0.45950254  0.70337729  0.09266902  1
  O  O86  1  0.54049746  0.20337729  0.40733098  1
  O  O87  1  0.95950254  0.79662271  0.90733098  1
  O  O88  1  0.08279776  0.53510434  0.41690554  1
  O  O89  1  0.41720224  0.46489566  0.91690554  1
  O  O90  1  0.58279776  0.96489566  0.58309446  1
  O  O91  1  0.91720224  0.03510434  0.08309446  1
  O  O92  1  0.91720224  0.46489566  0.58309446  1
  O  O93  1  0.58279776  0.53510434  0.08309446  1
  O  O94  1  0.41720224  0.03510434  0.41690554  1
  O  O95  1  0.08279776  0.96489566  0.91690554  1
  O  O96  1  0.19789730  0.64831667  0.49756577  1
  O  O97  1  0.30210270  0.35168333  0.99756577  1
  O  O98  1  0.69789730  0.85168333  0.50243423  1
  O  O99  1  0.80210270  0.14831667  0.00243423  1
  O  O100  1  0.80210270  0.35168333  0.50243423  1
  O  O101  1  0.69789730  0.64831667  0.00243423  1
  O  O102  1  0.30210270  0.14831667  0.49756577  1
  O  O103  1  0.19789730  0.85168333  0.99756577  1
  O  O104  1  0.27874358  0.57420731  0.27044499  1
  O  O105  1  0.22125642  0.42579269  0.77044499  1
  O  O106  1  0.77874358  0.92579269  0.72955501  1
  O  O107  1  0.72125642  0.07420731  0.22955501  1
  O  O108  1  0.72125642  0.42579269  0.72955501  1
  O  O109  1  0.77874358  0.57420731  0.22955501  1
  O  O110  1  0.22125642  0.07420731  0.27044499  1
  O  O111  1  0.27874358  0.92579269  0.77044499  1
  O  O112  1  0.45084337  0.70191598  0.32340382  1
  O  O113  1  0.04915663  0.29808402  0.82340382  1
  O  O114  1  0.95084337  0.79808402  0.67659618  1
  O  O115  1  0.54915663  0.20191598  0.17659618  1
  O  O116  1  0.54915663  0.29808402  0.67659618  1
  O  O117  1  0.95084337  0.70191598  0.17659618  1
  O  O118  1  0.04915663  0.20191598  0.32340382  1
  O  O119  1  0.45084337  0.79808402  0.82340382  1
  O  O120  1  0.55887335  0.54611904  0.34976439  1
  O  O121  1  0.94112665  0.45388096  0.84976439  1
  O  O122  1  0.05887335  0.95388096  0.65023561  1
  O  O123  1  0.44112665  0.04611904  0.15023561  1
  O  O124  1  0.44112665  0.45388096  0.65023561  1
  O  O125  1  0.05887335  0.54611904  0.15023561  1
  O  O126  1  0.94112665  0.04611904  0.34976439  1
  O  O127  1  0.55887335  0.95388096  0.84976439  1
