# generated using pymatgen
data_Rb4BaV6O18
_symmetry_space_group_name_H-M   'P 1'
_cell_length_a   10.48209842
_cell_length_b   10.48209842
_cell_length_c   10.48209855
_cell_angle_alpha   83.92970314
_cell_angle_beta   83.92970314
_cell_angle_gamma   83.92970687
_symmetry_Int_Tables_number   1
_chemical_formula_structural   Rb4BaV6O18
_chemical_formula_sum   'Rb8 Ba2 V12 O36'
_cell_volume   1133.61490347
_cell_formula_units_Z   2
loop_
 _symmetry_equiv_pos_site_id
 _symmetry_equiv_pos_as_xyz
  1  'x, y, z'
loop_
 _atom_site_type_symbol
 _atom_site_label
 _atom_site_symmetry_multiplicity
 _atom_site_fract_x
 _atom_site_fract_y
 _atom_site_fract_z
 _atom_site_occupancy
  Rb  Rb0  1  0.49962411  0.49962411  0.49962411  1
  Rb  Rb1  1  0.99962411  0.99962411  0.99962411  1
  Rb  Rb2  1  0.08523467  0.91538619  0.49690085  1
  Rb  Rb3  1  0.91538619  0.49690085  0.08523467  1
  Rb  Rb4  1  0.49690085  0.08523467  0.91538619  1
  Rb  Rb5  1  0.58523467  0.99690085  0.41538619  1
  Rb  Rb6  1  0.99690085  0.41538619  0.58523467  1
  Rb  Rb7  1  0.41538619  0.58523467  0.99690085  1
  Ba  Ba8  1  0.26743335  0.26743335  0.26743335  1
  Ba  Ba9  1  0.76743335  0.76743335  0.76743335  1
  V  V10  1  0.66905998  0.79897469  0.10234646  1
  V  V11  1  0.79897469  0.10234646  0.66905998  1
  V  V12  1  0.10234646  0.66905998  0.79897469  1
  V  V13  1  0.16905998  0.60234646  0.29897469  1
  V  V14  1  0.60234646  0.29897469  0.16905998  1
  V  V15  1  0.29897469  0.16905998  0.60234646  1
  V  V16  1  0.83366768  0.70583592  0.38742477  1
  V  V17  1  0.70583592  0.38742477  0.83366768  1
  V  V18  1  0.38742477  0.83366768  0.70583592  1
  V  V19  1  0.33366768  0.88742477  0.20583592  1
  V  V20  1  0.88742477  0.20583592  0.33366768  1
  V  V21  1  0.20583592  0.33366768  0.88742477  1
  O  O22  1  0.34868580  0.00434144  0.65942395  1
  O  O23  1  0.00434144  0.65942395  0.34868580  1
  O  O24  1  0.65942395  0.34868580  0.00434144  1
  O  O25  1  0.84868580  0.15942395  0.50434144  1
  O  O26  1  0.15942395  0.50434144  0.84868580  1
  O  O27  1  0.50434144  0.84868580  0.15942395  1
  O  O28  1  0.16304581  0.17461902  0.52905973  1
  O  O29  1  0.17461902  0.52905973  0.16304581  1
  O  O30  1  0.52905973  0.16304581  0.17461902  1
  O  O31  1  0.66304581  0.02905973  0.67461902  1
  O  O32  1  0.02905973  0.67461902  0.66304581  1
  O  O33  1  0.67461902  0.66304581  0.02905973  1
  O  O34  1  0.76423633  0.77241715  0.23944592  1
  O  O35  1  0.77241715  0.23944592  0.76423633  1
  O  O36  1  0.23944592  0.76423633  0.77241715  1
  O  O37  1  0.26423633  0.73944592  0.27241715  1
  O  O38  1  0.73944592  0.27241715  0.26423633  1
  O  O39  1  0.27241715  0.26423633  0.73944592  1
  O  O40  1  0.72707993  0.91156453  0.99118328  1
  O  O41  1  0.91156453  0.99118328  0.72707993  1
  O  O42  1  0.99118328  0.72707993  0.91156453  1
  O  O43  1  0.22707993  0.49118328  0.41156453  1
  O  O44  1  0.49118328  0.41156453  0.22707993  1
  O  O45  1  0.41156453  0.22707993  0.49118328  1
  O  O46  1  0.31384061  0.99337422  0.31869578  1
  O  O47  1  0.99337422  0.31869578  0.31384061  1
  O  O48  1  0.31869578  0.31384061  0.99337422  1
  O  O49  1  0.81384061  0.81869578  0.49337422  1
  O  O50  1  0.81869578  0.49337422  0.81384061  1
  O  O51  1  0.49337422  0.81384061  0.81869578  1
  O  O52  1  0.76490377  0.57527855  0.45421552  1
  O  O53  1  0.57527855  0.45421552  0.76490377  1
  O  O54  1  0.45421552  0.76490377  0.57527855  1
  O  O55  1  0.26490377  0.95421552  0.07527855  1
  O  O56  1  0.95421552  0.07527855  0.26490377  1
  O  O57  1  0.07527855  0.26490377  0.95421552  1
