# generated using pymatgen
data_MgBi
_symmetry_space_group_name_H-M   'P 1'
_cell_length_a   11.92550581
_cell_length_b   3.37752362
_cell_length_c   8.76403564
_cell_angle_alpha   90.00000000
_cell_angle_beta   110.89431827
_cell_angle_gamma   90.00000000
_symmetry_Int_Tables_number   1
_chemical_formula_structural   MgBi
_chemical_formula_sum   'Mg6 Bi6'
_cell_volume   329.79018324
_cell_formula_units_Z   6
loop_
 _symmetry_equiv_pos_site_id
 _symmetry_equiv_pos_as_xyz
  1  'x, y, z'
loop_
 _atom_site_type_symbol
 _atom_site_label
 _atom_site_symmetry_multiplicity
 _atom_site_fract_x
 _atom_site_fract_y
 _atom_site_fract_z
 _atom_site_occupancy
  Mg  Mg0  1  0.98087547  -0.00000000  0.99869999  1
  Mg  Mg1  1  0.10487601  0.50000000  0.72594308  1
  Mg  Mg2  1  0.18657483  0.50000000  0.32918303  1
  Mg  Mg3  1  0.48087547  0.50000000  0.99869999  1
  Mg  Mg4  1  0.60487601  0.00000000  0.72594308  1
  Mg  Mg5  1  0.68657483  0.00000000  0.32918303  1
  Bi  Bi6  1  0.32797902  0.00000000  0.67008480  1
  Bi  Bi7  1  0.48307781  0.50000000  0.40043740  1
  Bi  Bi8  1  0.24994987  0.00000000  0.04231871  1
  Bi  Bi9  1  0.82797902  0.50000000  0.67008480  1
  Bi  Bi10  1  0.98307781  -0.00000000  0.40043740  1
  Bi  Bi11  1  0.74994987  0.50000000  0.04231871  1
