# generated using pymatgen
data_Er(BRu)4
_symmetry_space_group_name_H-M   'P 1'
_cell_length_a   7.47355312
_cell_length_b   7.47355312
_cell_length_c   9.18646336
_cell_angle_alpha   114.00208430
_cell_angle_beta   114.00208430
_cell_angle_gamma   90.00000000
_symmetry_Int_Tables_number   1
_chemical_formula_structural   Er(BRu)4
_chemical_formula_sum   'Er4 B16 Ru16'
_cell_volume   419.70147825
_cell_formula_units_Z   4
loop_
 _symmetry_equiv_pos_site_id
 _symmetry_equiv_pos_as_xyz
  1  'x, y, z'
loop_
 _atom_site_type_symbol
 _atom_site_label
 _atom_site_symmetry_multiplicity
 _atom_site_fract_x
 _atom_site_fract_y
 _atom_site_fract_z
 _atom_site_occupancy
  Er  Er0  1  0.12500000  0.37500000  0.25000000  1
  Er  Er1  1  0.62500000  0.87500000  0.25000000  1
  Er  Er2  1  0.87500000  0.62500000  0.75000000  1
  Er  Er3  1  0.37500000  0.12500000  0.75000000  1
  B  B4  1  0.78951719  0.34689095  0.91410342  1
  B  B5  1  0.62458623  0.84689095  0.91410342  1
  B  B6  1  0.84689095  0.28951719  0.41410342  1
  B  B7  1  0.06721247  0.78951719  0.41410342  1
  B  B8  1  0.21048281  0.65310905  0.08589658  1
  B  B9  1  0.37541377  0.15310905  0.08589658  1
  B  B10  1  0.15310905  0.71048281  0.58589658  1
  B  B11  1  0.93278753  0.21048281  0.58589658  1
  B  B12  1  0.28951719  0.56721247  0.91410342  1
  B  B13  1  0.12458623  0.06721247  0.91410342  1
  B  B14  1  0.34689095  0.12458623  0.41410342  1
  B  B15  1  0.56721247  0.62458623  0.41410342  1
  B  B16  1  0.71048281  0.43278753  0.08589658  1
  B  B17  1  0.87541377  0.93278753  0.08589658  1
  B  B18  1  0.65310905  0.87541377  0.58589658  1
  B  B19  1  0.43278753  0.37541377  0.58589658  1
  Ru  Ru20  1  0.94756049  0.66420345  0.12646300  1
  Ru  Ru21  1  0.67890252  0.16420345  0.12646300  1
  Ru  Ru22  1  0.16420345  0.44756049  0.62646300  1
  Ru  Ru23  1  0.96225955  0.94756049  0.62646300  1
  Ru  Ru24  1  0.05243951  0.33579655  0.87353700  1
  Ru  Ru25  1  0.32109748  0.83579655  0.87353700  1
  Ru  Ru26  1  0.83579655  0.55243951  0.37353700  1
  Ru  Ru27  1  0.03774045  0.05243951  0.37353700  1
  Ru  Ru28  1  0.44756049  0.46225955  0.12646300  1
  Ru  Ru29  1  0.17890252  0.96225955  0.12646300  1
  Ru  Ru30  1  0.66420345  0.17890252  0.62646300  1
  Ru  Ru31  1  0.46225955  0.67890252  0.62646300  1
  Ru  Ru32  1  0.55243951  0.53774045  0.87353700  1
  Ru  Ru33  1  0.82109748  0.03774045  0.87353700  1
  Ru  Ru34  1  0.33579655  0.82109748  0.37353700  1
  Ru  Ru35  1  0.53774045  0.32109748  0.37353700  1
