# generated using pymatgen
data_Gd2Nb3Ge4
_symmetry_space_group_name_H-M   'P 1'
_cell_length_a   7.04225296
_cell_length_b   7.21430816
_cell_length_c   13.62106178
_cell_angle_alpha   90.00000000
_cell_angle_beta   90.00000000
_cell_angle_gamma   90.00000000
_symmetry_Int_Tables_number   1
_chemical_formula_structural   Gd2Nb3Ge4
_chemical_formula_sum   'Gd8 Nb12 Ge16'
_cell_volume   692.01781209
_cell_formula_units_Z   4
loop_
 _symmetry_equiv_pos_site_id
 _symmetry_equiv_pos_as_xyz
  1  'x, y, z'
loop_
 _atom_site_type_symbol
 _atom_site_label
 _atom_site_symmetry_multiplicity
 _atom_site_fract_x
 _atom_site_fract_y
 _atom_site_fract_z
 _atom_site_occupancy
  Gd  Gd0  1  0.50199479  0.67276775  0.40501329  1
  Gd  Gd1  1  0.00199479  0.82723225  0.09498671  1
  Gd  Gd2  1  0.49800521  0.32723225  0.90501329  1
  Gd  Gd3  1  0.99800521  0.17276775  0.59498671  1
  Gd  Gd4  1  0.49800521  0.32723225  0.59498671  1
  Gd  Gd5  1  0.99800521  0.17276775  0.90501329  1
  Gd  Gd6  1  0.50199479  0.67276775  0.09498671  1
  Gd  Gd7  1  0.00199479  0.82723225  0.40501329  1
  Nb  Nb8  1  0.33574437  0.98727686  0.75000000  1
  Nb  Nb9  1  0.83574437  0.51272314  0.75000000  1
  Nb  Nb10  1  0.66425563  0.01272314  0.25000000  1
  Nb  Nb11  1  0.16425563  0.48727686  0.25000000  1
  Nb  Nb12  1  0.16053688  0.67172239  0.87318716  1
  Nb  Nb13  1  0.66053688  0.82827761  0.62681284  1
  Nb  Nb14  1  0.83946312  0.32827761  0.37318716  1
  Nb  Nb15  1  0.33946312  0.17172239  0.12681284  1
  Nb  Nb16  1  0.83946312  0.32827761  0.12681284  1
  Nb  Nb17  1  0.33946312  0.17172239  0.37318716  1
  Nb  Nb18  1  0.16053688  0.67172239  0.62681284  1
  Nb  Nb19  1  0.66053688  0.82827761  0.87318716  1
  Ge  Ge20  1  0.19531821  0.36559361  0.75000000  1
  Ge  Ge21  1  0.69531821  0.13440639  0.75000000  1
  Ge  Ge22  1  0.80468179  0.63440639  0.25000000  1
  Ge  Ge23  1  0.30468179  0.86559361  0.25000000  1
  Ge  Ge24  1  0.46086391  0.62375452  0.75000000  1
  Ge  Ge25  1  0.96086391  0.87624548  0.75000000  1
  Ge  Ge26  1  0.53913609  0.37624548  0.25000000  1
  Ge  Ge27  1  0.03913609  0.12375452  0.25000000  1
  Ge  Ge28  1  0.32826218  0.96034197  0.95772751  1
  Ge  Ge29  1  0.82826218  0.53965803  0.54227249  1
  Ge  Ge30  1  0.67173782  0.03965803  0.45772751  1
  Ge  Ge31  1  0.17173782  0.46034197  0.04227249  1
  Ge  Ge32  1  0.67173782  0.03965803  0.04227249  1
  Ge  Ge33  1  0.17173782  0.46034197  0.45772751  1
  Ge  Ge34  1  0.32826218  0.96034197  0.54227249  1
  Ge  Ge35  1  0.82826218  0.53965803  0.95772751  1
