# generated using pymatgen
data_MgH24(ClO6)2
_symmetry_space_group_name_H-M   'P 1'
_cell_length_a   7.37243160
_cell_length_b   8.58298424
_cell_length_c   14.60051506
_cell_angle_alpha   90.00000000
_cell_angle_beta   90.00000000
_cell_angle_gamma   112.94558764
_symmetry_Int_Tables_number   1
_chemical_formula_structural   MgH24(ClO6)2
_chemical_formula_sum   'Mg2 H48 Cl4 O24'
_cell_volume   850.78175003
_cell_formula_units_Z   2
loop_
 _symmetry_equiv_pos_site_id
 _symmetry_equiv_pos_as_xyz
  1  'x, y, z'
loop_
 _atom_site_type_symbol
 _atom_site_label
 _atom_site_symmetry_multiplicity
 _atom_site_fract_x
 _atom_site_fract_y
 _atom_site_fract_z
 _atom_site_occupancy
  Mg  Mg0  1  0.50000000  0.00000000  0.50000000  1
  Mg  Mg1  1  -0.00000000  0.50000000  -0.00000000  1
  H  H2  1  0.36335292  0.24932016  0.46272189  1
  H  H3  1  0.86335292  0.74932016  0.03727811  1
  H  H4  1  0.63664708  0.75067984  0.53727811  1
  H  H5  1  0.13664708  0.25067984  0.96272189  1
  H  H6  1  0.23235762  0.49032004  0.30031203  1
  H  H7  1  0.73235762  0.99032004  0.19968797  1
  H  H8  1  0.76764238  0.50967996  0.69968797  1
  H  H9  1  0.26764238  0.00967996  0.80031203  1
  H  H10  1  0.04997977  0.52544962  0.33795779  1
  H  H11  1  0.54997977  0.02544962  0.16204221  1
  H  H12  1  0.95002023  0.47455038  0.66204221  1
  H  H13  1  0.45002023  0.97455038  0.83795779  1
  H  H14  1  0.82720855  0.60520940  0.55694367  1
  H  H15  1  0.32720855  0.10520940  0.94305633  1
  H  H16  1  0.17279145  0.39479060  0.44305633  1
  H  H17  1  0.67279145  0.89479060  0.05694367  1
  H  H18  1  0.47534596  0.44933703  0.23413994  1
  H  H19  1  0.97534596  0.94933703  0.26586006  1
  H  H20  1  0.52465404  0.55066297  0.76586006  1
  H  H21  1  0.02465404  0.05066297  0.73413994  1
  H  H22  1  0.80467152  0.01626282  0.38874665  1
  H  H23  1  0.30467152  0.51626282  0.11125335  1
  H  H24  1  0.19532848  0.98373718  0.61125335  1
  H  H25  1  0.69532848  0.48373718  0.88874665  1
  H  H26  1  0.34306077  0.92857220  0.32708116  1
  H  H27  1  0.84306077  0.42857220  0.17291884  1
  H  H28  1  0.65693923  0.07142780  0.67291884  1
  H  H29  1  0.15693923  0.57142780  0.82708116  1
  H  H30  1  0.81277527  0.64249658  0.45151309  1
  H  H31  1  0.31277527  0.14249658  0.04848691  1
  H  H32  1  0.18722473  0.35750342  0.54848691  1
  H  H33  1  0.68722473  0.85750342  0.95151309  1
  H  H34  1  0.56741086  0.30064669  0.40843488  1
  H  H35  1  0.06741086  0.80064669  0.09156512  1
  H  H36  1  0.43258914  0.69935331  0.59156512  1
  H  H37  1  0.93258914  0.19935331  0.90843488  1
  H  H38  1  0.90738499  0.15005824  0.46744928  1
  H  H39  1  0.40738499  0.65005824  0.03255072  1
  H  H40  1  0.09261501  0.84994176  0.53255072  1
  H  H41  1  0.59261501  0.34994176  0.96744928  1
  H  H42  1  0.29206458  0.28955294  0.20539347  1
  H  H43  1  0.79206458  0.78955294  0.29460653  1
  H  H44  1  0.70793542  0.71044706  0.79460653  1
  H  H45  1  0.20793542  0.21044706  0.70539347  1
  H  H46  1  0.31478494  0.75036668  0.36977410  1
  H  H47  1  0.81478494  0.25036668  0.13022590  1
  H  H48  1  0.68521506  0.24963332  0.63022590  1
  H  H49  1  0.18521506  0.74963332  0.86977410  1
  Cl  Cl50  1  0.75187091  0.51804387  0.31094576  1
  Cl  Cl51  1  0.25187091  0.01804387  0.18905424  1
  Cl  Cl52  1  0.24812909  0.48195613  0.68905424  1
  Cl  Cl53  1  0.74812909  0.98195613  0.81094576  1
  O  O54  1  0.83882060  0.69690321  0.51232931  1
  O  O55  1  0.33882060  0.19690321  0.98767069  1
  O  O56  1  0.16117940  0.30309679  0.48767069  1
  O  O57  1  0.66117940  0.80309679  0.01232931  1
  O  O58  1  0.33770141  0.41380050  0.21261336  1
  O  O59  1  0.83770141  0.91380050  0.28738664  1
  O  O60  1  0.66229859  0.58619950  0.78738664  1
  O  O61  1  0.16229859  0.08619950  0.71261336  1
  O  O62  1  0.38349640  0.87511205  0.37788744  1
  O  O63  1  0.88349640  0.37511205  0.12211256  1
  O  O64  1  0.61650360  0.12488795  0.62211256  1
  O  O65  1  0.11650360  0.62488795  0.87788744  1
  O  O66  1  0.18462252  0.53480783  0.35411873  1
  O  O67  1  0.68462252  0.03480783  0.14588127  1
  O  O68  1  0.81537748  0.46519217  0.64588127  1
  O  O69  1  0.31537748  0.96519217  0.85411873  1
  O  O70  1  0.47837376  0.21877670  0.45172450  1
  O  O71  1  0.97837376  0.71877670  0.04827550  1
  O  O72  1  0.52162624  0.78122330  0.54827550  1
  O  O73  1  0.02162624  0.28122330  0.95172450  1
  O  O74  1  0.77840371  0.07448559  0.44236123  1
  O  O75  1  0.27840371  0.57448559  0.05763877  1
  O  O76  1  0.22159629  0.92551441  0.55763877  1
  O  O77  1  0.72159629  0.42551441  0.94236123  1
