# generated using pymatgen
data_Sm6Fe13Sn
_symmetry_space_group_name_H-M   'P 1'
_cell_length_a   8.04545213
_cell_length_b   8.04545213
_cell_length_c   12.90115112
_cell_angle_alpha   108.16843068
_cell_angle_beta   108.16843068
_cell_angle_gamma   90.00000000
_symmetry_Int_Tables_number   1
_chemical_formula_structural   Sm6Fe13Sn
_chemical_formula_sum   'Sm12 Fe26 Sn2'
_cell_volume   749.50559713
_cell_formula_units_Z   2
loop_
 _symmetry_equiv_pos_site_id
 _symmetry_equiv_pos_as_xyz
  1  'x, y, z'
loop_
 _atom_site_type_symbol
 _atom_site_label
 _atom_site_symmetry_multiplicity
 _atom_site_fract_x
 _atom_site_fract_y
 _atom_site_fract_z
 _atom_site_occupancy
  Sm  Sm0  1  0.60525304  0.60525304  0.21050607  1
  Sm  Sm1  1  0.10525304  0.10525304  0.21050607  1
  Sm  Sm2  1  0.39474696  0.39474696  0.78949393  1
  Sm  Sm3  1  0.89474696  0.89474696  0.78949393  1
  Sm  Sm4  1  0.97764475  0.47764475  0.62900951  1
  Sm  Sm5  1  0.65136476  0.15136476  0.62900951  1
  Sm  Sm6  1  0.15136476  0.97764475  0.62900951  1
  Sm  Sm7  1  0.47764475  0.65136476  0.62900951  1
  Sm  Sm8  1  0.02235525  0.52235525  0.37099049  1
  Sm  Sm9  1  0.34863524  0.84863524  0.37099049  1
  Sm  Sm10  1  0.84863524  0.02235525  0.37099049  1
  Sm  Sm11  1  0.52235525  0.34863524  0.37099049  1
  Fe  Fe12  1  -0.00000000  0.50000000  0.00000000  1
  Fe  Fe13  1  0.50000000  0.00000000  0.00000000  1
  Fe  Fe14  1  0.70939744  0.56580190  0.00000000  1
  Fe  Fe15  1  0.29060256  0.43419810  1.00000000  1
  Fe  Fe16  1  0.79060256  0.06580190  1.00000000  1
  Fe  Fe17  1  0.20939744  0.93419810  0.00000000  1
  Fe  Fe18  1  0.56580190  0.29060256  1.00000000  1
  Fe  Fe19  1  0.43419810  0.70939744  0.00000000  1
  Fe  Fe20  1  0.06580190  0.20939744  0.00000000  1
  Fe  Fe21  1  0.93419810  0.79060256  1.00000000  1
  Fe  Fe22  1  0.11942296  0.61942296  0.88069379  1
  Fe  Fe23  1  0.76127083  0.26127083  0.88069379  1
  Fe  Fe24  1  0.26127083  0.11942296  0.88069379  1
  Fe  Fe25  1  0.61942296  0.76127083  0.88069379  1
  Fe  Fe26  1  0.88057704  0.38057704  0.11930621  1
  Fe  Fe27  1  0.23872917  0.73872917  0.11930621  1
  Fe  Fe28  1  0.73872917  0.88057704  0.11930621  1
  Fe  Fe29  1  0.38057704  0.23872917  0.11930621  1
  Fe  Fe30  1  0.29157501  0.79157501  0.81036139  1
  Fe  Fe31  1  0.51878638  0.01878638  0.81036139  1
  Fe  Fe32  1  0.01878638  0.29157501  0.81036139  1
  Fe  Fe33  1  0.79157501  0.51878638  0.81036139  1
  Fe  Fe34  1  0.70842499  0.20842499  0.18963861  1
  Fe  Fe35  1  0.48121362  0.98121362  0.18963861  1
  Fe  Fe36  1  0.98121362  0.70842499  0.18963861  1
  Fe  Fe37  1  0.20842499  0.48121362  0.18963861  1
  Sn  Sn38  1  0.25000000  0.25000000  0.50000000  1
  Sn  Sn39  1  0.75000000  0.75000000  0.50000000  1
