# generated using pymatgen
data_Tb2Ni7
_symmetry_space_group_name_H-M   'P 1'
_cell_length_a   4.92147016
_cell_length_b   4.92147016
_cell_length_c   24.10802982
_cell_angle_alpha   90.00000000
_cell_angle_beta   90.00000000
_cell_angle_gamma   119.92507431
_symmetry_Int_Tables_number   1
_chemical_formula_structural   Tb2Ni7
_chemical_formula_sum   'Tb8 Ni28'
_cell_volume   506.06868220
_cell_formula_units_Z   4
loop_
 _symmetry_equiv_pos_site_id
 _symmetry_equiv_pos_as_xyz
  1  'x, y, z'
loop_
 _atom_site_type_symbol
 _atom_site_label
 _atom_site_symmetry_multiplicity
 _atom_site_fract_x
 _atom_site_fract_y
 _atom_site_fract_z
 _atom_site_occupancy
  Tb  Tb0  1  0.66665159  0.33334841  0.52963988  1
  Tb  Tb1  1  0.33334841  0.66665159  0.47036012  1
  Tb  Tb2  1  0.33334841  0.66665159  0.02963988  1
  Tb  Tb3  1  0.66665159  0.33334841  0.97036012  1
  Tb  Tb4  1  0.66666868  0.33333132  0.67419626  1
  Tb  Tb5  1  0.33333132  0.66666868  0.32580374  1
  Tb  Tb6  1  0.33333132  0.66666868  0.17419626  1
  Tb  Tb7  1  0.66666868  0.33333132  0.82580374  1
  Ni  Ni8  1  0.00000000  0.00000000  0.50000000  1
  Ni  Ni9  1  0.00000000  0.00000000  -0.00000000  1
  Ni  Ni10  1  0.16692819  0.33383447  0.75000000  1
  Ni  Ni11  1  0.16688873  0.83311127  0.75000000  1
  Ni  Ni12  1  0.66616553  0.83307181  0.75000000  1
  Ni  Ni13  1  0.83307181  0.66616553  0.25000000  1
  Ni  Ni14  1  0.83311127  0.16688873  0.25000000  1
  Ni  Ni15  1  0.33383447  0.16692819  0.25000000  1
  Ni  Ni16  1  0.16687983  0.33373235  0.58606026  1
  Ni  Ni17  1  0.16688529  0.83311471  0.58606176  1
  Ni  Ni18  1  0.66626765  0.83312017  0.58606026  1
  Ni  Ni19  1  0.83312017  0.66626765  0.41393974  1
  Ni  Ni20  1  0.83311471  0.16688529  0.41393824  1
  Ni  Ni21  1  0.33373235  0.16687983  0.41393974  1
  Ni  Ni22  1  0.83312017  0.66626765  0.08606026  1
  Ni  Ni23  1  0.83311471  0.16688529  0.08606176  1
  Ni  Ni24  1  0.33373235  0.16687983  0.08606026  1
  Ni  Ni25  1  0.16687983  0.33373235  0.91393974  1
  Ni  Ni26  1  0.16688529  0.83311471  0.91393824  1
  Ni  Ni27  1  0.66626765  0.83312017  0.91393974  1
  Ni  Ni28  1  0.00001208  -0.00001208  0.66805613  1
  Ni  Ni29  1  -0.00001208  0.00001208  0.33194387  1
  Ni  Ni30  1  -0.00001208  0.00001208  0.16805613  1
  Ni  Ni31  1  0.00001208  -0.00001208  0.83194387  1
  Ni  Ni32  1  0.66667902  0.33332098  0.33240389  1
  Ni  Ni33  1  0.33332098  0.66667902  0.66759611  1
  Ni  Ni34  1  0.33332098  0.66667902  0.83240389  1
  Ni  Ni35  1  0.66667902  0.33332098  0.16759611  1
