# generated using pymatgen
data_MgH4SeO5
_symmetry_space_group_name_H-M   'P 1'
_cell_length_a   6.53747303
_cell_length_b   7.77503095
_cell_length_c   8.97575199
_cell_angle_alpha   90.00000000
_cell_angle_beta   90.00000000
_cell_angle_gamma   99.31314654
_symmetry_Int_Tables_number   1
_chemical_formula_structural   MgH4SeO5
_chemical_formula_sum   'Mg4 H16 Se4 O20'
_cell_volume   450.21526131
_cell_formula_units_Z   4
loop_
 _symmetry_equiv_pos_site_id
 _symmetry_equiv_pos_as_xyz
  1  'x, y, z'
loop_
 _atom_site_type_symbol
 _atom_site_label
 _atom_site_symmetry_multiplicity
 _atom_site_fract_x
 _atom_site_fract_y
 _atom_site_fract_z
 _atom_site_occupancy
  Mg  Mg0  1  0.84498002  0.01295502  0.13854221  1
  Mg  Mg1  1  0.34498002  0.51295502  0.36145779  1
  Mg  Mg2  1  0.15501998  0.98704498  0.86145779  1
  Mg  Mg3  1  0.65501998  0.48704498  0.63854221  1
  H  H4  1  0.06677177  0.14337863  0.36183356  1
  H  H5  1  0.56677177  0.64337863  0.13816644  1
  H  H6  1  0.93322823  0.85662137  0.63816644  1
  H  H7  1  0.43322823  0.35662137  0.86183356  1
  H  H8  1  0.83163899  0.12877045  0.42361490  1
  H  H9  1  0.33163899  0.62877045  0.07638510  1
  H  H10  1  0.16836101  0.87122955  0.57638510  1
  H  H11  1  0.66836101  0.37122955  0.92361490  1
  H  H12  1  0.98559191  0.29600997  0.98698144  1
  H  H13  1  0.48559191  0.79600997  0.51301856  1
  H  H14  1  0.01440809  0.70399003  0.01301856  1
  H  H15  1  0.51440809  0.20399003  0.48698144  1
  H  H16  1  0.93131015  0.37069451  0.14592657  1
  H  H17  1  0.43131015  0.87069451  0.35407343  1
  H  H18  1  0.06868985  0.62930549  0.85407343  1
  H  H19  1  0.56868985  0.12930549  0.64592657  1
  Se  Se20  1  0.60262380  0.83658789  0.84457074  1
  Se  Se21  1  0.10262380  0.33658789  0.65542926  1
  Se  Se22  1  0.39737620  0.16341211  0.15542926  1
  Se  Se23  1  0.89737620  0.66341211  0.34457074  1
  O  O24  1  0.67818054  0.76432409  0.67259050  1
  O  O25  1  0.17818054  0.26432409  0.82740950  1
  O  O26  1  0.32181946  0.23567591  0.32740950  1
  O  O27  1  0.82181946  0.73567591  0.17259050  1
  O  O28  1  0.46456366  0.99879378  0.79525399  1
  O  O29  1  0.96456366  0.49879378  0.70474601  1
  O  O30  1  0.53543634  0.00120622  0.20474601  1
  O  O31  1  0.03543634  0.50120622  0.29525399  1
  O  O32  1  0.83063286  0.95943063  0.91040543  1
  O  O33  1  0.33063286  0.45943063  0.58959457  1
  O  O34  1  0.16936714  0.04056937  0.08959457  1
  O  O35  1  0.66936714  0.54056937  0.41040543  1
  O  O36  1  0.92211452  0.07975777  0.35302916  1
  O  O37  1  0.42211452  0.57975777  0.14697084  1
  O  O38  1  0.07788548  0.92024223  0.64697084  1
  O  O39  1  0.57788548  0.42024223  0.85302916  1
  O  O40  1  0.87546589  0.28822450  0.06382332  1
  O  O41  1  0.37546589  0.78822450  0.43617668  1
  O  O42  1  0.12453411  0.71177550  0.93617668  1
  O  O43  1  0.62453411  0.21177550  0.56382332  1
