# generated using pymatgen
data_KCd(BO2)3
_symmetry_space_group_name_H-M   'P 1'
_cell_length_a   7.29927667
_cell_length_b   7.63747068
_cell_length_c   12.88688901
_cell_angle_alpha   82.22488812
_cell_angle_beta   73.55429529
_cell_angle_gamma   61.45430463
_symmetry_Int_Tables_number   1
_chemical_formula_structural   KCd(BO2)3
_chemical_formula_sum   'K4 Cd4 B12 O24'
_cell_volume   605.26616157
_cell_formula_units_Z   4
loop_
 _symmetry_equiv_pos_site_id
 _symmetry_equiv_pos_as_xyz
  1  'x, y, z'
loop_
 _atom_site_type_symbol
 _atom_site_label
 _atom_site_symmetry_multiplicity
 _atom_site_fract_x
 _atom_site_fract_y
 _atom_site_fract_z
 _atom_site_occupancy
  K  K0  1  0.83345669  0.48402057  0.36886122  1
  K  K1  1  0.68252274  0.48402057  0.13113878  1
  K  K2  1  0.16654331  0.51597943  0.63113878  1
  K  K3  1  0.31747726  0.51597943  0.86886122  1
  Cd  Cd4  1  0.47730197  0.14692520  0.37768565  1
  Cd  Cd5  1  0.37577283  0.14692520  0.12231435  1
  Cd  Cd6  1  0.52269803  0.85307480  0.62231435  1
  Cd  Cd7  1  0.62422717  0.85307480  0.87768565  1
  B  B8  1  0.31480150  0.61327489  0.37414051  1
  B  B9  1  0.07192361  0.61327489  0.12585949  1
  B  B10  1  0.68519850  0.38672511  0.62585949  1
  B  B11  1  0.92807639  0.38672511  0.87414051  1
  B  B12  1  0.18509366  0.97464789  0.34290099  1
  B  B13  1  0.84025845  0.97464789  0.15709901  1
  B  B14  1  0.81490634  0.02535211  0.65709901  1
  B  B15  1  0.15974155  0.02535211  0.84290099  1
  B  B16  1  0.92443451  0.84329483  0.41155804  1
  B  B17  1  0.23227067  0.84329483  0.08844196  1
  B  B18  1  0.07556549  0.15670517  0.58844196  1
  B  B19  1  0.76772933  0.15670517  0.91155804  1
  O  O20  1  0.72116343  0.86960501  0.43925434  1
  O  O21  1  0.40923156  0.86960501  0.06074566  1
  O  O22  1  0.27883657  0.13039499  0.56074566  1
  O  O23  1  0.59076844  0.13039499  0.93925434  1
  O  O24  1  0.35196920  0.77811705  0.33648015  1
  O  O25  1  0.86991375  0.77811705  0.16351985  1
  O  O26  1  0.64803080  0.22188295  0.66351985  1
  O  O27  1  0.13008625  0.22188295  0.83648015  1
  O  O28  1  0.09752900  0.65065555  0.41214413  1
  O  O29  1  0.25181545  0.65065555  0.08785587  1
  O  O30  1  0.90247100  0.34934445  0.58785587  1
  O  O31  1  0.74818455  0.34934445  0.91214413  1
  O  O32  1  0.22426062  0.13183782  0.31545377  1
  O  O33  1  0.64390156  0.13183782  0.18454623  1
  O  O34  1  0.77573938  0.86816218  0.68454623  1
  O  O35  1  0.35609844  0.86816218  0.81545377  1
  O  O36  1  0.97230634  0.00226458  0.37885708  1
  O  O37  1  0.02542907  0.00226458  0.12114292  1
  O  O38  1  0.02769366  0.99773542  0.62114292  1
  O  O39  1  0.97457093  0.99773542  0.87885708  1
  O  O40  1  0.48026929  0.43317456  0.37373531  1
  O  O41  1  0.08655614  0.43317456  0.12626469  1
  O  O42  1  0.51973071  0.56682544  0.62626469  1
  O  O43  1  0.91344386  0.56682544  0.87373531  1
