# generated using pymatgen
data_CsTi8F33
_symmetry_space_group_name_H-M   'P 1'
_cell_length_a   8.93401726
_cell_length_b   8.93398358
_cell_length_c   19.58664601
_cell_angle_alpha   90.00001644
_cell_angle_beta   89.99996713
_cell_angle_gamma   120.00012159
_symmetry_Int_Tables_number   1
_chemical_formula_structural   CsTi8F33
_chemical_formula_sum   'Cs2 Ti16 F66'
_cell_volume   1353.88604234
_cell_formula_units_Z   2
loop_
 _symmetry_equiv_pos_site_id
 _symmetry_equiv_pos_as_xyz
  1  'x, y, z'
loop_
 _atom_site_type_symbol
 _atom_site_label
 _atom_site_symmetry_multiplicity
 _atom_site_fract_x
 _atom_site_fract_y
 _atom_site_fract_z
 _atom_site_occupancy
  Cs  Cs0  1  0.33333042  0.66666997  0.43503223  1
  Cs  Cs1  1  0.66666045  0.33333003  0.93503223  1
  Ti  Ti2  1  0.66666690  0.33333300  0.37235869  1
  Ti  Ti3  1  0.33333390  0.66666700  0.87235869  1
  Ti  Ti4  1  0.66731845  0.99236275  0.25054801  1
  Ti  Ti5  1  0.32504571  0.33268232  0.25054820  1
  Ti  Ti6  1  0.00763678  0.67495407  0.25054808  1
  Ti  Ti7  1  0.67495570  0.00763725  0.75054801  1
  Ti  Ti8  1  0.99236339  0.66731768  0.75054820  1
  Ti  Ti9  1  0.33268272  0.32504593  0.75054808  1
  Ti  Ti10  1  0.33598341  0.99257017  0.62220578  1
  Ti  Ti11  1  0.65658603  0.66401628  0.62220467  1
  Ti  Ti12  1  0.00742831  0.34341075  0.62220488  1
  Ti  Ti13  1  0.34341324  0.00742983  0.12220578  1
  Ti  Ti14  1  0.99256975  0.33598372  0.12220467  1
  Ti  Ti15  1  0.66401756  0.65658925  0.12220488  1
  Ti  Ti16  1  0.99999965  0.99999943  0.50222806  1
  Ti  Ti17  1  0.00000022  0.00000057  0.00222806  1
  F  F18  1  0.72864925  0.19980079  0.30069055  1
  F  F19  1  0.47115178  0.27135007  0.30069059  1
  F  F20  1  0.80019931  0.52884815  0.30069078  1
  F  F21  1  0.52884846  0.80019921  0.80069055  1
  F  F22  1  0.19980171  0.72864993  0.80069059  1
  F  F23  1  0.27135116  0.47115185  0.80069078  1
  F  F24  1  0.53116959  0.06558637  0.18479205  1
  F  F25  1  0.53441675  0.46883100  0.18479269  1
  F  F26  1  0.93441409  0.46558367  0.18479220  1
  F  F27  1  0.46558321  0.93441363  0.68479205  1
  F  F28  1  0.06558574  0.53116900  0.68479269  1
  F  F29  1  0.46883042  0.53441633  0.68479220  1
  F  F30  1  0.86468197  0.13960019  0.19033779  1
  F  F31  1  0.27491794  0.13531822  0.19033846  1
  F  F32  1  0.86040015  0.72508165  0.19033796  1
  F  F33  1  0.72508178  0.86039981  0.69033779  1
  F  F34  1  0.13959972  0.86468178  0.69033846  1
  F  F35  1  0.13531850  0.27491835  0.69033796  1
  F  F36  1  0.19603259  0.06565135  0.57386193  1
  F  F37  1  0.86962028  0.80396785  0.57386187  1
  F  F38  1  0.93434847  0.13038072  0.57386195  1
  F  F39  1  0.13038124  0.93434865  0.07386193  1
  F  F40  1  0.06565242  0.19603215  0.07386187  1
  F  F41  1  0.80396776  0.86961928  0.07386195  1
  F  F42  1  0.61007031  0.80746177  0.18464489  1
  F  F43  1  0.19739015  0.38992785  0.18464466  1
  F  F44  1  0.19253760  0.80260899  0.18464481  1
  F  F45  1  0.80260853  0.19253823  0.68464489  1
  F  F46  1  0.80746230  0.61007215  0.68464466  1
  F  F47  1  0.38992862  0.19739101  0.68464481  1
  F  F48  1  0.46706286  0.87913490  0.29546151  1
  F  F49  1  0.41207261  0.53293899  0.29546139  1
  F  F50  1  0.12086509  0.58792879  0.29546090  1
  F  F51  1  0.58792795  0.12086510  0.79546151  1
  F  F52  1  0.87913361  0.46706101  0.79546139  1
  F  F53  1  0.53293630  0.41207121  0.79546090  1
  F  F54  1  0.52226464  0.11280883  0.57200863  1
  F  F55  1  0.59054423  0.47773490  0.57200865  1
  F  F56  1  0.88719193  0.40945670  0.57200900  1
  F  F57  1  0.40945580  0.88719117  0.07200863  1
  F  F58  1  0.11280933  0.52226510  0.07200865  1
  F  F59  1  0.47773523  0.59054330  0.07200900  1
  F  F60  1  0.86746593  0.40632404  0.41453472  1
  F  F61  1  0.53885940  0.13253411  0.41453501  1
  F  F62  1  0.59367585  0.46113911  0.41453566  1
  F  F63  1  0.46114189  0.59367596  0.91453472  1
  F  F64  1  0.40632529  0.86746589  0.91453501  1
  F  F65  1  0.13253674  0.53886089  0.91453566  1
  F  F66  1  0.24420800  0.79711394  0.57442300  1
  F  F67  1  0.55290377  0.75579140  0.57442204  1
  F  F68  1  0.20288865  0.44709511  0.57442186  1
  F  F69  1  0.44709406  0.20288606  0.07442300  1
  F  F70  1  0.79711236  0.24420860  0.07442204  1
  F  F71  1  0.75579355  0.55290489  0.07442186  1
  F  F72  1  0.78534419  0.92610211  0.30158027  1
  F  F73  1  0.14075801  0.21465584  0.30158075  1
  F  F74  1  0.07389740  0.85924172  0.30158060  1
  F  F75  1  0.85924208  0.07389789  0.80158027  1
  F  F76  1  0.92610216  0.78534416  0.80158075  1
  F  F77  1  0.21465568  0.14075828  0.80158060  1
  F  F78  1  0.12857570  0.20049965  0.45995166  1
  F  F79  1  0.07192367  0.87142420  0.45995130  1
  F  F80  1  0.79950104  0.92807594  0.45995127  1
  F  F81  1  0.92807604  0.79950035  0.95995166  1
  F  F82  1  0.20049947  0.12857580  0.95995130  1
  F  F83  1  0.87142510  0.07192406  0.95995127  1
