# generated using pymatgen
data_LiSn(H2N)3
_symmetry_space_group_name_H-M   'P 1'
_cell_length_a   7.78496349
_cell_length_b   8.80738066
_cell_length_c   9.07988192
_cell_angle_alpha   85.12890319
_cell_angle_beta   90.00000000
_cell_angle_gamma   90.00000000
_symmetry_Int_Tables_number   1
_chemical_formula_structural   LiSn(H2N)3
_chemical_formula_sum   'Li4 Sn4 H24 N12'
_cell_volume   620.31480903
_cell_formula_units_Z   4
loop_
 _symmetry_equiv_pos_site_id
 _symmetry_equiv_pos_as_xyz
  1  'x, y, z'
loop_
 _atom_site_type_symbol
 _atom_site_label
 _atom_site_symmetry_multiplicity
 _atom_site_fract_x
 _atom_site_fract_y
 _atom_site_fract_z
 _atom_site_occupancy
  Li  Li0  1  0.49097491  0.15596006  0.97491633  1
  Li  Li1  1  0.00902509  0.65596006  0.47491633  1
  Li  Li2  1  0.50902509  0.84403994  0.02508367  1
  Li  Li3  1  0.99097491  0.34403994  0.52508367  1
  Sn  Sn4  1  0.33685439  0.53340551  0.28891279  1
  Sn  Sn5  1  0.16314561  0.03340551  0.78891279  1
  Sn  Sn6  1  0.66314561  0.46659449  0.71108721  1
  Sn  Sn7  1  0.83685439  0.96659449  0.21108721  1
  H  H8  1  0.43225015  0.84693894  0.77516576  1
  H  H9  1  0.06774985  0.34693894  0.27516576  1
  H  H10  1  0.56774985  0.15306106  0.22483424  1
  H  H11  1  0.93225015  0.65306106  0.72483424  1
  H  H12  1  0.51287823  0.01429065  0.74374483  1
  H  H13  1  0.98712177  0.51429065  0.24374483  1
  H  H14  1  0.48712177  0.98570935  0.25625517  1
  H  H15  1  0.01287823  0.48570935  0.75625517  1
  H  H16  1  0.30826662  0.62124623  0.00086191  1
  H  H17  1  0.19173338  0.12124623  0.50086191  1
  H  H18  1  0.69173338  0.37875377  0.99913809  1
  H  H19  1  0.80826662  0.87875377  0.49913809  1
  H  H20  1  0.19984171  0.74374792  0.08663768  1
  H  H21  1  0.30015829  0.24374792  0.58663768  1
  H  H22  1  0.80015829  0.25625208  0.91336232  1
  H  H23  1  0.69984171  0.75625208  0.41336232  1
  H  H24  1  0.33747775  0.71134203  0.51449229  1
  H  H25  1  0.16252225  0.21134203  0.01449229  1
  H  H26  1  0.66252225  0.28865797  0.48550771  1
  H  H27  1  0.83747775  0.78865797  0.98550771  1
  H  H28  1  0.27499022  0.81904047  0.36980158  1
  H  H29  1  0.22500978  0.31904047  0.86980158  1
  H  H30  1  0.72500978  0.18095953  0.63019842  1
  H  H31  1  0.77499022  0.68095953  0.13019842  1
  N  N32  1  0.43266838  0.95216166  0.81535332  1
  N  N33  1  0.06733162  0.45216166  0.31535332  1
  N  N34  1  0.56733162  0.04783834  0.18464668  1
  N  N35  1  0.93266838  0.54783834  0.68464668  1
  N  N36  1  0.31526572  0.68775429  0.08823931  1
  N  N37  1  0.18473428  0.18775429  0.58823931  1
  N  N38  1  0.68473428  0.31224571  0.91176069  1
  N  N39  1  0.81526572  0.81224571  0.41176069  1
  N  N40  1  0.25838993  0.71382789  0.42439308  1
  N  N41  1  0.24161007  0.21382789  0.92439308  1
  N  N42  1  0.74161007  0.28617211  0.57560692  1
  N  N43  1  0.75838993  0.78617211  0.07560692  1
