# generated using pymatgen
data_Na3Fe(SO4)3
_symmetry_space_group_name_H-M   'P 1'
_cell_length_a   8.48499630
_cell_length_b   8.48499630
_cell_length_c   8.48499648
_cell_angle_alpha   107.68296521
_cell_angle_beta   107.68296521
_cell_angle_gamma   107.68297099
_symmetry_Int_Tables_number   1
_chemical_formula_structural   Na3Fe(SO4)3
_chemical_formula_sum   'Na6 Fe2 S6 O24'
_cell_volume   498.96404986
_cell_formula_units_Z   2
loop_
 _symmetry_equiv_pos_site_id
 _symmetry_equiv_pos_as_xyz
  1  'x, y, z'
loop_
 _atom_site_type_symbol
 _atom_site_label
 _atom_site_symmetry_multiplicity
 _atom_site_fract_x
 _atom_site_fract_y
 _atom_site_fract_z
 _atom_site_occupancy
  Na  Na0  1  0.14019300  0.61109980  0.76499960  1
  Na  Na1  1  0.61109980  0.76499960  0.14019300  1
  Na  Na2  1  0.76499960  0.14019300  0.61109980  1
  Na  Na3  1  0.85980700  0.38890020  0.23500040  1
  Na  Na4  1  0.38890020  0.23500040  0.85980700  1
  Na  Na5  1  0.23500040  0.85980700  0.38890020  1
  Fe  Fe6  1  -0.00000000  -0.00000000  0.00000000  1
  Fe  Fe7  1  0.50000000  0.50000000  0.50000000  1
  S  S8  1  0.54899042  0.89763965  0.76423358  1
  S  S9  1  0.89763965  0.76423358  0.54899042  1
  S  S10  1  0.76423358  0.54899042  0.89763965  1
  S  S11  1  0.45100958  0.10236035  0.23576642  1
  S  S12  1  0.10236035  0.23576642  0.45100958  1
  S  S13  1  0.23576642  0.45100958  0.10236035  1
  O  O14  1  0.51911084  0.75531378  0.58628928  1
  O  O15  1  0.75531378  0.58628928  0.51911084  1
  O  O16  1  0.58628928  0.51911084  0.75531378  1
  O  O17  1  0.48088916  0.24468622  0.41371072  1
  O  O18  1  0.24468622  0.41371072  0.48088916  1
  O  O19  1  0.41371072  0.48088916  0.24468622  1
  O  O20  1  0.45913553  0.81366542  0.85927190  1
  O  O21  1  0.81366542  0.85927190  0.45913553  1
  O  O22  1  0.85927190  0.45913553  0.81366542  1
  O  O23  1  0.54086447  0.18633458  0.14072810  1
  O  O24  1  0.18633458  0.14072810  0.54086447  1
  O  O25  1  0.14072810  0.54086447  0.18633458  1
  O  O26  1  0.48229979  0.02489206  0.71263722  1
  O  O27  1  0.02489206  0.71263722  0.48229979  1
  O  O28  1  0.71263722  0.48229979  0.02489206  1
  O  O29  1  0.51770021  0.97510794  0.28736278  1
  O  O30  1  0.97510794  0.28736278  0.51770021  1
  O  O31  1  0.28736278  0.51770021  0.97510794  1
  O  O32  1  0.75509772  0.00598878  0.88222363  1
  O  O33  1  0.00598878  0.88222363  0.75509772  1
  O  O34  1  0.88222363  0.75509772  0.00598878  1
  O  O35  1  0.24490228  0.99401122  0.11777637  1
  O  O36  1  0.99401122  0.11777637  0.24490228  1
  O  O37  1  0.11777637  0.24490228  0.99401122  1
