# generated using pymatgen
data_CsWF7
_symmetry_space_group_name_H-M   'P 1'
_cell_length_a   10.87687214
_cell_length_b   10.87687214
_cell_length_c   10.87687214
_cell_angle_alpha   90.00000000
_cell_angle_beta   90.00000000
_cell_angle_gamma   90.00000000
_symmetry_Int_Tables_number   1
_chemical_formula_structural   CsWF7
_chemical_formula_sum   'Cs8 W8 F56'
_cell_volume   1286.80301565
_cell_formula_units_Z   8
loop_
 _symmetry_equiv_pos_site_id
 _symmetry_equiv_pos_as_xyz
  1  'x, y, z'
loop_
 _atom_site_type_symbol
 _atom_site_label
 _atom_site_symmetry_multiplicity
 _atom_site_fract_x
 _atom_site_fract_y
 _atom_site_fract_z
 _atom_site_occupancy
  Cs  Cs0  1  -0.00000000  0.00000000  0.00000000  1
  Cs  Cs1  1  -0.00000000  0.50000000  0.50000000  1
  Cs  Cs2  1  0.50000000  0.00000000  0.50000000  1
  Cs  Cs3  1  0.50000000  0.50000000  0.00000000  1
  Cs  Cs4  1  0.50000000  0.00000000  0.00000000  1
  Cs  Cs5  1  0.50000000  0.50000000  0.50000000  1
  Cs  Cs6  1  -0.00000000  0.00000000  0.50000000  1
  Cs  Cs7  1  -0.00000000  0.50000000  0.00000000  1
  W  W8  1  0.27634976  0.72365024  0.22365024  1
  W  W9  1  0.72365024  0.22365024  0.27634976  1
  W  W10  1  0.22365024  0.27634976  0.72365024  1
  W  W11  1  0.77634976  0.77634976  0.77634976  1
  W  W12  1  0.72365024  0.27634976  0.77634976  1
  W  W13  1  0.27634976  0.77634976  0.72365024  1
  W  W14  1  0.77634976  0.72365024  0.27634976  1
  W  W15  1  0.22365024  0.22365024  0.22365024  1
  F  F16  1  0.17346973  0.82653027  0.32653027  1
  F  F17  1  0.82653027  0.32653027  0.17346973  1
  F  F18  1  0.32653027  0.17346973  0.82653027  1
  F  F19  1  0.67346973  0.67346973  0.67346973  1
  F  F20  1  0.82653027  0.17346973  0.67346973  1
  F  F21  1  0.17346973  0.67346973  0.82653027  1
  F  F22  1  0.67346973  0.82653027  0.17346973  1
  F  F23  1  0.32653027  0.32653027  0.32653027  1
  F  F24  1  0.42892624  0.63553710  0.25785633  1
  F  F25  1  0.57107376  0.13553710  0.24214367  1
  F  F26  1  0.07107376  0.36446290  0.75785633  1
  F  F27  1  0.92892624  0.86446290  0.74214367  1
  F  F28  1  0.25785633  0.42892624  0.63553710  1
  F  F29  1  0.24214367  0.57107376  0.13553710  1
  F  F30  1  0.75785633  0.07107376  0.36446290  1
  F  F31  1  0.74214367  0.92892624  0.86446290  1
  F  F32  1  0.63553710  0.25785633  0.42892624  1
  F  F33  1  0.13553710  0.24214367  0.57107376  1
  F  F34  1  0.36446290  0.75785633  0.07107376  1
  F  F35  1  0.86446290  0.74214367  0.92892624  1
  F  F36  1  0.57107376  0.36446290  0.74214367  1
  F  F37  1  0.42892624  0.86446290  0.75785633  1
  F  F38  1  0.92892624  0.63553710  0.24214367  1
  F  F39  1  0.07107376  0.13553710  0.25785633  1
  F  F40  1  0.74214367  0.57107376  0.36446290  1
  F  F41  1  0.75785633  0.42892624  0.86446290  1
  F  F42  1  0.24214367  0.92892624  0.63553710  1
  F  F43  1  0.25785633  0.07107376  0.13553710  1
  F  F44  1  0.36446290  0.74214367  0.57107376  1
  F  F45  1  0.86446290  0.75785633  0.42892624  1
  F  F46  1  0.63553710  0.24214367  0.92892624  1
  F  F47  1  0.13553710  0.25785633  0.07107376  1
  F  F48  1  0.14345833  0.77291899  0.11728573  1
  F  F49  1  0.85654167  0.27291899  0.38271427  1
  F  F50  1  0.35654167  0.22708101  0.61728573  1
  F  F51  1  0.64345833  0.72708101  0.88271427  1
  F  F52  1  0.11728573  0.14345833  0.77291899  1
  F  F53  1  0.38271427  0.85654167  0.27291899  1
  F  F54  1  0.61728573  0.35654167  0.22708101  1
  F  F55  1  0.88271427  0.64345833  0.72708101  1
  F  F56  1  0.77291899  0.11728573  0.14345833  1
  F  F57  1  0.27291899  0.38271427  0.85654167  1
  F  F58  1  0.22708101  0.61728573  0.35654167  1
  F  F59  1  0.72708101  0.88271427  0.64345833  1
  F  F60  1  0.85654167  0.22708101  0.88271427  1
  F  F61  1  0.14345833  0.72708101  0.61728573  1
  F  F62  1  0.64345833  0.77291899  0.38271427  1
  F  F63  1  0.35654167  0.27291899  0.11728573  1
  F  F64  1  0.88271427  0.85654167  0.22708101  1
  F  F65  1  0.61728573  0.14345833  0.72708101  1
  F  F66  1  0.38271427  0.64345833  0.77291899  1
  F  F67  1  0.11728573  0.35654167  0.27291899  1
  F  F68  1  0.22708101  0.88271427  0.85654167  1
  F  F69  1  0.72708101  0.61728573  0.14345833  1
  F  F70  1  0.77291899  0.38271427  0.64345833  1
  F  F71  1  0.27291899  0.11728573  0.35654167  1
