# generated using pymatgen
data_Ce5Mg
_symmetry_space_group_name_H-M   'P 1'
_cell_length_a   5.83969896
_cell_length_b   5.83969956
_cell_length_c   16.57343256
_cell_angle_alpha   90.00000000
_cell_angle_beta   90.00000000
_cell_angle_gamma   119.99999661
_symmetry_Int_Tables_number   1
_chemical_formula_structural   Ce5Mg
_chemical_formula_sum   'Ce15 Mg3'
_cell_volume   489.46774228
_cell_formula_units_Z   3
loop_
 _symmetry_equiv_pos_site_id
 _symmetry_equiv_pos_as_xyz
  1  'x, y, z'
loop_
 _atom_site_type_symbol
 _atom_site_label
 _atom_site_symmetry_multiplicity
 _atom_site_fract_x
 _atom_site_fract_y
 _atom_site_fract_z
 _atom_site_occupancy
  Ce  Ce0  1  0.67154546  0.67154546  -0.00000000  1
  Ce  Ce1  1  0.00000000  0.00000000  0.16756187  1
  Ce  Ce2  1  0.00000000  0.32845454  -0.00000000  1
  Ce  Ce3  1  0.32845454  0.00000000  -0.00000000  1
  Ce  Ce4  1  0.66666700  0.33333300  0.16577213  1
  Ce  Ce5  1  0.33821146  0.00487846  0.33333300  1
  Ce  Ce6  1  0.66666700  0.33333300  0.50089487  1
  Ce  Ce7  1  0.66666700  0.66178854  0.33333300  1
  Ce  Ce8  1  0.99512154  0.33333300  0.33333300  1
  Ce  Ce9  1  0.33333300  0.66666700  0.49910513  1
  Ce  Ce10  1  0.00487846  0.33821146  0.66666700  1
  Ce  Ce11  1  0.33333300  0.66666700  0.83422787  1
  Ce  Ce12  1  0.33333300  0.99512154  0.66666700  1
  Ce  Ce13  1  0.66178854  0.66666700  0.66666700  1
  Ce  Ce14  1  0.00000000  0.00000000  0.83243813  1
  Mg  Mg15  1  0.33333300  0.66666700  0.16666700  1
  Mg  Mg16  1  0.00000000  0.00000000  0.50000000  1
  Mg  Mg17  1  0.66666700  0.33333300  0.83333300  1
