# generated using pymatgen
data_FeBi(SeO3)3
_symmetry_space_group_name_H-M   'P 1'
_cell_length_a   7.74751791
_cell_length_b   8.88265241
_cell_length_c   12.93207921
_cell_angle_alpha   90.00000000
_cell_angle_beta   90.00000000
_cell_angle_gamma   90.00000000
_symmetry_Int_Tables_number   1
_chemical_formula_structural   FeBi(SeO3)3
_chemical_formula_sum   'Fe4 Bi4 Se12 O36'
_cell_volume   889.96640478
_cell_formula_units_Z   4
loop_
 _symmetry_equiv_pos_site_id
 _symmetry_equiv_pos_as_xyz
  1  'x, y, z'
loop_
 _atom_site_type_symbol
 _atom_site_label
 _atom_site_symmetry_multiplicity
 _atom_site_fract_x
 _atom_site_fract_y
 _atom_site_fract_z
 _atom_site_occupancy
  Fe  Fe0  1  0.75209443  0.27813307  0.32946095  1
  Fe  Fe1  1  0.74790557  0.72186693  0.82946095  1
  Fe  Fe2  1  0.25209443  0.22186693  0.67053905  1
  Fe  Fe3  1  0.24790557  0.77813307  0.17053905  1
  Bi  Bi4  1  0.78395177  0.70923813  0.52775679  1
  Bi  Bi5  1  0.71604823  0.29076187  0.02775679  1
  Bi  Bi6  1  0.28395177  0.79076187  0.47224321  1
  Bi  Bi7  1  0.21604823  0.20923813  0.97224321  1
  Se  Se8  1  0.43646207  0.54966091  0.67613089  1
  Se  Se9  1  0.06353793  0.45033909  0.17613089  1
  Se  Se10  1  0.93646207  0.95033909  0.32386911  1
  Se  Se11  1  0.56353793  0.04966091  0.82386911  1
  Se  Se12  1  0.57367281  0.59954934  0.27666906  1
  Se  Se13  1  0.92632719  0.40045066  0.77666906  1
  Se  Se14  1  0.07367281  0.90045066  0.72333094  1
  Se  Se15  1  0.42632719  0.09954934  0.22333094  1
  Se  Se16  1  0.59067908  0.09112802  0.54379346  1
  Se  Se17  1  0.90932092  0.90887198  0.04379346  1
  Se  Se18  1  0.09067908  0.40887198  0.45620654  1
  Se  Se19  1  0.40932092  0.59112802  0.95620654  1
  O  O20  1  0.46293005  0.35846579  0.66970959  1
  O  O21  1  0.03706995  0.64153421  0.16970959  1
  O  O22  1  0.96293005  0.14153421  0.33029041  1
  O  O23  1  0.53706995  0.85846579  0.83029041  1
  O  O24  1  0.64624325  0.59900074  0.71010428  1
  O  O25  1  0.85375675  0.40099926  0.21010428  1
  O  O26  1  0.14624325  0.90099926  0.28989572  1
  O  O27  1  0.35375675  0.09900074  0.78989572  1
  O  O28  1  0.45556409  0.60405803  0.54528480  1
  O  O29  1  0.04443591  0.39594197  0.04528480  1
  O  O30  1  0.95556409  0.89594197  0.45471520  1
  O  O31  1  0.54443591  0.10405803  0.95471520  1
  O  O32  1  0.67860307  0.71065140  0.36699200  1
  O  O33  1  0.82139693  0.28934860  0.86699200  1
  O  O34  1  0.17860307  0.78934860  0.63300800  1
  O  O35  1  0.32139693  0.21065140  0.13300800  1
  O  O36  1  0.36224773  0.66508299  0.29630956  1
  O  O37  1  0.13775227  0.33491701  0.79630956  1
  O  O38  1  0.86224773  0.83491701  0.70369044  1
  O  O39  1  0.63775227  0.16508299  0.20369044  1
  O  O40  1  0.55659629  0.42571937  0.33453235  1
  O  O41  1  0.94340371  0.57428063  0.83453235  1
  O  O42  1  0.05659629  0.07428063  0.66546765  1
  O  O43  1  0.44340371  0.92571937  0.16546765  1
  O  O44  1  0.58348614  0.89335284  0.54212733  1
  O  O45  1  0.91651386  0.10664716  0.04212733  1
  O  O46  1  0.08348614  0.60664716  0.45787267  1
  O  O47  1  0.41651386  0.39335284  0.95787267  1
  O  O48  1  0.36887713  0.10809191  0.55294555  1
  O  O49  1  0.13112287  0.89190809  0.05294555  1
  O  O50  1  0.86887713  0.39190809  0.44705445  1
  O  O51  1  0.63112287  0.60809191  0.94705445  1
  O  O52  1  0.62264128  0.12667529  0.41517123  1
  O  O53  1  0.87735872  0.87332471  0.91517123  1
  O  O54  1  0.12264128  0.37332471  0.58482877  1
  O  O55  1  0.37735872  0.62667529  0.08482877  1
