# generated using pymatgen
data_Er6H40N8O49
_symmetry_space_group_name_H-M   'P 1'
_cell_length_a   10.25572528
_cell_length_b   10.19935099
_cell_length_c   11.40722903
_cell_angle_alpha   108.84264029
_cell_angle_beta   95.42321774
_cell_angle_gamma   111.33018015
_symmetry_Int_Tables_number   1
_chemical_formula_structural   Er6H40N8O49
_chemical_formula_sum   'Er6 H40 N8 O49'
_cell_volume   1021.04965825
_cell_formula_units_Z   1
loop_
 _symmetry_equiv_pos_site_id
 _symmetry_equiv_pos_as_xyz
  1  'x, y, z'
loop_
 _atom_site_type_symbol
 _atom_site_label
 _atom_site_symmetry_multiplicity
 _atom_site_fract_x
 _atom_site_fract_y
 _atom_site_fract_z
 _atom_site_occupancy
  Er  Er0  1  0.52364937  0.26411224  0.38412427  1
  Er  Er1  1  0.47635063  0.73588776  0.61587573  1
  Er  Er2  1  0.24129063  0.34831454  0.47820456  1
  Er  Er3  1  0.75870937  0.65168546  0.52179544  1
  Er  Er4  1  0.43377330  0.51861629  0.29312602  1
  Er  Er5  1  0.56622670  0.48138371  0.70687398  1
  H  H6  1  0.26084127  0.19327891  0.21180786  1
  H  H7  1  0.73915873  0.80672109  0.78819214  1
  H  H8  1  0.35394565  0.15745911  0.55322859  1
  H  H9  1  0.64605435  0.84254089  0.44677141  1
  H  H10  1  0.21244815  0.59004501  0.40928001  1
  H  H11  1  0.78755185  0.40995499  0.59071999  1
  H  H12  1  0.67651083  0.44591524  0.24634372  1
  H  H13  1  0.32348917  0.55408476  0.75365628  1
  H  H14  1  0.45672033  0.03423113  0.13032276  1
  H  H15  1  0.54327967  0.96576887  0.86967724  1
  H  H16  1  0.59955092  0.16530885  0.12668622  1
  H  H17  1  0.40044908  0.83469115  0.87331378  1
  H  H18  1  0.24215752  0.99127630  0.29963671  1
  H  H19  1  0.75784248  0.00872370  0.70036329  1
  H  H20  1  0.35216925  0.91281848  0.29451194  1
  H  H21  1  0.64783075  0.08718152  0.70548806  1
  H  H22  1  0.01720348  0.04464942  0.30866992  1
  H  H23  1  0.98279652  0.95535058  0.69133008  1
  H  H24  1  0.06083303  0.98304541  0.40660554  1
  H  H25  1  0.93916697  0.01695459  0.59339446  1
  H  H26  1  0.93858741  0.26226479  0.31257627  1
  H  H27  1  0.06141259  0.73773521  0.68742373  1
  H  H28  1  0.06259751  0.31812882  0.24119013  1
  H  H29  1  0.93740249  0.68187118  0.75880987  1
  H  H30  1  0.16030307  0.51212565  0.14198306  1
  H  H31  1  0.83969693  0.48787435  0.85801694  1
  H  H32  1  0.16112861  0.35471642  0.06661485  1
  H  H33  1  0.83887139  0.64528358  0.93338515  1
  H  H34  1  0.42095931  0.35624753  0.00466887  1
  H  H35  1  0.57904069  0.64375247  0.99533113  1
  H  H36  1  0.41885127  0.25164341  0.08081266  1
  H  H37  1  0.58114873  0.74835659  0.91918734  1
  H  H38  1  0.00583728  0.26965090  0.88919818  1
  H  H39  1  0.99416272  0.73034910  0.11080182  1
  H  H40  1  0.14369755  0.25825017  0.85027599  1
  H  H41  1  0.85630245  0.74174983  0.14972401  1
  H  H42  1  0.19848442  0.97287427  0.01305709  1
  H  H43  1  0.80151558  0.02712573  0.98694291  1
  H  H44  1  0.06957948  0.96170981  0.07399037  1
  H  H45  1  0.93042052  0.03829019  0.92600963  1
  N  N46  1  0.72054836  0.11078752  0.39834618  1
  N  N47  1  0.27945164  0.88921248  0.60165382  1
  N  N48  1  0.02163451  0.32054718  0.62812257  1
  N  N49  1  0.97836549  0.67945282  0.37187743  1
  N  N50  1  0.49577164  0.75553943  0.18454599  1
  N  N51  1  0.50422836  0.24446057  0.81545401  1
  N  N52  1  0.78444021  0.32321946  0.04111463  1
  N  N53  1  0.21555979  0.67678054  0.95888537  1
  O  O54  1  0.50000000  0.50000000  0.50000000  1
  O  O55  1  0.32118635  0.27968459  0.29381571  1
  O  O56  1  0.67881365  0.72031541  0.70618429  1
  O  O57  1  0.39529824  0.25452014  0.54264291  1
  O  O58  1  0.60470176  0.74547986  0.45735709  1
  O  O59  1  0.29226822  0.56649960  0.43439432  1
  O  O60  1  0.70773178  0.43350040  0.56560568  1
  O  O61  1  0.63308903  0.46392656  0.32023043  1
  O  O62  1  0.36691097  0.53607344  0.67976957  1
  O  O63  1  0.50654247  0.14466090  0.15466073  1
  O  O64  1  0.49345753  0.85533910  0.84533927  1
  O  O65  1  0.34083858  0.00441612  0.29404886  1
  O  O66  1  0.65916142  0.99558388  0.70595114  1
  O  O67  1  0.10053948  0.05824466  0.36861700  1
  O  O68  1  0.89946052  0.94175534  0.63138300  1
  O  O69  1  0.03501855  0.26853644  0.30196728  1
  O  O70  1  0.96498145  0.73146356  0.69803272  1
  O  O71  1  0.18362144  0.43192478  0.15539410  1
  O  O72  1  0.81637856  0.56807522  0.84460590  1
  O  O73  1  0.40371380  0.34242045  0.08416999  1
  O  O74  1  0.59628620  0.65757955  0.91583001  1
  O  O75  1  0.07896947  0.23246901  0.90491022  1
  O  O76  1  0.92103053  0.76753099  0.09508978  1
  O  O77  1  0.15675069  0.03674254  0.06544630  1
  O  O78  1  0.84324931  0.96325746  0.93455370  1
  O  O79  1  0.60889639  0.09103597  0.44353757  1
  O  O80  1  0.39110361  0.90896403  0.55646243  1
  O  O81  1  0.75540451  0.21152396  0.34902237  1
  O  O82  1  0.24459549  0.78847604  0.65097763  1
  O  O83  1  0.79146034  0.03451829  0.40183746  1
  O  O84  1  0.20853966  0.96548171  0.59816254  1
  O  O85  1  0.05068582  0.41137791  0.56980428  1
  O  O86  1  0.94931418  0.58862209  0.43019572  1
  O  O87  1  0.09672484  0.24160870  0.62140958  1
  O  O88  1  0.90327516  0.75839130  0.37859042  1
  O  O89  1  0.92489794  0.30707255  0.68745373  1
  O  O90  1  0.07510206  0.69292745  0.31254627  1
  O  O91  1  0.54912981  0.65563042  0.15860085  1
  O  O92  1  0.45087019  0.34436958  0.84139915  1
  O  O93  1  0.40924190  0.74448291  0.25797609  1
  O  O94  1  0.59075810  0.25551709  0.74202391  1
  O  O95  1  0.52794048  0.85593445  0.13986695  1
  O  O96  1  0.47205952  0.14406555  0.86013305  1
  O  O97  1  0.74574848  0.42668925  0.09750769  1
  O  O98  1  0.25425152  0.57331075  0.90249231  1
  O  O99  1  0.85432237  0.33491520  0.95722138  1
  O  O100  1  0.14567763  0.66508480  0.04277862  1
  O  O101  1  0.75090315  0.20457463  0.06959337  1
  O  O102  1  0.24909685  0.79542537  0.93040663  1
