# generated using pymatgen
data_Ce2Te7Br2O17
_symmetry_space_group_name_H-M   'P 1'
_cell_length_a   5.50694514
_cell_length_b   9.93575170
_cell_length_c   19.37718704
_cell_angle_alpha   97.32039949
_cell_angle_beta   90.00000000
_cell_angle_gamma   90.00000000
_symmetry_Int_Tables_number   1
_chemical_formula_structural   Ce2Te7Br2O17
_chemical_formula_sum   'Ce4 Te14 Br4 O34'
_cell_volume   1051.59335212
_cell_formula_units_Z   2
loop_
 _symmetry_equiv_pos_site_id
 _symmetry_equiv_pos_as_xyz
  1  'x, y, z'
loop_
 _atom_site_type_symbol
 _atom_site_label
 _atom_site_symmetry_multiplicity
 _atom_site_fract_x
 _atom_site_fract_y
 _atom_site_fract_z
 _atom_site_occupancy
  Ce  Ce0  1  0.13535996  0.59607959  0.09154017  1
  Ce  Ce1  1  0.86464004  0.40392041  0.90845983  1
  Ce  Ce2  1  0.13535996  0.90392041  0.40845983  1
  Ce  Ce3  1  0.86464004  0.09607959  0.59154017  1
  Te  Te4  1  0.60354286  0.87485745  0.08944518  1
  Te  Te5  1  0.39645714  0.12514255  0.91055482  1
  Te  Te6  1  0.60354286  0.62514255  0.41055482  1
  Te  Te7  1  0.39645714  0.37485745  0.58944518  1
  Te  Te8  1  0.44020364  0.75000000  0.25000000  1
  Te  Te9  1  0.55979636  0.25000000  0.75000000  1
  Te  Te10  1  0.32581998  0.68352689  0.92032825  1
  Te  Te11  1  0.67418002  0.31647311  0.07967175  1
  Te  Te12  1  0.32581998  0.81647311  0.57967175  1
  Te  Te13  1  0.67418002  0.18352689  0.42032825  1
  Te  Te14  1  0.98209628  0.43013970  0.25615709  1
  Te  Te15  1  0.01790372  0.56986030  0.74384291  1
  Te  Te16  1  0.98209628  0.06986030  0.24384291  1
  Te  Te17  1  0.01790372  0.93013970  0.75615709  1
  Br  Br18  1  0.16695634  0.10913526  0.07898928  1
  Br  Br19  1  0.83304366  0.89086474  0.92101072  1
  Br  Br20  1  0.16695634  0.39086474  0.42101072  1
  Br  Br21  1  0.83304366  0.60913526  0.57898928  1
  O  O22  1  0.36438787  0.80713574  0.15018995  1
  O  O23  1  0.63561213  0.19286426  0.84981005  1
  O  O24  1  0.36438787  0.69286426  0.34981005  1
  O  O25  1  0.63561213  0.30713574  0.65018995  1
  O  O26  1  0.57123023  0.54880125  0.91112147  1
  O  O27  1  0.42876977  0.45119875  0.08887853  1
  O  O28  1  0.57123023  0.95119875  0.58887853  1
  O  O29  1  0.42876977  0.04880125  0.41112147  1
  O  O30  1  0.87857242  0.45048652  0.16291366  1
  O  O31  1  0.12142758  0.54951348  0.83708634  1
  O  O32  1  0.87857242  0.04951348  0.33708634  1
  O  O33  1  0.12142758  0.95048652  0.66291366  1
  O  O34  1  0.40410594  0.74576930  0.02262561  1
  O  O35  1  0.59589406  0.25423070  0.97737439  1
  O  O36  1  0.40410594  0.75423070  0.47737439  1
  O  O37  1  0.59589406  0.24576930  0.52262561  1
  O  O38  1  0.83784446  0.73949013  0.09950101  1
  O  O39  1  0.16215554  0.26050987  0.90049899  1
  O  O40  1  0.83784446  0.76050987  0.40049899  1
  O  O41  1  0.16215554  0.23949013  0.59950101  1
  O  O42  1  0.09911987  0.58161653  0.96762860  1
  O  O43  1  0.90088013  0.41838347  0.03237140  1
  O  O44  1  0.09911987  0.91838347  0.53237140  1
  O  O45  1  0.90088013  0.08161653  0.46762860  1
  O  O46  1  0.21077405  0.61524472  0.21402506  1
  O  O47  1  0.78922595  0.38475528  0.78597494  1
  O  O48  1  0.21077405  0.88475528  0.28597494  1
  O  O49  1  0.78922595  0.11524472  0.71402506  1
  O  O50  1  0.81082733  0.25000000  0.25000000  1
  O  O51  1  0.18917267  0.75000000  0.75000000  1
  O  O52  1  0.72259688  0.52659900  0.30206789  1
  O  O53  1  0.27740312  0.47340100  0.69793211  1
  O  O54  1  0.72259688  0.97340100  0.19793211  1
  O  O55  1  0.27740312  0.02659900  0.80206789  1
