# generated using pymatgen
data_Tb2ZrS5
_symmetry_space_group_name_H-M   'P 1'
_cell_length_a   7.28405505
_cell_length_b   7.79344024
_cell_length_c   11.63518929
_cell_angle_alpha   90.00000000
_cell_angle_beta   90.00000000
_cell_angle_gamma   90.00000000
_symmetry_Int_Tables_number   1
_chemical_formula_structural   Tb2ZrS5
_chemical_formula_sum   'Tb8 Zr4 S20'
_cell_volume   660.50465401
_cell_formula_units_Z   4
loop_
 _symmetry_equiv_pos_site_id
 _symmetry_equiv_pos_as_xyz
  1  'x, y, z'
loop_
 _atom_site_type_symbol
 _atom_site_label
 _atom_site_symmetry_multiplicity
 _atom_site_fract_x
 _atom_site_fract_y
 _atom_site_fract_z
 _atom_site_occupancy
  Tb  Tb0  1  0.97573302  0.00198735  0.17837702  1
  Tb  Tb1  1  0.52426698  0.49801265  0.67837702  1
  Tb  Tb2  1  0.02426698  0.50198735  0.82162298  1
  Tb  Tb3  1  0.47573302  0.99801265  0.32162298  1
  Tb  Tb4  1  0.02426698  0.99801265  0.82162298  1
  Tb  Tb5  1  0.47573302  0.50198735  0.32162298  1
  Tb  Tb6  1  0.97573302  0.49801265  0.17837702  1
  Tb  Tb7  1  0.52426698  0.00198735  0.67837702  1
  Zr  Zr8  1  0.42242862  0.75000000  0.00667762  1
  Zr  Zr9  1  0.07757138  0.75000000  0.50667762  1
  Zr  Zr10  1  0.57757138  0.25000000  0.99332238  1
  Zr  Zr11  1  0.92242862  0.25000000  0.49332238  1
  S  S12  1  0.66148645  0.53695777  0.90558550  1
  S  S13  1  0.83851355  0.96304223  0.40558550  1
  S  S14  1  0.33851355  0.03695777  0.09441450  1
  S  S15  1  0.16148645  0.46304223  0.59441450  1
  S  S16  1  0.33851355  0.46304223  0.09441450  1
  S  S17  1  0.16148645  0.03695777  0.59441450  1
  S  S18  1  0.66148645  0.96304223  0.90558550  1
  S  S19  1  0.83851355  0.53695777  0.40558550  1
  S  S20  1  0.66806947  0.75000000  0.18242275  1
  S  S21  1  0.83193053  0.75000000  0.68242275  1
  S  S22  1  0.33193053  0.25000000  0.81757725  1
  S  S23  1  0.16806947  0.25000000  0.31757725  1
  S  S24  1  0.05159387  0.75000000  0.00247201  1
  S  S25  1  0.44840613  0.75000000  0.50247201  1
  S  S26  1  0.94840613  0.25000000  0.99752799  1
  S  S27  1  0.55159387  0.25000000  0.49752799  1
  S  S28  1  0.31051878  0.75000000  0.79193052  1
  S  S29  1  0.18948122  0.75000000  0.29193052  1
  S  S30  1  0.68948122  0.25000000  0.20806948  1
  S  S31  1  0.81051878  0.25000000  0.70806948  1
