# generated using pymatgen
data_TmNiSn2
_symmetry_space_group_name_H-M   'P 1'
_cell_length_a   4.40655910
_cell_length_b   14.53575079
_cell_length_c   16.05787372
_cell_angle_alpha   90.00000000
_cell_angle_beta   90.00000000
_cell_angle_gamma   90.00000000
_symmetry_Int_Tables_number   1
_chemical_formula_structural   TmNiSn2
_chemical_formula_sum   'Tm12 Ni12 Sn24'
_cell_volume   1028.54928354
_cell_formula_units_Z   12
loop_
 _symmetry_equiv_pos_site_id
 _symmetry_equiv_pos_as_xyz
  1  'x, y, z'
loop_
 _atom_site_type_symbol
 _atom_site_label
 _atom_site_symmetry_multiplicity
 _atom_site_fract_x
 _atom_site_fract_y
 _atom_site_fract_z
 _atom_site_occupancy
  Tm  Tm0  1  0.25000000  0.97359718  0.34820955  1
  Tm  Tm1  1  0.25000000  0.52640282  0.84820955  1
  Tm  Tm2  1  0.75000000  0.02640282  0.65179045  1
  Tm  Tm3  1  0.75000000  0.47359718  0.15179045  1
  Tm  Tm4  1  0.25000000  0.27486938  0.87396413  1
  Tm  Tm5  1  0.25000000  0.22513062  0.37396413  1
  Tm  Tm6  1  0.75000000  0.72513062  0.12603587  1
  Tm  Tm7  1  0.75000000  0.77486938  0.62603587  1
  Tm  Tm8  1  0.25000000  0.39831578  0.64631814  1
  Tm  Tm9  1  0.25000000  0.10168422  0.14631814  1
  Tm  Tm10  1  0.75000000  0.60168422  0.35368186  1
  Tm  Tm11  1  0.75000000  0.89831578  0.85368186  1
  Ni  Ni12  1  0.25000000  0.60761303  0.05338436  1
  Ni  Ni13  1  0.25000000  0.89238697  0.55338436  1
  Ni  Ni14  1  0.75000000  0.39238697  0.94661564  1
  Ni  Ni15  1  0.75000000  0.10761303  0.44661564  1
  Ni  Ni16  1  0.25000000  0.74461302  0.30758530  1
  Ni  Ni17  1  0.25000000  0.75538698  0.80758530  1
  Ni  Ni18  1  0.75000000  0.25538698  0.69241470  1
  Ni  Ni19  1  0.75000000  0.24461302  0.19241470  1
  Ni  Ni20  1  0.25000000  0.04568697  0.79975927  1
  Ni  Ni21  1  0.25000000  0.45431303  0.29975927  1
  Ni  Ni22  1  0.75000000  0.95431303  0.20024073  1
  Ni  Ni23  1  0.75000000  0.54568697  0.70024073  1
  Sn  Sn24  1  0.25000000  0.17743022  0.68332680  1
  Sn  Sn25  1  0.25000000  0.32256978  0.18332680  1
  Sn  Sn26  1  0.75000000  0.82256978  0.31667320  1
  Sn  Sn27  1  0.75000000  0.67743022  0.81667320  1
  Sn  Sn28  1  0.25000000  0.05298869  0.95745744  1
  Sn  Sn29  1  0.25000000  0.44701131  0.45745744  1
  Sn  Sn30  1  0.75000000  0.94701131  0.04254256  1
  Sn  Sn31  1  0.75000000  0.55298869  0.54254256  1
  Sn  Sn32  1  0.25000000  0.07742479  0.52024227  1
  Sn  Sn33  1  0.25000000  0.42257521  0.02024227  1
  Sn  Sn34  1  0.75000000  0.92257521  0.47975773  1
  Sn  Sn35  1  0.75000000  0.57742479  0.97975773  1
  Sn  Sn36  1  0.25000000  0.60472803  0.21496963  1
  Sn  Sn37  1  0.25000000  0.89527197  0.71496963  1
  Sn  Sn38  1  0.75000000  0.39527197  0.78503037  1
  Sn  Sn39  1  0.75000000  0.10472803  0.28503037  1
  Sn  Sn40  1  0.25000000  0.73448393  0.46929060  1
  Sn  Sn41  1  0.25000000  0.76551607  0.96929060  1
  Sn  Sn42  1  0.75000000  0.26551607  0.53070940  1
  Sn  Sn43  1  0.75000000  0.23448393  0.03070940  1
  Sn  Sn44  1  0.25000000  0.86782616  0.17528514  1
  Sn  Sn45  1  0.25000000  0.63217384  0.67528514  1
  Sn  Sn46  1  0.75000000  0.13217384  0.82471486  1
  Sn  Sn47  1  0.75000000  0.36782616  0.32471486  1
