# generated using pymatgen
data_La2HfSe5
_symmetry_space_group_name_H-M   'P 1'
_cell_length_a   7.84286492
_cell_length_b   8.45702919
_cell_length_c   12.31580228
_cell_angle_alpha   90.00000000
_cell_angle_beta   90.00000000
_cell_angle_gamma   90.00000000
_symmetry_Int_Tables_number   1
_chemical_formula_structural   La2HfSe5
_chemical_formula_sum   'La8 Hf4 Se20'
_cell_volume   816.87437517
_cell_formula_units_Z   4
loop_
 _symmetry_equiv_pos_site_id
 _symmetry_equiv_pos_as_xyz
  1  'x, y, z'
loop_
 _atom_site_type_symbol
 _atom_site_label
 _atom_site_symmetry_multiplicity
 _atom_site_fract_x
 _atom_site_fract_y
 _atom_site_fract_z
 _atom_site_occupancy
  La  La0  1  0.46954795  0.99798087  0.67736071  1
  La  La1  1  0.03045205  0.50201913  0.17736071  1
  La  La2  1  0.53045205  0.49798087  0.32263929  1
  La  La3  1  0.96954795  0.00201913  0.82263929  1
  La  La4  1  0.53045205  0.00201913  0.32263929  1
  La  La5  1  0.96954795  0.49798087  0.82263929  1
  La  La6  1  0.46954795  0.50201913  0.67736071  1
  La  La7  1  0.03045205  0.99798087  0.17736071  1
  Hf  Hf8  1  0.92430428  0.25000000  0.50688374  1
  Hf  Hf9  1  0.57569572  0.25000000  0.00688374  1
  Hf  Hf10  1  0.07569572  0.75000000  0.49311626  1
  Hf  Hf11  1  0.42430428  0.75000000  0.99311626  1
  Se  Se12  1  0.33760080  0.03608467  0.91586533  1
  Se  Se13  1  0.16239920  0.46391533  0.41586533  1
  Se  Se14  1  0.66239920  0.53608467  0.08413467  1
  Se  Se15  1  0.83760080  0.96391533  0.58413467  1
  Se  Se16  1  0.66239920  0.96391533  0.08413467  1
  Se  Se17  1  0.83760080  0.53608467  0.58413467  1
  Se  Se18  1  0.33760080  0.46391533  0.91586533  1
  Se  Se19  1  0.16239920  0.03608467  0.41586533  1
  Se  Se20  1  0.15842769  0.25000000  0.67995446  1
  Se  Se21  1  0.34157231  0.25000000  0.17995446  1
  Se  Se22  1  0.84157231  0.75000000  0.32004554  1
  Se  Se23  1  0.65842769  0.75000000  0.82004554  1
  Se  Se24  1  0.94114957  0.25000000  0.00656071  1
  Se  Se25  1  0.55885043  0.25000000  0.50656071  1
  Se  Se26  1  0.05885043  0.75000000  0.99343929  1
  Se  Se27  1  0.44114957  0.75000000  0.49343929  1
  Se  Se28  1  0.68074428  0.25000000  0.79544383  1
  Se  Se29  1  0.81925572  0.25000000  0.29544383  1
  Se  Se30  1  0.31925572  0.75000000  0.20455617  1
  Se  Se31  1  0.18074428  0.75000000  0.70455617  1
