# generated using pymatgen
data_S5(IO9)2
_symmetry_space_group_name_H-M   'P 1'
_cell_length_a   5.79710256
_cell_length_b   9.29278969
_cell_length_c   15.14327613
_cell_angle_alpha   103.28828183
_cell_angle_beta   101.03499218
_cell_angle_gamma   90.00000000
_symmetry_Int_Tables_number   1
_chemical_formula_structural   S5(IO9)2
_chemical_formula_sum   'S10 I4 O36'
_cell_volume   778.43868530
_cell_formula_units_Z   2
loop_
 _symmetry_equiv_pos_site_id
 _symmetry_equiv_pos_as_xyz
  1  'x, y, z'
loop_
 _atom_site_type_symbol
 _atom_site_label
 _atom_site_symmetry_multiplicity
 _atom_site_fract_x
 _atom_site_fract_y
 _atom_site_fract_z
 _atom_site_occupancy
  S  S0  1  0.83893352  0.17429717  0.58363911  1
  S  S1  1  0.25529440  0.32570283  0.41636089  1
  S  S2  1  0.16106648  0.82570283  0.41636089  1
  S  S3  1  0.74470560  0.67429717  0.58363911  1
  S  S4  1  0.32045854  0.75000000  0.00000000  1
  S  S5  1  0.67954146  0.25000000  0.00000000  1
  S  S6  1  0.68286527  0.77933334  0.16421958  1
  S  S7  1  0.51864569  0.72066666  0.83578042  1
  S  S8  1  0.31713473  0.22066666  0.83578042  1
  S  S9  1  0.48135431  0.27933334  0.16421958  1
  I  I10  1  0.65582618  0.99017352  0.71236380  1
  I  I11  1  0.94346238  0.50982648  0.28763620  1
  I  I12  1  0.34417382  0.00982648  0.28763620  1
  I  I13  1  0.05653762  0.49017352  0.71236380  1
  O  O14  1  0.62464984  0.08172910  0.60288140  1
  O  O15  1  0.02176844  0.41827090  0.39711860  1
  O  O16  1  0.37535016  0.91827090  0.39711860  1
  O  O17  1  0.97823156  0.58172910  0.60288140  1
  O  O18  1  0.86994681  0.67636942  0.18023998  1
  O  O19  1  0.68970683  0.82363058  0.81976002  1
  O  O20  1  0.13005319  0.32363058  0.81976002  1
  O  O21  1  0.31029317  0.17636942  0.18023998  1
  O  O22  1  0.23256596  0.87234135  0.05756873  1
  O  O23  1  0.17499723  0.62765865  0.94243127  1
  O  O24  1  0.76743404  0.12765865  0.94243127  1
  O  O25  1  0.82500277  0.37234135  0.05756873  1
  O  O26  1  0.06128985  0.12178282  0.61929103  1
  O  O27  1  0.44199882  0.37821718  0.38070897  1
  O  O28  1  0.93871015  0.87821718  0.38070897  1
  O  O29  1  0.55800118  0.62178282  0.61929103  1
  O  O30  1  0.75294969  0.91929532  0.15144018  1
  O  O31  1  0.60150951  0.58070468  0.84855982  1
  O  O32  1  0.24705031  0.08070468  0.84855982  1
  O  O33  1  0.39849049  0.41929532  0.15144018  1
  O  O34  1  0.79738133  0.33235496  0.64747563  1
  O  O35  1  0.14990571  0.16764504  0.35252437  1
  O  O36  1  0.20261867  0.66764504  0.35252437  1
  O  O37  1  0.85009429  0.83235496  0.64747563  1
  O  O38  1  0.46957028  0.82101593  0.93852242  1
  O  O39  1  0.53104786  0.67898407  0.06147758  1
  O  O40  1  0.53042972  0.17898407  0.06147758  1
  O  O41  1  0.46895214  0.32101593  0.93852242  1
  O  O42  1  0.51397416  0.78534112  0.22786003  1
  O  O43  1  0.28611413  0.71465888  0.77213997  1
  O  O44  1  0.48602584  0.21465888  0.77213997  1
  O  O45  1  0.71388587  0.28534112  0.22786003  1
  O  O46  1  0.76524914  0.17727342  0.48858560  1
  O  O47  1  0.27666354  0.32272658  0.51141440  1
  O  O48  1  0.23475086  0.82272658  0.51141440  1
  O  O49  1  0.72333646  0.67727342  0.48858560  1
