# generated using pymatgen
data_BaCr2O7
_symmetry_space_group_name_H-M   'P 1'
_cell_length_a   9.78220649
_cell_length_b   11.85913171
_cell_length_c   11.85913171
_cell_angle_alpha   91.07073213
_cell_angle_beta   92.24606125
_cell_angle_gamma   92.24606125
_symmetry_Int_Tables_number   1
_chemical_formula_structural   BaCr2O7
_chemical_formula_sum   'Ba8 Cr16 O56'
_cell_volume   1373.36492122
_cell_formula_units_Z   8
loop_
 _symmetry_equiv_pos_site_id
 _symmetry_equiv_pos_as_xyz
  1  'x, y, z'
loop_
 _atom_site_type_symbol
 _atom_site_label
 _atom_site_symmetry_multiplicity
 _atom_site_fract_x
 _atom_site_fract_y
 _atom_site_fract_z
 _atom_site_occupancy
  Ba  Ba0  1  0.25000000  0.46089969  0.53910031  1
  Ba  Ba1  1  0.75000000  0.53910031  0.46089969  1
  Ba  Ba2  1  0.25000000  0.04140822  0.95859178  1
  Ba  Ba3  1  0.75000000  0.95859178  0.04140822  1
  Ba  Ba4  1  0.78154392  0.54927242  0.03977608  1
  Ba  Ba5  1  0.71845608  0.96022392  0.45072758  1
  Ba  Ba6  1  0.21845608  0.45072758  0.96022392  1
  Ba  Ba7  1  0.28154392  0.03977608  0.54927242  1
  Cr  Cr8  1  0.99730319  0.25074553  0.40633918  1
  Cr  Cr9  1  0.50269681  0.59366082  0.74925447  1
  Cr  Cr10  1  0.00269681  0.74925447  0.59366082  1
  Cr  Cr11  1  0.49730319  0.40633918  0.25074553  1
  Cr  Cr12  1  0.49287327  0.13388973  0.25225319  1
  Cr  Cr13  1  0.00712673  0.74774681  0.86611027  1
  Cr  Cr14  1  0.50712673  0.86611027  0.74774681  1
  Cr  Cr15  1  0.99287327  0.25225319  0.13388973  1
  Cr  Cr16  1  0.03928738  0.90642611  0.25566200  1
  Cr  Cr17  1  0.46071262  0.74433800  0.09357389  1
  Cr  Cr18  1  0.96071262  0.09357389  0.74433800  1
  Cr  Cr19  1  0.53928738  0.25566200  0.90642611  1
  Cr  Cr20  1  0.44110017  0.75431547  0.37288363  1
  Cr  Cr21  1  0.05889983  0.62711637  0.24568453  1
  Cr  Cr22  1  0.55889983  0.24568453  0.62711637  1
  Cr  Cr23  1  0.94110017  0.37288363  0.75431547  1
  O  O24  1  0.04699450  0.61832014  0.57464520  1
  O  O25  1  0.45300550  0.42535480  0.38167986  1
  O  O26  1  0.95300550  0.38167986  0.42535480  1
  O  O27  1  0.54699450  0.57464520  0.61832014  1
  O  O28  1  0.12445937  0.22775991  0.49713533  1
  O  O29  1  0.37554063  0.50286467  0.77224009  1
  O  O30  1  0.87554063  0.77224009  0.50286467  1
  O  O31  1  0.62445937  0.49713533  0.22775991  1
  O  O32  1  0.13257638  0.83767831  0.58311124  1
  O  O33  1  0.36742362  0.41688876  0.16232169  1
  O  O34  1  0.86742362  0.16232169  0.41688876  1
  O  O35  1  0.63257638  0.58311124  0.83767831  1
  O  O36  1  0.06694013  0.23702982  0.27140366  1
  O  O37  1  0.43305987  0.72859634  0.76297018  1
  O  O38  1  0.93305987  0.76297018  0.72859634  1
  O  O39  1  0.56694013  0.27140366  0.23702982  1
  O  O40  1  0.38681830  0.95855347  0.76349058  1
  O  O41  1  0.11318170  0.23650942  0.04144653  1
  O  O42  1  0.61318170  0.04144653  0.23650942  1
  O  O43  1  0.88681830  0.76349058  0.95855347  1
  O  O44  1  0.43703059  0.12593748  0.37960000  1
  O  O45  1  0.06296941  0.62040000  0.87406252  1
  O  O46  1  0.56296941  0.87406252  0.62040000  1
  O  O47  1  0.93703059  0.37960000  0.12593748  1
  O  O48  1  0.36812942  0.11326292  0.15884544  1
  O  O49  1  0.13187058  0.84115456  0.88673708  1
  O  O50  1  0.63187058  0.88673708  0.84115456  1
  O  O51  1  0.86812942  0.15884544  0.11326292  1
  O  O52  1  0.12971810  0.10089809  0.74279851  1
  O  O53  1  0.37028190  0.25720149  0.89910191  1
  O  O54  1  0.87028190  0.89910191  0.25720149  1
  O  O55  1  0.62971810  0.74279851  0.10089809  1
  O  O56  1  0.08177396  0.95301089  0.13205869  1
  O  O57  1  0.41822604  0.86794131  0.04698911  1
  O  O58  1  0.91822604  0.04698911  0.86794131  1
  O  O59  1  0.58177396  0.13205869  0.95301089  1
  O  O60  1  0.10309287  0.98726803  0.35880462  1
  O  O61  1  0.39690713  0.64119538  0.01273197  1
  O  O62  1  0.89690713  0.01273197  0.64119538  1
  O  O63  1  0.60309287  0.35880462  0.98726803  1
  O  O64  1  0.10508227  0.77129607  0.27688978  1
  O  O65  1  0.39491773  0.72311022  0.22870393  1
  O  O66  1  0.89491773  0.22870393  0.72311022  1
  O  O67  1  0.60508227  0.27688978  0.77129607  1
  O  O68  1  0.41854614  0.88785467  0.40327793  1
  O  O69  1  0.08145386  0.59672207  0.11214533  1
  O  O70  1  0.58145386  0.11214533  0.59672207  1
  O  O71  1  0.91854614  0.40327793  0.88785467  1
  O  O72  1  0.39442457  0.26727915  0.60746361  1
  O  O73  1  0.10557543  0.39253639  0.73272085  1
  O  O74  1  0.60557543  0.73272085  0.39253639  1
  O  O75  1  0.89442457  0.60746361  0.26727915  1
  O  O76  1  0.35108981  0.67188379  0.45123339  1
  O  O77  1  0.14891019  0.54876661  0.32811621  1
  O  O78  1  0.64891019  0.32811621  0.54876661  1
  O  O79  1  0.85108981  0.45123339  0.67188379  1
