# generated using pymatgen
data_Na2SrMg(PO4)2
_symmetry_space_group_name_H-M   'P 1'
_cell_length_a   5.32783462
_cell_length_b   9.26826995
_cell_length_c   13.67539628
_cell_angle_alpha   90.05204023
_cell_angle_beta   90.00000000
_cell_angle_gamma   90.00000000
_symmetry_Int_Tables_number   1
_chemical_formula_structural   Na2SrMg(PO4)2
_chemical_formula_sum   'Na8 Sr4 Mg4 P8 O32'
_cell_volume   675.28818456
_cell_formula_units_Z   4
loop_
 _symmetry_equiv_pos_site_id
 _symmetry_equiv_pos_as_xyz
  1  'x, y, z'
loop_
 _atom_site_type_symbol
 _atom_site_label
 _atom_site_symmetry_multiplicity
 _atom_site_fract_x
 _atom_site_fract_y
 _atom_site_fract_z
 _atom_site_occupancy
  Na  Na0  1  0.00893211  0.32203085  0.09010367  1
  Na  Na1  1  0.50893211  0.17796915  0.90989633  1
  Na  Na2  1  0.99106789  0.67796915  0.90989633  1
  Na  Na3  1  0.49106789  0.82203085  0.09010367  1
  Na  Na4  1  0.01217151  0.34229424  0.58910178  1
  Na  Na5  1  0.51217151  0.15770576  0.41089822  1
  Na  Na6  1  0.98782849  0.65770576  0.41089822  1
  Na  Na7  1  0.48782849  0.84229424  0.58910178  1
  Sr  Sr8  1  0.53007822  0.47053675  0.25041156  1
  Sr  Sr9  1  0.03007822  0.02946325  0.74958844  1
  Sr  Sr10  1  0.46992178  0.52946325  0.74958844  1
  Sr  Sr11  1  0.96992178  0.97053675  0.25041156  1
  Mg  Mg12  1  0.50000000  0.50000000  0.50000000  1
  Mg  Mg13  1  0.00000000  -0.00000000  0.50000000  1
  Mg  Mg14  1  0.50000000  0.50000000  0.00000000  1
  Mg  Mg15  1  -0.00000000  -0.00000000  0.00000000  1
  P  P16  1  0.01751709  0.32377713  0.36755695  1
  P  P17  1  0.51751709  0.17622287  0.63244305  1
  P  P18  1  0.98248291  0.67622287  0.63244305  1
  P  P19  1  0.48248291  0.82377713  0.36755695  1
  P  P20  1  0.99388135  0.34339303  0.86719645  1
  P  P21  1  0.49388135  0.15660697  0.13280355  1
  P  P22  1  0.00611865  0.65660697  0.13280355  1
  P  P23  1  0.50611865  0.84339303  0.86719645  1
  O  O24  1  0.00940814  0.35381385  0.25754421  1
  O  O25  1  0.50940814  0.14618615  0.74245579  1
  O  O26  1  0.99059186  0.64618615  0.74245579  1
  O  O27  1  0.49059186  0.85381385  0.25754421  1
  O  O28  1  0.00371308  0.15899492  0.39036161  1
  O  O29  1  0.50371308  0.34100508  0.60963839  1
  O  O30  1  0.99628692  0.84100508  0.60963839  1
  O  O31  1  0.49628692  0.65899492  0.39036161  1
  O  O32  1  0.79313135  0.40154900  0.41926649  1
  O  O33  1  0.29313135  0.09845100  0.58073351  1
  O  O34  1  0.20686865  0.59845100  0.58073351  1
  O  O35  1  0.70686865  0.90154900  0.41926649  1
  O  O36  1  0.26606321  0.38395592  0.41176277  1
  O  O37  1  0.76606321  0.11604408  0.58823723  1
  O  O38  1  0.73393679  0.61604408  0.58823723  1
  O  O39  1  0.23393679  0.88395592  0.41176277  1
  O  O40  1  0.02852981  0.31748401  0.75714316  1
  O  O41  1  0.52852981  0.18251599  0.24285684  1
  O  O42  1  0.97147019  0.68251599  0.24285684  1
  O  O43  1  0.47147019  0.81748401  0.75714316  1
  O  O44  1  0.00220985  0.19511712  0.92160756  1
  O  O45  1  0.50220985  0.30488288  0.07839244  1
  O  O46  1  0.99779015  0.80488288  0.07839244  1
  O  O47  1  0.49779015  0.69511712  0.92160756  1
  O  O48  1  0.73700619  0.41685432  0.88994079  1
  O  O49  1  0.23700619  0.08314568  0.11005921  1
  O  O50  1  0.26299381  0.58314568  0.11005921  1
  O  O51  1  0.76299381  0.91685432  0.88994079  1
  O  O52  1  0.20934519  0.44044577  0.90750886  1
  O  O53  1  0.70934519  0.05955423  0.09249114  1
  O  O54  1  0.79065481  0.55955423  0.09249114  1
  O  O55  1  0.29065481  0.94044577  0.90750886  1
