# generated using pymatgen
data_Na5U5O18
_symmetry_space_group_name_H-M   'P 1'
_cell_length_a   6.87492435
_cell_length_b   12.44084931
_cell_length_c   19.91074176
_cell_angle_alpha   90.00000000
_cell_angle_beta   90.00000000
_cell_angle_gamma   100.65536987
_symmetry_Int_Tables_number   1
_chemical_formula_structural   Na5U5O18
_chemical_formula_sum   'Na20 U20 O72'
_cell_volume   1673.59971444
_cell_formula_units_Z   4
loop_
 _symmetry_equiv_pos_site_id
 _symmetry_equiv_pos_as_xyz
  1  'x, y, z'
loop_
 _atom_site_type_symbol
 _atom_site_label
 _atom_site_symmetry_multiplicity
 _atom_site_fract_x
 _atom_site_fract_y
 _atom_site_fract_z
 _atom_site_occupancy
  Na  Na0  1  0.23579972  0.00018356  0.45013138  1
  Na  Na1  1  0.26420028  0.49981644  0.95013138  1
  Na  Na2  1  0.76420028  0.99981644  0.54986862  1
  Na  Na3  1  0.73579972  0.50018356  0.04986862  1
  Na  Na4  1  0.24319925  0.50124307  0.34891372  1
  Na  Na5  1  0.25680075  0.99875693  0.84891372  1
  Na  Na6  1  0.75680075  0.49875693  0.65108628  1
  Na  Na7  1  0.74319925  0.00124307  0.15108628  1
  Na  Na8  1  0.75198460  0.49366504  0.45244651  1
  Na  Na9  1  0.74801540  0.00633496  0.95244651  1
  Na  Na10  1  0.24801540  0.50633496  0.54755349  1
  Na  Na11  1  0.25198460  0.99366504  0.04755349  1
  Na  Na12  1  0.25910499  0.00389250  0.24829254  1
  Na  Na13  1  0.24089501  0.49610750  0.74829254  1
  Na  Na14  1  0.74089501  0.99610750  0.75170746  1
  Na  Na15  1  0.75910499  0.50389250  0.25170746  1
  Na  Na16  1  0.75949861  0.98766946  0.35546797  1
  Na  Na17  1  0.74050139  0.51233054  0.85546797  1
  Na  Na18  1  0.24050139  0.01233054  0.64453203  1
  Na  Na19  1  0.25949861  0.48766946  0.14453203  1
  U  U20  1  0.02199673  0.25126367  0.24509161  1
  U  U21  1  0.47800327  0.24873633  0.74509161  1
  U  U22  1  0.97800327  0.74873633  0.75490839  1
  U  U23  1  0.52199673  0.75126367  0.25490839  1
  U  U24  1  0.47691443  0.25256063  0.35633434  1
  U  U25  1  0.02308557  0.24743937  0.85633434  1
  U  U26  1  0.52308557  0.74743937  0.64366566  1
  U  U27  1  0.97691443  0.75256063  0.14366566  1
  U  U28  1  0.96707662  0.25230949  0.05051227  1
  U  U29  1  0.53292338  0.24769051  0.55051227  1
  U  U30  1  0.03292338  0.74769051  0.94948773  1
  U  U31  1  0.46707662  0.75230949  0.44948773  1
  U  U32  1  0.99735951  0.24800415  0.44861485  1
  U  U33  1  0.50264049  0.25199585  0.94861485  1
  U  U34  1  0.00264049  0.75199585  0.55138515  1
  U  U35  1  0.49735951  0.74800415  0.05138515  1
  U  U36  1  0.50359118  0.24700459  0.15425273  1
  U  U37  1  0.99640882  0.25299541  0.65425273  1
  U  U38  1  0.49640882  0.75299541  0.84574727  1
  U  U39  1  0.00359118  0.74700459  0.34574727  1
  O  O40  1  0.08426713  0.40581500  0.23962261  1
  O  O41  1  0.41573287  0.09418500  0.73962261  1
  O  O42  1  0.91573287  0.59418500  0.76037739  1
  O  O43  1  0.58426713  0.90581500  0.26037739  1
  O  O44  1  0.97206713  0.09755308  0.24740926  1
  O  O45  1  0.52793287  0.40244692  0.74740926  1
  O  O46  1  0.02793287  0.90244692  0.75259074  1
  O  O47  1  0.47206713  0.59755308  0.25259074  1
  O  O48  1  0.13600513  0.26136383  0.35037379  1
  O  O49  1  0.36399487  0.23863617  0.85037379  1
  O  O50  1  0.86399487  0.73863617  0.64962621  1
  O  O51  1  0.63600513  0.76136383  0.14962621  1
  O  O52  1  0.35698966  0.23607410  0.25124466  1
  O  O53  1  0.14301034  0.26392590  0.75124466  1
  O  O54  1  0.64301034  0.76392590  0.74875534  1
  O  O55  1  0.85698966  0.73607410  0.24875534  1
  O  O56  1  0.74901385  0.26209574  0.29772645  1
  O  O57  1  0.75098615  0.23790426  0.79772645  1
  O  O58  1  0.25098615  0.73790426  0.70227355  1
  O  O59  1  0.24901385  0.76209574  0.20227355  1
  O  O60  1  0.82085984  0.23570186  0.15629218  1
  O  O61  1  0.67914016  0.26429814  0.65629218  1
  O  O62  1  0.17914016  0.76429814  0.84370782  1
  O  O63  1  0.32085984  0.73570186  0.34370782  1
  O  O64  1  0.20171026  0.26086979  0.12867597  1
  O  O65  1  0.29828974  0.23913021  0.62867597  1
  O  O66  1  0.79828974  0.73913021  0.87132403  1
  O  O67  1  0.70171026  0.76086979  0.37132403  1
  O  O68  1  0.42575230  0.09877162  0.35888726  1
  O  O69  1  0.07424770  0.40122838  0.85888726  1
  O  O70  1  0.57424770  0.90122838  0.64111274  1
  O  O71  1  0.92575230  0.59877162  0.14111274  1
  O  O72  1  0.51722826  0.40616485  0.35865866  1
  O  O73  1  0.98277174  0.09383515  0.85865866  1
  O  O74  1  0.48277174  0.59383515  0.64134134  1
  O  O75  1  0.01722826  0.90616485  0.14134134  1
  O  O76  1  0.30168275  0.23823453  0.47102590  1
  O  O77  1  0.19831725  0.26176547  0.97102590  1
  O  O78  1  0.69831725  0.76176547  0.52897410  1
  O  O79  1  0.80168275  0.73823453  0.02897410  1
  O  O80  1  0.68119011  0.25851000  0.44371441  1
  O  O81  1  0.81880989  0.24149000  0.94371441  1
  O  O82  1  0.31880989  0.74149000  0.55628559  1
  O  O83  1  0.18119011  0.75851000  0.05628559  1
  O  O84  1  0.01213445  0.40566675  0.05163332  1
  O  O85  1  0.48786555  0.09433325  0.55163332  1
  O  O86  1  0.98786555  0.59433325  0.94836668  1
  O  O87  1  0.51213445  0.90566675  0.44836668  1
  O  O88  1  0.92472994  0.09893914  0.04898817  1
  O  O89  1  0.57527006  0.40106086  0.54898817  1
  O  O90  1  0.07527006  0.90106086  0.95101183  1
  O  O91  1  0.42472994  0.59893914  0.45101183  1
  O  O92  1  0.61054323  0.26393201  0.05112491  1
  O  O93  1  0.88945677  0.23606799  0.55112491  1
  O  O94  1  0.38945677  0.73606799  0.94887509  1
  O  O95  1  0.11054323  0.76393201  0.44887509  1
  O  O96  1  0.93593457  0.09160077  0.44262808  1
  O  O97  1  0.56406543  0.40839923  0.94262808  1
  O  O98  1  0.06406543  0.90839923  0.55737192  1
  O  O99  1  0.43593457  0.59160077  0.05737192  1
  O  O100  1  0.05403227  0.40304886  0.45545405  1
  O  O101  1  0.44596773  0.09695114  0.95545405  1
  O  O102  1  0.94596773  0.59695114  0.54454595  1
  O  O103  1  0.55403227  0.90304886  0.04454595  1
  O  O104  1  0.56816429  0.40204070  0.16134759  1
  O  O105  1  0.93183571  0.09795930  0.66134759  1
  O  O106  1  0.43183571  0.59795930  0.83865241  1
  O  O107  1  0.06816429  0.90204070  0.33865241  1
  O  O108  1  0.44406571  0.09135198  0.14812330  1
  O  O109  1  0.05593429  0.40864802  0.64812330  1
  O  O110  1  0.55593429  0.90864802  0.85187670  1
  O  O111  1  0.94406571  0.59135198  0.35187670  1
