# generated using pymatgen
data_Zn2Ni21B20
_symmetry_space_group_name_H-M   'P 1'
_cell_length_a   7.19361389
_cell_length_b   7.19361389
_cell_length_c   8.76270520
_cell_angle_alpha   114.23421471
_cell_angle_beta   114.23421471
_cell_angle_gamma   90.00000000
_symmetry_Int_Tables_number   1
_chemical_formula_structural   Zn2Ni21B20
_chemical_formula_sum   'Zn2 Ni21 B20'
_cell_volume   369.23248230
_cell_formula_units_Z   1
loop_
 _symmetry_equiv_pos_site_id
 _symmetry_equiv_pos_as_xyz
  1  'x, y, z'
loop_
 _atom_site_type_symbol
 _atom_site_label
 _atom_site_symmetry_multiplicity
 _atom_site_fract_x
 _atom_site_fract_y
 _atom_site_fract_z
 _atom_site_occupancy
  Zn  Zn0  1  0.80956406  0.80956406  0.61912813  1
  Zn  Zn1  1  0.19043594  0.19043594  0.38087187  1
  Ni  Ni2  1  0.19817602  0.89925091  0.79850182  1
  Ni  Ni3  1  0.60032580  0.89925091  0.79850182  1
  Ni  Ni4  1  0.89925091  0.19817602  0.79850182  1
  Ni  Ni5  1  0.89925091  0.60032580  0.79850182  1
  Ni  Ni6  1  0.80182398  0.10074909  0.20149818  1
  Ni  Ni7  1  0.39967420  0.10074909  0.20149818  1
  Ni  Ni8  1  0.10074909  0.80182398  0.20149818  1
  Ni  Ni9  1  0.10074909  0.39967420  0.20149818  1
  Ni  Ni10  1  0.50000000  0.23984748  -0.00000000  1
  Ni  Ni11  1  0.50000000  0.76015252  -0.00000000  1
  Ni  Ni12  1  0.76015252  0.50000000  -0.00000000  1
  Ni  Ni13  1  0.23984748  0.50000000  -0.00000000  1
  Ni  Ni14  1  -0.00000000  -0.00000000  0.50000000  1
  Ni  Ni15  1  0.50000000  0.50000000  0.50000000  1
  Ni  Ni16  1  0.50000000  -0.00000000  0.50000000  1
  Ni  Ni17  1  -0.00000000  0.50000000  0.50000000  1
  Ni  Ni18  1  0.25000000  0.75000000  0.50000000  1
  Ni  Ni19  1  0.75000000  0.25000000  0.50000000  1
  Ni  Ni20  1  -0.00000000  -0.00000000  -0.00000000  1
  Ni  Ni21  1  0.63829556  0.63829556  0.27659111  1
  Ni  Ni22  1  0.36170444  0.36170444  0.72340889  1
  B  B23  1  0.95299596  0.65388249  0.30776498  1
  B  B24  1  0.35476902  0.65388249  0.30776498  1
  B  B25  1  0.65388249  0.95299596  0.30776498  1
  B  B26  1  0.65388249  0.35476902  0.30776498  1
  B  B27  1  0.04700404  0.34611751  0.69223502  1
  B  B28  1  0.64523098  0.34611751  0.69223502  1
  B  B29  1  0.34611751  0.04700404  0.69223502  1
  B  B30  1  0.34611751  0.64523098  0.69223502  1
  B  B31  1  0.18844030  0.18844030  0.78823019  1
  B  B32  1  0.59978988  0.59978988  0.78823019  1
  B  B33  1  0.59978988  0.18844030  0.78823019  1
  B  B34  1  0.18844030  0.59978988  0.78823019  1
  B  B35  1  0.81155970  0.81155970  0.21176981  1
  B  B36  1  0.40021012  0.40021012  0.21176981  1
  B  B37  1  0.40021012  0.81155970  0.21176981  1
  B  B38  1  0.81155970  0.40021012  0.21176981  1
  B  B39  1  0.20281887  0.20281887  -0.00000000  1
  B  B40  1  0.79718113  0.79718113  -0.00000000  1
  B  B41  1  0.79718113  0.20281887  -0.00000000  1
  B  B42  1  0.20281887  0.79718113  -0.00000000  1
