# generated using pymatgen
data_Rb6NaU3Si4O20F
_symmetry_space_group_name_H-M   'P 1'
_cell_length_a   7.94851027
_cell_length_b   11.26021585
_cell_length_c   13.84294246
_cell_angle_alpha   90.00000000
_cell_angle_beta   90.00000000
_cell_angle_gamma   90.00000000
_symmetry_Int_Tables_number   1
_chemical_formula_structural   Rb6NaU3Si4O20F
_chemical_formula_sum   'Rb12 Na2 U6 Si8 O40 F2'
_cell_volume   1238.97022384
_cell_formula_units_Z   2
loop_
 _symmetry_equiv_pos_site_id
 _symmetry_equiv_pos_as_xyz
  1  'x, y, z'
loop_
 _atom_site_type_symbol
 _atom_site_label
 _atom_site_symmetry_multiplicity
 _atom_site_fract_x
 _atom_site_fract_y
 _atom_site_fract_z
 _atom_site_occupancy
  Rb  Rb0  1  0.74695441  0.81421213  0.44289243  1
  Rb  Rb1  1  0.74695441  0.18578787  0.55710757  1
  Rb  Rb2  1  0.75304559  0.31421213  0.05710757  1
  Rb  Rb3  1  0.75304559  0.68578787  0.94289243  1
  Rb  Rb4  1  0.25304559  0.18578787  0.55710757  1
  Rb  Rb5  1  0.25304559  0.81421213  0.44289243  1
  Rb  Rb6  1  0.24695441  0.68578787  0.94289243  1
  Rb  Rb7  1  0.24695441  0.31421213  0.05710757  1
  Rb  Rb8  1  0.00000000  0.07011104  0.30023492  1
  Rb  Rb9  1  0.00000000  0.92988896  0.69976508  1
  Rb  Rb10  1  0.50000000  0.57011104  0.19976508  1
  Rb  Rb11  1  0.50000000  0.42988896  0.80023492  1
  Na  Na12  1  0.50000000  0.00000000  -0.00000000  1
  Na  Na13  1  0.00000000  0.50000000  0.50000000  1
  U  U14  1  0.50000000  0.11162826  0.27285743  1
  U  U15  1  0.50000000  0.88837174  0.72714257  1
  U  U16  1  0.00000000  0.61162826  0.22714257  1
  U  U17  1  0.00000000  0.38837174  0.77285743  1
  U  U18  1  0.00000000  0.00000000  -0.00000000  1
  U  U19  1  0.50000000  0.50000000  0.50000000  1
  Si  Si20  1  0.69667308  0.85899731  0.17519526  1
  Si  Si21  1  0.69667308  0.14100269  0.82480474  1
  Si  Si22  1  0.80332692  0.35899731  0.32480474  1
  Si  Si23  1  0.80332692  0.64100269  0.67519526  1
  Si  Si24  1  0.30332692  0.14100269  0.82480474  1
  Si  Si25  1  0.30332692  0.85899731  0.17519526  1
  Si  Si26  1  0.19667308  0.64100269  0.67519526  1
  Si  Si27  1  0.19667308  0.35899731  0.32480474  1
  O  O28  1  0.50000000  0.82340078  0.14048502  1
  O  O29  1  0.50000000  0.17659922  0.85951498  1
  O  O30  1  0.00000000  0.32340078  0.35951498  1
  O  O31  1  0.00000000  0.67659922  0.64048502  1
  O  O32  1  0.78552751  0.73949723  0.21898210  1
  O  O33  1  0.78552751  0.26050277  0.78101790  1
  O  O34  1  0.71447249  0.23949723  0.28101790  1
  O  O35  1  0.71447249  0.76050277  0.71898210  1
  O  O36  1  0.21447249  0.26050277  0.78101790  1
  O  O37  1  0.21447249  0.73949723  0.21898210  1
  O  O38  1  0.28552751  0.76050277  0.71898210  1
  O  O39  1  0.28552751  0.23949723  0.28101790  1
  O  O40  1  0.68456057  0.96031686  0.25999656  1
  O  O41  1  0.68456057  0.03968314  0.74000344  1
  O  O42  1  0.81543943  0.46031686  0.24000344  1
  O  O43  1  0.81543943  0.53968314  0.75999656  1
  O  O44  1  0.31543943  0.03968314  0.74000344  1
  O  O45  1  0.31543943  0.96031686  0.25999656  1
  O  O46  1  0.18456057  0.53968314  0.75999656  1
  O  O47  1  0.18456057  0.46031686  0.24000344  1
  O  O48  1  0.79235498  0.90344801  0.07721930  1
  O  O49  1  0.79235498  0.09655199  0.92278070  1
  O  O50  1  0.70764502  0.40344801  0.42278070  1
  O  O51  1  0.70764502  0.59655199  0.57721930  1
  O  O52  1  0.20764502  0.09655199  0.92278070  1
  O  O53  1  0.20764502  0.90344801  0.07721930  1
  O  O54  1  0.29235498  0.59655199  0.57721930  1
  O  O55  1  0.29235498  0.40344801  0.42278070  1
  O  O56  1  0.50000000  0.13026634  0.13731470  1
  O  O57  1  0.50000000  0.86973366  0.86268530  1
  O  O58  1  0.00000000  0.63026634  0.36268530  1
  O  O59  1  0.00000000  0.36973366  0.63731470  1
  O  O60  1  0.50000000  0.09517511  0.40728861  1
  O  O61  1  0.50000000  0.90482489  0.59271139  1
  O  O62  1  0.00000000  0.59517511  0.09271139  1
  O  O63  1  0.00000000  0.40482489  0.90728861  1
  O  O64  1  0.00000000  0.87955157  0.90684599  1
  O  O65  1  0.00000000  0.12044843  0.09315401  1
  O  O66  1  0.50000000  0.37955157  0.59315401  1
  O  O67  1  0.50000000  0.62044843  0.40684599  1
  F  F68  1  0.00000000  0.00000000  0.50000000  1
  F  F69  1  0.50000000  0.50000000  -0.00000000  1
