# generated using pymatgen
data_RbBaSc(SiO3)3
_symmetry_space_group_name_H-M   'P 1'
_cell_length_a   7.05323789
_cell_length_b   10.33175665
_cell_length_c   12.03999961
_cell_angle_alpha   90.00000000
_cell_angle_beta   90.04573299
_cell_angle_gamma   90.00000000
_symmetry_Int_Tables_number   1
_chemical_formula_structural   RbBaSc(SiO3)3
_chemical_formula_sum   'Rb4 Ba4 Sc4 Si12 O36'
_cell_volume   877.38263470
_cell_formula_units_Z   4
loop_
 _symmetry_equiv_pos_site_id
 _symmetry_equiv_pos_as_xyz
  1  'x, y, z'
loop_
 _atom_site_type_symbol
 _atom_site_label
 _atom_site_symmetry_multiplicity
 _atom_site_fract_x
 _atom_site_fract_y
 _atom_site_fract_z
 _atom_site_occupancy
  Rb  Rb0  1  0.25568412  0.05423856  0.92075583  1
  Rb  Rb1  1  0.75568412  0.44576144  0.42075583  1
  Rb  Rb2  1  0.74431588  0.94576144  0.07924417  1
  Rb  Rb3  1  0.24431588  0.55423856  0.57924417  1
  Ba  Ba4  1  0.25866927  0.94143474  0.58757979  1
  Ba  Ba5  1  0.75866927  0.55856526  0.08757979  1
  Ba  Ba6  1  0.74133073  0.05856526  0.41242021  1
  Ba  Ba7  1  0.24133073  0.44143474  0.91242021  1
  Sc  Sc8  1  0.24377713  0.00404332  0.26503042  1
  Sc  Sc9  1  0.74377713  0.49595668  0.76503042  1
  Sc  Sc10  1  0.75622287  0.99595668  0.73496958  1
  Sc  Sc11  1  0.25622287  0.50404332  0.23496958  1
  Si  Si12  1  0.18904396  0.76421437  0.05791030  1
  Si  Si13  1  0.68904396  0.73578563  0.55791030  1
  Si  Si14  1  0.81095604  0.23578563  0.94208970  1
  Si  Si15  1  0.31095604  0.26421437  0.44208970  1
  Si  Si16  1  0.49198711  0.75168262  0.87680246  1
  Si  Si17  1  0.99198711  0.74831738  0.37680246  1
  Si  Si18  1  0.50801289  0.24831738  0.12319754  1
  Si  Si19  1  0.00801289  0.25168262  0.62319754  1
  Si  Si20  1  0.06581794  0.75293011  0.81670810  1
  Si  Si21  1  0.56581794  0.74706989  0.31670810  1
  Si  Si22  1  0.93418206  0.24706989  0.18329190  1
  Si  Si23  1  0.43418206  0.25293011  0.68329190  1
  O  O24  1  0.14464496  0.87515629  0.14680739  1
  O  O25  1  0.64464496  0.62484371  0.64680739  1
  O  O26  1  0.85535504  0.12484371  0.85319261  1
  O  O27  1  0.35535504  0.37515629  0.35319261  1
  O  O28  1  0.15125822  0.61361490  0.09052783  1
  O  O29  1  0.65125822  0.88638510  0.59052783  1
  O  O30  1  0.84874178  0.38638510  0.90947217  1
  O  O31  1  0.34874178  0.11361490  0.40947217  1
  O  O32  1  0.40518670  0.78414011  0.00414465  1
  O  O33  1  0.90518670  0.71585989  0.50414465  1
  O  O34  1  0.59481330  0.21585989  0.99585535  1
  O  O35  1  0.09481330  0.28414011  0.49585535  1
  O  O36  1  0.04082278  0.79252317  0.95030848  1
  O  O37  1  0.54082278  0.70747683  0.45030848  1
  O  O38  1  0.95917722  0.20747683  0.04969152  1
  O  O39  1  0.45917722  0.29252317  0.54969152  1
  O  O40  1  0.62306480  0.87255748  0.84569487  1
  O  O41  1  0.12306480  0.62744252  0.34569487  1
  O  O42  1  0.37693520  0.12744252  0.15430513  1
  O  O43  1  0.87693520  0.37255748  0.65430513  1
  O  O44  1  0.58357656  0.60767823  0.88830530  1
  O  O45  1  0.08357656  0.89232177  0.38830530  1
  O  O46  1  0.41642344  0.39232177  0.11169470  1
  O  O47  1  0.91642344  0.10767823  0.61169470  1
  O  O48  1  0.30169477  0.74662004  0.79403414  1
  O  O49  1  0.80169477  0.75337996  0.29403414  1
  O  O50  1  0.69830523  0.25337996  0.20596586  1
  O  O51  1  0.19830523  0.24662004  0.70596586  1
  O  O52  1  0.99633833  0.87039805  0.73832765  1
  O  O53  1  0.49633833  0.62960195  0.23832765  1
  O  O54  1  0.00366167  0.12960195  0.26167235  1
  O  O55  1  0.50366167  0.37039805  0.76167235  1
  O  O56  1  0.99332444  0.60699084  0.79531329  1
  O  O57  1  0.49332444  0.89300916  0.29531329  1
  O  O58  1  0.00667556  0.39300916  0.20468671  1
  O  O59  1  0.50667556  0.10699084  0.70468671  1
