# generated using pymatgen
data_K2LiP3O10
_symmetry_space_group_name_H-M   'P 1'
_cell_length_a   7.88099780
_cell_length_b   8.70030684
_cell_length_c   14.56871924
_cell_angle_alpha   90.00000000
_cell_angle_beta   90.00000000
_cell_angle_gamma   97.46448227
_symmetry_Int_Tables_number   1
_chemical_formula_structural   K2LiP3O10
_chemical_formula_sum   'K8 Li4 P12 O40'
_cell_volume   990.46942571
_cell_formula_units_Z   4
loop_
 _symmetry_equiv_pos_site_id
 _symmetry_equiv_pos_as_xyz
  1  'x, y, z'
loop_
 _atom_site_type_symbol
 _atom_site_label
 _atom_site_symmetry_multiplicity
 _atom_site_fract_x
 _atom_site_fract_y
 _atom_site_fract_z
 _atom_site_occupancy
  K  K0  1  0.44921194  0.82115233  0.28462154  1
  K  K1  1  0.05078806  0.17884767  0.78462154  1
  K  K2  1  0.55078806  0.17884767  0.71537846  1
  K  K3  1  0.94921194  0.82115233  0.21537846  1
  K  K4  1  0.16851698  0.46398065  0.40653645  1
  K  K5  1  0.33148302  0.53601935  0.90653645  1
  K  K6  1  0.83148302  0.53601935  0.59346355  1
  K  K7  1  0.66851698  0.46398065  0.09346355  1
  Li  Li8  1  0.15214569  0.08059271  0.38465197  1
  Li  Li9  1  0.34785431  0.91940729  0.88465197  1
  Li  Li10  1  0.84785431  0.91940729  0.61534803  1
  Li  Li11  1  0.65214569  0.08059271  0.11534803  1
  P  P12  1  0.71244693  0.48663008  0.34350661  1
  P  P13  1  0.78755307  0.51336992  0.84350661  1
  P  P14  1  0.28755307  0.51336992  0.65649339  1
  P  P15  1  0.21244693  0.48663008  0.15649339  1
  P  P16  1  0.77523039  0.16466335  0.32060746  1
  P  P17  1  0.72476961  0.83533665  0.82060746  1
  P  P18  1  0.22476961  0.83533665  0.67939254  1
  P  P19  1  0.27523039  0.16466335  0.17939254  1
  P  P20  1  0.51974444  0.24286300  0.45548363  1
  P  P21  1  0.98025556  0.75713700  0.95548363  1
  P  P22  1  0.48025556  0.75713700  0.54451637  1
  P  P23  1  0.01974444  0.24286300  0.04451637  1
  O  O24  1  0.60896576  0.12921337  0.38710719  1
  O  O25  1  0.89103424  0.87078663  0.88710719  1
  O  O26  1  0.39103424  0.87078663  0.61289281  1
  O  O27  1  0.10896576  0.12921337  0.11289281  1
  O  O28  1  0.54050800  0.40547641  0.39752206  1
  O  O29  1  0.95949200  0.59452359  0.89752206  1
  O  O30  1  0.45949200  0.59452359  0.60247794  1
  O  O31  1  0.04050800  0.40547641  0.10247794  1
  O  O32  1  0.75543189  0.33632794  0.28188727  1
  O  O33  1  0.74456811  0.66367206  0.78188727  1
  O  O34  1  0.24456811  0.66367206  0.71811273  1
  O  O35  1  0.25543189  0.33632794  0.21811273  1
  O  O36  1  0.85217778  0.53228694  0.41043467  1
  O  O37  1  0.64782222  0.46771306  0.91043467  1
  O  O38  1  0.14782222  0.46771306  0.58956533  1
  O  O39  1  0.35217778  0.53228694  0.08956533  1
  O  O40  1  0.65984301  0.60003113  0.27542622  1
  O  O41  1  0.84015699  0.39996887  0.77542622  1
  O  O42  1  0.34015699  0.39996887  0.72457378  1
  O  O43  1  0.15984301  0.60003113  0.22457378  1
  O  O44  1  0.93796669  0.16815411  0.37451913  1
  O  O45  1  0.56203331  0.83184589  0.87451913  1
  O  O46  1  0.06203331  0.83184589  0.62548087  1
  O  O47  1  0.43796669  0.16815411  0.12548087  1
  O  O48  1  0.24220992  0.05236989  0.25781442  1
  O  O49  1  0.25779008  0.94763011  0.75781442  1
  O  O50  1  0.75779008  0.94763011  0.74218558  1
  O  O51  1  0.74220992  0.05236989  0.24218558  1
  O  O52  1  0.38035909  0.73796373  0.45631672  1
  O  O53  1  0.11964091  0.26203627  0.95631672  1
  O  O54  1  0.61964091  0.26203627  0.54368328  1
  O  O55  1  0.88035909  0.73796373  0.04368328  1
  O  O56  1  0.33175706  0.18850968  0.45847938  1
  O  O57  1  0.16824294  0.81149032  0.95847938  1
  O  O58  1  0.66824294  0.81149032  0.54152062  1
  O  O59  1  0.83175706  0.18850968  0.04152062  1
  O  O60  1  0.09987254  0.84527728  0.41870813  1
  O  O61  1  0.40012746  0.15472272  0.91870813  1
  O  O62  1  0.90012746  0.15472272  0.58129187  1
  O  O63  1  0.59987254  0.84527728  0.08129187  1
