# generated using pymatgen
data_CaSiH4(OF3)2
_symmetry_space_group_name_H-M   'P 1'
_cell_length_a   5.81511364
_cell_length_b   9.32129407
_cell_length_c   10.63193620
_cell_angle_alpha   90.00000000
_cell_angle_beta   99.34533323
_cell_angle_gamma   90.00000000
_symmetry_Int_Tables_number   1
_chemical_formula_structural   CaSiH4(OF3)2
_chemical_formula_sum   'Ca4 Si4 H16 O8 F24'
_cell_volume   568.64867202
_cell_formula_units_Z   4
loop_
 _symmetry_equiv_pos_site_id
 _symmetry_equiv_pos_as_xyz
  1  'x, y, z'
loop_
 _atom_site_type_symbol
 _atom_site_label
 _atom_site_symmetry_multiplicity
 _atom_site_fract_x
 _atom_site_fract_y
 _atom_site_fract_z
 _atom_site_occupancy
  Ca  Ca0  1  0.84058329  0.31523645  0.54616790  1
  Ca  Ca1  1  0.34058329  0.18476355  0.04616790  1
  Ca  Ca2  1  0.15941671  0.68476355  0.45383210  1
  Ca  Ca3  1  0.65941671  0.81523645  0.95383210  1
  Si  Si4  1  0.59779437  0.53639357  0.23416321  1
  Si  Si5  1  0.09779437  0.96360643  0.73416321  1
  Si  Si6  1  0.40220563  0.46360643  0.76583679  1
  Si  Si7  1  0.90220563  0.03639357  0.26583679  1
  H  H8  1  0.74829887  0.64813631  0.57405228  1
  H  H9  1  0.24829887  0.85186369  0.07405228  1
  H  H10  1  0.25170113  0.35186369  0.42594772  1
  H  H11  1  0.75170113  0.14813631  0.92594772  1
  H  H12  1  0.95874226  0.59223141  0.67580413  1
  H  H13  1  0.45874226  0.90776859  0.17580413  1
  H  H14  1  0.04125774  0.40776859  0.32419587  1
  H  H15  1  0.54125774  0.09223141  0.82419587  1
  H  H16  1  0.43886197  0.13979535  0.40722605  1
  H  H17  1  0.93886197  0.36020465  0.90722605  1
  H  H18  1  0.56113803  0.86020465  0.59277395  1
  H  H19  1  0.06113803  0.63979535  0.09277395  1
  H  H20  1  0.39095531  0.14827549  0.54831031  1
  H  H21  1  0.89095531  0.35172451  0.04831031  1
  H  H22  1  0.60904469  0.85172451  0.45168969  1
  H  H23  1  0.10904469  0.64827549  0.95168969  1
  O  O24  1  0.88213384  0.58106977  0.58662408  1
  O  O25  1  0.38213384  0.91893023  0.08662408  1
  O  O26  1  0.11786616  0.41893023  0.41337592  1
  O  O27  1  0.61786616  0.08106977  0.91337592  1
  O  O28  1  0.45520445  0.20229028  0.48200417  1
  O  O29  1  0.95520445  0.29770972  0.98200417  1
  O  O30  1  0.54479555  0.79770972  0.51799583  1
  O  O31  1  0.04479555  0.70229028  0.01799583  1
  F  F32  1  0.39954471  0.41591842  0.15887183  1
  F  F33  1  0.89954471  0.08408158  0.65887183  1
  F  F34  1  0.60045529  0.58408158  0.84112817  1
  F  F35  1  0.10045529  0.91591842  0.34112817  1
  F  F36  1  0.80322653  0.65260057  0.31349196  1
  F  F37  1  0.30322653  0.84739943  0.81349196  1
  F  F38  1  0.19677347  0.34739943  0.68650804  1
  F  F39  1  0.69677347  0.15260057  0.18650804  1
  F  F40  1  0.37738880  0.63224712  0.28674563  1
  F  F41  1  0.87738880  0.86775288  0.78674563  1
  F  F42  1  0.62261120  0.36775288  0.71325437  1
  F  F43  1  0.12261120  0.13224712  0.21325437  1
  F  F44  1  0.82472905  0.44564476  0.18230189  1
  F  F45  1  0.32472905  0.05435524  0.68230189  1
  F  F46  1  0.17527095  0.55435524  0.81769811  1
  F  F47  1  0.67527095  0.94564476  0.31769811  1
  F  F48  1  0.56979646  0.64140920  0.10193128  1
  F  F49  1  0.06979646  0.85859080  0.60193128  1
  F  F50  1  0.43020354  0.35859080  0.89806872  1
  F  F51  1  0.93020354  0.14140920  0.39806872  1
  F  F52  1  0.62656763  0.43236497  0.36891055  1
  F  F53  1  0.12656763  0.06763503  0.86891055  1
  F  F54  1  0.37343237  0.56763503  0.63108945  1
  F  F55  1  0.87343237  0.93236497  0.13108945  1
