# generated using pymatgen
data_CaMg2
_symmetry_space_group_name_H-M   'P 1'
_cell_length_a   12.83347861
_cell_length_b   3.54913689
_cell_length_c   7.88414165
_cell_angle_alpha   90.00000000
_cell_angle_beta   107.48890151
_cell_angle_gamma   90.00000000
_symmetry_Int_Tables_number   1
_chemical_formula_structural   CaMg2
_chemical_formula_sum   'Ca4 Mg8'
_cell_volume   342.50552124
_cell_formula_units_Z   4
loop_
 _symmetry_equiv_pos_site_id
 _symmetry_equiv_pos_as_xyz
  1  'x, y, z'
loop_
 _atom_site_type_symbol
 _atom_site_label
 _atom_site_symmetry_multiplicity
 _atom_site_fract_x
 _atom_site_fract_y
 _atom_site_fract_z
 _atom_site_occupancy
  Ca  Ca0  1  0.17459488  0.00000000  0.63544799  1
  Ca  Ca1  1  0.32540512  0.50000000  0.36455201  1
  Ca  Ca2  1  0.67459488  0.50000000  0.63544799  1
  Ca  Ca3  1  0.82540512  0.00000000  0.36455201  1
  Mg  Mg4  1  0.36321059  0.50000000  0.96754209  1
  Mg  Mg5  1  0.46936141  0.00000000  0.72760933  1
  Mg  Mg6  1  0.03063859  0.50000000  0.27239067  1
  Mg  Mg7  1  0.13678941  0.00000000  0.03245791  1
  Mg  Mg8  1  0.86321059  -0.00000000  0.96754209  1
  Mg  Mg9  1  0.96936141  0.50000000  0.72760933  1
  Mg  Mg10  1  0.53063859  -0.00000000  0.27239067  1
  Mg  Mg11  1  0.63678941  0.50000000  0.03245791  1
