# generated using pymatgen
data_Ba16Re6O37
_symmetry_space_group_name_H-M   'P 1'
_cell_length_a   5.96732732
_cell_length_b   10.97212520
_cell_length_c   15.83502246
_cell_angle_alpha   92.40834878
_cell_angle_beta   90.00000000
_cell_angle_gamma   105.77922187
_symmetry_Int_Tables_number   1
_chemical_formula_structural   Ba16Re6O37
_chemical_formula_sum   'Ba16 Re6 O37'
_cell_volume   996.76518436
_cell_formula_units_Z   1
loop_
 _symmetry_equiv_pos_site_id
 _symmetry_equiv_pos_as_xyz
  1  'x, y, z'
loop_
 _atom_site_type_symbol
 _atom_site_label
 _atom_site_symmetry_multiplicity
 _atom_site_fract_x
 _atom_site_fract_y
 _atom_site_fract_z
 _atom_site_occupancy
  Ba  Ba0  1  0.54855008  0.09710017  0.14217816  1
  Ba  Ba1  1  0.45144992  0.90289983  0.85782184  1
  Ba  Ba2  1  0.18129892  0.36259785  0.04508798  1
  Ba  Ba3  1  0.81870108  0.63740215  0.95491202  1
  Ba  Ba4  1  0.42034450  0.84068900  0.35170144  1
  Ba  Ba5  1  0.57965550  0.15931100  0.64829856  1
  Ba  Ba6  1  0.91278295  0.82556591  0.20117571  1
  Ba  Ba7  1  0.08721705  0.17443409  0.79882429  1
  Ba  Ba8  1  0.60699182  0.21398365  0.39703344  1
  Ba  Ba9  1  0.39300818  0.78601635  0.60296656  1
  Ba  Ba10  1  0.73578555  0.47157110  0.20052395  1
  Ba  Ba11  1  0.26421445  0.52842890  0.79947605  1
  Ba  Ba12  1  0.23609093  0.47218186  0.39927907  1
  Ba  Ba13  1  0.76390907  0.52781814  0.60072093  1
  Ba  Ba14  1  0.00000000  -0.00000000  -0.00000000  1
  Ba  Ba15  1  0.00000000  -0.00000000  0.50000000  1
  Re  Re16  1  0.35801708  0.71603415  0.07043882  1
  Re  Re17  1  0.64198292  0.28396585  0.92956118  1
  Re  Re18  1  0.08081434  0.16162868  0.26527564  1
  Re  Re19  1  0.91918566  0.83837132  0.73472436  1
  Re  Re20  1  0.82712537  0.65425073  0.39091362  1
  Re  Re21  1  0.17287463  0.34574927  0.60908638  1
  O  O22  1  0.33612862  0.67225723  0.94950575  1
  O  O23  1  0.66387138  0.32774277  0.05049425  1
  O  O24  1  0.91592633  0.83185265  0.37421806  1
  O  O25  1  0.08407367  0.16814735  0.62578194  1
  O  O26  1  0.73714664  0.47429327  0.39401581  1
  O  O27  1  0.26285336  0.52570673  0.60598419  1
  O  O28  1  0.39754826  0.79509652  0.17746278  1
  O  O29  1  0.60245174  0.20490348  0.82253722  1
  O  O30  1  0.07316220  0.59343024  0.09065495  1
  O  O31  1  0.52026804  0.59343024  0.09065495  1
  O  O32  1  0.92683780  0.40656976  0.90934505  1
  O  O33  1  0.47973196  0.40656976  0.90934505  1
  O  O34  1  0.06682356  0.67010126  0.47150939  1
  O  O35  1  0.60327770  0.67010126  0.47150939  1
  O  O36  1  0.93317644  0.32989874  0.52849061  1
  O  O37  1  0.39672230  0.32989874  0.52849061  1
  O  O38  1  0.78560700  0.03731198  0.27573421  1
  O  O39  1  0.25170498  0.03731198  0.27573421  1
  O  O40  1  0.21439300  0.96268802  0.72426579  1
  O  O41  1  0.74829502  0.96268802  0.72426579  1
  O  O42  1  0.05842731  0.11685463  0.14516428  1
  O  O43  1  0.94157269  0.88314537  0.85483572  1
  O  O44  1  0.09701649  0.19403297  0.38236845  1
  O  O45  1  0.90298351  0.80596703  0.61763155  1
  O  O46  1  0.91768650  0.28495447  0.24719483  1
  O  O47  1  0.36726796  0.28495447  0.24719483  1
  O  O48  1  0.08231350  0.71504553  0.75280517  1
  O  O49  1  0.63273204  0.71504553  0.75280517  1
  O  O50  1  0.18448192  0.83319271  0.04304150  1
  O  O51  1  0.64871079  0.83319271  0.04304150  1
  O  O52  1  0.81551808  0.16680729  0.95695850  1
  O  O53  1  0.35128921  0.16680729  0.95695850  1
  O  O54  1  0.50000000  -0.00000000  0.50000000  1
  O  O55  1  0.04375628  0.63968714  0.30263971  1
  O  O56  1  0.59593086  0.63968714  0.30263971  1
  O  O57  1  0.95624372  0.36031286  0.69736029  1
  O  O58  1  0.40406914  0.36031286  0.69736029  1
