# generated using pymatgen
data_Ta4CrTe4
_symmetry_space_group_name_H-M   'P 1'
_cell_length_a   4.85078074
_cell_length_b   10.80511996
_cell_length_c   18.77772336
_cell_angle_alpha   90.00000000
_cell_angle_beta   90.00000000
_cell_angle_gamma   90.00000000
_symmetry_Int_Tables_number   1
_chemical_formula_structural   Ta4CrTe4
_chemical_formula_sum   'Ta16 Cr4 Te16'
_cell_volume   984.20184305
_cell_formula_units_Z   4
loop_
 _symmetry_equiv_pos_site_id
 _symmetry_equiv_pos_as_xyz
  1  'x, y, z'
loop_
 _atom_site_type_symbol
 _atom_site_label
 _atom_site_symmetry_multiplicity
 _atom_site_fract_x
 _atom_site_fract_y
 _atom_site_fract_z
 _atom_site_occupancy
  Ta  Ta0  1  0.50000000  0.56588133  0.38023760  1
  Ta  Ta1  1  0.50000000  0.43411867  0.61976240  1
  Ta  Ta2  1  0.50000000  0.06588133  0.11976240  1
  Ta  Ta3  1  0.50000000  0.93411867  0.88023760  1
  Ta  Ta4  1  0.50000000  0.70919347  0.53750478  1
  Ta  Ta5  1  0.50000000  0.29080653  0.46249522  1
  Ta  Ta6  1  0.50000000  0.20919347  0.96249522  1
  Ta  Ta7  1  0.50000000  0.79080653  0.03750478  1
  Ta  Ta8  1  0.00000000  0.69423946  0.44131730  1
  Ta  Ta9  1  -0.00000000  0.30576054  0.55868270  1
  Ta  Ta10  1  0.00000000  0.19423946  0.05868270  1
  Ta  Ta11  1  -0.00000000  0.80576054  0.94131730  1
  Ta  Ta12  1  -0.00000000  0.39876931  0.38871926  1
  Ta  Ta13  1  0.00000000  0.60123069  0.61128074  1
  Ta  Ta14  1  -0.00000000  0.89876931  0.11128074  1
  Ta  Ta15  1  -0.00000000  0.10123069  0.88871926  1
  Cr  Cr16  1  0.24981681  0.50000000  0.50000000  1
  Cr  Cr17  1  0.75018319  -0.00000000  -0.00000000  1
  Cr  Cr18  1  0.75018319  0.50000000  0.50000000  1
  Cr  Cr19  1  0.24981681  -0.00000000  0.00000000  1
  Te  Te20  1  -0.00000000  0.85408654  0.56422108  1
  Te  Te21  1  0.00000000  0.14591346  0.43577892  1
  Te  Te22  1  -0.00000000  0.35408654  0.93577892  1
  Te  Te23  1  0.00000000  0.64591346  0.06422108  1
  Te  Te24  1  0.50000000  0.32911951  0.31139738  1
  Te  Te25  1  0.50000000  0.67088049  0.68860262  1
  Te  Te26  1  0.50000000  0.82911951  0.18860262  1
  Te  Te27  1  0.50000000  0.17088049  0.81139738  1
  Te  Te28  1  0.50000000  0.83021273  0.40099209  1
  Te  Te29  1  0.50000000  0.16978727  0.59900791  1
  Te  Te30  1  0.50000000  0.33021273  0.09900791  1
  Te  Te31  1  0.50000000  0.66978727  0.90099209  1
  Te  Te32  1  -0.00000000  0.60974105  0.29615687  1
  Te  Te33  1  0.00000000  0.39025895  0.70384313  1
  Te  Te34  1  -0.00000000  0.10974105  0.20384313  1
  Te  Te35  1  0.00000000  0.89025895  0.79615687  1
