# generated using pymatgen
data_Pr3Si11Pt23
_symmetry_space_group_name_H-M   'P 1'
_cell_length_a   12.06951326
_cell_length_b   12.06951326
_cell_length_c   12.06951326
_cell_angle_alpha   60.00000000
_cell_angle_beta   60.00000000
_cell_angle_gamma   60.00000000
_symmetry_Int_Tables_number   1
_chemical_formula_structural   Pr3Si11Pt23
_chemical_formula_sum   'Pr6 Si22 Pt46'
_cell_volume   1243.23798418
_cell_formula_units_Z   2
loop_
 _symmetry_equiv_pos_site_id
 _symmetry_equiv_pos_as_xyz
  1  'x, y, z'
loop_
 _atom_site_type_symbol
 _atom_site_label
 _atom_site_symmetry_multiplicity
 _atom_site_fract_x
 _atom_site_fract_y
 _atom_site_fract_z
 _atom_site_occupancy
  Pr  Pr0  1  0.50000000  -0.00000000  -0.00000000  1
  Pr  Pr1  1  0.50000000  -0.00000000  0.50000000  1
  Pr  Pr2  1  0.50000000  0.50000000  -0.00000000  1
  Pr  Pr3  1  -0.00000000  0.50000000  0.50000000  1
  Pr  Pr4  1  -0.00000000  0.50000000  -0.00000000  1
  Pr  Pr5  1  -0.00000000  -0.00000000  0.50000000  1
  Si  Si6  1  0.82877738  0.17122262  0.17122262  1
  Si  Si7  1  0.82877738  0.17122262  0.82877738  1
  Si  Si8  1  0.82877738  0.82877738  0.17122262  1
  Si  Si9  1  0.17122262  0.82877738  0.82877738  1
  Si  Si10  1  0.17122262  0.82877738  0.17122262  1
  Si  Si11  1  0.17122262  0.17122262  0.82877738  1
  Si  Si12  1  0.50366372  0.16544543  0.16544543  1
  Si  Si13  1  0.16544543  0.50366372  0.16544543  1
  Si  Si14  1  0.16544543  0.16544543  0.50366372  1
  Si  Si15  1  0.16544543  0.16544543  0.16544543  1
  Si  Si16  1  0.49633628  0.83455457  0.83455457  1
  Si  Si17  1  0.83455457  0.49633628  0.83455457  1
  Si  Si18  1  0.83455457  0.83455457  0.49633628  1
  Si  Si19  1  0.83455457  0.83455457  0.83455457  1
  Si  Si20  1  0.81966697  0.39344434  0.39344434  1
  Si  Si21  1  0.39344434  0.81966697  0.39344434  1
  Si  Si22  1  0.39344434  0.39344434  0.81966697  1
  Si  Si23  1  0.39344434  0.39344434  0.39344434  1
  Si  Si24  1  0.18033303  0.60655566  0.60655566  1
  Si  Si25  1  0.60655566  0.18033303  0.60655566  1
  Si  Si26  1  0.60655566  0.60655566  0.18033303  1
  Si  Si27  1  0.60655566  0.60655566  0.60655566  1
  Pt  Pt28  1  0.75147582  0.08284139  0.08284139  1
  Pt  Pt29  1  0.08284139  0.75147582  0.08284139  1
  Pt  Pt30  1  0.08284139  0.08284139  0.75147582  1
  Pt  Pt31  1  0.08284139  0.08284139  0.08284139  1
  Pt  Pt32  1  0.24852418  0.91715861  0.91715861  1
  Pt  Pt33  1  0.91715861  0.24852418  0.91715861  1
  Pt  Pt34  1  0.91715861  0.91715861  0.24852418  1
  Pt  Pt35  1  0.91715861  0.91715861  0.91715861  1
  Pt  Pt36  1  0.07513182  0.30828939  0.30828939  1
  Pt  Pt37  1  0.30828939  0.07513182  0.30828939  1
  Pt  Pt38  1  0.30828939  0.30828939  0.07513182  1
  Pt  Pt39  1  0.30828939  0.30828939  0.30828939  1
  Pt  Pt40  1  0.92486818  0.69171061  0.69171061  1
  Pt  Pt41  1  0.69171061  0.92486818  0.69171061  1
  Pt  Pt42  1  0.69171061  0.69171061  0.92486818  1
  Pt  Pt43  1  0.69171061  0.69171061  0.69171061  1
  Pt  Pt44  1  0.62571009  0.37428991  0.37428991  1
  Pt  Pt45  1  0.62571009  0.37428991  0.62571009  1
  Pt  Pt46  1  0.62571009  0.62571009  0.37428991  1
  Pt  Pt47  1  0.37428991  0.62571009  0.62571009  1
  Pt  Pt48  1  0.37428991  0.62571009  0.37428991  1
  Pt  Pt49  1  0.37428991  0.37428991  0.62571009  1
  Pt  Pt50  1  0.57904097  0.91691019  0.25202442  1
  Pt  Pt51  1  0.57904097  0.25202442  0.25202442  1
  Pt  Pt52  1  0.57904097  0.25202442  0.91691019  1
  Pt  Pt53  1  0.91691019  0.57904097  0.25202442  1
  Pt  Pt54  1  0.25202442  0.57904097  0.91691019  1
  Pt  Pt55  1  0.25202442  0.57904097  0.25202442  1
  Pt  Pt56  1  0.25202442  0.25202442  0.57904097  1
  Pt  Pt57  1  0.25202442  0.91691019  0.57904097  1
  Pt  Pt58  1  0.91691019  0.25202442  0.57904097  1
  Pt  Pt59  1  0.25202442  0.25202442  0.91691019  1
  Pt  Pt60  1  0.91691019  0.25202442  0.25202442  1
  Pt  Pt61  1  0.25202442  0.91691019  0.25202442  1
  Pt  Pt62  1  0.42095903  0.08308981  0.74797558  1
  Pt  Pt63  1  0.42095903  0.74797558  0.74797558  1
  Pt  Pt64  1  0.42095903  0.74797558  0.08308981  1
  Pt  Pt65  1  0.08308981  0.42095903  0.74797558  1
  Pt  Pt66  1  0.74797558  0.42095903  0.08308981  1
  Pt  Pt67  1  0.74797558  0.42095903  0.74797558  1
  Pt  Pt68  1  0.74797558  0.74797558  0.42095903  1
  Pt  Pt69  1  0.74797558  0.08308981  0.42095903  1
  Pt  Pt70  1  0.08308981  0.74797558  0.42095903  1
  Pt  Pt71  1  0.74797558  0.74797558  0.08308981  1
  Pt  Pt72  1  0.08308981  0.74797558  0.74797558  1
  Pt  Pt73  1  0.74797558  0.08308981  0.74797558  1
