# generated using pymatgen
data_CsSb2PO8
_symmetry_space_group_name_H-M   'P 1'
_cell_length_a   7.29463655
_cell_length_b   9.95007479
_cell_length_c   12.75181333
_cell_angle_alpha   74.60406667
_cell_angle_beta   73.37995989
_cell_angle_gamma   68.49626087
_symmetry_Int_Tables_number   1
_chemical_formula_structural   CsSb2PO8
_chemical_formula_sum   'Cs4 Sb8 P4 O32'
_cell_volume   811.64812784
_cell_formula_units_Z   4
loop_
 _symmetry_equiv_pos_site_id
 _symmetry_equiv_pos_as_xyz
  1  'x, y, z'
loop_
 _atom_site_type_symbol
 _atom_site_label
 _atom_site_symmetry_multiplicity
 _atom_site_fract_x
 _atom_site_fract_y
 _atom_site_fract_z
 _atom_site_occupancy
  Cs  Cs0  1  0.13603458  0.14215744  0.58577340  1
  Cs  Cs1  1  0.86396542  0.85784256  0.41422660  1
  Cs  Cs2  1  0.88969316  0.29279157  0.92782211  1
  Cs  Cs3  1  0.11030684  0.70720843  0.07217789  1
  Sb  Sb4  1  0.04518097  0.68082031  0.73071479  1
  Sb  Sb5  1  0.54328393  0.68082031  0.73071479  1
  Sb  Sb6  1  0.95481903  0.31917969  0.26928521  1
  Sb  Sb7  1  0.45671607  0.31917969  0.26928521  1
  Sb  Sb8  1  0.54879177  0.66556046  0.23685599  1
  Sb  Sb9  1  0.45120823  0.33443954  0.76314401  1
  Sb  Sb10  1  0.62655006  0.01678500  0.73011489  1
  Sb  Sb11  1  0.37344994  0.98321500  0.26988511  1
  P  P12  1  0.65897915  0.74455691  0.93748478  1
  P  P13  1  0.34102085  0.25544309  0.06251522  1
  P  P14  1  0.60752900  0.28097572  0.50396628  1
  P  P15  1  0.39247100  0.71902428  0.49603372  1
  O  O16  1  0.17409569  0.46621564  0.77024443  1
  O  O17  1  0.58944424  0.46621564  0.77024443  1
  O  O18  1  0.82590431  0.53378436  0.22975557  1
  O  O19  1  0.41055576  0.53378436  0.22975557  1
  O  O20  1  0.51331783  0.38123311  0.59213123  1
  O  O21  1  0.48668217  0.61876689  0.40786877  1
  O  O22  1  0.59622019  0.91328470  0.89427492  1
  O  O23  1  0.40377981  0.08671530  0.10572508  1
  O  O24  1  0.24763771  0.72998973  0.77473485  1
  O  O25  1  0.75236229  0.27001027  0.22526515  1
  O  O26  1  0.53961534  0.67314797  0.89622486  1
  O  O27  1  0.89101183  0.67314797  0.89622486  1
  O  O28  1  0.46038466  0.32685203  0.10377514  1
  O  O29  1  0.10898817  0.32685203  0.10377514  1
  O  O30  1  0.83957298  0.63124257  0.68961146  1
  O  O31  1  0.16042702  0.36875743  0.31038854  1
  O  O32  1  0.66225707  0.11535815  0.56012771  1
  O  O33  1  0.33774293  0.88464185  0.43987229  1
  O  O34  1  0.50198660  0.89565080  0.69216861  1
  O  O35  1  0.91019399  0.89565080  0.69216861  1
  O  O36  1  0.49801340  0.10434920  0.30783139  1
  O  O37  1  0.08980601  0.10434920  0.30783139  1
  O  O38  1  0.35555806  0.17018458  0.76004439  1
  O  O39  1  0.71421297  0.17018458  0.76004439  1
  O  O40  1  0.64444194  0.82981542  0.23995561  1
  O  O41  1  0.28578703  0.82981542  0.23995561  1
  O  O42  1  0.19624727  0.68675069  0.56742833  1
  O  O43  1  0.54957371  0.68675069  0.56742833  1
  O  O44  1  0.80375273  0.31324931  0.43257167  1
  O  O45  1  0.45042629  0.31324931  0.43257167  1
  O  O46  1  0.38892224  0.28584792  0.93630759  1
  O  O47  1  0.61107776  0.71415208  0.06369241  1
