# generated using pymatgen
data_CsErP2O7
_symmetry_space_group_name_H-M   'P 1'
_cell_length_a   8.00211045
_cell_length_b   8.86254189
_cell_length_c   10.96953906
_cell_angle_alpha   90.00000000
_cell_angle_beta   90.00000000
_cell_angle_gamma   104.41904750
_symmetry_Int_Tables_number   1
_chemical_formula_structural   CsErP2O7
_chemical_formula_sum   'Cs4 Er4 P8 O28'
_cell_volume   753.44410732
_cell_formula_units_Z   4
loop_
 _symmetry_equiv_pos_site_id
 _symmetry_equiv_pos_as_xyz
  1  'x, y, z'
loop_
 _atom_site_type_symbol
 _atom_site_label
 _atom_site_symmetry_multiplicity
 _atom_site_fract_x
 _atom_site_fract_y
 _atom_site_fract_z
 _atom_site_occupancy
  Cs  Cs0  1  0.30148162  0.44874327  0.30726080  1
  Cs  Cs1  1  0.69851838  0.05125673  0.80726080  1
  Cs  Cs2  1  0.69851838  0.55125673  0.69273920  1
  Cs  Cs3  1  0.30148162  0.94874327  0.19273920  1
  Er  Er4  1  0.26342442  0.74630673  0.59967208  1
  Er  Er5  1  0.73657558  0.75369327  0.09967208  1
  Er  Er6  1  0.73657558  0.25369327  0.40032792  1
  Er  Er7  1  0.26342442  0.24630673  0.90032792  1
  P  P8  1  0.63192568  0.82260785  0.40419410  1
  P  P9  1  0.36807432  0.67739215  0.90419410  1
  P  P10  1  0.36807432  0.17739215  0.59580590  1
  P  P11  1  0.63192568  0.32260785  0.09580590  1
  P  P12  1  0.07359360  0.81783484  0.86947355  1
  P  P13  1  0.92640640  0.68216516  0.36947355  1
  P  P14  1  0.92640640  0.18216516  0.13052645  1
  P  P15  1  0.07359360  0.31783484  0.63052645  1
  O  O16  1  0.50423801  0.72966961  0.49820900  1
  O  O17  1  0.49576199  0.77033039  0.99820900  1
  O  O18  1  0.49576199  0.27033039  0.50179100  1
  O  O19  1  0.50423801  0.22966961  0.00179100  1
  O  O20  1  0.34697797  0.00226516  0.58510383  1
  O  O21  1  0.65302203  0.49773484  0.08510383  1
  O  O22  1  0.65302203  0.99773484  0.41489617  1
  O  O23  1  0.34697797  0.50226516  0.91489617  1
  O  O24  1  0.06210322  0.77340498  0.73420951  1
  O  O25  1  0.93789678  0.72659502  0.23420951  1
  O  O26  1  0.93789678  0.22659502  0.26579049  1
  O  O27  1  0.06210322  0.27340498  0.76579049  1
  O  O28  1  0.41363419  0.73961610  0.77438611  1
  O  O29  1  0.58636581  0.76038390  0.27438611  1
  O  O30  1  0.58636581  0.26038390  0.22561389  1
  O  O31  1  0.41363419  0.23961610  0.72561389  1
  O  O32  1  0.10518170  0.72650778  0.42943897  1
  O  O33  1  0.89481830  0.77349222  0.92943897  1
  O  O34  1  0.89481830  0.27349222  0.57056103  1
  O  O35  1  0.10518170  0.22650778  0.07056103  1
  O  O36  1  0.81998884  0.79328933  0.43880230  1
  O  O37  1  0.18001116  0.70671067  0.93880230  1
  O  O38  1  0.18001116  0.20671067  0.56119770  1
  O  O39  1  0.81998884  0.29328933  0.06119770  1
  O  O40  1  0.17316238  0.48593290  0.60567978  1
  O  O41  1  0.82683762  0.01406710  0.10567978  1
  O  O42  1  0.82683762  0.51406710  0.39432022  1
  O  O43  1  0.17316238  0.98593290  0.89432022  1
