# generated using pymatgen
data_Li2B8SeO15
_symmetry_space_group_name_H-M   'P 1'
_cell_length_a   8.55281354
_cell_length_b   8.76133787
_cell_length_c   16.48669843
_cell_angle_alpha   90.00000000
_cell_angle_beta   90.00000000
_cell_angle_gamma   94.48041505
_symmetry_Int_Tables_number   1
_chemical_formula_structural   Li2B8SeO15
_chemical_formula_sum   'Li8 B32 Se4 O60'
_cell_volume   1231.64041669
_cell_formula_units_Z   4
loop_
 _symmetry_equiv_pos_site_id
 _symmetry_equiv_pos_as_xyz
  1  'x, y, z'
loop_
 _atom_site_type_symbol
 _atom_site_label
 _atom_site_symmetry_multiplicity
 _atom_site_fract_x
 _atom_site_fract_y
 _atom_site_fract_z
 _atom_site_occupancy
  Li  Li0  1  0.49685665  0.13849150  0.35819179  1
  Li  Li1  1  0.00314335  0.86150850  0.85819179  1
  Li  Li2  1  0.50314335  0.86150850  0.64180821  1
  Li  Li3  1  0.99685665  0.13849150  0.14180821  1
  Li  Li4  1  0.13060657  0.61975830  0.49954425  1
  Li  Li5  1  0.36939343  0.38024170  0.99954425  1
  Li  Li6  1  0.86939343  0.38024170  0.50045575  1
  Li  Li7  1  0.63060657  0.61975830  0.00045575  1
  B  B8  1  0.56077719  0.47255325  0.31649136  1
  B  B9  1  0.93922281  0.52744675  0.81649136  1
  B  B10  1  0.43922281  0.52744675  0.68350864  1
  B  B11  1  0.06077719  0.47255325  0.18350864  1
  B  B12  1  0.36882415  0.40972676  0.42950517  1
  B  B13  1  0.13117585  0.59027324  0.92950517  1
  B  B14  1  0.63117585  0.59027324  0.57049483  1
  B  B15  1  0.86882415  0.40972676  0.07049483  1
  B  B16  1  0.43124075  0.67395277  0.39081621  1
  B  B17  1  0.06875925  0.32604723  0.89081621  1
  B  B18  1  0.56875925  0.32604723  0.60918379  1
  B  B19  1  0.93124075  0.67395277  0.10918379  1
  B  B20  1  0.27794653  0.16056178  0.50139671  1
  B  B21  1  0.22205347  0.83943822  0.00139671  1
  B  B22  1  0.72205347  0.83943822  0.49860329  1
  B  B23  1  0.77794653  0.16056178  0.99860329  1
  B  B24  1  0.33280365  0.90694003  0.45863469  1
  B  B25  1  0.16719635  0.09305997  0.95863469  1
  B  B26  1  0.66719635  0.09305997  0.54136531  1
  B  B27  1  0.83280365  0.90694003  0.04136531  1
  B  B28  1  0.17673638  0.93846284  0.58394474  1
  B  B29  1  0.32326362  0.06153716  0.08394474  1
  B  B30  1  0.82326362  0.06153716  0.41605526  1
  B  B31  1  0.67673638  0.93846284  0.91605526  1
  B  B32  1  0.95998034  0.89359021  0.67956186  1
  B  B33  1  0.54001966  0.10640979  0.17956186  1
  B  B34  1  0.04001966  0.10640979  0.32043814  1
  B  B35  1  0.45998034  0.89359021  0.82043814  1
  B  B36  1  0.22194440  0.90435937  0.73193273  1
  B  B37  1  0.27805560  0.09564063  0.23193273  1
  B  B38  1  0.77805560  0.09564063  0.26806727  1
  B  B39  1  0.72194440  0.90435937  0.76806727  1
  Se  Se40  1  0.89840072  0.55683753  0.32615367  1
  Se  Se41  1  0.60159928  0.44316247  0.82615367  1
  Se  Se42  1  0.10159928  0.44316247  0.67384633  1
  Se  Se43  1  0.39840072  0.55683753  0.17384633  1
  O  O44  1  0.72560781  0.43183072  0.32756128  1
  O  O45  1  0.77439219  0.56816928  0.82756128  1
  O  O46  1  0.27439219  0.56816928  0.67243872  1
  O  O47  1  0.22560781  0.43183072  0.17243872  1
  O  O48  1  0.01842035  0.43845506  0.26989038  1
  O  O49  1  0.48157965  0.56154494  0.76989038  1
  O  O50  1  0.98157965  0.56154494  0.73010962  1
  O  O51  1  0.51842035  0.43845506  0.23010962  1
  O  O52  1  0.96966050  0.52288866  0.41838116  1
  O  O53  1  0.53033950  0.47711134  0.91838116  1
  O  O54  1  0.03033950  0.47711134  0.58161884  1
  O  O55  1  0.46966050  0.52288866  0.08161884  1
  O  O56  1  0.53673297  0.63212811  0.33530908  1
  O  O57  1  0.96326703  0.36787189  0.83530908  1
  O  O58  1  0.46326703  0.36787189  0.66469092  1
  O  O59  1  0.03673297  0.63212811  0.16469092  1
  O  O60  1  0.46703866  0.36301604  0.37101062  1
  O  O61  1  0.03296134  0.63698396  0.87101062  1
  O  O62  1  0.53296134  0.63698396  0.62898938  1
  O  O63  1  0.96703866  0.36301604  0.12898938  1
  O  O64  1  0.29272059  0.31602030  0.48578960  1
  O  O65  1  0.20727941  0.68397970  0.98578960  1
  O  O66  1  0.70727941  0.68397970  0.51421040  1
  O  O67  1  0.79272059  0.31602030  0.01421040  1
  O  O68  1  0.36602150  0.06524002  0.45323984  1
  O  O69  1  0.13397850  0.93475998  0.95323984  1
  O  O70  1  0.63397850  0.93475998  0.54676016  1
  O  O71  1  0.86602150  0.06524002  0.04676016  1
  O  O72  1  0.18930840  0.10203648  0.56277828  1
  O  O73  1  0.31069160  0.89796352  0.06277828  1
  O  O74  1  0.81069160  0.89796352  0.43722172  1
  O  O75  1  0.68930840  0.10203648  0.93722172  1
  O  O76  1  0.34250132  0.56544546  0.43766663  1
  O  O77  1  0.15749868  0.43455454  0.93766663  1
  O  O78  1  0.65749868  0.43455454  0.56233337  1
  O  O79  1  0.84250132  0.56544546  0.06233337  1
  O  O80  1  0.40970651  0.82657598  0.40097652  1
  O  O81  1  0.09029349  0.17342402  0.90097652  1
  O  O82  1  0.59029349  0.17342402  0.59902348  1
  O  O83  1  0.90970651  0.82657598  0.09902348  1
  O  O84  1  0.23341522  0.84254873  0.51569099  1
  O  O85  1  0.26658478  0.15745127  0.01569099  1
  O  O86  1  0.76658478  0.15745127  0.48430901  1
  O  O87  1  0.73341522  0.84254873  0.98430901  1
  O  O88  1  0.01371333  0.88770205  0.60283654  1
  O  O89  1  0.48628667  0.11229795  0.10283654  1
  O  O90  1  0.98628667  0.11229795  0.39716346  1
  O  O91  1  0.51371333  0.88770205  0.89716346  1
  O  O92  1  0.06202519  0.91181528  0.74550369  1
  O  O93  1  0.43797481  0.08818472  0.24550369  1
  O  O94  1  0.93797481  0.08818472  0.25449631  1
  O  O95  1  0.56202519  0.91181528  0.75449631  1
  O  O96  1  0.30236730  0.88769345  0.80335309  1
  O  O97  1  0.19763270  0.11230655  0.30335309  1
  O  O98  1  0.69763270  0.11230655  0.19664691  1
  O  O99  1  0.80236730  0.88769345  0.69664691  1
  O  O100  1  0.28231967  0.91484477  0.65586839  1
  O  O101  1  0.21768033  0.08515523  0.15586839  1
  O  O102  1  0.71768033  0.08515523  0.34413161  1
  O  O103  1  0.78231967  0.91484477  0.84413161  1
