# generated using pymatgen
data_Np2Tc4O23
_symmetry_space_group_name_H-M   'P 1'
_cell_length_a   5.65006255
_cell_length_b   13.36834603
_cell_length_c   15.39653339
_cell_angle_alpha   106.57609900
_cell_angle_beta   97.58706582
_cell_angle_gamma   93.10684504
_symmetry_Int_Tables_number   1
_chemical_formula_structural   Np2Tc4O23
_chemical_formula_sum   'Np4 Tc8 O46'
_cell_volume   1099.66616683
_cell_formula_units_Z   2
loop_
 _symmetry_equiv_pos_site_id
 _symmetry_equiv_pos_as_xyz
  1  'x, y, z'
loop_
 _atom_site_type_symbol
 _atom_site_label
 _atom_site_symmetry_multiplicity
 _atom_site_fract_x
 _atom_site_fract_y
 _atom_site_fract_z
 _atom_site_occupancy
  Np  Np0  1  0.24674161  0.64847532  0.67201292  1
  Np  Np1  1  0.75325839  0.35152468  0.32798708  1
  Np  Np2  1  0.24825249  0.20241250  0.81310207  1
  Np  Np3  1  0.75174751  0.79758750  0.18689793  1
  Tc  Tc4  1  0.51055805  0.63362359  0.43549861  1
  Tc  Tc5  1  0.48944195  0.36637641  0.56450139  1
  Tc  Tc6  1  0.01311229  0.50343719  0.84728092  1
  Tc  Tc7  1  0.98688771  0.49656281  0.15271908  1
  Tc  Tc8  1  0.40212398  0.93037391  0.63111992  1
  Tc  Tc9  1  0.59787602  0.06962609  0.36888008  1
  Tc  Tc10  1  0.98750531  0.85518898  0.87053331  1
  Tc  Tc11  1  0.01249469  0.14481102  0.12946669  1
  O  O12  1  0.96153938  0.62178358  0.60199526  1
  O  O13  1  0.03846062  0.37821642  0.39800474  1
  O  O14  1  0.53929451  0.66846672  0.73601776  1
  O  O15  1  0.46070549  0.33153328  0.26398224  1
  O  O16  1  0.98611077  0.15177121  0.84916272  1
  O  O17  1  0.01388923  0.84822879  0.15083728  1
  O  O18  1  0.51112684  0.25170948  0.77617526  1
  O  O19  1  0.48887316  0.74829052  0.22382474  1
  O  O20  1  0.40856569  0.61163991  0.53303847  1
  O  O21  1  0.59143431  0.38836009  0.46696153  1
  O  O22  1  0.68186952  0.53224119  0.38293248  1
  O  O23  1  0.31813048  0.46775881  0.61706752  1
  O  O24  1  0.26574622  0.63864011  0.35888425  1
  O  O25  1  0.73425378  0.36135989  0.64111575  1
  O  O26  1  0.67929593  0.75222202  0.46794258  1
  O  O27  1  0.32070407  0.24777798  0.53205742  1
  O  O28  1  0.10797125  0.56563983  0.76645686  1
  O  O29  1  0.89202875  0.43436017  0.23354314  1
  O  O30  1  0.08407879  0.37327327  0.82026238  1
  O  O31  1  0.91592121  0.62672673  0.17973762  1
  O  O32  1  0.15774351  0.56910695  0.95491736  1
  O  O33  1  0.84225649  0.43089305  0.04508264  1
  O  O34  1  0.71057994  0.50606102  0.84641215  1
  O  O35  1  0.28942006  0.49393898  0.15358785  1
  O  O36  1  0.32686440  0.80039705  0.63639750  1
  O  O37  1  0.67313560  0.19960295  0.36360250  1
  O  O38  1  0.30122761  0.02263638  0.72206733  1
  O  O39  1  0.69877239  0.97736362  0.27793267  1
  O  O40  1  0.26553319  0.94168640  0.52901733  1
  O  O41  1  0.73446681  0.05831360  0.47098267  1
  O  O42  1  0.70500895  0.95514518  0.63778800  1
  O  O43  1  0.29499105  0.04485482  0.36221200  1
  O  O44  1  0.11735975  0.77171034  0.77481143  1
  O  O45  1  0.88264025  0.22828966  0.22518857  1
  O  O46  1  0.20095894  0.95155825  0.93848748  1
  O  O47  1  0.79904106  0.04844175  0.06151252  1
  O  O48  1  0.74852901  0.91163135  0.82948498  1
  O  O49  1  0.25147099  0.08836865  0.17051502  1
  O  O50  1  0.89405117  0.77753424  0.93357933  1
  O  O51  1  0.10594883  0.22246576  0.06642067  1
  O  O52  1  0.44756746  0.13478994  0.88382075  1
  O  O53  1  0.55243254  0.86521006  0.11617925  1
  O  O54  1  0.33856227  0.29606318  0.93056361  1
  O  O55  1  0.66143773  0.70393682  0.06943639  1
  O  O56  1  0.07973570  0.18642325  0.70222286  1
  O  O57  1  0.92026430  0.81357675  0.29777714  1
