# generated using pymatgen
data_Pr23Cd4Ru7
_symmetry_space_group_name_H-M   'P 1'
_cell_length_a   10.04929516
_cell_length_b   10.04929516
_cell_length_c   22.59618340
_cell_angle_alpha   90.00000000
_cell_angle_beta   90.00000000
_cell_angle_gamma   120.00028273
_symmetry_Int_Tables_number   1
_chemical_formula_structural   Pr23Cd4Ru7
_chemical_formula_sum   'Pr46 Cd8 Ru14'
_cell_volume   1976.22182005
_cell_formula_units_Z   2
loop_
 _symmetry_equiv_pos_site_id
 _symmetry_equiv_pos_as_xyz
  1  'x, y, z'
loop_
 _atom_site_type_symbol
 _atom_site_label
 _atom_site_symmetry_multiplicity
 _atom_site_fract_x
 _atom_site_fract_y
 _atom_site_fract_z
 _atom_site_occupancy
  Pr  Pr0  1  0.12630730  0.87369270  0.36446401  1
  Pr  Pr1  1  0.74738038  0.87368989  0.36446454  1
  Pr  Pr2  1  0.12631011  0.25261962  0.36446454  1
  Pr  Pr3  1  0.87369270  0.12630730  0.86446401  1
  Pr  Pr4  1  0.25261962  0.12631011  0.86446454  1
  Pr  Pr5  1  0.87368989  0.74738038  0.86446454  1
  Pr  Pr6  1  0.20501973  0.79498027  0.21798989  1
  Pr  Pr7  1  0.58994985  0.79497047  0.21799070  1
  Pr  Pr8  1  0.20502953  0.41005015  0.21799070  1
  Pr  Pr9  1  0.79498027  0.20501973  0.71798989  1
  Pr  Pr10  1  0.41005015  0.20502953  0.71799070  1
  Pr  Pr11  1  0.79497047  0.58994985  0.71799070  1
  Pr  Pr12  1  0.20715538  0.79284462  0.05250742  1
  Pr  Pr13  1  0.58568244  0.79284108  0.05250651  1
  Pr  Pr14  1  0.20715892  0.41431756  0.05250651  1
  Pr  Pr15  1  0.79284462  0.20715538  0.55250742  1
  Pr  Pr16  1  0.41431756  0.20715892  0.55250651  1
  Pr  Pr17  1  0.79284108  0.58568244  0.55250651  1
  Pr  Pr18  1  0.20716139  0.79283861  0.50916054  1
  Pr  Pr19  1  0.58567861  0.79284209  0.50916017  1
  Pr  Pr20  1  0.20715791  0.41432139  0.50916017  1
  Pr  Pr21  1  0.79283861  0.20716139  0.00916054  1
  Pr  Pr22  1  0.41432139  0.20715791  0.00916017  1
  Pr  Pr23  1  0.79284209  0.58567861  0.00916017  1
  Pr  Pr24  1  0.54129625  0.45870375  0.41451264  1
  Pr  Pr25  1  0.91740164  0.45870243  0.41451414  1
  Pr  Pr26  1  0.54129757  0.08259836  0.41451414  1
  Pr  Pr27  1  0.45870375  0.54129625  0.91451264  1
  Pr  Pr28  1  0.08259836  0.54129757  0.91451414  1
  Pr  Pr29  1  0.45870243  0.91740164  0.91451414  1
  Pr  Pr30  1  0.53997177  0.46002823  0.14525238  1
  Pr  Pr31  1  0.92006426  0.46003392  0.14525560  1
  Pr  Pr32  1  0.53996608  0.07993574  0.14525560  1
  Pr  Pr33  1  0.46002823  0.53997177  0.64525238  1
  Pr  Pr34  1  0.07993574  0.53996608  0.64525560  1
  Pr  Pr35  1  0.46003392  0.92006426  0.64525560  1
  Pr  Pr36  1  0.33331617  0.66668383  0.35317275  1
  Pr  Pr37  1  0.66668383  0.33331617  0.85317275  1
  Pr  Pr38  1  -0.00000140  0.00000140  0.50068988  1
  Pr  Pr39  1  0.00000140  -0.00000140  0.00068988  1
  Pr  Pr40  1  0.79302906  0.20697094  0.28040859  1
  Pr  Pr41  1  0.41394168  0.20698129  0.28040719  1
  Pr  Pr42  1  0.79301871  0.58605832  0.28040719  1
  Pr  Pr43  1  0.20697094  0.79302906  0.78040859  1
  Pr  Pr44  1  0.58605832  0.79301871  0.78040719  1
  Pr  Pr45  1  0.20698129  0.41394168  0.78040719  1
  Cd  Cd46  1  0.89428655  0.10571345  0.13713149  1
  Cd  Cd47  1  0.21142696  0.10571427  0.13713119  1
  Cd  Cd48  1  0.89428573  0.78857304  0.13713119  1
  Cd  Cd49  1  0.10571345  0.89428655  0.63713149  1
  Cd  Cd50  1  0.78857304  0.89428573  0.63713119  1
  Cd  Cd51  1  0.10571427  0.21142696  0.63713119  1
  Cd  Cd52  1  0.99999938  0.00000062  0.24934351  1
  Cd  Cd53  1  0.00000062  0.99999938  0.74934351  1
  Ru  Ru54  1  0.48310057  0.51689943  0.28916009  1
  Ru  Ru55  1  0.03378866  0.51689488  0.28915797  1
  Ru  Ru56  1  0.48310512  0.96621134  0.28915797  1
  Ru  Ru57  1  0.51689943  0.48310057  0.78916009  1
  Ru  Ru58  1  0.96621134  0.48310512  0.78915797  1
  Ru  Ru59  1  0.51689488  0.03378866  0.78915797  1
  Ru  Ru60  1  0.85373054  0.14626946  0.43891557  1
  Ru  Ru61  1  0.29254196  0.14627451  0.43891563  1
  Ru  Ru62  1  0.85372549  0.70745804  0.43891563  1
  Ru  Ru63  1  0.14626946  0.85373054  0.93891557  1
  Ru  Ru64  1  0.70745804  0.85372549  0.93891563  1
  Ru  Ru65  1  0.14627451  0.29254196  0.93891563  1
  Ru  Ru66  1  0.33330567  0.66669433  0.13178393  1
  Ru  Ru67  1  0.66669433  0.33330567  0.63178393  1
