# generated using pymatgen
data_Zr(TlS)4
_symmetry_space_group_name_H-M   'P 1'
_cell_length_a   9.28054650
_cell_length_b   9.28092024
_cell_length_c   15.85869140
_cell_angle_alpha   104.08207791
_cell_angle_beta   104.79071481
_cell_angle_gamma   90.03743104
_symmetry_Int_Tables_number   1
_chemical_formula_structural   Zr(TlS)4
_chemical_formula_sum   'Zr5 Tl20 S20'
_cell_volume   1278.11892155
_cell_formula_units_Z   5
loop_
 _symmetry_equiv_pos_site_id
 _symmetry_equiv_pos_as_xyz
  1  'x, y, z'
loop_
 _atom_site_type_symbol
 _atom_site_label
 _atom_site_symmetry_multiplicity
 _atom_site_fract_x
 _atom_site_fract_y
 _atom_site_fract_z
 _atom_site_occupancy
  Zr  Zr0  1  0.98409451  0.31763852  0.40039840  1
  Zr  Zr1  1  0.01590549  0.68236148  0.59960160  1
  Zr  Zr2  1  0.82629327  0.69101718  0.80062878  1
  Zr  Zr3  1  0.17370673  0.30898282  0.19937122  1
  Zr  Zr4  1  -0.00000000  0.50000000  0.00000000  1
  Tl  Tl5  1  0.95809235  0.92212289  0.20025880  1
  Tl  Tl6  1  0.04190765  0.07787711  0.79974120  1
  Tl  Tl7  1  0.78799638  0.28419647  0.59877743  1
  Tl  Tl8  1  0.21200362  0.71580353  0.40122257  1
  Tl  Tl9  1  0.78723049  0.91509037  0.40524351  1
  Tl  Tl10  1  0.21276951  0.08490963  0.59475649  1
  Tl  Tl11  1  0.78072792  0.54154485  0.20309773  1
  Tl  Tl12  1  0.21927208  0.45845515  0.79690227  1
  Tl  Tl13  1  0.62669740  0.89890471  0.61170761  1
  Tl  Tl14  1  0.37330260  0.10109529  0.38829239  1
  Tl  Tl15  1  0.61713244  0.30247974  0.80933760  1
  Tl  Tl16  1  0.38286756  0.69752026  0.19066240  1
  Tl  Tl17  1  0.58908210  0.52901887  0.40023685  1
  Tl  Tl18  1  0.41091790  0.47098113  0.59976315  1
  Tl  Tl19  1  0.41980852  0.89251938  0.79744788  1
  Tl  Tl20  1  0.58019148  0.10748062  0.20255212  1
  Tl  Tl21  1  0.39018514  0.28676150  0.00319737  1
  Tl  Tl22  1  0.60981486  0.71323850  0.99680263  1
  Tl  Tl23  1  0.21878687  0.89517009  0.99308469  1
  Tl  Tl24  1  0.78121313  0.10482991  0.00691531  1
  S  S25  1  0.93652864  0.94512638  0.59678447  1
  S  S26  1  0.06347136  0.05487362  0.40321553  1
  S  S27  1  0.93115429  0.60213567  0.42320839  1
  S  S28  1  0.06884571  0.39786433  0.57679161  1
  S  S29  1  0.92540608  0.76359690  0.97821115  1
  S  S30  1  0.07459392  0.23640310  0.02178885  1
  S  S31  1  0.91312833  0.42253049  0.82294240  1
  S  S32  1  0.08687167  0.57746951  0.17705760  1
  S  S33  1  0.75960804  0.95747661  0.80575731  1
  S  S34  1  0.24039196  0.04252339  0.19424269  1
  S  S35  1  0.75129341  0.61334935  0.62387274  1
  S  S36  1  0.24870659  0.38665065  0.37612726  1
  S  S37  1  0.56164698  0.61756790  0.80166909  1
  S  S38  1  0.43835302  0.38243210  0.19833091  1
  S  S39  1  0.28226728  0.75542387  0.60395699  1
  S  S40  1  0.71773272  0.24457613  0.39604301  1
  S  S41  1  0.26872530  0.57139330  0.99726677  1
  S  S42  1  0.73127470  0.42860670  0.00273323  1
  S  S43  1  0.09208482  0.73887445  0.77575680  1
  S  S44  1  0.90791518  0.26112555  0.22424320  1
