# generated using pymatgen
data_K2Li(H2N)3
_symmetry_space_group_name_H-M   'P 1'
_cell_length_a   7.06269619
_cell_length_b   7.06269619
_cell_length_c   12.16828759
_cell_angle_alpha   90.00000000
_cell_angle_beta   90.00000000
_cell_angle_gamma   90.00000000
_symmetry_Int_Tables_number   1
_chemical_formula_structural   K2Li(H2N)3
_chemical_formula_sum   'K8 Li4 H24 N12'
_cell_volume   606.97459695
_cell_formula_units_Z   4
loop_
 _symmetry_equiv_pos_site_id
 _symmetry_equiv_pos_as_xyz
  1  'x, y, z'
loop_
 _atom_site_type_symbol
 _atom_site_label
 _atom_site_symmetry_multiplicity
 _atom_site_fract_x
 _atom_site_fract_y
 _atom_site_fract_z
 _atom_site_occupancy
  K  K0  1  -0.00000000  0.50000000  0.35192214  1
  K  K1  1  0.50000000  0.00000000  0.85192214  1
  K  K2  1  -0.00000000  0.50000000  0.64807786  1
  K  K3  1  0.50000000  0.00000000  0.14807786  1
  K  K4  1  -0.00000000  0.00000000  0.50000000  1
  K  K5  1  -0.00000000  0.00000000  -0.00000000  1
  K  K6  1  0.50000000  0.50000000  0.25000000  1
  K  K7  1  0.50000000  0.50000000  0.75000000  1
  Li  Li8  1  0.64908998  0.35518009  0.50000000  1
  Li  Li9  1  0.35091002  0.64481991  0.50000000  1
  Li  Li10  1  0.35518009  0.35091002  -0.00000000  1
  Li  Li11  1  0.64481991  0.64908998  -0.00000000  1
  H  H12  1  0.67899837  0.72134720  0.43421277  1
  H  H13  1  0.32100163  0.27865280  0.43421277  1
  H  H14  1  0.72134720  0.32100163  0.93421277  1
  H  H15  1  0.27865280  0.67899837  0.93421277  1
  H  H16  1  0.32100163  0.27865280  0.56578723  1
  H  H17  1  0.67899837  0.72134720  0.56578723  1
  H  H18  1  0.27865280  0.67899837  0.06578723  1
  H  H19  1  0.72134720  0.32100163  0.06578723  1
  H  H20  1  0.81458222  0.17074639  0.29655378  1
  H  H21  1  0.18541778  0.82925361  0.29655378  1
  H  H22  1  0.17074639  0.18541778  0.79655378  1
  H  H23  1  0.82925361  0.81458222  0.79655378  1
  H  H24  1  0.18541778  0.82925361  0.70344622  1
  H  H25  1  0.81458222  0.17074639  0.70344622  1
  H  H26  1  0.82925361  0.81458222  0.20344622  1
  H  H27  1  0.17074639  0.18541778  0.20344622  1
  H  H28  1  0.65076943  0.08610874  0.37385434  1
  H  H29  1  0.34923057  0.91389126  0.37385434  1
  H  H30  1  0.08610874  0.34923057  0.87385434  1
  H  H31  1  0.91389126  0.65076943  0.87385434  1
  H  H32  1  0.34923057  0.91389126  0.62614566  1
  H  H33  1  0.65076943  0.08610874  0.62614566  1
  H  H34  1  0.91389126  0.65076943  0.12614566  1
  H  H35  1  0.08610874  0.34923057  0.12614566  1
  N  N36  1  0.71347685  0.63667654  0.50000000  1
  N  N37  1  0.28652315  0.36332346  0.50000000  1
  N  N38  1  0.63667654  0.28652315  -0.00000000  1
  N  N39  1  0.36332346  0.71347685  -0.00000000  1
  N  N40  1  0.71867298  0.21130272  0.35561867  1
  N  N41  1  0.28132702  0.78869728  0.35561867  1
  N  N42  1  0.21130272  0.28132702  0.85561867  1
  N  N43  1  0.78869728  0.71867298  0.85561867  1
  N  N44  1  0.28132702  0.78869728  0.64438133  1
  N  N45  1  0.71867298  0.21130272  0.64438133  1
  N  N46  1  0.78869728  0.71867298  0.14438133  1
  N  N47  1  0.21130272  0.28132702  0.14438133  1
