# generated using pymatgen
data_LaAgAs2
_symmetry_space_group_name_H-M   'P 1'
_cell_length_a   5.87806015
_cell_length_b   5.90624829
_cell_length_c   21.47790621
_cell_angle_alpha   90.00000000
_cell_angle_beta   90.00000000
_cell_angle_gamma   90.00000000
_symmetry_Int_Tables_number   1
_chemical_formula_structural   LaAgAs2
_chemical_formula_sum   'La8 Ag8 As16'
_cell_volume   745.65454190
_cell_formula_units_Z   8
loop_
 _symmetry_equiv_pos_site_id
 _symmetry_equiv_pos_as_xyz
  1  'x, y, z'
loop_
 _atom_site_type_symbol
 _atom_site_label
 _atom_site_symmetry_multiplicity
 _atom_site_fract_x
 _atom_site_fract_y
 _atom_site_fract_z
 _atom_site_occupancy
  La  La0  1  0.75000000  0.51444734  0.88564538  1
  La  La1  1  0.25000000  0.48555266  0.11435462  1
  La  La2  1  0.25000000  0.51444734  0.61435462  1
  La  La3  1  0.75000000  0.48555266  0.38564538  1
  La  La4  1  0.75000000  0.01638547  0.61943327  1
  La  La5  1  0.25000000  0.98361453  0.38056673  1
  La  La6  1  0.25000000  0.01638547  0.88056673  1
  La  La7  1  0.75000000  0.98361453  0.11943327  1
  Ag  Ag8  1  -0.00000000  0.23505307  0.25000000  1
  Ag  Ag9  1  0.50000000  0.76494693  0.75000000  1
  Ag  Ag10  1  -0.00000000  0.76494693  0.75000000  1
  Ag  Ag11  1  0.50000000  0.23505307  0.25000000  1
  Ag  Ag12  1  -0.00000000  0.73164909  0.25000000  1
  Ag  Ag13  1  0.50000000  0.26835091  0.75000000  1
  Ag  Ag14  1  -0.00000000  0.26835091  0.75000000  1
  Ag  Ag15  1  0.50000000  0.73164909  0.25000000  1
  As  As16  1  0.75000000  0.51663368  0.66268164  1
  As  As17  1  0.25000000  0.48336632  0.33731836  1
  As  As18  1  0.25000000  0.51663368  0.83731836  1
  As  As19  1  0.75000000  0.48336632  0.16268164  1
  As  As20  1  0.75000000  0.01590155  0.83627629  1
  As  As21  1  0.25000000  0.98409845  0.16372371  1
  As  As22  1  0.25000000  0.01590155  0.66372371  1
  As  As23  1  0.75000000  0.98409845  0.33627629  1
  As  As24  1  0.03110261  0.21751905  0.49852342  1
  As  As25  1  0.53110261  0.78248095  0.50147658  1
  As  As26  1  0.96889739  0.21751905  0.00147658  1
  As  As27  1  0.46889739  0.78248095  0.99852342  1
  As  As28  1  0.96889739  0.78248095  0.50147658  1
  As  As29  1  0.46889739  0.21751905  0.49852342  1
  As  As30  1  0.03110261  0.78248095  0.99852342  1
  As  As31  1  0.53110261  0.21751905  0.00147658  1
