# generated using pymatgen
data_Tl2NiH12(SeO7)2
_symmetry_space_group_name_H-M   'P 1'
_cell_length_a   6.51271914
_cell_length_b   9.40980179
_cell_length_c   12.81688488
_cell_angle_alpha   90.00000000
_cell_angle_beta   90.00000000
_cell_angle_gamma   105.63797258
_symmetry_Int_Tables_number   1
_chemical_formula_structural   Tl2NiH12(SeO7)2
_chemical_formula_sum   'Tl4 Ni2 H24 Se4 O28'
_cell_volume   756.38766579
_cell_formula_units_Z   2
loop_
 _symmetry_equiv_pos_site_id
 _symmetry_equiv_pos_as_xyz
  1  'x, y, z'
loop_
 _atom_site_type_symbol
 _atom_site_label
 _atom_site_symmetry_multiplicity
 _atom_site_fract_x
 _atom_site_fract_y
 _atom_site_fract_z
 _atom_site_occupancy
  Tl  Tl0  1  0.34842855  0.61577408  0.13866040  1
  Tl  Tl1  1  0.65157145  0.88422592  0.63866040  1
  Tl  Tl2  1  0.65157145  0.38422592  0.86133960  1
  Tl  Tl3  1  0.34842855  0.11577408  0.36133960  1
  Ni  Ni4  1  -0.00000000  0.50000000  0.50000000  1
  Ni  Ni5  1  -0.00000000  0.00000000  -0.00000000  1
  H  H6  1  0.31803848  0.70430260  0.41118314  1
  H  H7  1  0.68196152  0.79569740  0.91118314  1
  H  H8  1  0.68196152  0.29569740  0.58881686  1
  H  H9  1  0.31803848  0.20430260  0.08881686  1
  H  H10  1  0.09915879  0.73894783  0.37553964  1
  H  H11  1  0.90084121  0.76105217  0.87553964  1
  H  H12  1  0.90084121  0.26105217  0.62446036  1
  H  H13  1  0.09915879  0.23894783  0.12446036  1
  H  H14  1  0.92494515  0.23659708  0.40291517  1
  H  H15  1  0.07505485  0.26340292  0.90291517  1
  H  H16  1  0.07505485  0.76340292  0.59708483  1
  H  H17  1  0.92494515  0.73659708  0.09708483  1
  H  H18  1  0.99864610  0.36226155  0.31727786  1
  H  H19  1  0.00135390  0.13773845  0.81727786  1
  H  H20  1  0.00135390  0.63773845  0.68272214  1
  H  H21  1  0.99864610  0.86226155  0.18272214  1
  H  H22  1  0.32206271  0.39627697  0.55676488  1
  H  H23  1  0.67793729  0.10372303  0.05676488  1
  H  H24  1  0.67793729  0.60372303  0.44323512  1
  H  H25  1  0.32206271  0.89627697  0.94323512  1
  H  H26  1  0.31661995  0.52365247  0.63669260  1
  H  H27  1  0.68338005  0.97634753  0.13669260  1
  H  H28  1  0.68338005  0.47634753  0.36330740  1
  H  H29  1  0.31661995  0.02365247  0.86330740  1
  Se  Se30  1  0.73697950  0.90539051  0.35854488  1
  Se  Se31  1  0.26302050  0.59460949  0.85854488  1
  Se  Se32  1  0.26302050  0.09460949  0.64145512  1
  Se  Se33  1  0.73697950  0.40539051  0.14145512  1
  O  O34  1  0.58430307  0.91399738  0.25515377  1
  O  O35  1  0.41569693  0.58600262  0.75515377  1
  O  O36  1  0.41569693  0.08600262  0.74484623  1
  O  O37  1  0.58430307  0.41399738  0.24484623  1
  O  O38  1  0.77588224  0.05946099  0.42991785  1
  O  O39  1  0.22411776  0.44053901  0.92991785  1
  O  O40  1  0.22411776  0.94053901  0.57008215  1
  O  O41  1  0.77588224  0.55946099  0.07008215  1
  O  O42  1  0.60312937  0.76579362  0.43520848  1
  O  O43  1  0.39687063  0.73420638  0.93520848  1
  O  O44  1  0.39687063  0.23420638  0.56479152  1
  O  O45  1  0.60312937  0.26579362  0.06479152  1
  O  O46  1  0.97043274  0.87846935  0.31976681  1
  O  O47  1  0.02956726  0.62153065  0.81976681  1
  O  O48  1  0.02956726  0.12153065  0.68023319  1
  O  O49  1  0.97043274  0.37846935  0.18023319  1
  O  O50  1  0.16578115  0.65938154  0.39313006  1
  O  O51  1  0.83421885  0.84061846  0.89313006  1
  O  O52  1  0.83421885  0.34061846  0.60686994  1
  O  O53  1  0.16578115  0.15938154  0.10686994  1
  O  O54  1  0.02068877  0.33733217  0.39113083  1
  O  O55  1  0.97931123  0.16266783  0.89113083  1
  O  O56  1  0.97931123  0.66266783  0.60886917  1
  O  O57  1  0.02068877  0.83733217  0.10886917  1
  O  O58  1  0.28312049  0.49088705  0.56321780  1
  O  O59  1  0.71687951  0.00911295  0.06321780  1
  O  O60  1  0.71687951  0.50911295  0.43678220  1
  O  O61  1  0.28312049  0.99088705  0.93678220  1
