# generated using pymatgen
data_CoSeO3
_symmetry_space_group_name_H-M   'P 1'
_cell_length_a   9.42223976
_cell_length_b   9.42223976
_cell_length_c   15.20252044
_cell_angle_alpha   72.55433698
_cell_angle_beta   72.55433698
_cell_angle_gamma   64.75208667
_symmetry_Int_Tables_number   1
_chemical_formula_structural   CoSeO3
_chemical_formula_sum   'Co16 Se16 O48'
_cell_volume   1141.22419735
_cell_formula_units_Z   16
loop_
 _symmetry_equiv_pos_site_id
 _symmetry_equiv_pos_as_xyz
  1  'x, y, z'
loop_
 _atom_site_type_symbol
 _atom_site_label
 _atom_site_symmetry_multiplicity
 _atom_site_fract_x
 _atom_site_fract_y
 _atom_site_fract_z
 _atom_site_occupancy
  Co  Co0  1  0.95047561  0.18503202  0.46775547  1
  Co  Co1  1  0.81496798  0.04952439  0.03224453  1
  Co  Co2  1  0.04952439  0.81496798  0.53224453  1
  Co  Co3  1  0.18503202  0.95047561  0.96775547  1
  Co  Co4  1  0.88886525  0.63309030  0.40564677  1
  Co  Co5  1  0.36690970  0.11113475  0.09435323  1
  Co  Co6  1  0.11113475  0.36690970  0.59435323  1
  Co  Co7  1  0.63309030  0.88886525  0.90564677  1
  Co  Co8  1  0.87728160  0.58893987  0.08187412  1
  Co  Co9  1  0.41106013  0.12271840  0.41812588  1
  Co  Co10  1  0.12271840  0.41106013  0.91812588  1
  Co  Co11  1  0.58893987  0.87728160  0.58187412  1
  Co  Co12  1  0.12788469  0.32398324  0.25880143  1
  Co  Co13  1  0.67601676  0.87211531  0.24119857  1
  Co  Co14  1  0.87211531  0.67601676  0.74119857  1
  Co  Co15  1  0.32398324  0.12788469  0.75880143  1
  Se  Se16  1  0.23845200  0.51320375  0.39793336  1
  Se  Se17  1  0.48679625  0.76154800  0.10206664  1
  Se  Se18  1  0.76154800  0.48679625  0.60206664  1
  Se  Se19  1  0.51320375  0.23845200  0.89793336  1
  Se  Se20  1  0.96638805  0.20225116  0.13536163  1
  Se  Se21  1  0.79774884  0.03361195  0.36463837  1
  Se  Se22  1  0.03361195  0.79774884  0.86463837  1
  Se  Se23  1  0.20225116  0.96638805  0.63536163  1
  Se  Se24  1  0.06011843  0.70973385  0.15087798  1
  Se  Se25  1  0.29026615  0.93988157  0.34912202  1
  Se  Se26  1  0.93988157  0.29026615  0.84912202  1
  Se  Se27  1  0.70973385  0.06011843  0.65087798  1
  Se  Se28  1  0.71178578  0.48005062  0.31720926  1
  Se  Se29  1  0.51994938  0.28821422  0.18279074  1
  Se  Se30  1  0.28821422  0.51994938  0.68279074  1
  Se  Se31  1  0.48005062  0.71178578  0.81720926  1
  O  O32  1  0.07827877  0.61225647  0.48061365  1
  O  O33  1  0.38774353  0.92172123  0.01938635  1
  O  O34  1  0.92172123  0.38774353  0.51938635  1
  O  O35  1  0.61225647  0.07827877  0.98061365  1
  O  O36  1  0.28583156  0.32750655  0.47385202  1
  O  O37  1  0.67249345  0.71416844  0.02614798  1
  O  O38  1  0.71416844  0.67249345  0.52614798  1
  O  O39  1  0.32750655  0.28583156  0.97385202  1
  O  O40  1  0.11648272  0.50229730  0.33549274  1
  O  O41  1  0.49770270  0.88351728  0.16450726  1
  O  O42  1  0.88351728  0.49770270  0.66450726  1
  O  O43  1  0.50229730  0.11648272  0.83549274  1
  O  O44  1  0.97351152  0.36644219  0.04659360  1
  O  O45  1  0.63355781  0.02648848  0.45340640  1
  O  O46  1  0.02648848  0.63355781  0.95340640  1
  O  O47  1  0.36644219  0.97351152  0.54659360  1
  O  O48  1  0.01429175  0.04898105  0.07732309  1
  O  O49  1  0.95101895  0.98570825  0.42267691  1
  O  O50  1  0.98570825  0.95101895  0.92267691  1
  O  O51  1  0.04898105  0.01429175  0.57732309  1
  O  O52  1  0.14056954  0.15050553  0.17517293  1
  O  O53  1  0.84949447  0.85943046  0.32482707  1
  O  O54  1  0.85943046  0.84949447  0.82482707  1
  O  O55  1  0.15050553  0.14056954  0.67517293  1
  O  O56  1  0.19806091  0.72802827  0.05053332  1
  O  O57  1  0.27197173  0.80193909  0.44946668  1
  O  O58  1  0.80193909  0.27197173  0.94946668  1
  O  O59  1  0.72802827  0.19806091  0.55053332  1
  O  O60  1  0.05438930  0.52273370  0.15738255  1
  O  O61  1  0.47726630  0.94561070  0.34261745  1
  O  O62  1  0.94561070  0.47726630  0.84261745  1
  O  O63  1  0.52273370  0.05438930  0.65738255  1
  O  O64  1  0.86347569  0.81193929  0.12049970  1
  O  O65  1  0.18806071  0.13652431  0.37950030  1
  O  O66  1  0.13652431  0.18806071  0.87950030  1
  O  O67  1  0.81193929  0.86347569  0.62049970  1
  O  O68  1  0.71662337  0.50912548  0.20050370  1
  O  O69  1  0.49087452  0.28337663  0.29949630  1
  O  O70  1  0.28337663  0.49087452  0.79949630  1
  O  O71  1  0.50912548  0.71662337  0.70050370  1
  O  O72  1  0.89645499  0.33011473  0.33586608  1
  O  O73  1  0.66988527  0.10354501  0.16413392  1
  O  O74  1  0.10354501  0.66988527  0.66413392  1
  O  O75  1  0.33011473  0.89645499  0.83586608  1
  O  O76  1  0.75043080  0.64400871  0.32091666  1
  O  O77  1  0.35599129  0.24956920  0.17908334  1
  O  O78  1  0.24956920  0.35599129  0.67908334  1
  O  O79  1  0.64400871  0.75043080  0.82091666  1
