# generated using pymatgen
data_Y7Co6Sn23
_symmetry_space_group_name_H-M   'P 1'
_cell_length_a   9.72047233
_cell_length_b   9.72038299
_cell_length_c   9.97702060
_cell_angle_alpha   90.00991576
_cell_angle_beta   89.98757769
_cell_angle_gamma   119.99359195
_symmetry_Int_Tables_number   1
_chemical_formula_structural   Y7Co6Sn23
_chemical_formula_sum   'Y7 Co6 Sn23'
_cell_volume   816.45127885
_cell_formula_units_Z   1
loop_
 _symmetry_equiv_pos_site_id
 _symmetry_equiv_pos_as_xyz
  1  'x, y, z'
loop_
 _atom_site_type_symbol
 _atom_site_label
 _atom_site_symmetry_multiplicity
 _atom_site_fract_x
 _atom_site_fract_y
 _atom_site_fract_z
 _atom_site_occupancy
  Y  Y0  1  0.00000000  0.00000000  0.50000000  1
  Y  Y1  1  0.95624682  0.47816631  0.19399840  1
  Y  Y2  1  0.52182924  0.47813068  0.19399774  1
  Y  Y3  1  0.52182203  0.04373657  0.19399360  1
  Y  Y4  1  0.04375318  0.52183369  0.80600160  1
  Y  Y5  1  0.47817076  0.52186932  0.80600226  1
  Y  Y6  1  0.47817797  0.95626343  0.80600640  1
  Co  Co7  1  0.83258264  0.66510733  0.69721822  1
  Co  Co8  1  0.33490205  0.16746040  0.69722264  1
  Co  Co9  1  0.83257635  0.16740051  0.69721595  1
  Co  Co10  1  0.16741736  0.33489267  0.30278178  1
  Co  Co11  1  0.66509795  0.83253960  0.30277736  1
  Co  Co12  1  0.16742365  0.83259949  0.30278405  1
  Sn  Sn13  1  0.00000000  0.00000000  0.00000000  1
  Sn  Sn14  1  0.88247090  0.76497671  0.22548926  1
  Sn  Sn15  1  0.23509420  0.11759066  0.22547218  1
  Sn  Sn16  1  0.88255483  0.11740169  0.22557390  1
  Sn  Sn17  1  0.11752910  0.23502329  0.77451074  1
  Sn  Sn18  1  0.76490580  0.88240934  0.77452782  1
  Sn  Sn19  1  0.11744517  0.88259831  0.77442610  1
  Sn  Sn20  1  0.65427939  0.65426953  0.50001206  1
  Sn  Sn21  1  0.34582794  0.00005590  0.50000086  1
  Sn  Sn22  1  0.00003456  0.34584347  0.50001866  1
  Sn  Sn23  1  0.65417206  0.99994410  0.49999914  1
  Sn  Sn24  1  0.99996544  0.65415653  0.49998134  1
  Sn  Sn25  1  0.34572061  0.34573047  0.49998794  1
  Sn  Sn26  1  0.21890878  0.78112174  0.04832299  1
  Sn  Sn27  1  0.21883272  0.43772865  0.04834601  1
  Sn  Sn28  1  0.56229030  0.78114668  0.04835306  1
  Sn  Sn29  1  0.78109122  0.21887826  0.95167701  1
  Sn  Sn30  1  0.78116728  0.56227135  0.95165399  1
  Sn  Sn31  1  0.43770970  0.21885332  0.95164694  1
  Sn  Sn32  1  0.33334385  0.66668232  0.31734311  1
  Sn  Sn33  1  0.66665615  0.33331768  0.68265689  1
  Sn  Sn34  1  0.33335142  0.66667816  0.61544584  1
  Sn  Sn35  1  0.66664858  0.33332184  0.38455416  1
