# generated using pymatgen
data_CsTh2(PO4)3
_symmetry_space_group_name_H-M   'P 1'
_cell_length_a   7.02796203
_cell_length_b   8.25990626
_cell_length_c   9.73608109
_cell_angle_alpha   102.51865458
_cell_angle_beta   111.15692567
_cell_angle_gamma   90.00000000
_symmetry_Int_Tables_number   1
_chemical_formula_structural   CsTh2(PO4)3
_chemical_formula_sum   'Cs2 Th4 P6 O24'
_cell_volume   512.65211671
_cell_formula_units_Z   2
loop_
 _symmetry_equiv_pos_site_id
 _symmetry_equiv_pos_as_xyz
  1  'x, y, z'
loop_
 _atom_site_type_symbol
 _atom_site_label
 _atom_site_symmetry_multiplicity
 _atom_site_fract_x
 _atom_site_fract_y
 _atom_site_fract_z
 _atom_site_occupancy
  Cs  Cs0  1  0.59049149  0.75000000  0.00000000  1
  Cs  Cs1  1  0.40950851  0.25000000  0.00000000  1
  Th  Th2  1  0.06249901  0.53174178  0.31055974  1
  Th  Th3  1  0.75193926  0.96825822  0.68944026  1
  Th  Th4  1  0.93750099  0.46825822  0.68944026  1
  Th  Th5  1  0.24806074  0.03174178  0.31055974  1
  P  P6  1  0.21519496  0.82013548  0.61363512  1
  P  P7  1  0.60155984  0.67986452  0.38636488  1
  P  P8  1  0.78480504  0.17986452  0.38636488  1
  P  P9  1  0.39844016  0.32013548  0.61363512  1
  P  P10  1  0.09088172  0.75000000  0.00000000  1
  P  P11  1  0.90911828  0.25000000  0.00000000  1
  O  O12  1  0.04284177  0.74200426  0.14346286  1
  O  O13  1  0.89937891  0.75799574  0.85653714  1
  O  O14  1  0.95715823  0.25799574  0.85653714  1
  O  O15  1  0.10062109  0.24200426  0.14346286  1
  O  O16  1  0.17994975  0.58929457  0.94248404  1
  O  O17  1  0.23746571  0.91070543  0.05751596  1
  O  O18  1  0.82005025  0.41070543  0.05751596  1
  O  O19  1  0.76253429  0.08929457  0.94248404  1
  O  O20  1  0.16876422  0.82997966  0.44536131  1
  O  O21  1  0.72340291  0.67002034  0.55463869  1
  O  O22  1  0.83123578  0.17002034  0.55463869  1
  O  O23  1  0.27659709  0.32997966  0.44536131  1
  O  O24  1  0.44619992  0.85474737  0.70459652  1
  O  O25  1  0.74160339  0.64525263  0.29540348  1
  O  O26  1  0.55380008  0.14525263  0.29540348  1
  O  O27  1  0.25839661  0.35474737  0.70459652  1
  O  O28  1  0.14189781  0.63198202  0.58904940  1
  O  O29  1  0.55284841  0.86801798  0.41095060  1
  O  O30  1  0.85810219  0.36801798  0.41095060  1
  O  O31  1  0.44715159  0.13198202  0.58904940  1
  O  O32  1  0.08776777  0.93055653  0.68912703  1
  O  O33  1  0.39864074  0.56944347  0.31087297  1
  O  O34  1  0.91223223  0.06944347  0.31087297  1
  O  O35  1  0.60135926  0.43055653  0.68912703  1
