# generated using pymatgen
data_BHO2
_symmetry_space_group_name_H-M   'P 1'
_cell_length_a   6.91719641
_cell_length_b   7.37570612
_cell_length_c   8.90756843
_cell_angle_alpha   90.00000000
_cell_angle_beta   90.00000000
_cell_angle_gamma   91.57592518
_symmetry_Int_Tables_number   1
_chemical_formula_structural   BHO2
_chemical_formula_sum   'B12 H12 O24'
_cell_volume   454.28519129
_cell_formula_units_Z   12
loop_
 _symmetry_equiv_pos_site_id
 _symmetry_equiv_pos_as_xyz
  1  'x, y, z'
loop_
 _atom_site_type_symbol
 _atom_site_label
 _atom_site_symmetry_multiplicity
 _atom_site_fract_x
 _atom_site_fract_y
 _atom_site_fract_z
 _atom_site_occupancy
  B  B0  1  0.83215297  0.73208275  0.54344345  1
  B  B1  1  0.16784703  0.76791725  0.04344345  1
  B  B2  1  0.16784703  0.26791725  0.45655655  1
  B  B3  1  0.83215297  0.23208275  0.95655655  1
  B  B4  1  0.97562036  0.76054079  0.28886673  1
  B  B5  1  0.02437964  0.73945921  0.78886673  1
  B  B6  1  0.02437964  0.23945921  0.71113327  1
  B  B7  1  0.97562036  0.26054079  0.21113327  1
  B  B8  1  0.67139422  0.89844985  0.33873385  1
  B  B9  1  0.32860578  0.60155015  0.83873385  1
  B  B10  1  0.32860578  0.10155015  0.66126615  1
  B  B11  1  0.67139422  0.39844985  0.16126615  1
  H  H12  1  0.63516163  0.52073841  0.63498833  1
  H  H13  1  0.36483837  0.97926159  0.13498833  1
  H  H14  1  0.36483837  0.47926159  0.36501167  1
  H  H15  1  0.63516163  0.02073841  0.86501167  1
  H  H16  1  0.82220736  0.43485899  0.54451769  1
  H  H17  1  0.17779264  0.06514101  0.04451769  1
  H  H18  1  0.17779264  0.56514101  0.45548231  1
  H  H19  1  0.82220736  0.93485899  0.95548231  1
  H  H20  1  0.43685173  0.04120000  0.36947973  1
  H  H21  1  0.56314827  0.45880000  0.86947973  1
  H  H22  1  0.56314827  0.95880000  0.63052027  1
  H  H23  1  0.43685173  0.54120000  0.13052027  1
  O  O24  1  0.99260481  0.71148137  0.43844803  1
  O  O25  1  0.00739519  0.78851863  0.93844803  1
  O  O26  1  0.00739519  0.28851863  0.56155197  1
  O  O27  1  0.99260481  0.21148137  0.06155197  1
  O  O28  1  0.81464271  0.85211026  0.23878886  1
  O  O29  1  0.18535729  0.64788974  0.73878886  1
  O  O30  1  0.18535729  0.14788974  0.76121114  1
  O  O31  1  0.81464271  0.35211026  0.26121114  1
  O  O32  1  0.68551294  0.85456055  0.48834098  1
  O  O33  1  0.31448706  0.64543945  0.98834098  1
  O  O34  1  0.31448706  0.14543945  0.51165902  1
  O  O35  1  0.68551294  0.35456055  0.01165902  1
  O  O36  1  0.88119552  0.78460225  0.69381693  1
  O  O37  1  0.11880448  0.71539775  0.19381693  1
  O  O38  1  0.11880448  0.21539775  0.30618307  1
  O  O39  1  0.88119552  0.28460225  0.80618307  1
  O  O40  1  0.72917179  0.53752504  0.54926660  1
  O  O41  1  0.27082821  0.96247496  0.04926660  1
  O  O42  1  0.27082821  0.46247496  0.45073340  1
  O  O43  1  0.72917179  0.03752504  0.95073340  1
  O  O44  1  0.51734892  0.99370306  0.28588721  1
  O  O45  1  0.48265108  0.50629694  0.78588721  1
  O  O46  1  0.48265108  0.00629694  0.71411279  1
  O  O47  1  0.51734892  0.49370306  0.21411279  1
