# generated using pymatgen
data_Na3RuO4
_symmetry_space_group_name_H-M   'P 1'
_cell_length_a   5.76808234
_cell_length_b   8.54554901
_cell_length_c   8.54554901
_cell_angle_alpha   98.68460261
_cell_angle_beta   102.73918531
_cell_angle_gamma   102.73918531
_symmetry_Int_Tables_number   1
_chemical_formula_structural   Na3RuO4
_chemical_formula_sum   'Na12 Ru4 O16'
_cell_volume   391.81909881
_cell_formula_units_Z   4
loop_
 _symmetry_equiv_pos_site_id
 _symmetry_equiv_pos_as_xyz
  1  'x, y, z'
loop_
 _atom_site_type_symbol
 _atom_site_label
 _atom_site_symmetry_multiplicity
 _atom_site_fract_x
 _atom_site_fract_y
 _atom_site_fract_z
 _atom_site_occupancy
  Na  Na0  1  0.00000000  0.62425369  0.37574631  1
  Na  Na1  1  0.00000000  0.37574631  0.62425369  1
  Na  Na2  1  0.00000000  -0.00000000  0.50000000  1
  Na  Na3  1  0.00000000  0.50000000  0.00000000  1
  Na  Na4  1  0.51889946  0.11975565  0.37030679  1
  Na  Na5  1  0.51889946  0.37030679  0.11975565  1
  Na  Na6  1  0.48110054  0.88024435  0.62969321  1
  Na  Na7  1  0.48110054  0.62969321  0.88024435  1
  Na  Na8  1  0.50000000  -0.00000000  0.00000000  1
  Na  Na9  1  0.50000000  0.74193010  0.25806990  1
  Na  Na10  1  0.50000000  0.25806990  0.74193010  1
  Na  Na11  1  0.50000000  0.50000000  0.50000000  1
  Ru  Ru12  1  0.00000000  0.87276455  0.12723545  1
  Ru  Ru13  1  0.00000000  0.12723545  0.87276455  1
  Ru  Ru14  1  0.02482750  0.25382020  0.25382020  1
  Ru  Ru15  1  0.97517250  0.74617980  0.74617980  1
  O  O16  1  0.20319172  0.11191919  0.11191919  1
  O  O17  1  0.79680828  0.88808081  0.88808081  1
  O  O18  1  0.22313565  0.87518350  0.32812108  1
  O  O19  1  0.22313565  0.32812108  0.87518350  1
  O  O20  1  0.77686435  0.12481650  0.67187892  1
  O  O21  1  0.77686435  0.67187892  0.12481650  1
  O  O22  1  0.20083073  0.65520088  0.65520088  1
  O  O23  1  0.79916927  0.34479912  0.34479912  1
  O  O24  1  0.81089079  0.01019688  0.23390552  1
  O  O25  1  0.81089079  0.23390552  0.01019688  1
  O  O26  1  0.18910921  0.98980312  0.76609448  1
  O  O27  1  0.18910921  0.76609448  0.98980312  1
  O  O28  1  0.76816852  0.75367885  0.53876995  1
  O  O29  1  0.76816852  0.53876995  0.75367885  1
  O  O30  1  0.23183148  0.24632115  0.46123005  1
  O  O31  1  0.23183148  0.46123005  0.24632115  1
