# generated using pymatgen
data_ZrCo5Si3
_symmetry_space_group_name_H-M   'P 1'
_cell_length_a   3.64200025
_cell_length_b   14.54655064
_cell_length_c   14.54655064
_cell_angle_alpha   120.00000141
_cell_angle_beta   90.00000000
_cell_angle_gamma   90.00000000
_symmetry_Int_Tables_number   1
_chemical_formula_structural   ZrCo5Si3
_chemical_formula_sum   'Zr6 Co30 Si18'
_cell_volume   667.40682440
_cell_formula_units_Z   6
loop_
 _symmetry_equiv_pos_site_id
 _symmetry_equiv_pos_as_xyz
  1  'x, y, z'
loop_
 _atom_site_type_symbol
 _atom_site_label
 _atom_site_symmetry_multiplicity
 _atom_site_fract_x
 _atom_site_fract_y
 _atom_site_fract_z
 _atom_site_occupancy
  Zr  Zr0  1  0.75000000  0.29441695  0.89955332  1
  Zr  Zr1  1  0.75000000  0.10044668  0.39486364  1
  Zr  Zr2  1  0.75000000  0.60513636  0.70558305  1
  Zr  Zr3  1  0.25000000  0.70558305  0.10044668  1
  Zr  Zr4  1  0.25000000  0.89955332  0.60513636  1
  Zr  Zr5  1  0.25000000  0.39486364  0.29441695  1
  Co  Co6  1  0.75000000  0.42854361  0.77620440  1
  Co  Co7  1  0.75000000  0.22379560  0.65233921  1
  Co  Co8  1  0.75000000  0.34766079  0.57145639  1
  Co  Co9  1  0.25000000  0.57145639  0.22379560  1
  Co  Co10  1  0.25000000  0.77620440  0.34766079  1
  Co  Co11  1  0.25000000  0.65233921  0.42854361  1
  Co  Co12  1  0.75000000  0.53466927  0.07446312  1
  Co  Co13  1  0.75000000  0.92553688  0.46020615  1
  Co  Co14  1  0.75000000  0.53979385  0.46533073  1
  Co  Co15  1  0.25000000  0.46533073  0.92553688  1
  Co  Co16  1  0.25000000  0.07446312  0.53979385  1
  Co  Co17  1  0.25000000  0.46020615  0.53466927  1
  Co  Co18  1  0.75000000  0.04780800  0.77951653  1
  Co  Co19  1  0.75000000  0.22048347  0.26829148  1
  Co  Co20  1  0.75000000  0.73170852  0.95219200  1
  Co  Co21  1  0.25000000  0.95219200  0.22048347  1
  Co  Co22  1  0.25000000  0.77951653  0.73170852  1
  Co  Co23  1  0.25000000  0.26829148  0.04780800  1
  Co  Co24  1  0.75000000  0.73507373  0.58626262  1
  Co  Co25  1  0.75000000  0.41373738  0.14881111  1
  Co  Co26  1  0.75000000  0.85118889  0.26492627  1
  Co  Co27  1  0.25000000  0.26492627  0.41373738  1
  Co  Co28  1  0.25000000  0.58626262  0.85118889  1
  Co  Co29  1  0.25000000  0.14881111  0.73507373  1
  Co  Co30  1  0.75000000  0.10464558  0.97248647  1
  Co  Co31  1  0.75000000  0.02751353  0.13215911  1
  Co  Co32  1  0.75000000  0.86784089  0.89535442  1
  Co  Co33  1  0.25000000  0.89535442  0.02751353  1
  Co  Co34  1  0.25000000  0.97248647  0.86784089  1
  Co  Co35  1  0.25000000  0.13215911  0.10464558  1
  Si  Si36  1  0.75000000  0.68242637  0.23748511  1
  Si  Si37  1  0.75000000  0.76251489  0.44494126  1
  Si  Si38  1  0.75000000  0.55505874  0.31757363  1
  Si  Si39  1  0.25000000  0.31757363  0.76251489  1
  Si  Si40  1  0.25000000  0.23748511  0.55505874  1
  Si  Si41  1  0.25000000  0.44494126  0.68242637  1
  Si  Si42  1  0.75000000  0.88208037  0.74828693  1
  Si  Si43  1  0.75000000  0.25171307  0.13379344  1
  Si  Si44  1  0.75000000  0.86620656  0.11791963  1
  Si  Si45  1  0.25000000  0.11791963  0.25171307  1
  Si  Si46  1  0.25000000  0.74828693  0.86620656  1
  Si  Si47  1  0.25000000  0.13379344  0.88208037  1
  Si  Si48  1  0.75000000  0.05876855  0.62971750  1
  Si  Si49  1  0.75000000  0.37028250  0.42905104  1
  Si  Si50  1  0.75000000  0.57094896  0.94123145  1
  Si  Si51  1  0.25000000  0.94123145  0.37028250  1
  Si  Si52  1  0.25000000  0.62971750  0.57094896  1
  Si  Si53  1  0.25000000  0.42905104  0.05876855  1
