# generated using pymatgen
data_Ca2Mg
_symmetry_space_group_name_H-M   'P 1'
_cell_length_a   6.36882534
_cell_length_b   6.36882464
_cell_length_c   18.17714290
_cell_angle_alpha   90.00000000
_cell_angle_beta   90.00000000
_cell_angle_gamma   119.99999785
_symmetry_Int_Tables_number   1
_chemical_formula_structural   Ca2Mg
_chemical_formula_sum   'Ca12 Mg6'
_cell_volume   638.52056984
_cell_formula_units_Z   6
loop_
 _symmetry_equiv_pos_site_id
 _symmetry_equiv_pos_as_xyz
  1  'x, y, z'
loop_
 _atom_site_type_symbol
 _atom_site_label
 _atom_site_symmetry_multiplicity
 _atom_site_fract_x
 _atom_site_fract_y
 _atom_site_fract_z
 _atom_site_occupancy
  Ca  Ca0  1  0.67148245  0.67148245  -0.00000000  1
  Ca  Ca1  1  0.32851755  0.00000000  -0.00000000  1
  Ca  Ca2  1  0.33333300  0.66666700  0.16666700  1
  Ca  Ca3  1  1.00000000  0.32851755  -0.00000000  1
  Ca  Ca4  1  0.33814845  0.00481545  0.33333300  1
  Ca  Ca5  1  0.99518455  0.33333300  0.33333300  1
  Ca  Ca6  1  -0.00000000  0.00000000  0.50000000  1
  Ca  Ca7  1  0.66666700  0.66185155  0.33333300  1
  Ca  Ca8  1  0.00481545  0.33814845  0.66666700  1
  Ca  Ca9  1  0.66185155  0.66666700  0.66666700  1
  Ca  Ca10  1  0.66666700  0.33333300  0.83333300  1
  Ca  Ca11  1  0.33333300  0.99518455  0.66666700  1
  Mg  Mg12  1  0.66666700  0.33333300  0.16675030  1
  Mg  Mg13  1  -0.00000000  0.00000000  0.16658370  1
  Mg  Mg14  1  0.33333300  0.66666700  0.50008330  1
  Mg  Mg15  1  0.66666700  0.33333300  0.49991670  1
  Mg  Mg16  1  -0.00000000  0.00000000  0.83341630  1
  Mg  Mg17  1  0.33333300  0.66666700  0.83324970  1
