# generated using pymatgen
data_La2US5
_symmetry_space_group_name_H-M   'P 1'
_cell_length_a   7.56919567
_cell_length_b   8.20316465
_cell_length_c   11.99925094
_cell_angle_alpha   90.00000000
_cell_angle_beta   90.00000000
_cell_angle_gamma   90.00000000
_symmetry_Int_Tables_number   1
_chemical_formula_structural   La2US5
_chemical_formula_sum   'La8 U4 S20'
_cell_volume   745.04979004
_cell_formula_units_Z   4
loop_
 _symmetry_equiv_pos_site_id
 _symmetry_equiv_pos_as_xyz
  1  'x, y, z'
loop_
 _atom_site_type_symbol
 _atom_site_label
 _atom_site_symmetry_multiplicity
 _atom_site_fract_x
 _atom_site_fract_y
 _atom_site_fract_z
 _atom_site_occupancy
  La  La0  1  0.97549150  0.99936123  0.17652608  1
  La  La1  1  0.52450850  0.50063877  0.67652608  1
  La  La2  1  0.02450850  0.49936123  0.82347392  1
  La  La3  1  0.47549150  0.00063877  0.32347392  1
  La  La4  1  0.02450850  0.00063877  0.82347392  1
  La  La5  1  0.47549150  0.49936123  0.32347392  1
  La  La6  1  0.97549150  0.50063877  0.17652608  1
  La  La7  1  0.52450850  0.99936123  0.67652608  1
  U  U8  1  0.42915209  0.75000000  0.00909442  1
  U  U9  1  0.07084791  0.75000000  0.50909442  1
  U  U10  1  0.57084791  0.25000000  0.99090558  1
  U  U11  1  0.92915209  0.25000000  0.49090558  1
  S  S12  1  0.65848725  0.54152249  0.90689693  1
  S  S13  1  0.84151275  0.95847751  0.40689693  1
  S  S14  1  0.34151275  0.04152249  0.09310307  1
  S  S15  1  0.15848725  0.45847751  0.59310307  1
  S  S16  1  0.34151275  0.45847751  0.09310307  1
  S  S17  1  0.15848725  0.04152249  0.59310307  1
  S  S18  1  0.65848725  0.95847751  0.90689693  1
  S  S19  1  0.84151275  0.54152249  0.40689693  1
  S  S20  1  0.66746356  0.75000000  0.18520489  1
  S  S21  1  0.83253644  0.75000000  0.68520489  1
  S  S22  1  0.33253644  0.25000000  0.81479511  1
  S  S23  1  0.16746356  0.25000000  0.31479511  1
  S  S24  1  0.04648673  0.75000000  0.00145247  1
  S  S25  1  0.45351327  0.75000000  0.50145247  1
  S  S26  1  0.95351327  0.25000000  0.99854753  1
  S  S27  1  0.54648673  0.25000000  0.49854753  1
  S  S28  1  0.30395856  0.75000000  0.78641268  1
  S  S29  1  0.19604144  0.75000000  0.28641268  1
  S  S30  1  0.69604144  0.25000000  0.21358732  1
  S  S31  1  0.80395856  0.25000000  0.71358732  1
