# generated using pymatgen
data_Cd2AsHO5
_symmetry_space_group_name_H-M   'P 1'
_cell_length_a   10.85766930
_cell_length_b   13.32627688
_cell_length_c   14.39857094
_cell_angle_alpha   90.00000000
_cell_angle_beta   90.00000000
_cell_angle_gamma   108.45034006
_symmetry_Int_Tables_number   1
_chemical_formula_structural   Cd2AsHO5
_chemical_formula_sum   'Cd32 As16 H16 O80'
_cell_volume   1976.27411488
_cell_formula_units_Z   16
loop_
 _symmetry_equiv_pos_site_id
 _symmetry_equiv_pos_as_xyz
  1  'x, y, z'
loop_
 _atom_site_type_symbol
 _atom_site_label
 _atom_site_symmetry_multiplicity
 _atom_site_fract_x
 _atom_site_fract_y
 _atom_site_fract_z
 _atom_site_occupancy
  Cd  Cd0  1  0.18881979  0.69055951  0.01910316  1
  Cd  Cd1  1  0.81118021  0.80944049  0.51910316  1
  Cd  Cd2  1  0.81118021  0.30944049  0.98089684  1
  Cd  Cd3  1  0.18881979  0.19055951  0.48089684  1
  Cd  Cd4  1  0.21021313  0.69858082  0.50475862  1
  Cd  Cd5  1  0.78978687  0.80141918  0.00475862  1
  Cd  Cd6  1  0.78978687  0.30141918  0.49524138  1
  Cd  Cd7  1  0.21021313  0.19858082  0.99524138  1
  Cd  Cd8  1  0.29500497  0.80113515  0.74817547  1
  Cd  Cd9  1  0.70499503  0.69886485  0.24817547  1
  Cd  Cd10  1  0.70499503  0.19886485  0.25182453  1
  Cd  Cd11  1  0.29500497  0.30113515  0.75182453  1
  Cd  Cd12  1  0.30629982  0.81479781  0.23333853  1
  Cd  Cd13  1  0.69370018  0.68520219  0.73333853  1
  Cd  Cd14  1  0.69370018  0.18520219  0.76666147  1
  Cd  Cd15  1  0.30629982  0.31479781  0.26666147  1
  Cd  Cd16  1  0.46639345  0.59865046  0.42818255  1
  Cd  Cd17  1  0.53360655  0.90134954  0.92818255  1
  Cd  Cd18  1  0.53360655  0.40134954  0.57181745  1
  Cd  Cd19  1  0.46639345  0.09865046  0.07181745  1
  Cd  Cd20  1  0.44398135  0.58292397  0.92308860  1
  Cd  Cd21  1  0.55601865  0.91707603  0.42308860  1
  Cd  Cd22  1  0.55601865  0.41707603  0.07691140  1
  Cd  Cd23  1  0.44398135  0.08292397  0.57691140  1
  Cd  Cd24  1  0.03471677  0.89007445  0.82471160  1
  Cd  Cd25  1  0.96528323  0.60992555  0.32471160  1
  Cd  Cd26  1  0.96528323  0.10992555  0.17528840  1
  Cd  Cd27  1  0.03471677  0.39007445  0.67528840  1
  Cd  Cd28  1  0.04848542  0.92593674  0.32428900  1
  Cd  Cd29  1  0.95151458  0.57406326  0.82428900  1
  Cd  Cd30  1  0.95151458  0.07406326  0.67571100  1
  Cd  Cd31  1  0.04848542  0.42593674  0.17571100  1
  As  As32  1  0.37846107  0.57597001  0.67505238  1
  As  As33  1  0.62153893  0.92402999  0.17505238  1
  As  As34  1  0.62153893  0.42402999  0.32494762  1
  As  As35  1  0.37846107  0.07597001  0.82494762  1
  As  As36  1  0.38287960  0.57588799  0.17335257  1
  As  As37  1  0.61712040  0.92411201  0.67335257  1
  As  As38  1  0.61712040  0.42411201  0.82664743  1
  As  As39  1  0.38287960  0.07588799  0.32664743  1
  As  As40  1  0.11484006  0.92575267  0.07844036  1
  As  As41  1  0.88515994  0.57424733  0.57844036  1
  As  As42  1  0.88515994  0.07424733  0.92155964  1
  As  As43  1  0.11484006  0.42575267  0.42155964  1
  As  As44  1  0.12094016  0.92420861  0.57427328  1
  As  As45  1  0.87905984  0.57579139  0.07427328  1
  As  As46  1  0.87905984  0.07579139  0.42572672  1
  As  As47  1  0.12094016  0.42420861  0.92572672  1
  H  H48  1  0.45908238  0.76064199  0.53324656  1
  H  H49  1  0.54091762  0.73935801  0.03324656  1
  H  H50  1  0.54091762  0.23935801  0.46675344  1
  H  H51  1  0.45908238  0.26064199  0.96675344  1
  H  H52  1  0.21684509  0.64324516  0.33637360  1
  H  H53  1  0.78315491  0.85675484  0.83637360  1
  H  H54  1  0.78315491  0.35675484  0.66362640  1
  H  H55  1  0.21684509  0.14324516  0.16362640  1
  H  H56  1  0.04494428  0.72894635  0.71529975  1
  H  H57  1  0.95505572  0.77105365  0.21529975  1
  H  H58  1  0.95505572  0.27105365  0.28470025  1
  H  H59  1  0.04494428  0.22894635  0.78470025  1
  H  H60  1  0.27978600  0.86226995  0.91625608  1
  H  H61  1  0.72021400  0.63773005  0.41625608  1
  H  H62  1  0.72021400  0.13773005  0.08374392  1
  H  H63  1  0.27978600  0.36226995  0.58374392  1
  O  O64  1  0.46944324  0.55007281  0.08138293  1
  O  O65  1  0.53055676  0.94992719  0.58138293  1
  O  O66  1  0.53055676  0.44992719  0.91861707  1
  O  O67  1  0.46944324  0.05007281  0.41861707  1
  O  O68  1  0.48047999  0.55904047  0.58827136  1
  O  O69  1  0.51952001  0.94095953  0.08827136  1
  O  O70  1  0.51952001  0.44095953  0.41172864  1
  O  O71  1  0.48047999  0.05904047  0.91172864  1
  O  O72  1  0.01256785  0.92699684  0.66169690  1
  O  O73  1  0.98743215  0.57300316  0.16169690  1
  O  O74  1  0.98743215  0.07300316  0.33830310  1
  O  O75  1  0.01256785  0.42699684  0.83830310  1
  O  O76  1  0.02586862  0.95745555  0.16664098  1
  O  O77  1  0.97413138  0.54254445  0.66664098  1
  O  O78  1  0.97413138  0.04254445  0.83335902  1
  O  O79  1  0.02586862  0.45745555  0.33335902  1
  O  O80  1  0.24253176  0.53414729  0.45475532  1
  O  O81  1  0.75746824  0.96585271  0.95475532  1
  O  O82  1  0.75746824  0.46585271  0.54524468  1
  O  O83  1  0.24253176  0.03414729  0.04524468  1
  O  O84  1  0.22943034  0.54946799  0.94430977  1
  O  O85  1  0.77056966  0.95053201  0.44430977  1
  O  O86  1  0.77056966  0.45053201  0.05569023  1
  O  O87  1  0.22943034  0.04946799  0.55569023  1
  O  O88  1  0.25776618  0.96017576  0.79801052  1
  O  O89  1  0.74223382  0.53982424  0.29801052  1
  O  O90  1  0.74223382  0.03982424  0.20198948  1
  O  O91  1  0.25776618  0.46017576  0.70198948  1
  O  O92  1  0.26153681  0.96144702  0.29500842  1
  O  O93  1  0.73846319  0.53855298  0.79500842  1
  O  O94  1  0.73846319  0.03855298  0.70499158  1
  O  O95  1  0.26153681  0.46144702  0.20499158  1
  O  O96  1  0.31074013  0.67313400  0.64739577  1
  O  O97  1  0.68925987  0.82686600  0.14739577  1
  O  O98  1  0.68925987  0.32686600  0.35260423  1
  O  O99  1  0.31074013  0.17313400  0.85260423  1
  O  O100  1  0.31860351  0.67381852  0.14043458  1
  O  O101  1  0.68139649  0.82618148  0.64043458  1
  O  O102  1  0.68139649  0.32618148  0.85956542  1
  O  O103  1  0.31860351  0.17381852  0.35956542  1
  O  O104  1  0.16811385  0.82257425  0.11629445  1
  O  O105  1  0.83188615  0.67742575  0.61629445  1
  O  O106  1  0.83188615  0.17742575  0.88370555  1
  O  O107  1  0.16811385  0.32257425  0.38370555  1
  O  O108  1  0.20483654  0.83768057  0.59873289  1
  O  O109  1  0.79516346  0.66231943  0.09873289  1
  O  O110  1  0.79516346  0.16231943  0.40126711  1
  O  O111  1  0.20483654  0.33768057  0.90126711  1
  O  O112  1  0.47968754  0.61985316  0.77044026  1
  O  O113  1  0.52031246  0.88014684  0.27044026  1
  O  O114  1  0.52031246  0.38014684  0.22955974  1
  O  O115  1  0.47968754  0.11985316  0.72955974  1
  O  O116  1  0.48467297  0.61957463  0.26664176  1
  O  O117  1  0.51532703  0.88042537  0.76664176  1
  O  O118  1  0.51532703  0.38042537  0.73335824  1
  O  O119  1  0.48467297  0.11957463  0.23335824  1
  O  O120  1  0.02415583  0.88248462  0.47692679  1
  O  O121  1  0.97584417  0.61751538  0.97692679  1
  O  O122  1  0.97584417  0.11751538  0.52307321  1
  O  O123  1  0.02415583  0.38248462  0.02307321  1
  O  O124  1  0.01249227  0.87698337  0.98584348  1
  O  O125  1  0.98750773  0.62301663  0.48584348  1
  O  O126  1  0.98750773  0.12301663  0.01415652  1
  O  O127  1  0.01249227  0.37698337  0.51415652  1
  O  O128  1  0.43211425  0.75525915  0.46821307  1
  O  O129  1  0.56788575  0.74474085  0.96821307  1
  O  O130  1  0.56788575  0.24474085  0.53178693  1
  O  O131  1  0.43211425  0.25525915  0.03178693  1
  O  O132  1  0.18627073  0.70455341  0.34167613  1
  O  O133  1  0.81372927  0.79544659  0.84167613  1
  O  O134  1  0.81372927  0.29544659  0.65832387  1
  O  O135  1  0.18627073  0.20455341  0.15832387  1
  O  O136  1  0.07454505  0.73671135  0.77979542  1
  O  O137  1  0.92545495  0.76328865  0.27979542  1
  O  O138  1  0.92545495  0.26328865  0.22020458  1
  O  O139  1  0.07454505  0.23671135  0.72020458  1
  O  O140  1  0.31339702  0.80230660  0.91398270  1
  O  O141  1  0.68660298  0.69769340  0.41398270  1
  O  O142  1  0.68660298  0.19769340  0.08601730  1
  O  O143  1  0.31339702  0.30230660  0.58601730  1
