# generated using pymatgen
data_HgSb2F13
_symmetry_space_group_name_H-M   'P 1'
_cell_length_a   9.91464183
_cell_length_b   9.99119277
_cell_length_c   11.23743659
_cell_angle_alpha   90.00000000
_cell_angle_beta   111.21158351
_cell_angle_gamma   90.00000000
_symmetry_Int_Tables_number   1
_chemical_formula_structural   HgSb2F13
_chemical_formula_sum   'Hg4 Sb8 F52'
_cell_volume   1037.75378807
_cell_formula_units_Z   4
loop_
 _symmetry_equiv_pos_site_id
 _symmetry_equiv_pos_as_xyz
  1  'x, y, z'
loop_
 _atom_site_type_symbol
 _atom_site_label
 _atom_site_symmetry_multiplicity
 _atom_site_fract_x
 _atom_site_fract_y
 _atom_site_fract_z
 _atom_site_occupancy
  Hg  Hg0  1  0.98107364  0.59013334  0.24003984  1
  Hg  Hg1  1  0.51892636  0.09013334  0.75996016  1
  Hg  Hg2  1  0.01892636  0.40986666  0.75996016  1
  Hg  Hg3  1  0.48107364  0.90986666  0.24003984  1
  Sb  Sb4  1  0.23106967  0.91688655  0.41488854  1
  Sb  Sb5  1  0.26893033  0.41688655  0.58511146  1
  Sb  Sb6  1  0.76893033  0.08311345  0.58511146  1
  Sb  Sb7  1  0.73106967  0.58311345  0.41488854  1
  Sb  Sb8  1  0.61793018  0.76939761  0.94533063  1
  Sb  Sb9  1  0.88206982  0.26939761  0.05466937  1
  Sb  Sb10  1  0.38206982  0.23060239  0.05466937  1
  Sb  Sb11  1  0.11793018  0.73060239  0.94533063  1
  F  F12  1  0.23511043  0.54448359  0.25637334  1
  F  F13  1  0.26488957  0.04448359  0.74362666  1
  F  F14  1  0.76488957  0.45551641  0.74362666  1
  F  F15  1  0.73511043  0.95551641  0.25637334  1
  F  F16  1  0.78231938  0.48619699  0.28645482  1
  F  F17  1  0.71768062  0.98619699  0.71354518  1
  F  F18  1  0.21768062  0.51380301  0.71354518  1
  F  F19  1  0.28231938  0.01380301  0.28645482  1
  F  F20  1  0.08906199  0.80865183  0.28288949  1
  F  F21  1  0.41093801  0.30865183  0.71711051  1
  F  F22  1  0.91093801  0.19134817  0.71711051  1
  F  F23  1  0.58906199  0.69134817  0.28288949  1
  F  F24  1  0.87834900  0.70380415  0.40294535  1
  F  F25  1  0.62165100  0.20380415  0.59705465  1
  F  F26  1  0.12165100  0.29619585  0.59705465  1
  F  F27  1  0.37834900  0.79619585  0.40294535  1
  F  F28  1  0.12212067  0.52025577  0.45561016  1
  F  F29  1  0.37787933  0.02025577  0.54438984  1
  F  F30  1  0.87787933  0.47974423  0.54438984  1
  F  F31  1  0.62212067  0.97974423  0.45561016  1
  F  F32  1  0.08694024  0.04499111  0.40311342  1
  F  F33  1  0.41305976  0.54499111  0.59688658  1
  F  F34  1  0.91305976  0.95500889  0.59688658  1
  F  F35  1  0.58694024  0.45500889  0.40311342  1
  F  F36  1  0.20003372  0.81227256  0.54288250  1
  F  F37  1  0.29996628  0.31227256  0.45711750  1
  F  F38  1  0.79996628  0.18772744  0.45711750  1
  F  F39  1  0.70003372  0.68772744  0.54288250  1
  F  F40  1  0.75933360  0.70581885  0.10538251  1
  F  F41  1  0.74066640  0.20581885  0.89461749  1
  F  F42  1  0.24066640  0.29418115  0.89461749  1
  F  F43  1  0.25933360  0.79418115  0.10538251  1
  F  F44  1  0.01725621  0.35688651  0.20793818  1
  F  F45  1  0.48274379  0.85688651  0.79206182  1
  F  F46  1  0.98274379  0.64311349  0.79206182  1
  F  F47  1  0.51725621  0.14311349  0.20793818  1
  F  F48  1  0.72246748  0.69485281  0.84727833  1
  F  F49  1  0.77753252  0.19485281  0.15272167  1
  F  F50  1  0.27753252  0.30514719  0.15272167  1
  F  F51  1  0.22246748  0.80514719  0.84727833  1
  F  F52  1  0.72098395  0.93448678  0.96764075  1
  F  F53  1  0.77901605  0.43448678  0.03235925  1
  F  F54  1  0.27901605  0.06551322  0.03235925  1
  F  F55  1  0.22098395  0.56551322  0.96764075  1
  F  F56  1  0.50173779  0.61503420  0.91997196  1
  F  F57  1  0.99826221  0.11503420  0.08002804  1
  F  F58  1  0.49826221  0.38496580  0.08002804  1
  F  F59  1  0.00173779  0.88496580  0.91997196  1
  F  F60  1  0.00941235  0.65331694  0.04229241  1
  F  F61  1  0.49058765  0.15331694  0.95770759  1
  F  F62  1  0.99058765  0.34668306  0.95770759  1
  F  F63  1  0.50941235  0.84668306  0.04229241  1
