# generated using pymatgen
data_Tm5(Co2Ge5)2
_symmetry_space_group_name_H-M   'P 1'
_cell_length_a   4.15344463
_cell_length_b   12.70193318
_cell_length_c   12.70193318
_cell_angle_alpha   90.00000000
_cell_angle_beta   90.00000000
_cell_angle_gamma   90.00000000
_symmetry_Int_Tables_number   1
_chemical_formula_structural   Tm5(Co2Ge5)2
_chemical_formula_sum   'Tm10 Co8 Ge20'
_cell_volume   670.11304554
_cell_formula_units_Z   2
loop_
 _symmetry_equiv_pos_site_id
 _symmetry_equiv_pos_as_xyz
  1  'x, y, z'
loop_
 _atom_site_type_symbol
 _atom_site_label
 _atom_site_symmetry_multiplicity
 _atom_site_fract_x
 _atom_site_fract_y
 _atom_site_fract_z
 _atom_site_occupancy
  Tm  Tm0  1  -0.00000000  0.50000000  0.50000000  1
  Tm  Tm1  1  -0.00000000  -0.00000000  0.00000000  1
  Tm  Tm2  1  0.50000000  0.17565332  0.67565332  1
  Tm  Tm3  1  0.50000000  0.82434668  0.32434668  1
  Tm  Tm4  1  0.50000000  0.32434668  0.17565332  1
  Tm  Tm5  1  0.50000000  0.67565332  0.82434668  1
  Tm  Tm6  1  0.50000000  0.38651093  0.88651093  1
  Tm  Tm7  1  0.50000000  0.61348907  0.11348907  1
  Tm  Tm8  1  0.50000000  0.11348907  0.38651093  1
  Tm  Tm9  1  0.50000000  0.88651093  0.61348907  1
  Co  Co10  1  0.00000000  0.52388319  0.74592731  1
  Co  Co11  1  -0.00000000  0.47611681  0.25407269  1
  Co  Co12  1  -0.00000000  0.97611681  0.24592731  1
  Co  Co13  1  0.00000000  0.02388319  0.75407269  1
  Co  Co14  1  -0.00000000  0.74592731  0.47611681  1
  Co  Co15  1  0.00000000  0.25407269  0.52388319  1
  Co  Co16  1  -0.00000000  0.24592731  0.02388319  1
  Co  Co17  1  0.00000000  0.75407269  0.97611681  1
  Ge  Ge18  1  0.00000000  0.06834949  0.56834949  1
  Ge  Ge19  1  -0.00000000  0.93165051  0.43165051  1
  Ge  Ge20  1  -0.00000000  0.43165051  0.06834949  1
  Ge  Ge21  1  0.00000000  0.56834949  0.93165051  1
  Ge  Ge22  1  0.00000000  0.69732714  0.65643939  1
  Ge  Ge23  1  -0.00000000  0.30267286  0.34356061  1
  Ge  Ge24  1  -0.00000000  0.80267286  0.15643939  1
  Ge  Ge25  1  0.00000000  0.19732714  0.84356061  1
  Ge  Ge26  1  -0.00000000  0.65643939  0.30267286  1
  Ge  Ge27  1  0.00000000  0.34356061  0.69732714  1
  Ge  Ge28  1  -0.00000000  0.15643939  0.19732714  1
  Ge  Ge29  1  0.00000000  0.84356061  0.80267286  1
  Ge  Ge30  1  0.50000000  0.50591069  0.66549673  1
  Ge  Ge31  1  0.50000000  0.49408931  0.33450327  1
  Ge  Ge32  1  0.50000000  0.99408931  0.16549673  1
  Ge  Ge33  1  0.50000000  0.00591069  0.83450327  1
  Ge  Ge34  1  0.50000000  0.66549673  0.49408931  1
  Ge  Ge35  1  0.50000000  0.33450327  0.50591069  1
  Ge  Ge36  1  0.50000000  0.16549673  0.00591069  1
  Ge  Ge37  1  0.50000000  0.83450327  0.99408931  1
