# generated using pymatgen
data_Be2P2PbO8
_symmetry_space_group_name_H-M   'P 1'
_cell_length_a   8.17879234
_cell_length_b   8.49386860
_cell_length_c   9.12495967
_cell_angle_alpha   90.00000000
_cell_angle_beta   90.00000000
_cell_angle_gamma   90.10975378
_symmetry_Int_Tables_number   1
_chemical_formula_structural   Be2P2PbO8
_chemical_formula_sum   'Be8 P8 Pb4 O32'
_cell_volume   633.90602066
_cell_formula_units_Z   4
loop_
 _symmetry_equiv_pos_site_id
 _symmetry_equiv_pos_as_xyz
  1  'x, y, z'
loop_
 _atom_site_type_symbol
 _atom_site_label
 _atom_site_symmetry_multiplicity
 _atom_site_fract_x
 _atom_site_fract_y
 _atom_site_fract_z
 _atom_site_occupancy
  Be  Be0  1  0.42345381  0.43594337  0.69368883  1
  Be  Be1  1  0.57654619  0.06405663  0.19368883  1
  Be  Be2  1  0.57654619  0.56405663  0.30631117  1
  Be  Be3  1  0.42345381  0.93594337  0.80631117  1
  Be  Be4  1  0.92760557  0.22668575  0.91824370  1
  Be  Be5  1  0.07239443  0.27331425  0.41824370  1
  Be  Be6  1  0.07239443  0.77331425  0.08175630  1
  Be  Be7  1  0.92760557  0.72668575  0.58175630  1
  P  P8  1  0.43613072  0.26871508  0.41328995  1
  P  P9  1  0.56386928  0.23128492  0.91328995  1
  P  P10  1  0.56386928  0.73128492  0.58671005  1
  P  P11  1  0.43613072  0.76871508  0.08671005  1
  P  P12  1  0.06611857  0.43248487  0.69680352  1
  P  P13  1  0.93388143  0.06751513  0.19680352  1
  P  P14  1  0.93388143  0.56751513  0.30319648  1
  P  P15  1  0.06611857  0.93248487  0.80319648  1
  Pb  Pb16  1  0.24366929  0.39392561  0.09274578  1
  Pb  Pb17  1  0.75633071  0.10607439  0.59274578  1
  Pb  Pb18  1  0.75633071  0.60607439  0.90725422  1
  Pb  Pb19  1  0.24366929  0.89392561  0.40725422  1
  O  O20  1  0.48255565  0.30366643  0.57321744  1
  O  O21  1  0.51744435  0.19633357  0.07321744  1
  O  O22  1  0.51744435  0.69633357  0.42678256  1
  O  O23  1  0.48255565  0.80366643  0.92678256  1
  O  O24  1  0.44488997  0.41690299  0.31542052  1
  O  O25  1  0.55511003  0.08309701  0.81542052  1
  O  O26  1  0.55511003  0.58309701  0.68457948  1
  O  O27  1  0.44488997  0.91690299  0.18457948  1
  O  O28  1  0.25865388  0.20049068  0.39810837  1
  O  O29  1  0.74134612  0.29950932  0.89810837  1
  O  O30  1  0.74134612  0.79950932  0.60189163  1
  O  O31  1  0.25865388  0.70049068  0.10189163  1
  O  O32  1  0.44618830  0.36324457  0.86073452  1
  O  O33  1  0.55381170  0.13675543  0.36073452  1
  O  O34  1  0.55381170  0.63675543  0.13926548  1
  O  O35  1  0.44618830  0.86324457  0.63926548  1
  O  O36  1  0.04637155  0.36964502  0.85705693  1
  O  O37  1  0.95362845  0.13035498  0.35705693  1
  O  O38  1  0.95362845  0.63035498  0.14294307  1
  O  O39  1  0.04637155  0.86964502  0.64294307  1
  O  O40  1  0.06219606  0.43294318  0.32067464  1
  O  O41  1  0.93780394  0.06705682  0.82067464  1
  O  O42  1  0.93780394  0.56705682  0.67932536  1
  O  O43  1  0.06219606  0.93294318  0.17932536  1
  O  O44  1  0.97971158  0.20217271  0.08801032  1
  O  O45  1  0.02028842  0.29782729  0.58801032  1
  O  O46  1  0.02028842  0.79782729  0.91198968  1
  O  O47  1  0.97971158  0.70217271  0.41198968  1
  O  O48  1  0.23855093  0.49501021  0.66922359  1
  O  O49  1  0.76144907  0.00498979  0.16922359  1
  O  O50  1  0.76144907  0.50498979  0.33077641  1
  O  O51  1  0.23855093  0.99501021  0.83077641  1
