# generated using pymatgen
data_In2Se2O7
_symmetry_space_group_name_H-M   'P 1'
_cell_length_a   6.99941398
_cell_length_b   13.00219881
_cell_length_c   14.07063273
_cell_angle_alpha   90.00000000
_cell_angle_beta   90.00000000
_cell_angle_gamma   90.00000000
_symmetry_Int_Tables_number   1
_chemical_formula_structural   In2Se2O7
_chemical_formula_sum   'In16 Se16 O56'
_cell_volume   1280.53693710
_cell_formula_units_Z   8
loop_
 _symmetry_equiv_pos_site_id
 _symmetry_equiv_pos_as_xyz
  1  'x, y, z'
loop_
 _atom_site_type_symbol
 _atom_site_label
 _atom_site_symmetry_multiplicity
 _atom_site_fract_x
 _atom_site_fract_y
 _atom_site_fract_z
 _atom_site_occupancy
  In  In0  1  0.45100092  0.01234558  0.37219831  1
  In  In1  1  0.04899908  0.01234558  0.12780169  1
  In  In2  1  0.54899908  0.48765442  0.87219831  1
  In  In3  1  0.95100092  0.48765442  0.62780169  1
  In  In4  1  0.54899908  0.98765442  0.62780169  1
  In  In5  1  0.95100092  0.98765442  0.87219831  1
  In  In6  1  0.45100092  0.51234558  0.12780169  1
  In  In7  1  0.04899908  0.51234558  0.37219831  1
  In  In8  1  0.25000000  0.75251609  0.25000000  1
  In  In9  1  0.75000000  0.74748391  0.75000000  1
  In  In10  1  0.75000000  0.24748391  0.75000000  1
  In  In11  1  0.25000000  0.25251609  0.25000000  1
  In  In12  1  0.75000000  0.16536955  0.25000000  1
  In  In13  1  0.25000000  0.33463045  0.75000000  1
  In  In14  1  0.25000000  0.83463045  0.75000000  1
  In  In15  1  0.75000000  0.66536955  0.25000000  1
  Se  Se16  1  0.96867899  0.94262575  0.37078515  1
  Se  Se17  1  0.53132101  0.94262575  0.12921485  1
  Se  Se18  1  0.03132101  0.55737425  0.87078515  1
  Se  Se19  1  0.46867899  0.55737425  0.62921485  1
  Se  Se20  1  0.03132101  0.05737425  0.62921485  1
  Se  Se21  1  0.46867899  0.05737425  0.87078515  1
  Se  Se22  1  0.96867899  0.44262575  0.12921485  1
  Se  Se23  1  0.53132101  0.44262575  0.37078515  1
  Se  Se24  1  0.50960964  0.77097191  0.45904814  1
  Se  Se25  1  0.99039036  0.77097191  0.04095186  1
  Se  Se26  1  0.49039036  0.72902809  0.95904814  1
  Se  Se27  1  0.00960964  0.72902809  0.54095186  1
  Se  Se28  1  0.49039036  0.22902809  0.54095186  1
  Se  Se29  1  0.00960964  0.22902809  0.95904814  1
  Se  Se30  1  0.50960964  0.27097191  0.04095186  1
  Se  Se31  1  0.99039036  0.27097191  0.45904814  1
  O  O32  1  0.04074279  0.90453658  0.25529993  1
  O  O33  1  0.45925721  0.90453658  0.24470007  1
  O  O34  1  0.95925721  0.59546342  0.75529993  1
  O  O35  1  0.54074279  0.59546342  0.74470007  1
  O  O36  1  0.95925721  0.09546342  0.74470007  1
  O  O37  1  0.54074279  0.09546342  0.75529993  1
  O  O38  1  0.04074279  0.40453658  0.24470007  1
  O  O39  1  0.45925721  0.40453658  0.25529993  1
  O  O40  1  0.14597953  0.02830808  0.40103749  1
  O  O41  1  0.35402047  0.02830808  0.09896251  1
  O  O42  1  0.85402047  0.47169192  0.90103749  1
  O  O43  1  0.64597953  0.47169192  0.59896251  1
  O  O44  1  0.85402047  0.97169192  0.59896251  1
  O  O45  1  0.64597953  0.97169192  0.90103749  1
  O  O46  1  0.14597953  0.52830808  0.09896251  1
  O  O47  1  0.35402047  0.52830808  0.40103749  1
  O  O48  1  0.77961217  0.02754551  0.35230574  1
  O  O49  1  0.72038783  0.02754551  0.14769426  1
  O  O50  1  0.22038783  0.47245449  0.85230574  1
  O  O51  1  0.27961217  0.47245449  0.64769426  1
  O  O52  1  0.22038783  0.97245449  0.64769426  1
  O  O53  1  0.27961217  0.97245449  0.85230574  1
  O  O54  1  0.77961217  0.52754551  0.14769426  1
  O  O55  1  0.72038783  0.52754551  0.35230574  1
  O  O56  1  0.52861737  0.90322903  0.48589182  1
  O  O57  1  0.97138263  0.90322903  0.01410818  1
  O  O58  1  0.47138263  0.59677097  0.98589182  1
  O  O59  1  0.02861737  0.59677097  0.51410818  1
  O  O60  1  0.47138263  0.09677097  0.51410818  1
  O  O61  1  0.02861737  0.09677097  0.98589182  1
  O  O62  1  0.52861737  0.40322903  0.01410818  1
  O  O63  1  0.97138263  0.40322903  0.48589182  1
  O  O64  1  0.29786606  0.78174562  0.39702366  1
  O  O65  1  0.20213394  0.78174562  0.10297634  1
  O  O66  1  0.70213394  0.71825438  0.89702366  1
  O  O67  1  0.79786606  0.71825438  0.60297634  1
  O  O68  1  0.70213394  0.21825438  0.60297634  1
  O  O69  1  0.79786606  0.21825438  0.89702366  1
  O  O70  1  0.29786606  0.28174562  0.10297634  1
  O  O71  1  0.20213394  0.28174562  0.39702366  1
  O  O72  1  0.68482548  0.76364336  0.37467587  1
  O  O73  1  0.81517452  0.76364336  0.12532413  1
  O  O74  1  0.31517452  0.73635664  0.87467587  1
  O  O75  1  0.18482548  0.73635664  0.62532413  1
  O  O76  1  0.31517452  0.23635664  0.62532413  1
  O  O77  1  0.18482548  0.23635664  0.87467587  1
  O  O78  1  0.68482548  0.26364336  0.12532413  1
  O  O79  1  0.81517452  0.26364336  0.37467587  1
  O  O80  1  0.46932363  0.14999513  0.29308274  1
  O  O81  1  0.03067637  0.14999513  0.20691726  1
  O  O82  1  0.53067637  0.35000487  0.79308274  1
  O  O83  1  0.96932363  0.35000487  0.70691726  1
  O  O84  1  0.53067637  0.85000487  0.70691726  1
  O  O85  1  0.96932363  0.85000487  0.79308274  1
  O  O86  1  0.46932363  0.64999513  0.20691726  1
  O  O87  1  0.03067637  0.64999513  0.29308274  1
