# generated using pymatgen
data_Tb2B6Ru
_symmetry_space_group_name_H-M   'P 1'
_cell_length_a   3.68698363
_cell_length_b   9.18120096
_cell_length_c   11.54549549
_cell_angle_alpha   90.00000000
_cell_angle_beta   90.00000000
_cell_angle_gamma   90.00000000
_symmetry_Int_Tables_number   1
_chemical_formula_structural   Tb2B6Ru
_chemical_formula_sum   'Tb8 B24 Ru4'
_cell_volume   390.82584789
_cell_formula_units_Z   4
loop_
 _symmetry_equiv_pos_site_id
 _symmetry_equiv_pos_as_xyz
  1  'x, y, z'
loop_
 _atom_site_type_symbol
 _atom_site_label
 _atom_site_symmetry_multiplicity
 _atom_site_fract_x
 _atom_site_fract_y
 _atom_site_fract_z
 _atom_site_occupancy
  Tb  Tb0  1  0.00000000  0.32309777  0.41393701  1
  Tb  Tb1  1  -0.00000000  0.67690223  0.58606299  1
  Tb  Tb2  1  0.00000000  0.82309777  0.08606299  1
  Tb  Tb3  1  -0.00000000  0.17690223  0.91393701  1
  Tb  Tb4  1  -0.00000000  0.94407462  0.37260537  1
  Tb  Tb5  1  -0.00000000  0.05592538  0.62739463  1
  Tb  Tb6  1  -0.00000000  0.44407462  0.12739463  1
  Tb  Tb7  1  -0.00000000  0.55592538  0.87260537  1
  B  B8  1  0.50000000  0.55417646  0.43251217  1
  B  B9  1  0.50000000  0.44582354  0.56748783  1
  B  B10  1  0.50000000  0.05417646  0.06748783  1
  B  B11  1  0.50000000  0.94582354  0.93251217  1
  B  B12  1  0.50000000  0.74743252  0.41987872  1
  B  B13  1  0.50000000  0.25256748  0.58012128  1
  B  B14  1  0.50000000  0.24743252  0.08012128  1
  B  B15  1  0.50000000  0.75256748  0.91987872  1
  B  B16  1  0.50000000  0.79043367  0.26708321  1
  B  B17  1  0.50000000  0.20956633  0.73291679  1
  B  B18  1  0.50000000  0.29043367  0.23291679  1
  B  B19  1  0.50000000  0.70956633  0.76708321  1
  B  B20  1  0.50000000  0.63261175  0.18537208  1
  B  B21  1  0.50000000  0.36738825  0.81462792  1
  B  B22  1  0.50000000  0.13261175  0.31462792  1
  B  B23  1  0.50000000  0.86738825  0.68537208  1
  B  B24  1  0.50000000  0.98485398  0.21297412  1
  B  B25  1  0.50000000  0.01514602  0.78702588  1
  B  B26  1  0.50000000  0.48485398  0.28702588  1
  B  B27  1  0.50000000  0.51514602  0.71297412  1
  B  B28  1  0.50000000  0.61214427  0.03083835  1
  B  B29  1  0.50000000  0.38785573  0.96916165  1
  B  B30  1  0.50000000  0.11214427  0.46916165  1
  B  B31  1  0.50000000  0.88785573  0.53083835  1
  Ru  Ru32  1  -0.00000000  0.63816537  0.32121691  1
  Ru  Ru33  1  0.00000000  0.36183463  0.67878309  1
  Ru  Ru34  1  0.00000000  0.13816537  0.17878309  1
  Ru  Ru35  1  0.00000000  0.86183463  0.82121691  1
