# generated using pymatgen
data_Co2Re5P12
_symmetry_space_group_name_H-M   'P 1'
_cell_length_a   3.06008663
_cell_length_b   11.92649360
_cell_length_c   14.91046358
_cell_angle_alpha   90.00000000
_cell_angle_beta   90.00000000
_cell_angle_gamma   90.00000000
_symmetry_Int_Tables_number   1
_chemical_formula_structural   Co2Re5P12
_chemical_formula_sum   'Co4 Re10 P24'
_cell_volume   544.17382366
_cell_formula_units_Z   2
loop_
 _symmetry_equiv_pos_site_id
 _symmetry_equiv_pos_as_xyz
  1  'x, y, z'
loop_
 _atom_site_type_symbol
 _atom_site_label
 _atom_site_symmetry_multiplicity
 _atom_site_fract_x
 _atom_site_fract_y
 _atom_site_fract_z
 _atom_site_occupancy
  Co  Co0  1  0.50000000  0.13095069  0.34545612  1
  Co  Co1  1  0.50000000  0.86904931  0.65454388  1
  Co  Co2  1  0.00000000  0.36904931  0.84545612  1
  Co  Co3  1  0.00000000  0.63095069  0.15454388  1
  Re  Re4  1  0.50000000  0.31775480  0.10081949  1
  Re  Re5  1  0.50000000  0.68224520  0.89918051  1
  Re  Re6  1  0.00000000  0.18224520  0.60081949  1
  Re  Re7  1  -0.00000000  0.81775480  0.39918051  1
  Re  Re8  1  0.50000000  0.92284732  0.25788812  1
  Re  Re9  1  0.50000000  0.07715268  0.74211188  1
  Re  Re10  1  -0.00000000  0.57715268  0.75788812  1
  Re  Re11  1  -0.00000000  0.42284732  0.24211188  1
  Re  Re12  1  0.50000000  0.50000000  0.50000000  1
  Re  Re13  1  0.00000000  -0.00000000  0.00000000  1
  P  P14  1  0.50000000  0.57717181  0.26190008  1
  P  P15  1  0.50000000  0.42282819  0.73809992  1
  P  P16  1  0.00000000  0.92282819  0.76190008  1
  P  P17  1  0.00000000  0.07717181  0.23809992  1
  P  P18  1  0.50000000  0.65422682  0.40047885  1
  P  P19  1  0.50000000  0.34577318  0.59952115  1
  P  P20  1  0.00000000  0.84577318  0.90047885  1
  P  P21  1  0.00000000  0.15422682  0.09952115  1
  P  P22  1  0.50000000  0.89976602  0.09545103  1
  P  P23  1  0.50000000  0.10023398  0.90454897  1
  P  P24  1  -0.00000000  0.60023398  0.59545103  1
  P  P25  1  0.00000000  0.39976602  0.40454897  1
  P  P26  1  0.50000000  0.72551796  0.74217895  1
  P  P27  1  0.50000000  0.27448204  0.25782105  1
  P  P28  1  0.00000000  0.77448204  0.24217895  1
  P  P29  1  0.00000000  0.22551796  0.75782105  1
  P  P30  1  0.50000000  0.97204549  0.42628549  1
  P  P31  1  0.50000000  0.02795451  0.57371451  1
  P  P32  1  0.00000000  0.52795451  0.92628549  1
  P  P33  1  0.00000000  0.47204549  0.07371451  1
  P  P34  1  0.50000000  0.71161099  0.06285193  1
  P  P35  1  0.50000000  0.28838901  0.93714807  1
  P  P36  1  0.00000000  0.78838901  0.56285193  1
  P  P37  1  0.00000000  0.21161099  0.43714807  1
