# generated using pymatgen
data_AgPd3Se
_symmetry_space_group_name_H-M   'P 1'
_cell_length_a   8.77557719
_cell_length_b   8.77557719
_cell_length_c   8.77557719
_cell_angle_alpha   90.00000000
_cell_angle_beta   90.00000000
_cell_angle_gamma   90.00000000
_symmetry_Int_Tables_number   1
_chemical_formula_structural   AgPd3Se
_chemical_formula_sum   'Ag8 Pd24 Se8'
_cell_volume   675.81382512
_cell_formula_units_Z   8
loop_
 _symmetry_equiv_pos_site_id
 _symmetry_equiv_pos_as_xyz
  1  'x, y, z'
loop_
 _atom_site_type_symbol
 _atom_site_label
 _atom_site_symmetry_multiplicity
 _atom_site_fract_x
 _atom_site_fract_y
 _atom_site_fract_z
 _atom_site_occupancy
  Ag  Ag0  1  0.09366536  0.90633464  0.40633464  1
  Ag  Ag1  1  0.90633464  0.40633464  0.09366536  1
  Ag  Ag2  1  0.40633464  0.09366536  0.90633464  1
  Ag  Ag3  1  0.59366536  0.59366536  0.59366536  1
  Ag  Ag4  1  0.90633464  0.09366536  0.59366536  1
  Ag  Ag5  1  0.09366536  0.59366536  0.90633464  1
  Ag  Ag6  1  0.59366536  0.90633464  0.09366536  1
  Ag  Ag7  1  0.40633464  0.40633464  0.40633464  1
  Pd  Pd8  1  0.86245365  0.08665142  0.22251395  1
  Pd  Pd9  1  0.13754635  0.58665142  0.27748605  1
  Pd  Pd10  1  0.63754635  0.91334858  0.72251395  1
  Pd  Pd11  1  0.36245365  0.41334858  0.77748605  1
  Pd  Pd12  1  0.22251395  0.86245365  0.08665142  1
  Pd  Pd13  1  0.27748605  0.13754635  0.58665142  1
  Pd  Pd14  1  0.72251395  0.63754635  0.91334858  1
  Pd  Pd15  1  0.77748605  0.36245365  0.41334858  1
  Pd  Pd16  1  0.08665142  0.22251395  0.86245365  1
  Pd  Pd17  1  0.58665142  0.27748605  0.13754635  1
  Pd  Pd18  1  0.91334858  0.72251395  0.63754635  1
  Pd  Pd19  1  0.41334858  0.77748605  0.36245365  1
  Pd  Pd20  1  0.13754635  0.91334858  0.77748605  1
  Pd  Pd21  1  0.86245365  0.41334858  0.72251395  1
  Pd  Pd22  1  0.36245365  0.08665142  0.27748605  1
  Pd  Pd23  1  0.63754635  0.58665142  0.22251395  1
  Pd  Pd24  1  0.77748605  0.13754635  0.91334858  1
  Pd  Pd25  1  0.72251395  0.86245365  0.41334858  1
  Pd  Pd26  1  0.27748605  0.36245365  0.08665142  1
  Pd  Pd27  1  0.22251395  0.63754635  0.58665142  1
  Pd  Pd28  1  0.91334858  0.77748605  0.13754635  1
  Pd  Pd29  1  0.41334858  0.72251395  0.86245365  1
  Pd  Pd30  1  0.08665142  0.27748605  0.36245365  1
  Pd  Pd31  1  0.58665142  0.22251395  0.63754635  1
  Se  Se32  1  0.37682469  0.62317531  0.12317531  1
  Se  Se33  1  0.62317531  0.12317531  0.37682469  1
  Se  Se34  1  0.12317531  0.37682469  0.62317531  1
  Se  Se35  1  0.87682469  0.87682469  0.87682469  1
  Se  Se36  1  0.62317531  0.37682469  0.87682469  1
  Se  Se37  1  0.37682469  0.87682469  0.62317531  1
  Se  Se38  1  0.87682469  0.62317531  0.37682469  1
  Se  Se39  1  0.12317531  0.12317531  0.12317531  1
