# generated using pymatgen
data_Yb2Co17
_symmetry_space_group_name_H-M   'P 1'
_cell_length_a   8.07595209
_cell_length_b   8.25387520
_cell_length_c   8.25387520
_cell_angle_alpha   120.05865117
_cell_angle_beta   90.00000000
_cell_angle_gamma   90.00000000
_symmetry_Int_Tables_number   1
_chemical_formula_structural   Yb2Co17
_chemical_formula_sum   'Yb4 Co34'
_cell_volume   476.19319691
_cell_formula_units_Z   2
loop_
 _symmetry_equiv_pos_site_id
 _symmetry_equiv_pos_as_xyz
  1  'x, y, z'
loop_
 _atom_site_type_symbol
 _atom_site_label
 _atom_site_symmetry_multiplicity
 _atom_site_fract_x
 _atom_site_fract_y
 _atom_site_fract_z
 _atom_site_occupancy
  Yb  Yb0  1  0.75000000  0.00000525  -0.00000525  1
  Yb  Yb1  1  0.25000000  -0.00000525  0.00000525  1
  Yb  Yb2  1  0.25000000  0.66678804  0.33321196  1
  Yb  Yb3  1  0.75000000  0.33321196  0.66678804  1
  Co  Co4  1  0.60601601  0.66670818  0.33329182  1
  Co  Co5  1  0.39398399  0.33329182  0.66670818  1
  Co  Co6  1  0.10601601  0.33329182  0.66670818  1
  Co  Co7  1  0.89398399  0.66670818  0.33329182  1
  Co  Co8  1  0.50000000  0.50000000  -0.00000000  1
  Co  Co9  1  0.50000000  0.50000000  0.50000000  1
  Co  Co10  1  0.50000000  0.00000000  0.50000000  1
  Co  Co11  1  -0.00000000  0.50000000  -0.00000000  1
  Co  Co12  1  -0.00000000  0.50000000  0.50000000  1
  Co  Co13  1  -0.00000000  0.00000000  0.50000000  1
  Co  Co14  1  0.75000000  0.67176762  0.04586445  1
  Co  Co15  1  0.75000000  0.37398422  0.32817802  1
  Co  Co16  1  0.75000000  0.95434081  0.62599906  1
  Co  Co17  1  0.75000000  0.37400094  0.04565919  1
  Co  Co18  1  0.75000000  0.95413555  0.32823238  1
  Co  Co19  1  0.75000000  0.67182198  0.62601578  1
  Co  Co20  1  0.25000000  0.32823238  0.95413555  1
  Co  Co21  1  0.25000000  0.62601578  0.67182198  1
  Co  Co22  1  0.25000000  0.04565919  0.37400094  1
  Co  Co23  1  0.25000000  0.62599906  0.95434081  1
  Co  Co24  1  0.25000000  0.04586445  0.67176762  1
  Co  Co25  1  0.25000000  0.32817802  0.37398422  1
  Co  Co26  1  0.47706576  0.83336937  0.66650355  1
  Co  Co27  1  0.47695911  0.83318548  0.16681452  1
  Co  Co28  1  0.47706576  0.33349645  0.16663063  1
  Co  Co29  1  0.52293424  0.16663063  0.33349645  1
  Co  Co30  1  0.52304089  0.16681452  0.83318548  1
  Co  Co31  1  0.52293424  0.66650355  0.83336937  1
  Co  Co32  1  0.97706576  0.16663063  0.33349645  1
  Co  Co33  1  0.97695911  0.16681452  0.83318548  1
  Co  Co34  1  0.97706576  0.66650355  0.83336937  1
  Co  Co35  1  0.02293424  0.83336937  0.66650355  1
  Co  Co36  1  0.02304089  0.83318548  0.16681452  1
  Co  Co37  1  0.02293424  0.33349645  0.16663063  1
