# generated using pymatgen
data_Rb2Ag2Sn(PSe3)3
_symmetry_space_group_name_H-M   'P 1'
_cell_length_a   7.85750903
_cell_length_b   11.43784400
_cell_length_c   22.28668678
_cell_angle_alpha   94.57727186
_cell_angle_beta   90.00000000
_cell_angle_gamma   90.00000000
_symmetry_Int_Tables_number   1
_chemical_formula_structural   Rb2Ag2Sn(PSe3)3
_chemical_formula_sum   'Rb8 Ag8 Sn4 P12 Se36'
_cell_volume   1996.58231825
_cell_formula_units_Z   4
loop_
 _symmetry_equiv_pos_site_id
 _symmetry_equiv_pos_as_xyz
  1  'x, y, z'
loop_
 _atom_site_type_symbol
 _atom_site_label
 _atom_site_symmetry_multiplicity
 _atom_site_fract_x
 _atom_site_fract_y
 _atom_site_fract_z
 _atom_site_occupancy
  Rb  Rb0  1  0.93451851  0.74505874  0.82317011  1
  Rb  Rb1  1  0.56548149  0.24505874  0.32317011  1
  Rb  Rb2  1  0.06548149  0.25494126  0.17682989  1
  Rb  Rb3  1  0.43451851  0.75494126  0.67682989  1
  Rb  Rb4  1  0.06774357  0.24540263  0.50423135  1
  Rb  Rb5  1  0.43225643  0.74540263  0.00423135  1
  Rb  Rb6  1  0.93225643  0.75459737  0.49576865  1
  Rb  Rb7  1  0.56774357  0.25459737  0.99576865  1
  Ag  Ag8  1  0.28306944  0.19522206  0.75172143  1
  Ag  Ag9  1  0.21693056  0.69522206  0.25172143  1
  Ag  Ag10  1  0.71693056  0.80477794  0.24827857  1
  Ag  Ag11  1  0.78306944  0.30477794  0.74827857  1
  Ag  Ag12  1  0.57352661  0.08117927  0.65258723  1
  Ag  Ag13  1  0.92647339  0.58117927  0.15258723  1
  Ag  Ag14  1  0.42647339  0.91882073  0.34741277  1
  Ag  Ag15  1  0.07352661  0.41882073  0.84741277  1
  Sn  Sn16  1  0.55789975  0.31941597  0.61345043  1
  Sn  Sn17  1  0.94210025  0.81941597  0.11345043  1
  Sn  Sn18  1  0.44210025  0.68058403  0.38654957  1
  Sn  Sn19  1  0.05789975  0.18058403  0.88654957  1
  P  P20  1  0.88577596  0.55429411  0.65666678  1
  P  P21  1  0.61422404  0.05429411  0.15666678  1
  P  P22  1  0.11422404  0.44570589  0.34333322  1
  P  P23  1  0.38577596  0.94570589  0.84333322  1
  P  P24  1  0.12518726  0.44641446  0.67666568  1
  P  P25  1  0.37481274  0.94641446  0.17666568  1
  P  P26  1  0.87481274  0.55358554  0.32333432  1
  P  P27  1  0.62518726  0.05358554  0.82333432  1
  P  P28  1  0.38119331  0.94447602  0.50920159  1
  P  P29  1  0.11880669  0.44447602  0.00920159  1
  P  P30  1  0.61880669  0.05552398  0.49079841  1
  P  P31  1  0.88119331  0.55552398  0.99079841  1
  Se  Se32  1  0.96651271  0.73285327  0.65180362  1
  Se  Se33  1  0.53348729  0.23285327  0.15180362  1
  Se  Se34  1  0.03348729  0.26714673  0.34819638  1
  Se  Se35  1  0.46651271  0.76714673  0.84819638  1
  Se  Se36  1  0.78802573  0.47052087  0.56788316  1
  Se  Se37  1  0.71197427  0.97052087  0.06788316  1
  Se  Se38  1  0.21197427  0.52947913  0.43211684  1
  Se  Se39  1  0.28802573  0.02947913  0.93211684  1
  Se  Se40  1  0.19601459  0.97513527  0.77312473  1
  Se  Se41  1  0.30398541  0.47513527  0.27312473  1
  Se  Se42  1  0.80398541  0.02486473  0.22687527  1
  Se  Se43  1  0.69601459  0.52486473  0.72687527  1
  Se  Se44  1  0.73751716  0.98014098  0.73881536  1
  Se  Se45  1  0.76248284  0.48014098  0.23881536  1
  Se  Se46  1  0.26248284  0.01985902  0.26118464  1
  Se  Se47  1  0.23751716  0.51985902  0.76118464  1
  Se  Se48  1  0.04649595  0.25741102  0.67682033  1
  Se  Se49  1  0.45350405  0.75741102  0.17682033  1
  Se  Se50  1  0.95350405  0.74258898  0.32317967  1
  Se  Se51  1  0.54649595  0.24258898  0.82317967  1
  Se  Se52  1  0.29112892  0.47560353  0.59706371  1
  Se  Se53  1  0.20887108  0.97560353  0.09706371  1
  Se  Se54  1  0.70887108  0.52439647  0.40293629  1
  Se  Se55  1  0.79112892  0.02439647  0.90293629  1
  Se  Se56  1  0.28295997  0.00882960  0.59829980  1
  Se  Se57  1  0.21704003  0.50882960  0.09829980  1
  Se  Se58  1  0.71704003  0.99117040  0.40170020  1
  Se  Se59  1  0.78295997  0.49117040  0.90170020  1
  Se  Se60  1  0.80310428  0.03479838  0.56263558  1
  Se  Se61  1  0.69689572  0.53479838  0.06263558  1
  Se  Se62  1  0.19689572  0.96520162  0.43736442  1
  Se  Se63  1  0.30310428  0.46520162  0.93736442  1
  Se  Se64  1  0.52416444  0.24177602  0.48985564  1
  Se  Se65  1  0.97583556  0.74177602  0.98985564  1
  Se  Se66  1  0.47583556  0.75822398  0.51014436  1
  Se  Se67  1  0.02416444  0.25822398  0.01014436  1
