# generated using pymatgen
data_Nd4(ErS2)11
_symmetry_space_group_name_H-M   'P 1'
_cell_length_a   3.93696726
_cell_length_b   11.34314548
_cell_length_c   19.63976331
_cell_angle_alpha   91.32681904
_cell_angle_beta   95.75238618
_cell_angle_gamma   90.00000000
_symmetry_Int_Tables_number   1
_chemical_formula_structural   Nd4(ErS2)11
_chemical_formula_sum   'Nd4 Er11 S22'
_cell_volume   872.41160114
_cell_formula_units_Z   1
loop_
 _symmetry_equiv_pos_site_id
 _symmetry_equiv_pos_as_xyz
  1  'x, y, z'
loop_
 _atom_site_type_symbol
 _atom_site_label
 _atom_site_symmetry_multiplicity
 _atom_site_fract_x
 _atom_site_fract_y
 _atom_site_fract_z
 _atom_site_occupancy
  Nd  Nd0  1  0.10423158  0.01230291  0.20846317  1
  Nd  Nd1  1  0.89576842  0.98769709  0.79153683  1
  Nd  Nd2  1  0.36716958  0.34709247  0.73433916  1
  Nd  Nd3  1  0.63283042  0.65290753  0.26566084  1
  Er  Er4  1  0.79812114  0.05777101  0.59624228  1
  Er  Er5  1  0.20187886  0.94222899  0.40375772  1
  Er  Er6  1  0.46171448  0.27164732  0.92342895  1
  Er  Er7  1  0.53828552  0.72835268  0.07657105  1
  Er  Er8  1  0.65764989  0.30233565  0.31529979  1
  Er  Er9  1  0.34235011  0.69766435  0.68470021  1
  Er  Er10  1  0.26421444  0.35203487  0.52842887  1
  Er  Er11  1  0.73578556  0.64796513  0.47157113  1
  Er  Er12  1  0.06933992  0.35961691  0.13867984  1
  Er  Er13  1  0.93066008  0.64038309  0.86132016  1
  Er  Er14  1  0.00000000  0.00000000  0.00000000  1
  S  S15  1  0.08766426  0.75241240  0.17532852  1
  S  S16  1  0.91233574  0.24758760  0.82467148  1
  S  S17  1  0.18840843  0.69216499  0.37681686  1
  S  S18  1  0.81159157  0.30783501  0.62318314  1
  S  S19  1  0.27998400  0.59003368  0.55996800  1
  S  S20  1  0.72001600  0.40996632  0.44003200  1
  S  S21  1  0.44584937  0.49547968  0.89169874  1
  S  S22  1  0.55415063  0.50452032  0.10830126  1
  S  S23  1  0.13430359  0.45468969  0.26860719  1
  S  S24  1  0.86569641  0.54531031  0.73139281  1
  S  S25  1  0.59293235  0.21129761  0.18586471  1
  S  S26  1  0.40706765  0.78870239  0.81413529  1
  S  S27  1  0.45276438  0.03156121  0.90552875  1
  S  S28  1  0.54723562  0.96843879  0.09447125  1
  S  S29  1  0.35110866  0.09196652  0.70221732  1
  S  S30  1  0.64889134  0.90803348  0.29778268  1
  S  S31  1  0.16821079  0.15125388  0.33642157  1
  S  S32  1  0.83178921  0.84874612  0.66357843  1
  S  S33  1  0.00780971  0.23879166  0.01561942  1
  S  S34  1  0.99219029  0.76120834  0.98438058  1
  S  S35  1  0.25513591  0.11942310  0.51027182  1
  S  S36  1  0.74486409  0.88057690  0.48972818  1
