# generated using pymatgen
data_Y6Al43W4
_symmetry_space_group_name_H-M   'P 1'
_cell_length_a   11.07075679
_cell_length_b   11.07069855
_cell_length_c   17.60940952
_cell_angle_alpha   90.00000000
_cell_angle_beta   90.00000000
_cell_angle_gamma   120.00017780
_symmetry_Int_Tables_number   1
_chemical_formula_structural   Y6Al43W4
_chemical_formula_sum   'Y12 Al86 W8'
_cell_volume   1869.07609242
_cell_formula_units_Z   2
loop_
 _symmetry_equiv_pos_site_id
 _symmetry_equiv_pos_as_xyz
  1  'x, y, z'
loop_
 _atom_site_type_symbol
 _atom_site_label
 _atom_site_symmetry_multiplicity
 _atom_site_fract_x
 _atom_site_fract_y
 _atom_site_fract_z
 _atom_site_occupancy
  Y  Y0  1  0.53129922  0.00000000  0.59570894  1
  Y  Y1  1  0.46870035  0.46870469  0.59571146  1
  Y  Y2  1  0.99999566  0.53129531  0.59571146  1
  Y  Y3  1  0.46870078  1.00000000  0.40429106  1
  Y  Y4  1  0.53129965  0.53129531  0.40428854  1
  Y  Y5  1  0.00000434  0.46870469  0.40428854  1
  Y  Y6  1  0.46870078  1.00000000  0.09570894  1
  Y  Y7  1  0.53129965  0.53129531  0.09571146  1
  Y  Y8  1  0.00000434  0.46870469  0.09571146  1
  Y  Y9  1  0.53129922  0.00000000  0.90429106  1
  Y  Y10  1  0.46870035  0.46870469  0.90428854  1
  Y  Y11  1  0.99999566  0.53129531  0.90428854  1
  Al  Al12  1  0.15819059  0.39474599  0.66361185  1
  Al  Al13  1  0.23654738  0.84181422  0.66361294  1
  Al  Al14  1  0.60524810  0.76344162  0.66361188  1
  Al  Al15  1  0.76344460  0.60525401  0.66361185  1
  Al  Al16  1  0.39473316  0.15818578  0.66361294  1
  Al  Al17  1  0.84180648  0.23655838  0.66361188  1
  Al  Al18  1  0.84180941  0.60525401  0.33638815  1
  Al  Al19  1  0.76345262  0.15818578  0.33638706  1
  Al  Al20  1  0.39475190  0.23655838  0.33638812  1
  Al  Al21  1  0.23655540  0.39474599  0.33638815  1
  Al  Al22  1  0.60526684  0.84181422  0.33638706  1
  Al  Al23  1  0.15819352  0.76344162  0.33638812  1
  Al  Al24  1  0.84180941  0.60525401  0.16361185  1
  Al  Al25  1  0.76345262  0.15818578  0.16361294  1
  Al  Al26  1  0.39475190  0.23655838  0.16361188  1
  Al  Al27  1  0.23655540  0.39474599  0.16361185  1
  Al  Al28  1  0.60526684  0.84181422  0.16361294  1
  Al  Al29  1  0.15819352  0.76344162  0.16361188  1
  Al  Al30  1  0.15819059  0.39474599  0.83638815  1
  Al  Al31  1  0.23654738  0.84181422  0.83638706  1
  Al  Al32  1  0.60524810  0.76344162  0.83638812  1
  Al  Al33  1  0.76344460  0.60525401  0.83638815  1
  Al  Al34  1  0.39473316  0.15818578  0.83638706  1
  Al  Al35  1  0.84180648  0.23655838  0.83638812  1
  Al  Al36  1  0.15948254  1.00000000  0.11459524  1
  Al  Al37  1  0.84051578  0.84051550  0.11459554  1
  Al  Al38  1  0.00000028  0.15948450  0.11459554  1
  Al  Al39  1  0.84051746  0.00000000  0.88540476  1
  Al  Al40  1  0.15948422  0.15948450  0.88540446  1
  Al  Al41  1  0.99999972  0.84051550  0.88540446  1
  Al  Al42  1  0.84051746  0.00000000  0.61459524  1
  Al  Al43  1  0.15948422  0.15948450  0.61459554  1
  Al  Al44  1  0.99999972  0.84051550  0.61459554  1
  Al  Al45  1  0.15948254  1.00000000  0.38540476  1
  Al  Al46  1  0.84051578  0.84051550  0.38540446  1
  Al  Al47  1  0.00000028  0.15948450  0.38540446  1
  Al  Al48  1  0.25416248  1.00000000  0.53043849  1
  Al  Al49  1  0.74583637  0.74583589  0.53043849  1
  Al  Al50  1  0.00000047  0.25416411  0.53043849  1
  Al  Al51  1  0.74583752  0.00000000  0.46956151  1
  Al  Al52  1  0.25416363  0.25416411  0.46956151  1
  Al  Al53  1  0.99999953  0.74583589  0.46956151  1
  Al  Al54  1  0.74583752  0.00000000  0.03043849  1
  Al  Al55  1  0.25416363  0.25416411  0.03043849  1
  Al  Al56  1  0.99999953  0.74583589  0.03043849  1
  Al  Al57  1  0.25416248  1.00000000  0.96956151  1
  Al  Al58  1  0.74583637  0.74583589  0.96956151  1
  Al  Al59  1  0.00000047  0.25416411  0.96956151  1
  Al  Al60  1  0.14711818  0.59558491  0.75000000  1
  Al  Al61  1  0.44846461  0.85287821  0.75000000  1
  Al  Al62  1  0.40441576  0.55154220  0.75000000  1
  Al  Al63  1  0.55153327  0.40441509  0.75000000  1
  Al  Al64  1  0.59558640  0.14712179  0.75000000  1
  Al  Al65  1  0.85287356  0.44845780  0.75000000  1
  Al  Al66  1  0.85288182  0.40441509  0.25000000  1
  Al  Al67  1  0.55153539  0.14712179  0.25000000  1
  Al  Al68  1  0.59558424  0.44845780  0.25000000  1
  Al  Al69  1  0.44846673  0.59558491  0.25000000  1
  Al  Al70  1  0.40441360  0.85287821  0.25000000  1
  Al  Al71  1  0.14712644  0.55154220  0.25000000  1
  Al  Al72  1  0.24700480  0.49400961  0.50000000  1
  Al  Al73  1  0.24699948  0.75299538  0.49999653  1
  Al  Al74  1  0.50599590  0.75299538  0.50000347  1
  Al  Al75  1  0.75299520  0.50599039  0.50000000  1
  Al  Al76  1  0.49400410  0.24700462  0.49999653  1
  Al  Al77  1  0.75300052  0.24700462  0.50000347  1
  Al  Al78  1  0.75299520  0.50599039  -0.00000000  1
  Al  Al79  1  0.75300052  0.24700462  0.99999653  1
  Al  Al80  1  0.49400410  0.24700462  0.00000347  1
  Al  Al81  1  0.24700480  0.49400961  -0.00000000  1
  Al  Al82  1  0.50599590  0.75299538  0.99999653  1
  Al  Al83  1  0.24699948  0.75299538  0.00000347  1
  Al  Al84  1  0.33330969  0.66669074  0.62609697  1
  Al  Al85  1  0.66661896  0.33330926  0.62609697  1
  Al  Al86  1  0.66669031  0.33330926  0.37390303  1
  Al  Al87  1  0.33338104  0.66669074  0.37390303  1
  Al  Al88  1  0.66669031  0.33330926  0.12609697  1
  Al  Al89  1  0.33338104  0.66669074  0.12609697  1
  Al  Al90  1  0.33330969  0.66669074  0.87390303  1
  Al  Al91  1  0.66661896  0.33330926  0.87390303  1
  Al  Al92  1  0.14764579  1.00000000  0.75000000  1
  Al  Al93  1  0.85235287  0.85235123  0.75000000  1
  Al  Al94  1  0.00000165  0.14764877  0.75000000  1
  Al  Al95  1  0.85235421  0.00000000  0.25000000  1
  Al  Al96  1  0.14764713  0.14764877  0.25000000  1
  Al  Al97  1  -0.00000165  0.85235123  0.25000000  1
  W  W98  1  0.72903070  0.00000000  0.75000000  1
  W  W99  1  0.27097023  0.27097192  0.75000000  1
  W  W100  1  0.99999831  0.72902808  0.75000000  1
  W  W101  1  0.27096930  1.00000000  0.25000000  1
  W  W102  1  0.72902977  0.72902808  0.25000000  1
  W  W103  1  0.00000169  0.27097192  0.25000000  1
  W  W104  1  -0.00000000  0.00000000  0.50000000  1
  W  W105  1  -0.00000000  0.00000000  -0.00000000  1
