# generated using pymatgen
data_Er5(Co2Si7)2
_symmetry_space_group_name_H-M   'P 1'
_cell_length_a   7.74797894
_cell_length_b   7.82492370
_cell_length_c   12.33925333
_cell_angle_alpha   90.00000000
_cell_angle_beta   98.83980490
_cell_angle_gamma   90.00000000
_symmetry_Int_Tables_number   1
_chemical_formula_structural   Er5(Co2Si7)2
_chemical_formula_sum   'Er10 Co8 Si28'
_cell_volume   739.21016591
_cell_formula_units_Z   2
loop_
 _symmetry_equiv_pos_site_id
 _symmetry_equiv_pos_as_xyz
  1  'x, y, z'
loop_
 _atom_site_type_symbol
 _atom_site_label
 _atom_site_symmetry_multiplicity
 _atom_site_fract_x
 _atom_site_fract_y
 _atom_site_fract_z
 _atom_site_occupancy
  Er  Er0  1  0.50000000  0.50000000  0.50000000  1
  Er  Er1  1  -0.00000000  -0.00000000  0.50000000  1
  Er  Er2  1  0.65808387  0.75165791  0.13529605  1
  Er  Er3  1  0.84191613  0.25165791  0.86470395  1
  Er  Er4  1  0.34191613  0.24834209  0.86470395  1
  Er  Er5  1  0.15808387  0.74834209  0.13529605  1
  Er  Er6  1  0.33946862  0.74910020  0.86489505  1
  Er  Er7  1  0.16053138  0.24910020  0.13510495  1
  Er  Er8  1  0.66053138  0.25089980  0.13510495  1
  Er  Er9  1  0.83946862  0.75089980  0.86489505  1
  Co  Co10  1  0.37123538  0.87248860  0.50043322  1
  Co  Co11  1  0.12876462  0.37248860  0.49956678  1
  Co  Co12  1  0.62876462  0.12751140  0.49956678  1
  Co  Co13  1  0.87123538  0.62751140  0.50043322  1
  Co  Co14  1  0.43871954  0.49989400  0.25071250  1
  Co  Co15  1  0.06128046  0.99989400  0.74928750  1
  Co  Co16  1  0.56128046  0.50010600  0.74928750  1
  Co  Co17  1  0.93871954  0.00010600  0.25071250  1
  Si  Si18  1  0.33460110  0.16604364  0.50011976  1
  Si  Si19  1  0.16539890  0.66604364  0.49988024  1
  Si  Si20  1  0.66539890  0.83395636  0.49988024  1
  Si  Si21  1  0.83460110  0.33395636  0.50011976  1
  Si  Si22  1  0.38821641  0.99962966  0.05901780  1
  Si  Si23  1  0.11178359  0.49962966  0.94098220  1
  Si  Si24  1  0.61178359  0.00037034  0.94098220  1
  Si  Si25  1  0.88821641  0.50037034  0.05901780  1
  Si  Si26  1  0.26885188  0.49441692  0.67729921  1
  Si  Si27  1  0.23114812  0.99441692  0.32270079  1
  Si  Si28  1  0.73114812  0.50558308  0.32270079  1
  Si  Si29  1  0.76885188  0.00558308  0.67729921  1
  Si  Si30  1  0.18204860  0.49429699  0.32203979  1
  Si  Si31  1  0.31795140  0.99429699  0.67796021  1
  Si  Si32  1  0.81795140  0.50570301  0.67796021  1
  Si  Si33  1  0.68204860  0.00570301  0.32203979  1
  Si  Si34  1  0.44965012  0.77372521  0.32260237  1
  Si  Si35  1  0.05034988  0.27372521  0.67739763  1
  Si  Si36  1  0.55034988  0.22627479  0.67739763  1
  Si  Si37  1  0.94965012  0.72627479  0.32260237  1
  Si  Si38  1  0.46159695  0.22615454  0.32279421  1
  Si  Si39  1  0.03840305  0.72615454  0.67720579  1
  Si  Si40  1  0.53840305  0.77384546  0.67720579  1
  Si  Si41  1  0.96159695  0.27384546  0.32279421  1
  Si  Si42  1  0.39009061  0.50024887  0.06042111  1
  Si  Si43  1  0.10990939  0.00024887  0.93957889  1
  Si  Si44  1  0.60990939  0.49975113  0.93957889  1
  Si  Si45  1  0.89009061  0.99975113  0.06042111  1
