# generated using pymatgen
data_Cs10Tl6SiO4
_symmetry_space_group_name_H-M   'P 1'
_cell_length_a   11.75459183
_cell_length_b   15.27448449
_cell_length_c   19.63669135
_cell_angle_alpha   90.24849677
_cell_angle_beta   90.00000000
_cell_angle_gamma   90.00000000
_symmetry_Int_Tables_number   1
_chemical_formula_structural   Cs10Tl6SiO4
_chemical_formula_sum   'Cs40 Tl24 Si4 O16'
_cell_volume   3525.64308056
_cell_formula_units_Z   4
loop_
 _symmetry_equiv_pos_site_id
 _symmetry_equiv_pos_as_xyz
  1  'x, y, z'
loop_
 _atom_site_type_symbol
 _atom_site_label
 _atom_site_symmetry_multiplicity
 _atom_site_fract_x
 _atom_site_fract_y
 _atom_site_fract_z
 _atom_site_occupancy
  Cs  Cs0  1  0.96213492  0.81211067  0.24470824  1
  Cs  Cs1  1  0.46213492  0.68788933  0.75529176  1
  Cs  Cs2  1  0.03786508  0.18788933  0.75529176  1
  Cs  Cs3  1  0.53786508  0.31211067  0.24470824  1
  Cs  Cs4  1  0.67842123  0.45586104  0.74598329  1
  Cs  Cs5  1  0.17842123  0.04413896  0.25401671  1
  Cs  Cs6  1  0.32157877  0.54413896  0.25401671  1
  Cs  Cs7  1  0.82157877  0.95586104  0.74598329  1
  Cs  Cs8  1  0.28197044  0.41554546  0.75332233  1
  Cs  Cs9  1  0.78197044  0.08445454  0.24667767  1
  Cs  Cs10  1  0.71802956  0.58445454  0.24667767  1
  Cs  Cs11  1  0.21802956  0.91554546  0.75332233  1
  Cs  Cs12  1  0.32695401  0.81174177  0.25424289  1
  Cs  Cs13  1  0.82695401  0.68825823  0.74575711  1
  Cs  Cs14  1  0.67304599  0.18825823  0.74575711  1
  Cs  Cs15  1  0.17304599  0.31174177  0.25424289  1
  Cs  Cs16  1  0.81090341  0.70116240  0.42635163  1
  Cs  Cs17  1  0.31090341  0.79883760  0.57364837  1
  Cs  Cs18  1  0.18909659  0.29883760  0.57364837  1
  Cs  Cs19  1  0.68909659  0.20116240  0.42635163  1
  Cs  Cs20  1  0.17870160  0.30562279  0.93492173  1
  Cs  Cs21  1  0.67870160  0.19437721  0.06507827  1
  Cs  Cs22  1  0.82129840  0.69437721  0.06507827  1
  Cs  Cs23  1  0.32129840  0.80562279  0.93492173  1
  Cs  Cs24  1  0.14874223  0.67988595  0.40515652  1
  Cs  Cs25  1  0.64874223  0.82011405  0.59484348  1
  Cs  Cs26  1  0.85125777  0.32011405  0.59484348  1
  Cs  Cs27  1  0.35125777  0.17988595  0.40515652  1
  Cs  Cs28  1  0.84074211  0.32832748  0.90338942  1
  Cs  Cs29  1  0.34074211  0.17167252  0.09661058  1
  Cs  Cs30  1  0.15925789  0.67167252  0.09661058  1
  Cs  Cs31  1  0.65925789  0.82832748  0.90338942  1
  Cs  Cs32  1  0.03911000  0.55580186  0.62137038  1
  Cs  Cs33  1  0.53911000  0.94419814  0.37862962  1
  Cs  Cs34  1  0.96089000  0.44419814  0.37862962  1
  Cs  Cs35  1  0.46089000  0.05580186  0.62137038  1
  Cs  Cs36  1  0.96647272  0.43809958  0.12428879  1
  Cs  Cs37  1  0.46647272  0.06190042  0.87571121  1
  Cs  Cs38  1  0.03352728  0.56190042  0.87571121  1
  Cs  Cs39  1  0.53352728  0.93809958  0.12428879  1
  Tl  Tl40  1  0.48527857  0.64179154  0.43353720  1
  Tl  Tl41  1  0.98527857  0.85820846  0.56646280  1
  Tl  Tl42  1  0.51472143  0.35820846  0.56646280  1
  Tl  Tl43  1  0.01472143  0.14179154  0.43353720  1
  Tl  Tl44  1  0.50711671  0.36155330  0.92868263  1
  Tl  Tl45  1  0.00711671  0.13844670  0.07131737  1
  Tl  Tl46  1  0.49288329  0.63844670  0.07131737  1
  Tl  Tl47  1  0.99288329  0.86155330  0.92868263  1
  Tl  Tl48  1  0.66895866  0.55842683  0.56501841  1
  Tl  Tl49  1  0.16895866  0.94157317  0.43498159  1
  Tl  Tl50  1  0.33104134  0.44157317  0.43498159  1
  Tl  Tl51  1  0.83104134  0.05842683  0.56501841  1
  Tl  Tl52  1  0.35210390  0.43180035  0.07648033  1
  Tl  Tl53  1  0.85210390  0.06819965  0.92351967  1
  Tl  Tl54  1  0.64789610  0.56819965  0.92351967  1
  Tl  Tl55  1  0.14789610  0.93180035  0.07648033  1
  Tl  Tl56  1  0.40062012  0.54230330  0.56707143  1
  Tl  Tl57  1  0.90062012  0.95769670  0.43292857  1
  Tl  Tl58  1  0.59937988  0.45769670  0.43292857  1
  Tl  Tl59  1  0.09937988  0.04230330  0.56707143  1
  Tl  Tl60  1  0.61765719  0.45832644  0.05659336  1
  Tl  Tl61  1  0.11765719  0.04167356  0.94340664  1
  Tl  Tl62  1  0.38234281  0.54167356  0.94340664  1
  Tl  Tl63  1  0.88234281  0.95832644  0.05659336  1
  Si  Si64  1  0.02504452  0.59959751  0.24972341  1
  Si  Si65  1  0.52504452  0.90040249  0.75027659  1
  Si  Si66  1  0.97495548  0.40040249  0.75027659  1
  Si  Si67  1  0.47495548  0.09959751  0.24972341  1
  O  O68  1  0.13604486  0.66894329  0.25048722  1
  O  O69  1  0.63604486  0.83105671  0.74951278  1
  O  O70  1  0.86395514  0.33105671  0.74951278  1
  O  O71  1  0.36395514  0.16894329  0.25048722  1
  O  O72  1  0.94369132  0.62080208  0.31769901  1
  O  O73  1  0.44369132  0.87919792  0.68230099  1
  O  O74  1  0.05630868  0.37919792  0.68230099  1
  O  O75  1  0.55630868  0.12080208  0.31769901  1
  O  O76  1  0.05182045  0.38153927  0.82075976  1
  O  O77  1  0.55182045  0.11846073  0.17924024  1
  O  O78  1  0.94817955  0.61846073  0.17924024  1
  O  O79  1  0.44817955  0.88153927  0.82075976  1
  O  O80  1  0.06872631  0.49570457  0.25079957  1
  O  O81  1  0.56872631  0.00429543  0.74920043  1
  O  O82  1  0.93127369  0.50429543  0.74920043  1
  O  O83  1  0.43127369  0.99570457  0.25079957  1
