# generated using pymatgen
data_Ca2Mg
_symmetry_space_group_name_H-M   'P 1'
_cell_length_a   3.77687805
_cell_length_b   18.89721355
_cell_length_c   6.01066545
_cell_angle_alpha   90.00000000
_cell_angle_beta   90.00000000
_cell_angle_gamma   90.00000000
_symmetry_Int_Tables_number   1
_chemical_formula_structural   Ca2Mg
_chemical_formula_sum   'Ca8 Mg4'
_cell_volume   428.99604590
_cell_formula_units_Z   4
loop_
 _symmetry_equiv_pos_site_id
 _symmetry_equiv_pos_as_xyz
  1  'x, y, z'
loop_
 _atom_site_type_symbol
 _atom_site_label
 _atom_site_symmetry_multiplicity
 _atom_site_fract_x
 _atom_site_fract_y
 _atom_site_fract_z
 _atom_site_occupancy
  Ca  Ca0  1  0.00000000  0.37528321  0.25000000  1
  Ca  Ca1  1  0.00000000  0.06207468  0.25000000  1
  Ca  Ca2  1  0.50000000  0.43792532  0.75000000  1
  Ca  Ca3  1  0.50000000  0.12471679  0.75000000  1
  Ca  Ca4  1  0.50000000  0.87528321  0.25000000  1
  Ca  Ca5  1  0.50000000  0.56207468  0.25000000  1
  Ca  Ca6  1  0.00000000  0.93792532  0.75000000  1
  Ca  Ca7  1  -0.00000000  0.62471679  0.75000000  1
  Mg  Mg8  1  0.50000000  0.22158381  0.25000000  1
  Mg  Mg9  1  0.00000000  0.27841619  0.75000000  1
  Mg  Mg10  1  -0.00000000  0.72158381  0.25000000  1
  Mg  Mg11  1  0.50000000  0.77841619  0.75000000  1
