# generated using pymatgen
data_FeTe3ClO7
_symmetry_space_group_name_H-M   'P 1'
_cell_length_a   7.48477749
_cell_length_b   11.01413691
_cell_length_c   11.06816093
_cell_angle_alpha   111.49504635
_cell_angle_beta   90.00000000
_cell_angle_gamma   90.00000000
_symmetry_Int_Tables_number   1
_chemical_formula_structural   FeTe3ClO7
_chemical_formula_sum   'Fe4 Te12 Cl4 O28'
_cell_volume   848.98011963
_cell_formula_units_Z   4
loop_
 _symmetry_equiv_pos_site_id
 _symmetry_equiv_pos_as_xyz
  1  'x, y, z'
loop_
 _atom_site_type_symbol
 _atom_site_label
 _atom_site_symmetry_multiplicity
 _atom_site_fract_x
 _atom_site_fract_y
 _atom_site_fract_z
 _atom_site_occupancy
  Fe  Fe0  1  0.86930331  0.88290747  0.40993650  1
  Fe  Fe1  1  0.36930331  0.11709253  0.09006350  1
  Fe  Fe2  1  0.13069669  0.11709253  0.59006350  1
  Fe  Fe3  1  0.63069669  0.88290747  0.90993650  1
  Te  Te4  1  0.50982079  0.90024162  0.23092824  1
  Te  Te5  1  0.00982079  0.09975838  0.26907176  1
  Te  Te6  1  0.49017921  0.09975838  0.76907176  1
  Te  Te7  1  0.99017921  0.90024162  0.73092824  1
  Te  Te8  1  0.97466129  0.75770317  0.06134804  1
  Te  Te9  1  0.47466129  0.24229683  0.43865196  1
  Te  Te10  1  0.02533871  0.24229683  0.93865196  1
  Te  Te11  1  0.52533871  0.75770317  0.56134804  1
  Te  Te12  1  0.09967172  0.62014142  0.41695696  1
  Te  Te13  1  0.59967172  0.37985858  0.08304304  1
  Te  Te14  1  0.90032828  0.37985858  0.58304304  1
  Te  Te15  1  0.40032828  0.62014142  0.91695696  1
  Cl  Cl16  1  0.71816088  0.50771132  0.38254708  1
  Cl  Cl17  1  0.21816088  0.49228868  0.11745292  1
  Cl  Cl18  1  0.28183912  0.49228868  0.61745292  1
  Cl  Cl19  1  0.78183912  0.50771132  0.88254708  1
  O  O20  1  0.50999564  0.95965733  0.08754611  1
  O  O21  1  0.00999564  0.04034267  0.41245389  1
  O  O22  1  0.49000436  0.04034267  0.91245389  1
  O  O23  1  0.99000436  0.95965733  0.58754611  1
  O  O24  1  0.76062503  0.86483821  0.23580180  1
  O  O25  1  0.26062503  0.13516179  0.26419820  1
  O  O26  1  0.23937497  0.13516179  0.76419820  1
  O  O27  1  0.73937497  0.86483821  0.73580180  1
  O  O28  1  0.10953227  0.90944810  0.16328678  1
  O  O29  1  0.60953227  0.09055190  0.33671322  1
  O  O30  1  0.89046773  0.09055190  0.83671322  1
  O  O31  1  0.39046773  0.90944810  0.66328678  1
  O  O32  1  0.64150837  0.84751978  0.46661626  1
  O  O33  1  0.14150837  0.15248022  0.03338374  1
  O  O34  1  0.35849163  0.15248022  0.53338374  1
  O  O35  1  0.85849163  0.84751978  0.96661626  1
  O  O36  1  0.00152002  0.72775749  0.33420998  1
  O  O37  1  0.50152002  0.27224251  0.16579002  1
  O  O38  1  0.99847998  0.27224251  0.66579002  1
  O  O39  1  0.49847998  0.72775749  0.83420998  1
  O  O40  1  0.32993839  0.70858013  0.43143330  1
  O  O41  1  0.82993839  0.29141987  0.06856670  1
  O  O42  1  0.67006161  0.29141987  0.56856670  1
  O  O43  1  0.17006161  0.70858013  0.93143330  1
  O  O44  1  0.00870972  0.71325840  0.58828433  1
  O  O45  1  0.50870972  0.28674160  0.91171567  1
  O  O46  1  0.99129028  0.28674160  0.41171567  1
  O  O47  1  0.49129028  0.71325840  0.08828433  1
