# generated using pymatgen
data_HoFe5P3
_symmetry_space_group_name_H-M   'P 1'
_cell_length_a   3.64513188
_cell_length_b   10.28466110
_cell_length_c   11.81460546
_cell_angle_alpha   90.00000000
_cell_angle_beta   90.00000000
_cell_angle_gamma   90.00000000
_symmetry_Int_Tables_number   1
_chemical_formula_structural   HoFe5P3
_chemical_formula_sum   'Ho4 Fe20 P12'
_cell_volume   442.91710670
_cell_formula_units_Z   4
loop_
 _symmetry_equiv_pos_site_id
 _symmetry_equiv_pos_as_xyz
  1  'x, y, z'
loop_
 _atom_site_type_symbol
 _atom_site_label
 _atom_site_symmetry_multiplicity
 _atom_site_fract_x
 _atom_site_fract_y
 _atom_site_fract_z
 _atom_site_occupancy
  Ho  Ho0  1  0.25000000  0.58122266  0.70481257  1
  Ho  Ho1  1  0.25000000  0.91877734  0.20481257  1
  Ho  Ho2  1  0.75000000  0.41877734  0.29518743  1
  Ho  Ho3  1  0.75000000  0.08122266  0.79518743  1
  Fe  Fe4  1  0.25000000  0.70773720  0.98812121  1
  Fe  Fe5  1  0.25000000  0.79226280  0.48812121  1
  Fe  Fe6  1  0.75000000  0.29226280  0.01187879  1
  Fe  Fe7  1  0.75000000  0.20773720  0.51187879  1
  Fe  Fe8  1  0.25000000  0.40528478  0.49032486  1
  Fe  Fe9  1  0.25000000  0.09471522  0.99032486  1
  Fe  Fe10  1  0.75000000  0.59471522  0.50967514  1
  Fe  Fe11  1  0.75000000  0.90528478  0.00967514  1
  Fe  Fe12  1  0.25000000  0.21920529  0.17675095  1
  Fe  Fe13  1  0.25000000  0.28079471  0.67675095  1
  Fe  Fe14  1  0.75000000  0.78079471  0.82324905  1
  Fe  Fe15  1  0.75000000  0.71920529  0.32324905  1
  Fe  Fe16  1  0.25000000  0.87650878  0.70080407  1
  Fe  Fe17  1  0.25000000  0.62349122  0.20080407  1
  Fe  Fe18  1  0.75000000  0.12349122  0.29919593  1
  Fe  Fe19  1  0.75000000  0.37650878  0.79919593  1
  Fe  Fe20  1  0.25000000  0.46322949  0.93270154  1
  Fe  Fe21  1  0.25000000  0.03677051  0.43270154  1
  Fe  Fe22  1  0.75000000  0.53677051  0.06729846  1
  Fe  Fe23  1  0.75000000  0.96322949  0.56729846  1
  P  P24  1  0.25000000  0.42158417  0.11277901  1
  P  P25  1  0.25000000  0.07841583  0.61277901  1
  P  P26  1  0.75000000  0.57841583  0.88722099  1
  P  P27  1  0.75000000  0.92158417  0.38722099  1
  P  P28  1  0.25000000  0.26599545  0.87171904  1
  P  P29  1  0.25000000  0.23400455  0.37171904  1
  P  P30  1  0.75000000  0.73400455  0.12828096  1
  P  P31  1  0.75000000  0.76599545  0.62828096  1
  P  P32  1  0.25000000  0.60044672  0.39572476  1
  P  P33  1  0.25000000  0.89955328  0.89572476  1
  P  P34  1  0.75000000  0.39955328  0.60427524  1
  P  P35  1  0.75000000  0.10044672  0.10427524  1
