# generated using pymatgen
data_CaMg
_symmetry_space_group_name_H-M   'P 1'
_cell_length_a   10.61634373
_cell_length_b   6.15802717
_cell_length_c   6.60191090
_cell_angle_alpha   90.00000000
_cell_angle_beta   118.03875958
_cell_angle_gamma   90.00000000
_symmetry_Int_Tables_number   1
_chemical_formula_structural   CaMg
_chemical_formula_sum   'Ca6 Mg6'
_cell_volume   380.94722839
_cell_formula_units_Z   6
loop_
 _symmetry_equiv_pos_site_id
 _symmetry_equiv_pos_as_xyz
  1  'x, y, z'
loop_
 _atom_site_type_symbol
 _atom_site_label
 _atom_site_symmetry_multiplicity
 _atom_site_fract_x
 _atom_site_fract_y
 _atom_site_fract_z
 _atom_site_occupancy
  Ca  Ca0  1  -0.00000000  0.64633360  -0.00000000  1
  Ca  Ca1  1  0.33833003  0.50653717  0.50929828  1
  Ca  Ca2  1  0.66166997  0.50653717  0.49070172  1
  Ca  Ca3  1  0.50000000  0.14633360  -0.00000000  1
  Ca  Ca4  1  0.83833003  0.00653717  0.50929828  1
  Ca  Ca5  1  0.16166997  0.00653717  0.49070172  1
  Mg  Mg6  1  0.66860218  0.67121251  0.99672895  1
  Mg  Mg7  1  0.33139782  0.67121251  0.00327105  1
  Mg  Mg8  1  -0.00000000  0.49816805  0.50000000  1
  Mg  Mg9  1  0.16860218  0.17121251  0.99672895  1
  Mg  Mg10  1  0.83139782  0.17121251  0.00327105  1
  Mg  Mg11  1  0.50000000  0.99816805  0.50000000  1
