# generated using pymatgen
data_Pu2B6Ru
_symmetry_space_group_name_H-M   'P 1'
_cell_length_a   3.56740659
_cell_length_b   9.39227101
_cell_length_c   11.44783765
_cell_angle_alpha   90.00000000
_cell_angle_beta   90.00000000
_cell_angle_gamma   90.00000000
_symmetry_Int_Tables_number   1
_chemical_formula_structural   Pu2B6Ru
_chemical_formula_sum   'Pu8 B24 Ru4'
_cell_volume   383.57181492
_cell_formula_units_Z   4
loop_
 _symmetry_equiv_pos_site_id
 _symmetry_equiv_pos_as_xyz
  1  'x, y, z'
loop_
 _atom_site_type_symbol
 _atom_site_label
 _atom_site_symmetry_multiplicity
 _atom_site_fract_x
 _atom_site_fract_y
 _atom_site_fract_z
 _atom_site_occupancy
  Pu  Pu0  1  0.00000000  0.33719817  0.40700423  1
  Pu  Pu1  1  -0.00000000  0.66280183  0.59299577  1
  Pu  Pu2  1  0.00000000  0.83719817  0.09299577  1
  Pu  Pu3  1  -0.00000000  0.16280183  0.90700423  1
  Pu  Pu4  1  0.00000000  0.95567324  0.39332048  1
  Pu  Pu5  1  -0.00000000  0.04432676  0.60667952  1
  Pu  Pu6  1  0.00000000  0.45567324  0.10667952  1
  Pu  Pu7  1  -0.00000000  0.54432676  0.89332048  1
  B  B8  1  0.50000000  0.55174339  0.43094032  1
  B  B9  1  0.50000000  0.44825661  0.56905968  1
  B  B10  1  0.50000000  0.05174339  0.06905968  1
  B  B11  1  0.50000000  0.94825661  0.93094032  1
  B  B12  1  0.50000000  0.74243994  0.42370423  1
  B  B13  1  0.50000000  0.25756006  0.57629577  1
  B  B14  1  0.50000000  0.24243994  0.07629577  1
  B  B15  1  0.50000000  0.75756006  0.92370423  1
  B  B16  1  0.50000000  0.80271053  0.27465832  1
  B  B17  1  0.50000000  0.19728947  0.72534168  1
  B  B18  1  0.50000000  0.30271053  0.22534168  1
  B  B19  1  0.50000000  0.69728947  0.77465832  1
  B  B20  1  0.50000000  0.64615403  0.18906072  1
  B  B21  1  0.50000000  0.35384597  0.81093928  1
  B  B22  1  0.50000000  0.14615403  0.31093928  1
  B  B23  1  0.50000000  0.85384597  0.68906072  1
  B  B24  1  0.50000000  0.98930443  0.21849530  1
  B  B25  1  0.50000000  0.01069557  0.78150470  1
  B  B26  1  0.50000000  0.48930443  0.28150470  1
  B  B27  1  0.50000000  0.51069557  0.71849530  1
  B  B28  1  0.50000000  0.64613199  0.04076972  1
  B  B29  1  0.50000000  0.35386801  0.95923028  1
  B  B30  1  0.50000000  0.14613199  0.45923028  1
  B  B31  1  0.50000000  0.85386801  0.54076972  1
  Ru  Ru32  1  0.00000000  0.64533535  0.32042653  1
  Ru  Ru33  1  0.00000000  0.35466465  0.67957347  1
  Ru  Ru34  1  -0.00000000  0.14533535  0.17957347  1
  Ru  Ru35  1  -0.00000000  0.85466465  0.82042653  1
