# generated using pymatgen
data_Ho(NO3)3
_symmetry_space_group_name_H-M   'P 1'
_cell_length_a   6.15617909
_cell_length_b   9.70788631
_cell_length_c   11.08248098
_cell_angle_alpha   93.17723907
_cell_angle_beta   90.00000000
_cell_angle_gamma   90.00000000
_symmetry_Int_Tables_number   1
_chemical_formula_structural   Ho(NO3)3
_chemical_formula_sum   'Ho4 N12 O36'
_cell_volume   661.30961479
_cell_formula_units_Z   4
loop_
 _symmetry_equiv_pos_site_id
 _symmetry_equiv_pos_as_xyz
  1  'x, y, z'
loop_
 _atom_site_type_symbol
 _atom_site_label
 _atom_site_symmetry_multiplicity
 _atom_site_fract_x
 _atom_site_fract_y
 _atom_site_fract_z
 _atom_site_occupancy
  Ho  Ho0  1  0.32657535  0.72116880  0.73617078  1
  Ho  Ho1  1  0.82657535  0.77883120  0.26382922  1
  Ho  Ho2  1  0.67342465  0.27883120  0.26382922  1
  Ho  Ho3  1  0.17342465  0.22116880  0.73617078  1
  N  N4  1  0.62317341  0.83336106  0.49202841  1
  N  N5  1  0.12317341  0.66663894  0.50797159  1
  N  N6  1  0.37682659  0.16663894  0.50797159  1
  N  N7  1  0.87682659  0.33336106  0.49202841  1
  N  N8  1  0.27442878  0.79059439  0.20977264  1
  N  N9  1  0.77442878  0.70940561  0.79022736  1
  N  N10  1  0.72557122  0.20940561  0.79022736  1
  N  N11  1  0.22557122  0.29059439  0.20977264  1
  N  N12  1  0.28116112  0.48032976  0.88100974  1
  N  N13  1  0.78116112  0.01967024  0.11899026  1
  N  N14  1  0.71883888  0.51967024  0.11899026  1
  N  N15  1  0.21883888  0.98032976  0.88100974  1
  O  O16  1  0.57597853  0.72769164  0.42302032  1
  O  O17  1  0.07597853  0.77230836  0.57697968  1
  O  O18  1  0.42402147  0.27230836  0.57697968  1
  O  O19  1  0.92402147  0.22769164  0.42302032  1
  O  O20  1  0.75707000  0.91876666  0.45218289  1
  O  O21  1  0.25707000  0.58123334  0.54781711  1
  O  O22  1  0.24293000  0.08123334  0.54781711  1
  O  O23  1  0.74293000  0.41876666  0.45218289  1
  O  O24  1  0.54114501  0.85172620  0.59535038  1
  O  O25  1  0.04114501  0.64827380  0.40464962  1
  O  O26  1  0.45885499  0.14827380  0.40464962  1
  O  O27  1  0.95885499  0.35172620  0.59535038  1
  O  O28  1  0.17990437  0.88759799  0.27154578  1
  O  O29  1  0.67990437  0.61240201  0.72845422  1
  O  O30  1  0.82009563  0.11240201  0.72845422  1
  O  O31  1  0.32009563  0.38759799  0.27154578  1
  O  O32  1  0.47380007  0.79635502  0.18662995  1
  O  O33  1  0.97380007  0.70364498  0.81337005  1
  O  O34  1  0.52619993  0.20364498  0.81337005  1
  O  O35  1  0.02619993  0.29635502  0.18662995  1
  O  O36  1  0.16091609  0.68898052  0.17079627  1
  O  O37  1  0.66091609  0.81101948  0.82920373  1
  O  O38  1  0.83908391  0.31101948  0.82920373  1
  O  O39  1  0.33908391  0.18898052  0.17079627  1
  O  O40  1  0.27135430  0.46693640  0.76275721  1
  O  O41  1  0.77135430  0.03306360  0.23724279  1
  O  O42  1  0.72864570  0.53306360  0.23724279  1
  O  O43  1  0.22864570  0.96693640  0.76275721  1
  O  O44  1  0.33938317  0.59576869  0.92601031  1
  O  O45  1  0.83938317  0.90423131  0.07398969  1
  O  O46  1  0.66061683  0.40423131  0.07398969  1
  O  O47  1  0.16061683  0.09576869  0.92601031  1
  O  O48  1  0.23109240  0.37943684  0.93931248  1
  O  O49  1  0.73109240  0.12056316  0.06068752  1
  O  O50  1  0.76890760  0.62056316  0.06068752  1
  O  O51  1  0.26890760  0.87943684  0.93931248  1
