# generated using pymatgen
data_Ba2H8PtO8
_symmetry_space_group_name_H-M   'P 1'
_cell_length_a   8.70697824
_cell_length_b   8.92404769
_cell_length_c   10.46890188
_cell_angle_alpha   90.00000000
_cell_angle_beta   90.00000000
_cell_angle_gamma   90.00000000
_symmetry_Int_Tables_number   1
_chemical_formula_structural   Ba2H8PtO8
_chemical_formula_sum   'Ba8 H32 Pt4 O32'
_cell_volume   813.44926479
_cell_formula_units_Z   4
loop_
 _symmetry_equiv_pos_site_id
 _symmetry_equiv_pos_as_xyz
  1  'x, y, z'
loop_
 _atom_site_type_symbol
 _atom_site_label
 _atom_site_symmetry_multiplicity
 _atom_site_fract_x
 _atom_site_fract_y
 _atom_site_fract_z
 _atom_site_occupancy
  Ba  Ba0  1  0.78026705  0.28272594  0.22588609  1
  Ba  Ba1  1  0.28026705  0.21727406  0.77411391  1
  Ba  Ba2  1  0.21973295  0.78272594  0.27411391  1
  Ba  Ba3  1  0.71973295  0.71727406  0.72588609  1
  Ba  Ba4  1  0.21973295  0.71727406  0.77411391  1
  Ba  Ba5  1  0.71973295  0.78272594  0.22588609  1
  Ba  Ba6  1  0.78026705  0.21727406  0.72588609  1
  Ba  Ba7  1  0.28026705  0.28272594  0.27411391  1
  H  H8  1  0.52659242  0.51436991  0.40958794  1
  H  H9  1  0.02659242  0.98563009  0.59041206  1
  H  H10  1  0.47340758  0.01436991  0.09041206  1
  H  H11  1  0.97340758  0.48563009  0.90958794  1
  H  H12  1  0.47340758  0.48563009  0.59041206  1
  H  H13  1  0.97340758  0.01436991  0.40958794  1
  H  H14  1  0.52659242  0.98563009  0.90958794  1
  H  H15  1  0.02659242  0.51436991  0.09041206  1
  H  H16  1  0.51386697  0.01599187  0.26208473  1
  H  H17  1  0.01386697  0.48400813  0.73791527  1
  H  H18  1  0.48613303  0.51599187  0.23791527  1
  H  H19  1  0.98613303  0.98400813  0.76208473  1
  H  H20  1  0.48613303  0.98400813  0.73791527  1
  H  H21  1  0.98613303  0.51599187  0.26208473  1
  H  H22  1  0.51386697  0.48400813  0.76208473  1
  H  H23  1  0.01386697  0.01599187  0.23791527  1
  H  H24  1  0.71462908  0.04397458  0.99246699  1
  H  H25  1  0.21462908  0.45602542  0.00753301  1
  H  H26  1  0.28537092  0.54397458  0.50753301  1
  H  H27  1  0.78537092  0.95602542  0.49246699  1
  H  H28  1  0.28537092  0.95602542  0.00753301  1
  H  H29  1  0.78537092  0.54397458  0.99246699  1
  H  H30  1  0.71462908  0.45602542  0.49246699  1
  H  H31  1  0.21462908  0.04397458  0.50753301  1
  H  H32  1  0.02378782  0.21907954  0.50520696  1
  H  H33  1  0.52378782  0.28092046  0.49479304  1
  H  H34  1  0.97621218  0.71907954  0.99479304  1
  H  H35  1  0.47621218  0.78092046  0.00520696  1
  H  H36  1  0.97621218  0.78092046  0.49479304  1
  H  H37  1  0.47621218  0.71907954  0.50520696  1
  H  H38  1  0.02378782  0.28092046  0.00520696  1
  H  H39  1  0.52378782  0.21907954  0.99479304  1
  Pt  Pt40  1  0.50000000  -0.00000000  0.50000000  1
  Pt  Pt41  1  0.00000000  0.50000000  0.50000000  1
  Pt  Pt42  1  0.50000000  0.50000000  -0.00000000  1
  Pt  Pt43  1  0.00000000  0.00000000  -0.00000000  1
  O  O44  1  0.55890931  0.41969313  0.37161592  1
  O  O45  1  0.05890931  0.08030687  0.62838408  1
  O  O46  1  0.44109069  0.91969313  0.12838408  1
  O  O47  1  0.94109069  0.58030687  0.87161592  1
  O  O48  1  0.44109069  0.58030687  0.62838408  1
  O  O49  1  0.94109069  0.91969313  0.37161592  1
  O  O50  1  0.55890931  0.08030687  0.87161592  1
  O  O51  1  0.05890931  0.41969313  0.12838408  1
  O  O52  1  0.57637929  0.07186102  0.32643024  1
  O  O53  1  0.07637929  0.42813898  0.67356976  1
  O  O54  1  0.42362071  0.57186102  0.17356976  1
  O  O55  1  0.92362071  0.92813898  0.82643024  1
  O  O56  1  0.42362071  0.92813898  0.67356976  1
  O  O57  1  0.92362071  0.57186102  0.32643024  1
  O  O58  1  0.57637929  0.42813898  0.82643024  1
  O  O59  1  0.07637929  0.07186102  0.17356976  1
  O  O60  1  0.78199757  0.02805498  0.06777571  1
  O  O61  1  0.28199757  0.47194502  0.93222429  1
  O  O62  1  0.21800243  0.52805498  0.43222429  1
  O  O63  1  0.71800243  0.97194502  0.56777571  1
  O  O64  1  0.21800243  0.97194502  0.93222429  1
  O  O65  1  0.71800243  0.52805498  0.06777571  1
  O  O66  1  0.78199757  0.47194502  0.56777571  1
  O  O67  1  0.28199757  0.02805498  0.43222429  1
  O  O68  1  0.00105669  0.28516276  0.43005638  1
  O  O69  1  0.50105669  0.21483724  0.56994362  1
  O  O70  1  0.99894331  0.78516276  0.06994362  1
  O  O71  1  0.49894331  0.71483724  0.93005638  1
  O  O72  1  0.99894331  0.71483724  0.56994362  1
  O  O73  1  0.49894331  0.78516276  0.43005638  1
  O  O74  1  0.00105669  0.21483724  0.93005638  1
  O  O75  1  0.50105669  0.28516276  0.06994362  1
