# generated using pymatgen
data_Cs3ZnI5
_symmetry_space_group_name_H-M   'P 1'
_cell_length_a   10.26211316
_cell_length_b   11.76553357
_cell_length_c   15.33408359
_cell_angle_alpha   90.00000000
_cell_angle_beta   90.00000000
_cell_angle_gamma   90.00000000
_symmetry_Int_Tables_number   1
_chemical_formula_structural   Cs3ZnI5
_chemical_formula_sum   'Cs12 Zn4 I20'
_cell_volume   1851.42555096
_cell_formula_units_Z   4
loop_
 _symmetry_equiv_pos_site_id
 _symmetry_equiv_pos_as_xyz
  1  'x, y, z'
loop_
 _atom_site_type_symbol
 _atom_site_label
 _atom_site_symmetry_multiplicity
 _atom_site_fract_x
 _atom_site_fract_y
 _atom_site_fract_z
 _atom_site_occupancy
  Cs  Cs0  1  0.08147349  0.98275224  0.17236583  1
  Cs  Cs1  1  0.58147349  0.51724776  0.32763417  1
  Cs  Cs2  1  0.91852651  0.48275224  0.82763417  1
  Cs  Cs3  1  0.41852651  0.01724776  0.67236583  1
  Cs  Cs4  1  0.91852651  0.01724776  0.82763417  1
  Cs  Cs5  1  0.41852651  0.48275224  0.67236583  1
  Cs  Cs6  1  0.08147349  0.51724776  0.17236583  1
  Cs  Cs7  1  0.58147349  0.98275224  0.32763417  1
  Cs  Cs8  1  0.08549276  0.75000000  0.45197354  1
  Cs  Cs9  1  0.58549276  0.75000000  0.04802646  1
  Cs  Cs10  1  0.91450724  0.25000000  0.54802646  1
  Cs  Cs11  1  0.41450724  0.25000000  0.95197354  1
  Zn  Zn12  1  0.18675171  0.75000000  0.89297639  1
  Zn  Zn13  1  0.68675171  0.75000000  0.60702361  1
  Zn  Zn14  1  0.81324829  0.25000000  0.10702361  1
  Zn  Zn15  1  0.31324829  0.25000000  0.39297639  1
  I  I16  1  0.13744138  0.75000000  0.72478459  1
  I  I17  1  0.63744138  0.75000000  0.77521541  1
  I  I18  1  0.86255862  0.25000000  0.27521541  1
  I  I19  1  0.36255862  0.25000000  0.22478459  1
  I  I20  1  0.46812335  0.75000000  0.51394055  1
  I  I21  1  0.96812335  0.75000000  0.98605945  1
  I  I22  1  0.53187665  0.25000000  0.48605945  1
  I  I23  1  0.03187665  0.25000000  0.01394055  1
  I  I24  1  0.33251093  0.75000000  0.23653968  1
  I  I25  1  0.83251093  0.75000000  0.26346032  1
  I  I26  1  0.66748907  0.25000000  0.76346032  1
  I  I27  1  0.16748907  0.25000000  0.73653968  1
  I  I28  1  0.31171896  0.93800249  0.93610949  1
  I  I29  1  0.81171896  0.56199751  0.56389051  1
  I  I30  1  0.68828104  0.43800249  0.06389051  1
  I  I31  1  0.18828104  0.06199751  0.43610949  1
  I  I32  1  0.68828104  0.06199751  0.06389051  1
  I  I33  1  0.18828104  0.43800249  0.43610949  1
  I  I34  1  0.31171896  0.56199751  0.93610949  1
  I  I35  1  0.81171896  0.93800249  0.56389051  1
