# generated using pymatgen
data_HC2N3
_symmetry_space_group_name_H-M   'P 1'
_cell_length_a   8.40960840
_cell_length_b   7.63419653
_cell_length_c   17.01646019
_cell_angle_alpha   89.89198438
_cell_angle_beta   90.00000000
_cell_angle_gamma   123.42091327
_symmetry_Int_Tables_number   1
_chemical_formula_structural   HC2N3
_chemical_formula_sum   'H12 C24 N36'
_cell_volume   911.82185426
_cell_formula_units_Z   12
loop_
 _symmetry_equiv_pos_site_id
 _symmetry_equiv_pos_as_xyz
  1  'x, y, z'
loop_
 _atom_site_type_symbol
 _atom_site_label
 _atom_site_symmetry_multiplicity
 _atom_site_fract_x
 _atom_site_fract_y
 _atom_site_fract_z
 _atom_site_occupancy
  H  H0  1  0.04893322  0.09786643  0.57867014  1
  H  H1  1  0.17471091  0.34942181  0.62576104  1
  H  H2  1  0.94379239  0.88758479  0.42206170  1
  H  H3  1  0.81811894  0.63623789  0.37521037  1
  H  H4  1  0.38426493  0.76852987  0.61881204  1
  H  H5  1  0.60527681  0.21055362  0.38163939  1
  H  H6  1  0.55411733  0.10823466  0.91993089  1
  H  H7  1  0.68218395  0.36436790  0.87639751  1
  H  H8  1  0.44327986  0.88655973  0.07552728  1
  H  H9  1  0.31867986  0.63735973  0.12441304  1
  H  H10  1  0.10697407  0.21394815  0.12047406  1
  H  H11  1  0.88582039  0.77164078  0.88169134  1
  C  C12  1  0.03414214  0.06828429  0.83795938  1
  C  C13  1  0.16906491  0.33812981  0.92638768  1
  C  C14  1  0.19652823  0.39305647  0.78415689  1
  C  C15  1  0.34642755  0.69285511  0.87067491  1
  C  C16  1  0.36576445  0.73152890  0.73781679  1
  C  C17  1  0.53421102  0.06842204  0.66130826  1
  C  C18  1  0.66983016  0.33966033  0.57316684  1
  C  C19  1  0.86523829  0.73047658  0.76204125  1
  C  C20  1  0.84674927  0.69349854  0.62890368  1
  C  C21  1  0.81888078  0.63776155  0.49600048  1
  C  C22  1  0.17358027  0.34716054  0.50500947  1
  C  C23  1  0.14457330  0.28914659  0.37232338  1
  C  C24  1  0.12540858  0.25081715  0.23939581  1
  C  C25  1  0.32174677  0.64349354  0.42727851  1
  C  C26  1  0.29441768  0.58883535  0.28508570  1
  C  C27  1  0.45651879  0.91303758  0.33860380  1
  C  C28  1  0.62504161  0.25008322  0.26233841  1
  C  C29  1  0.64481442  0.28962884  0.12921641  1
  C  C30  1  0.79436628  0.58873256  0.21647021  1
  C  C31  1  0.82296143  0.64592287  0.07461657  1
  C  C32  1  0.95726485  0.91452970  0.16313570  1
  C  C33  1  0.31764105  0.63528209  0.00337544  1
  C  C34  1  0.69629011  0.39258022  0.71555385  1
  C  C35  1  0.67551932  0.35103865  0.99669321  1
  N  N36  1  0.09359654  0.18719308  0.77299891  1
  N  N37  1  0.06556296  0.13112593  0.91343453  1
  N  N38  1  0.23721404  0.47442807  0.86027641  1
  N  N39  1  0.26146745  0.52293490  0.72231846  1
  N  N40  1  0.38628511  0.77257023  0.94180309  1
  N  N41  1  0.41051205  0.82102411  0.80815865  1
  N  N42  1  0.42620580  0.85241160  0.67030748  1
  N  N43  1  0.59322262  0.18644523  0.72640333  1
  N  N44  1  0.56616289  0.13232579  0.58593513  1
  N  N45  1  0.71167452  0.42334904  0.50134826  1
  N  N46  1  0.73748530  0.47497060  0.63935465  1
  N  N47  1  0.76083168  0.52166336  0.77752010  1
  N  N48  1  0.92608051  0.85216103  0.82933608  1
  N  N49  1  0.91024800  0.82049600  0.69153710  1
  N  N50  1  0.88709255  0.77418511  0.55766963  1
  N  N51  1  0.86313714  0.72627429  0.42515137  1
  N  N52  1  0.12962083  0.25924166  0.57580526  1
  N  N53  1  0.10495430  0.20990859  0.44354692  1
  N  N54  1  0.08049951  0.16099901  0.30991171  1
  N  N55  1  0.06512473  0.13024946  0.17216241  1
  N  N56  1  0.28069499  0.56138997  0.49923840  1
  N  N57  1  0.25370112  0.50740224  0.36132851  1
  N  N58  1  0.22967104  0.45934208  0.22341579  1
  N  N59  1  0.42523386  0.85046771  0.41406316  1
  N  N60  1  0.39730752  0.79461503  0.27368223  1
  N  N61  1  0.56437923  0.12875846  0.32966443  1
  N  N62  1  0.58052598  0.16105195  0.19173673  1
  N  N63  1  0.60581791  0.21163582  0.05781928  1
  N  N64  1  0.72920448  0.45840896  0.27816366  1
  N  N65  1  0.75404877  0.50809754  0.14031014  1
  N  N66  1  0.89720941  0.79441882  0.22791445  1
  N  N67  1  0.92638978  0.85277955  0.08774145  1
  N  N68  1  0.78252047  0.56504094  0.00279335  1
  N  N69  1  0.36253401  0.72506802  0.07381980  1
  N  N70  1  0.21047673  0.42095345  0.99827323  1
  N  N71  1  0.63432225  0.26864451  0.92525445  1
