# generated using pymatgen
data_Y5CoCl9
_symmetry_space_group_name_H-M   'P 1'
_cell_length_a   12.43712994
_cell_length_b   12.43712994
_cell_length_c   23.79059269
_cell_angle_alpha   105.15241207
_cell_angle_beta   105.15241210
_cell_angle_gamma   90.00000000
_symmetry_Int_Tables_number   1
_chemical_formula_structural   Y5CoCl9
_chemical_formula_sum   'Y40 Co8 Cl72'
_cell_volume   3419.32060530
_cell_formula_units_Z   8
loop_
 _symmetry_equiv_pos_site_id
 _symmetry_equiv_pos_as_xyz
  1  'x, y, z'
loop_
 _atom_site_type_symbol
 _atom_site_label
 _atom_site_symmetry_multiplicity
 _atom_site_fract_x
 _atom_site_fract_y
 _atom_site_fract_z
 _atom_site_occupancy
  Y  Y0  1  0.06933412  0.51015371  0.42498429  1
  Y  Y1  1  0.35565017  0.41483059  0.42498429  1
  Y  Y2  1  0.01015371  0.85565017  0.92498429  1
  Y  Y3  1  0.91483059  0.56933412  0.92498429  1
  Y  Y4  1  0.93066588  0.48984629  0.57501571  1
  Y  Y5  1  0.64434983  0.58516941  0.57501571  1
  Y  Y6  1  0.98984629  0.14434983  0.07501571  1
  Y  Y7  1  0.08516941  0.43066588  0.07501571  1
  Y  Y8  1  0.10952700  0.24579329  0.31735394  1
  Y  Y9  1  0.20782694  0.57156066  0.31735394  1
  Y  Y10  1  0.74579329  0.70782694  0.81735394  1
  Y  Y11  1  0.07156066  0.60952700  0.81735394  1
  Y  Y12  1  0.89047300  0.75420671  0.68264606  1
  Y  Y13  1  0.79217306  0.42843934  0.68264606  1
  Y  Y14  1  0.25420671  0.29217306  0.18264606  1
  Y  Y15  1  0.92843934  0.39047300  0.18264606  1
  Y  Y16  1  0.91140408  0.63059496  0.30715894  1
  Y  Y17  1  0.39575486  0.17656398  0.30715894  1
  Y  Y18  1  0.13059496  0.89575486  0.80715894  1
  Y  Y19  1  0.67656398  0.41140408  0.80715894  1
  Y  Y20  1  0.08859592  0.36940504  0.69284106  1
  Y  Y21  1  0.60424514  0.82343602  0.69284106  1
  Y  Y22  1  0.86940504  0.10424514  0.19284106  1
  Y  Y23  1  0.32343602  0.58859592  0.19284106  1
  Y  Y24  1  0.82905191  0.35559512  0.31264349  1
  Y  Y25  1  0.48359158  0.45704837  0.31264349  1
  Y  Y26  1  0.85559512  0.98359158  0.81264349  1
  Y  Y27  1  0.95704837  0.32905191  0.81264349  1
  Y  Y28  1  0.17094809  0.64440488  0.68735651  1
  Y  Y29  1  0.51640842  0.54295163  0.68735651  1
  Y  Y30  1  0.14440488  0.01640842  0.18735651  1
  Y  Y31  1  0.04295163  0.67094809  0.18735651  1
  Y  Y32  1  0.86832614  0.91561510  0.43331993  1
  Y  Y33  1  0.56499379  0.01770482  0.43331993  1
  Y  Y34  1  0.41561510  0.06499379  0.93331993  1
  Y  Y35  1  0.51770482  0.36832614  0.93331993  1
  Y  Y36  1  0.13167386  0.08438490  0.56668007  1
  Y  Y37  1  0.43500621  0.98229518  0.56668007  1
  Y  Y38  1  0.58438490  0.93500621  0.06668007  1
  Y  Y39  1  0.48229518  0.63167386  0.06668007  1
  Co  Co40  1  0.01940123  0.44327167  0.30530554  1
  Co  Co41  1  0.28590431  0.36203387  0.30530554  1
  Co  Co42  1  0.94327167  0.78590431  0.80530554  1
  Co  Co43  1  0.86203387  0.51940123  0.80530554  1
  Co  Co44  1  0.98059877  0.55672833  0.69469446  1
  Co  Co45  1  0.71409569  0.63796613  0.69469446  1
  Co  Co46  1  0.05672833  0.21409569  0.19469446  1
  Co  Co47  1  0.13796613  0.48059877  0.19469446  1
  Cl  Cl48  1  0.96848527  0.71509762  0.43232056  1
  Cl  Cl49  1  0.46383529  0.21722294  0.43232056  1
  Cl  Cl50  1  0.21509762  0.96383529  0.93232056  1
  Cl  Cl51  1  0.71722294  0.46848527  0.93232056  1
  Cl  Cl52  1  0.03151473  0.28490238  0.56767944  1
  Cl  Cl53  1  0.53616471  0.78277706  0.56767944  1
  Cl  Cl54  1  0.78490238  0.03616471  0.06767944  1
  Cl  Cl55  1  0.28277706  0.53151473  0.06767944  1
  Cl  Cl56  1  0.71412469  0.54181215  0.31673888  1
  Cl  Cl57  1  0.60261419  0.27492673  0.31673888  1
  Cl  Cl58  1  0.04181215  0.10261419  0.81673888  1
  Cl  Cl59  1  0.77492673  0.21412469  0.81673888  1
  Cl  Cl60  1  0.28587531  0.45818785  0.68326112  1
  Cl  Cl61  1  0.39738581  0.72507327  0.68326112  1
  Cl  Cl62  1  0.95818785  0.89738581  0.18326112  1
  Cl  Cl63  1  0.22507327  0.78587531  0.18326112  1
  Cl  Cl64  1  0.88501120  0.41563008  0.43851371  1
  Cl  Cl65  1  0.55350250  0.52288363  0.43851371  1
  Cl  Cl66  1  0.91563008  0.05350250  0.93851371  1
  Cl  Cl67  1  0.02288363  0.38501120  0.93851371  1
  Cl  Cl68  1  0.11498880  0.58436992  0.56148629  1
  Cl  Cl69  1  0.44649750  0.47711637  0.56148629  1
  Cl  Cl70  1  0.08436992  0.94649750  0.06148629  1
  Cl  Cl71  1  0.97711637  0.61498880  0.06148629  1
  Cl  Cl72  1  0.17777071  0.32750567  0.44989525  1
  Cl  Cl73  1  0.27212455  0.62238958  0.44989525  1
  Cl  Cl74  1  0.82750567  0.77212455  0.94989525  1
  Cl  Cl75  1  0.12238958  0.67777071  0.94989525  1
  Cl  Cl76  1  0.82222929  0.67249433  0.55010475  1
  Cl  Cl77  1  0.72787545  0.37761042  0.55010475  1
  Cl  Cl78  1  0.17249433  0.22787545  0.05010475  1
  Cl  Cl79  1  0.87761042  0.32222929  0.05010475  1
  Cl  Cl80  1  0.89371432  0.14502109  0.31437561  1
  Cl  Cl81  1  0.42066129  0.66935453  0.31437561  1
  Cl  Cl82  1  0.64502109  0.92066129  0.81437561  1
  Cl  Cl83  1  0.16935453  0.39371432  0.81437561  1
  Cl  Cl84  1  0.10628568  0.85497891  0.68562439  1
  Cl  Cl85  1  0.57933871  0.33064547  0.68562439  1
  Cl  Cl86  1  0.35497891  0.07933871  0.18562439  1
  Cl  Cl87  1  0.83064547  0.60628568  0.18562439  1
  Cl  Cl88  1  0.22137206  0.04091572  0.30979049  1
  Cl  Cl89  1  0.08841843  0.76887477  0.30979049  1
  Cl  Cl90  1  0.54091572  0.58841843  0.80979049  1
  Cl  Cl91  1  0.26887477  0.72137206  0.80979049  1
  Cl  Cl92  1  0.77862794  0.95908428  0.69020951  1
  Cl  Cl93  1  0.91158157  0.23112523  0.69020951  1
  Cl  Cl94  1  0.45908428  0.41158157  0.19020951  1
  Cl  Cl95  1  0.73112523  0.27862794  0.19020951  1
  Cl  Cl96  1  0.80958834  0.83479558  0.31723225  1
  Cl  Cl97  1  0.50764391  0.98243667  0.31723225  1
  Cl  Cl98  1  0.33479558  0.00764391  0.81723225  1
  Cl  Cl99  1  0.48243667  0.30958834  0.81723225  1
  Cl  Cl100  1  0.19041166  0.16520442  0.68276775  1
  Cl  Cl101  1  0.49235609  0.01756333  0.68276775  1
  Cl  Cl102  1  0.66520442  0.99235609  0.18276775  1
  Cl  Cl103  1  0.51756333  0.69041166  0.18276775  1
  Cl  Cl104  1  0.94185336  0.97164273  0.55595845  1
  Cl  Cl105  1  0.61410509  0.08431573  0.55595845  1
  Cl  Cl106  1  0.47164273  0.11410509  0.05595845  1
  Cl  Cl107  1  0.58431573  0.44185336  0.05595845  1
  Cl  Cl108  1  0.05814664  0.02835727  0.44404155  1
  Cl  Cl109  1  0.38589491  0.91568427  0.44404155  1
  Cl  Cl110  1  0.52835727  0.88589491  0.94404155  1
  Cl  Cl111  1  0.41568427  0.55814664  0.94404155  1
  Cl  Cl112  1  0.67391586  0.83516888  0.43977541  1
  Cl  Cl113  1  0.76585955  0.10460652  0.43977541  1
  Cl  Cl114  1  0.33516888  0.26585955  0.93977541  1
  Cl  Cl115  1  0.60460652  0.17391586  0.93977541  1
  Cl  Cl116  1  0.32608414  0.16483112  0.56022459  1
  Cl  Cl117  1  0.23414045  0.89539348  0.56022459  1
  Cl  Cl118  1  0.66483112  0.73414045  0.06022459  1
  Cl  Cl119  1  0.39539348  0.82608414  0.06022459  1
