# generated using pymatgen
data_CsMo(PO4)2
_symmetry_space_group_name_H-M   'P 1'
_cell_length_a   5.26306714
_cell_length_b   12.03878671
_cell_length_c   12.32639330
_cell_angle_alpha   90.00000000
_cell_angle_beta   91.36608312
_cell_angle_gamma   90.00000000
_symmetry_Int_Tables_number   1
_chemical_formula_structural   CsMo(PO4)2
_chemical_formula_sum   'Cs4 Mo4 P8 O32'
_cell_volume   780.78991869
_cell_formula_units_Z   4
loop_
 _symmetry_equiv_pos_site_id
 _symmetry_equiv_pos_as_xyz
  1  'x, y, z'
loop_
 _atom_site_type_symbol
 _atom_site_label
 _atom_site_symmetry_multiplicity
 _atom_site_fract_x
 _atom_site_fract_y
 _atom_site_fract_z
 _atom_site_occupancy
  Cs  Cs0  1  0.73121608  0.83970349  0.44840530  1
  Cs  Cs1  1  0.23121608  0.66029651  0.94840530  1
  Cs  Cs2  1  0.26878392  0.16029651  0.55159470  1
  Cs  Cs3  1  0.76878392  0.33970349  0.05159470  1
  Mo  Mo4  1  0.26223324  0.54741929  0.31202136  1
  Mo  Mo5  1  0.76223324  0.95258071  0.81202136  1
  Mo  Mo6  1  0.73776676  0.45258071  0.68797864  1
  Mo  Mo7  1  0.23776676  0.04741929  0.18797864  1
  P  P8  1  0.73733474  0.66753213  0.19054685  1
  P  P9  1  0.23733474  0.83246787  0.69054685  1
  P  P10  1  0.26266526  0.33246787  0.80945315  1
  P  P11  1  0.76266526  0.16753213  0.30945315  1
  P  P12  1  0.72287822  0.89714719  0.08316353  1
  P  P13  1  0.22287822  0.60285281  0.58316353  1
  P  P14  1  0.27712178  0.10285281  0.91683647  1
  P  P15  1  0.77712178  0.39714719  0.41683647  1
  O  O16  1  0.25777898  0.46561853  0.19821624  1
  O  O17  1  0.75777898  0.03438147  0.69821624  1
  O  O18  1  0.74222102  0.53438147  0.80178376  1
  O  O19  1  0.24222102  0.96561853  0.30178376  1
  O  O20  1  0.47920241  0.67347413  0.24961820  1
  O  O21  1  0.97920241  0.82652587  0.74961820  1
  O  O22  1  0.52079759  0.32652587  0.75038180  1
  O  O23  1  0.02079759  0.17347413  0.25038180  1
  O  O24  1  0.95036349  0.64234981  0.27500943  1
  O  O25  1  0.45036349  0.85765019  0.77500943  1
  O  O26  1  0.04963651  0.35765019  0.72499057  1
  O  O27  1  0.54963651  0.14234981  0.22499057  1
  O  O28  1  0.59029915  0.48792046  0.38207530  1
  O  O29  1  0.09029915  0.01207954  0.88207530  1
  O  O30  1  0.40970085  0.51207954  0.61792470  1
  O  O31  1  0.90970085  0.98792046  0.11792470  1
  O  O32  1  0.05377019  0.43065200  0.39754388  1
  O  O33  1  0.55377019  0.06934800  0.89754388  1
  O  O34  1  0.94622981  0.56934800  0.60245612  1
  O  O35  1  0.44622981  0.93065200  0.10245612  1
  O  O36  1  0.25344029  0.64321464  0.46677355  1
  O  O37  1  0.75344029  0.85678536  0.96677355  1
  O  O38  1  0.74655971  0.35678536  0.53322645  1
  O  O39  1  0.24655971  0.14321464  0.03322645  1
  O  O40  1  0.73715582  0.59998649  0.08851545  1
  O  O41  1  0.23715582  0.90001351  0.58851545  1
  O  O42  1  0.26284418  0.40001351  0.91148455  1
  O  O43  1  0.76284418  0.09998649  0.41148455  1
  O  O44  1  0.79419131  0.79772350  0.16543821  1
  O  O45  1  0.29419131  0.70227650  0.66543821  1
  O  O46  1  0.20580869  0.20227650  0.83456179  1
  O  O47  1  0.70580869  0.29772350  0.33456179  1
