# generated using pymatgen
data_Y3(Si3Ru)4
_symmetry_space_group_name_H-M   'P 1'
_cell_length_a   8.14416291
_cell_length_b   8.14511855
_cell_length_c   10.12812292
_cell_angle_alpha   90.00000000
_cell_angle_beta   113.70682955
_cell_angle_gamma   90.00000000
_symmetry_Int_Tables_number   1
_chemical_formula_structural   Y3(Si3Ru)4
_chemical_formula_sum   'Y6 Si24 Ru8'
_cell_volume   615.15643378
_cell_formula_units_Z   2
loop_
 _symmetry_equiv_pos_site_id
 _symmetry_equiv_pos_as_xyz
  1  'x, y, z'
loop_
 _atom_site_type_symbol
 _atom_site_label
 _atom_site_symmetry_multiplicity
 _atom_site_fract_x
 _atom_site_fract_y
 _atom_site_fract_z
 _atom_site_occupancy
  Y  Y0  1  0.50000000  0.50000000  -0.00000000  1
  Y  Y1  1  0.00000000  0.00000000  -0.00000000  1
  Y  Y2  1  0.00362135  0.75000000  0.50000000  1
  Y  Y3  1  0.49637865  0.25000000  0.50000000  1
  Y  Y4  1  0.99637865  0.25000000  0.50000000  1
  Y  Y5  1  0.50362135  0.75000000  0.50000000  1
  Si  Si6  1  0.20468241  0.50000000  0.40936481  1
  Si  Si7  1  0.70468241  0.00000000  0.40936481  1
  Si  Si8  1  0.79531759  0.50000000  0.59063519  1
  Si  Si9  1  0.29531759  0.00000000  0.59063519  1
  Si  Si10  1  0.33321075  0.83326035  0.00000000  1
  Si  Si11  1  0.66678925  0.16673965  1.00000000  1
  Si  Si12  1  0.16678925  0.33326035  1.00000000  1
  Si  Si13  1  0.83321075  0.66673965  0.00000000  1
  Si  Si14  1  0.88895710  0.72851840  0.76572337  1
  Si  Si15  1  0.87676627  0.27148160  0.76572337  1
  Si  Si16  1  0.37676627  0.22851840  0.76572337  1
  Si  Si17  1  0.38895710  0.77148160  0.76572337  1
  Si  Si18  1  0.11104290  0.27148160  0.23427663  1
  Si  Si19  1  0.12323373  0.72851840  0.23427663  1
  Si  Si20  1  0.62323373  0.77148160  0.23427663  1
  Si  Si21  1  0.61104290  0.22851840  0.23427663  1
  Si  Si22  1  0.11190093  0.50700799  0.76578110  1
  Si  Si23  1  0.65388017  0.49299201  0.76578110  1
  Si  Si24  1  0.15388017  0.00700799  0.76578110  1
  Si  Si25  1  0.61190093  0.99299201  0.76578110  1
  Si  Si26  1  0.88809907  0.49299201  0.23421890  1
  Si  Si27  1  0.34611983  0.50700799  0.23421890  1
  Si  Si28  1  0.84611983  0.99299201  0.23421890  1
  Si  Si29  1  0.38809907  0.00700799  0.23421890  1
  Ru  Ru30  1  0.33096733  0.50000000  0.66193466  1
  Ru  Ru31  1  0.83096733  0.00000000  0.66193466  1
  Ru  Ru32  1  0.66903267  0.50000000  0.33806534  1
  Ru  Ru33  1  0.16903267  0.00000000  0.33806534  1
  Ru  Ru34  1  0.12748053  0.62737530  1.00000000  1
  Ru  Ru35  1  0.87251947  0.37262470  0.00000000  1
  Ru  Ru36  1  0.37251947  0.12737530  0.00000000  1
  Ru  Ru37  1  0.62748053  0.87262470  1.00000000  1
