# generated using pymatgen
data_CsVSeO5
_symmetry_space_group_name_H-M   'P 1'
_cell_length_a   8.04833721
_cell_length_b   8.16603640
_cell_length_c   9.57295665
_cell_angle_alpha   92.51332314
_cell_angle_beta   90.00000000
_cell_angle_gamma   90.00000000
_symmetry_Int_Tables_number   1
_chemical_formula_structural   CsVSeO5
_chemical_formula_sum   'Cs4 V4 Se4 O20'
_cell_volume   628.55834708
_cell_formula_units_Z   4
loop_
 _symmetry_equiv_pos_site_id
 _symmetry_equiv_pos_as_xyz
  1  'x, y, z'
loop_
 _atom_site_type_symbol
 _atom_site_label
 _atom_site_symmetry_multiplicity
 _atom_site_fract_x
 _atom_site_fract_y
 _atom_site_fract_z
 _atom_site_occupancy
  Cs  Cs0  1  0.49038994  0.87481943  0.61357812  1
  Cs  Cs1  1  0.99038994  0.12518057  0.38642188  1
  Cs  Cs2  1  0.76105931  0.40467125  0.86551577  1
  Cs  Cs3  1  0.26105931  0.59532875  0.13448423  1
  V  V4  1  0.79744402  0.58366606  0.27146271  1
  V  V5  1  0.29744402  0.41633394  0.72853729  1
  V  V6  1  0.93401892  0.92678517  0.76566266  1
  V  V7  1  0.43401892  0.07321483  0.23433734  1
  Se  Se8  1  0.50114084  0.37901536  0.44485797  1
  Se  Se9  1  0.00114084  0.62098464  0.55514203  1
  Se  Se10  1  0.21804876  0.11957809  0.92659965  1
  Se  Se11  1  0.71804876  0.88042191  0.07340035  1
  O  O12  1  0.38829226  0.56271904  0.82609100  1
  O  O13  1  0.88829226  0.43728096  0.17390900  1
  O  O14  1  0.66151628  0.68560213  0.12571081  1
  O  O15  1  0.16151628  0.31439787  0.87428919  1
  O  O16  1  0.42592208  0.25390559  0.70872359  1
  O  O17  1  0.92592208  0.74609441  0.29127641  1
  O  O18  1  0.35859230  0.49877270  0.54049959  1
  O  O19  1  0.85859230  0.50122730  0.45950041  1
  O  O20  1  0.56721883  0.52852700  0.33457923  1
  O  O21  1  0.06721883  0.47147300  0.66542077  1
  O  O22  1  0.83023203  0.07142037  0.68764095  1
  O  O23  1  0.33023203  0.92857963  0.31235905  1
  O  O24  1  0.62296962  0.08604451  0.31020034  1
  O  O25  1  0.12296962  0.91395549  0.68979966  1
  O  O26  1  0.01835730  0.03319763  0.94013776  1
  O  O27  1  0.51835730  0.96680237  0.05986224  1
  O  O28  1  0.75782181  0.83606076  0.90037520  1
  O  O29  1  0.25782181  0.16393924  0.09962480  1
  O  O30  1  0.85857771  0.72144251  0.66765640  1
  O  O31  1  0.35857771  0.27855749  0.33234360  1
