# generated using pymatgen
data_Pr(Ni2B)6
_symmetry_space_group_name_H-M   'P 1'
_cell_length_a   6.06396711
_cell_length_b   6.06396711
_cell_length_c   11.03842492
_cell_angle_alpha   90.00000000
_cell_angle_beta   90.00000000
_cell_angle_gamma   104.68004638
_symmetry_Int_Tables_number   1
_chemical_formula_structural   Pr(Ni2B)6
_chemical_formula_sum   'Pr2 Ni24 B12'
_cell_volume   392.65139277
_cell_formula_units_Z   2
loop_
 _symmetry_equiv_pos_site_id
 _symmetry_equiv_pos_as_xyz
  1  'x, y, z'
loop_
 _atom_site_type_symbol
 _atom_site_label
 _atom_site_symmetry_multiplicity
 _atom_site_fract_x
 _atom_site_fract_y
 _atom_site_fract_z
 _atom_site_occupancy
  Pr  Pr0  1  0.83483752  0.83483752  0.49858878  1
  Pr  Pr1  1  0.16516248  0.16516248  0.99858878  1
  Ni  Ni2  1  0.56698334  0.56698334  0.91787458  1
  Ni  Ni3  1  0.43301666  0.43301666  0.41787458  1
  Ni  Ni4  1  0.77892579  0.77892579  0.09819826  1
  Ni  Ni5  1  0.22107421  0.22107421  0.59819826  1
  Ni  Ni6  1  0.80464201  0.54139237  0.73486370  1
  Ni  Ni7  1  0.54139237  0.80464201  0.73486370  1
  Ni  Ni8  1  0.19535799  0.45860763  0.23486370  1
  Ni  Ni9  1  0.45860763  0.19535799  0.23486370  1
  Ni  Ni10  1  0.87976742  0.14631995  0.75602357  1
  Ni  Ni11  1  0.14631995  0.87976742  0.75602357  1
  Ni  Ni12  1  0.12023258  0.85368005  0.25602357  1
  Ni  Ni13  1  0.85368005  0.12023258  0.25602357  1
  Ni  Ni14  1  0.27394893  0.65942827  0.56743839  1
  Ni  Ni15  1  0.65942827  0.27394893  0.56743839  1
  Ni  Ni16  1  0.72605107  0.34057173  0.06743839  1
  Ni  Ni17  1  0.34057173  0.72605107  0.06743839  1
  Ni  Ni18  1  0.99432162  0.62947520  0.93664408  1
  Ni  Ni19  1  0.62947520  0.99432162  0.93664408  1
  Ni  Ni20  1  0.00567838  0.37052480  0.43664408  1
  Ni  Ni21  1  0.37052480  0.00567838  0.43664408  1
  Ni  Ni22  1  0.21155008  0.47515898  0.77447323  1
  Ni  Ni23  1  0.47515898  0.21155008  0.77447323  1
  Ni  Ni24  1  0.78844992  0.52484102  0.27447323  1
  Ni  Ni25  1  0.52484102  0.78844992  0.27447323  1
  B  B26  1  0.83542801  0.83542801  0.83455359  1
  B  B27  1  0.16457199  0.16457199  0.33455359  1
  B  B28  1  0.48523270  0.48523270  0.65823913  1
  B  B29  1  0.51476730  0.51476730  0.15823913  1
  B  B30  1  0.75275422  0.32461988  0.88569168  1
  B  B31  1  0.32461988  0.75275422  0.88569168  1
  B  B32  1  0.24724578  0.67538012  0.38569168  1
  B  B33  1  0.67538012  0.24724578  0.38569168  1
  B  B34  1  0.98820578  0.39958165  0.62263819  1
  B  B35  1  0.39958165  0.98820578  0.62263819  1
  B  B36  1  0.01179422  0.60041835  0.12263819  1
  B  B37  1  0.60041835  0.01179422  0.12263819  1
