# generated using pymatgen
data_Ho5(Ge5Os2)2
_symmetry_space_group_name_H-M   'P 1'
_cell_length_a   4.26701884
_cell_length_b   13.16453408
_cell_length_c   13.16453408
_cell_angle_alpha   90.00000000
_cell_angle_beta   90.00000000
_cell_angle_gamma   90.00000000
_symmetry_Int_Tables_number   1
_chemical_formula_structural   Ho5(Ge5Os2)2
_chemical_formula_sum   'Ho10 Ge20 Os8'
_cell_volume   739.49551890
_cell_formula_units_Z   2
loop_
 _symmetry_equiv_pos_site_id
 _symmetry_equiv_pos_as_xyz
  1  'x, y, z'
loop_
 _atom_site_type_symbol
 _atom_site_label
 _atom_site_symmetry_multiplicity
 _atom_site_fract_x
 _atom_site_fract_y
 _atom_site_fract_z
 _atom_site_occupancy
  Ho  Ho0  1  -0.00000000  0.50000000  0.50000000  1
  Ho  Ho1  1  -0.00000000  -0.00000000  -0.00000000  1
  Ho  Ho2  1  0.50000000  0.17185030  0.67185030  1
  Ho  Ho3  1  0.50000000  0.82814970  0.32814970  1
  Ho  Ho4  1  0.50000000  0.32814970  0.17185030  1
  Ho  Ho5  1  0.50000000  0.67185030  0.82814970  1
  Ho  Ho6  1  0.50000000  0.38334829  0.88334829  1
  Ho  Ho7  1  0.50000000  0.61665171  0.11665171  1
  Ho  Ho8  1  0.50000000  0.11665171  0.38334829  1
  Ho  Ho9  1  0.50000000  0.88334829  0.61665171  1
  Ge  Ge10  1  -0.00000000  0.06755707  0.56755707  1
  Ge  Ge11  1  0.00000000  0.93244293  0.43244293  1
  Ge  Ge12  1  0.00000000  0.43244293  0.06755707  1
  Ge  Ge13  1  -0.00000000  0.56755707  0.93244293  1
  Ge  Ge14  1  0.00000000  0.69779522  0.66377675  1
  Ge  Ge15  1  -0.00000000  0.30220478  0.33622325  1
  Ge  Ge16  1  -0.00000000  0.80220478  0.16377675  1
  Ge  Ge17  1  0.00000000  0.19779522  0.83622325  1
  Ge  Ge18  1  -0.00000000  0.66377675  0.30220478  1
  Ge  Ge19  1  0.00000000  0.33622325  0.69779522  1
  Ge  Ge20  1  -0.00000000  0.16377675  0.19779522  1
  Ge  Ge21  1  0.00000000  0.83622325  0.80220478  1
  Ge  Ge22  1  0.50000000  0.50816900  0.65784307  1
  Ge  Ge23  1  0.50000000  0.49183100  0.34215693  1
  Ge  Ge24  1  0.50000000  0.99183100  0.15784307  1
  Ge  Ge25  1  0.50000000  0.00816900  0.84215693  1
  Ge  Ge26  1  0.50000000  0.65784307  0.49183100  1
  Ge  Ge27  1  0.50000000  0.34215693  0.50816900  1
  Ge  Ge28  1  0.50000000  0.15784307  0.00816900  1
  Ge  Ge29  1  0.50000000  0.84215693  0.99183100  1
  Os  Os30  1  -0.00000000  0.51843516  0.74772190  1
  Os  Os31  1  0.00000000  0.48156484  0.25227810  1
  Os  Os32  1  0.00000000  0.98156484  0.24772190  1
  Os  Os33  1  -0.00000000  0.01843516  0.75227810  1
  Os  Os34  1  0.00000000  0.74772190  0.48156484  1
  Os  Os35  1  -0.00000000  0.25227810  0.51843516  1
  Os  Os36  1  0.00000000  0.24772190  0.01843516  1
  Os  Os37  1  -0.00000000  0.75227810  0.98156484  1
