# generated using pymatgen
data_Ce(BRu)4
_symmetry_space_group_name_H-M   'P 1'
_cell_length_a   7.51591192
_cell_length_b   7.51591192
_cell_length_c   9.26669704
_cell_angle_alpha   113.92456247
_cell_angle_beta   113.92456247
_cell_angle_gamma   90.00000000
_symmetry_Int_Tables_number   1
_chemical_formula_structural   Ce(BRu)4
_chemical_formula_sum   'Ce4 B16 Ru16'
_cell_volume   428.82209416
_cell_formula_units_Z   4
loop_
 _symmetry_equiv_pos_site_id
 _symmetry_equiv_pos_as_xyz
  1  'x, y, z'
loop_
 _atom_site_type_symbol
 _atom_site_label
 _atom_site_symmetry_multiplicity
 _atom_site_fract_x
 _atom_site_fract_y
 _atom_site_fract_z
 _atom_site_occupancy
  Ce  Ce0  1  0.12500000  0.37500000  0.25000000  1
  Ce  Ce1  1  0.62500000  0.87500000  0.25000000  1
  Ce  Ce2  1  0.87500000  0.62500000  0.75000000  1
  Ce  Ce3  1  0.37500000  0.12500000  0.75000000  1
  B  B4  1  0.78931144  0.35112838  0.91427305  1
  B  B5  1  0.62496161  0.85112838  0.91427305  1
  B  B6  1  0.85112838  0.28931144  0.41427305  1
  B  B7  1  0.06314467  0.78931144  0.41427305  1
  B  B8  1  0.21068856  0.64887162  0.08572695  1
  B  B9  1  0.37503839  0.14887162  0.08572695  1
  B  B10  1  0.14887162  0.71068856  0.58572695  1
  B  B11  1  0.93685533  0.21068856  0.58572695  1
  B  B12  1  0.28931144  0.56314467  0.91427305  1
  B  B13  1  0.12496161  0.06314467  0.91427305  1
  B  B14  1  0.35112838  0.12496161  0.41427305  1
  B  B15  1  0.56314467  0.62496161  0.41427305  1
  B  B16  1  0.71068856  0.43685533  0.08572695  1
  B  B17  1  0.87503839  0.93685533  0.08572695  1
  B  B18  1  0.64887162  0.87503839  0.58572695  1
  B  B19  1  0.43685533  0.37503839  0.58572695  1
  Ru  Ru20  1  0.94929281  0.66573735  0.12729501  1
  Ru  Ru21  1  0.67800220  0.16573735  0.12729501  1
  Ru  Ru22  1  0.16573735  0.44929281  0.62729501  1
  Ru  Ru23  1  0.96155766  0.94929281  0.62729501  1
  Ru  Ru24  1  0.05070719  0.33426265  0.87270499  1
  Ru  Ru25  1  0.32199780  0.83426265  0.87270499  1
  Ru  Ru26  1  0.83426265  0.55070719  0.37270499  1
  Ru  Ru27  1  0.03844234  0.05070719  0.37270499  1
  Ru  Ru28  1  0.44929281  0.46155766  0.12729501  1
  Ru  Ru29  1  0.17800220  0.96155766  0.12729501  1
  Ru  Ru30  1  0.66573735  0.17800220  0.62729501  1
  Ru  Ru31  1  0.46155766  0.67800220  0.62729501  1
  Ru  Ru32  1  0.55070719  0.53844234  0.87270499  1
  Ru  Ru33  1  0.82199780  0.03844234  0.87270499  1
  Ru  Ru34  1  0.33426265  0.82199780  0.37270499  1
  Ru  Ru35  1  0.53844234  0.32199780  0.37270499  1
