# generated using pymatgen
data_Sb2Os(OF7)2
_symmetry_space_group_name_H-M   'P 1'
_cell_length_a   7.73187635
_cell_length_b   9.03917735
_cell_length_c   10.45102269
_cell_angle_alpha   97.48406018
_cell_angle_beta   111.23637488
_cell_angle_gamma   110.62200281
_symmetry_Int_Tables_number   1
_chemical_formula_structural   Sb2Os(OF7)2
_chemical_formula_sum   'Sb4 Os2 O4 F28'
_cell_volume   608.73198907
_cell_formula_units_Z   2
loop_
 _symmetry_equiv_pos_site_id
 _symmetry_equiv_pos_as_xyz
  1  'x, y, z'
loop_
 _atom_site_type_symbol
 _atom_site_label
 _atom_site_symmetry_multiplicity
 _atom_site_fract_x
 _atom_site_fract_y
 _atom_site_fract_z
 _atom_site_occupancy
  Sb  Sb0  1  0.90725637  0.19866863  0.86423612  1
  Sb  Sb1  1  0.09274363  0.80133137  0.13576388  1
  Sb  Sb2  1  0.44499858  0.34636512  0.68090498  1
  Sb  Sb3  1  0.55500142  0.65363488  0.31909502  1
  Os  Os4  1  0.82281997  0.23763517  0.24827639  1
  Os  Os5  1  0.17718003  0.76236483  0.75172361  1
  O  O6  1  0.00103864  0.43768088  0.30058254  1
  O  O7  1  -0.00103864  0.56231912  0.69941746  1
  O  O8  1  0.76644528  0.22695073  0.38959371  1
  O  O9  1  0.23355472  0.77304927  0.61040629  1
  F  F10  1  0.09695099  0.42421600  0.93574065  1
  F  F11  1  0.90304901  0.57578400  0.06425935  1
  F  F12  1  0.65082816  0.56864701  0.76078194  1
  F  F13  1  0.34917184  0.43135299  0.23921806  1
  F  F14  1  0.10936292  0.12438785  0.94571132  1
  F  F15  1  0.89063708  0.87561215  0.05428868  1
  F  F16  1  0.91216856  0.17829632  0.68347433  1
  F  F17  1  0.08783144  0.82170368  0.31652567  1
  F  F18  1  0.02261731  0.16002853  0.29642102  1
  F  F19  1  0.97738269  0.83997147  0.70357898  1
  F  F20  1  0.87396347  0.22868967  0.04659674  1
  F  F21  1  0.12603653  0.77131033  0.95340326  1
  F  F22  1  0.51631354  0.32347134  0.52625482  1
  F  F23  1  0.48368646  0.67652866  0.47374518  1
  F  F24  1  0.40825870  0.35883138  0.85052635  1
  F  F25  1  0.59174130  0.64116862  0.14947365  1
  F  F26  1  0.68624222  0.28113402  0.79208655  1
  F  F27  1  0.31375778  0.71886598  0.20791345  1
  F  F28  1  0.27130676  0.11529337  0.61147551  1
  F  F29  1  0.72869324  0.88470663  0.38852449  1
  F  F30  1  0.68543357  0.98617440  0.79682546  1
  F  F31  1  0.31456643  0.01382560  0.20317454  1
  F  F32  1  0.61139661  0.28125510  0.13379743  1
  F  F33  1  0.38860339  0.71874490  0.86620257  1
  F  F34  1  0.64795982  0.01686726  0.13383768  1
  F  F35  1  0.35204018  0.98313274  0.86616232  1
  F  F36  1  0.22965560  0.40742227  0.58615579  1
  F  F37  1  0.77034440  0.59257773  0.41384421  1
