# generated using pymatgen
data_EuNb2O6
_symmetry_space_group_name_H-M   'P 1'
_cell_length_a   5.57931567
_cell_length_b   7.81055263
_cell_length_c   11.30373385
_cell_angle_alpha   90.25019313
_cell_angle_beta   90.00000000
_cell_angle_gamma   90.00000000
_symmetry_Int_Tables_number   1
_chemical_formula_structural   EuNb2O6
_chemical_formula_sum   'Eu4 Nb8 O24'
_cell_volume   492.58420294
_cell_formula_units_Z   4
loop_
 _symmetry_equiv_pos_site_id
 _symmetry_equiv_pos_as_xyz
  1  'x, y, z'
loop_
 _atom_site_type_symbol
 _atom_site_label
 _atom_site_symmetry_multiplicity
 _atom_site_fract_x
 _atom_site_fract_y
 _atom_site_fract_z
 _atom_site_occupancy
  Eu  Eu0  1  0.04097013  0.74959705  0.45885444  1
  Eu  Eu1  1  0.54097013  0.25040295  0.04114556  1
  Eu  Eu2  1  0.95902987  0.25040295  0.54114556  1
  Eu  Eu3  1  0.45902987  0.74959705  0.95885444  1
  Nb  Nb4  1  0.52844454  0.99047615  0.35636046  1
  Nb  Nb5  1  0.02844454  0.00952385  0.14363954  1
  Nb  Nb6  1  0.47155546  0.00952385  0.64363954  1
  Nb  Nb7  1  0.97155546  0.99047615  0.85636046  1
  Nb  Nb8  1  0.96254919  0.47956485  0.85743772  1
  Nb  Nb9  1  0.46254919  0.52043515  0.64256228  1
  Nb  Nb10  1  0.03745081  0.52043515  0.14256228  1
  Nb  Nb11  1  0.53745081  0.47956485  0.35743772  1
  O  O12  1  0.72637633  0.96314648  0.52575488  1
  O  O13  1  0.22637633  0.03685352  0.97424512  1
  O  O14  1  0.27362367  0.03685352  0.47424512  1
  O  O15  1  0.77362367  0.96314648  0.02575488  1
  O  O16  1  0.77398058  0.53769036  0.02606354  1
  O  O17  1  0.27398058  0.46230964  0.47393646  1
  O  O18  1  0.22601942  0.46230964  0.97393646  1
  O  O19  1  0.72601942  0.53769036  0.52606354  1
  O  O20  1  0.87118743  0.94580343  0.28984183  1
  O  O21  1  0.37118743  0.05419657  0.21015817  1
  O  O22  1  0.12881257  0.05419657  0.71015817  1
  O  O23  1  0.62881257  0.94580343  0.78984183  1
  O  O24  1  0.62904930  0.55250392  0.79089682  1
  O  O25  1  0.12904930  0.44749608  0.70910318  1
  O  O26  1  0.37095070  0.44749608  0.20910318  1
  O  O27  1  0.87095070  0.55250392  0.29089682  1
  O  O28  1  0.45837007  0.74760463  0.35372503  1
  O  O29  1  0.95837007  0.25239537  0.14627497  1
  O  O30  1  0.54162993  0.25239537  0.64627497  1
  O  O31  1  0.04162993  0.74760463  0.85372503  1
  O  O32  1  0.64835352  0.24699435  0.37373461  1
  O  O33  1  0.14835352  0.75300565  0.12626539  1
  O  O34  1  0.35164648  0.75300565  0.62626539  1
  O  O35  1  0.85164648  0.24699435  0.87373461  1
