# generated using pymatgen
data_Cs3Zr7MnCl20
_symmetry_space_group_name_H-M   'P 1'
_cell_length_a   13.30383164
_cell_length_b   13.30383164
_cell_length_c   14.28859745
_cell_angle_alpha   62.25481636
_cell_angle_beta   62.25481636
_cell_angle_gamma   59.99999930
_symmetry_Int_Tables_number   1
_chemical_formula_structural   Cs3Zr7MnCl20
_chemical_formula_sum   'Cs6 Zr14 Mn2 Cl40'
_cell_volume   1846.79048943
_cell_formula_units_Z   2
loop_
 _symmetry_equiv_pos_site_id
 _symmetry_equiv_pos_as_xyz
  1  'x, y, z'
loop_
 _atom_site_type_symbol
 _atom_site_label
 _atom_site_symmetry_multiplicity
 _atom_site_fract_x
 _atom_site_fract_y
 _atom_site_fract_z
 _atom_site_occupancy
  Cs  Cs0  1  0.00000000  -0.00000000  0.50000000  1
  Cs  Cs1  1  0.00000000  0.50000000  0.50000000  1
  Cs  Cs2  1  0.50000000  -0.00000000  0.50000000  1
  Cs  Cs3  1  0.50000000  -0.00000000  -0.00000000  1
  Cs  Cs4  1  0.00000000  0.50000000  -0.00000000  1
  Cs  Cs5  1  0.50000000  0.50000000  -0.00000000  1
  Zr  Zr6  1  0.68547388  0.54537976  0.38232220  1
  Zr  Zr7  1  0.54537976  0.38682416  0.38232220  1
  Zr  Zr8  1  0.38682416  0.68547388  0.38232220  1
  Zr  Zr9  1  0.18547388  0.88682416  0.88232220  1
  Zr  Zr10  1  0.88682416  0.04537976  0.88232220  1
  Zr  Zr11  1  0.04537976  0.18547388  0.88232220  1
  Zr  Zr12  1  0.31452612  0.45462024  0.61767780  1
  Zr  Zr13  1  0.45462024  0.61317584  0.61767780  1
  Zr  Zr14  1  0.61317584  0.31452612  0.61767780  1
  Zr  Zr15  1  0.81452612  0.11317584  0.11767780  1
  Zr  Zr16  1  0.11317584  0.95462024  0.11767780  1
  Zr  Zr17  1  0.95462024  0.81452612  0.11767780  1
  Zr  Zr18  1  0.75000000  0.75000000  0.75000000  1
  Zr  Zr19  1  0.25000000  0.25000000  0.25000000  1
  Mn  Mn20  1  0.50000000  0.50000000  0.50000000  1
  Mn  Mn21  1  0.00000000  -0.00000000  -0.00000000  1
  Cl  Cl22  1  0.57613045  0.74484484  0.25124038  1
  Cl  Cl23  1  0.74484484  0.42778433  0.25124038  1
  Cl  Cl24  1  0.42778433  0.57613045  0.25124038  1
  Cl  Cl25  1  0.07613045  0.92778433  0.75124038  1
  Cl  Cl26  1  0.92778433  0.24484484  0.75124038  1
  Cl  Cl27  1  0.24484484  0.07613045  0.75124038  1
  Cl  Cl28  1  0.42386955  0.25515516  0.74875962  1
  Cl  Cl29  1  0.25515516  0.57221567  0.74875962  1
  Cl  Cl30  1  0.57221567  0.42386955  0.74875962  1
  Cl  Cl31  1  0.92386955  0.07221567  0.24875962  1
  Cl  Cl32  1  0.07221567  0.75515516  0.24875962  1
  Cl  Cl33  1  0.75515516  0.92386955  0.24875962  1
  Cl  Cl34  1  0.33155135  0.81850564  0.49977487  1
  Cl  Cl35  1  0.81850564  0.35016815  0.49977487  1
  Cl  Cl36  1  0.35016815  0.33155135  0.49977487  1
  Cl  Cl37  1  0.83155135  0.85016815  0.99977487  1
  Cl  Cl38  1  0.85016815  0.31850564  0.99977487  1
  Cl  Cl39  1  0.31850564  0.83155135  0.99977487  1
  Cl  Cl40  1  0.66844865  0.18149436  0.50022513  1
  Cl  Cl41  1  0.18149436  0.64983185  0.50022513  1
  Cl  Cl42  1  0.64983185  0.66844865  0.50022513  1
  Cl  Cl43  1  0.16844865  0.14983185  0.00022513  1
  Cl  Cl44  1  0.14983185  0.68149436  0.00022513  1
  Cl  Cl45  1  0.68149436  0.16844865  0.00022513  1
  Cl  Cl46  1  0.09872591  0.40127409  0.75000000  1
  Cl  Cl47  1  0.40127409  0.75000000  0.75000000  1
  Cl  Cl48  1  0.75000000  0.09872591  0.75000000  1
  Cl  Cl49  1  0.59872591  0.25000000  0.25000000  1
  Cl  Cl50  1  0.25000000  0.90127409  0.25000000  1
  Cl  Cl51  1  0.90127409  0.59872591  0.25000000  1
  Cl  Cl52  1  0.56964403  0.93035597  0.75000000  1
  Cl  Cl53  1  0.93035597  0.75000000  0.75000000  1
  Cl  Cl54  1  0.75000000  0.56964403  0.75000000  1
  Cl  Cl55  1  0.06964403  0.25000000  0.25000000  1
  Cl  Cl56  1  0.25000000  0.43035597  0.25000000  1
  Cl  Cl57  1  0.43035597  0.06964403  0.25000000  1
  Cl  Cl58  1  0.68150571  0.68150571  0.95548287  1
  Cl  Cl59  1  0.18150571  0.18150571  0.45548287  1
  Cl  Cl60  1  0.31849429  0.31849429  0.04451713  1
  Cl  Cl61  1  0.81849429  0.81849429  0.54451713  1
