# generated using pymatgen
data_FeTe3BrO7
_symmetry_space_group_name_H-M   'P 1'
_cell_length_a   7.50220572
_cell_length_b   11.09849217
_cell_length_c   11.27237403
_cell_angle_alpha   110.02782282
_cell_angle_beta   90.00000000
_cell_angle_gamma   90.00000000
_symmetry_Int_Tables_number   1
_chemical_formula_structural   FeTe3BrO7
_chemical_formula_sum   'Fe4 Te12 Br4 O28'
_cell_volume   881.81470977
_cell_formula_units_Z   4
loop_
 _symmetry_equiv_pos_site_id
 _symmetry_equiv_pos_as_xyz
  1  'x, y, z'
loop_
 _atom_site_type_symbol
 _atom_site_label
 _atom_site_symmetry_multiplicity
 _atom_site_fract_x
 _atom_site_fract_y
 _atom_site_fract_z
 _atom_site_occupancy
  Fe  Fe0  1  0.13001087  0.58778812  0.11325881  1
  Fe  Fe1  1  0.63001087  0.91221188  0.88674119  1
  Fe  Fe2  1  0.86998913  0.41221188  0.88674119  1
  Fe  Fe3  1  0.36998913  0.08778812  0.11325881  1
  Te  Te4  1  0.48955690  0.76774929  0.09775672  1
  Te  Te5  1  0.98955690  0.73225071  0.90224328  1
  Te  Te6  1  0.51044310  0.23225071  0.90224328  1
  Te  Te7  1  0.01044310  0.26774929  0.09775672  1
  Te  Te8  1  0.02587318  0.93285704  0.23304301  1
  Te  Te9  1  0.52587318  0.56714296  0.76695699  1
  Te  Te10  1  0.97412682  0.06714296  0.76695699  1
  Te  Te11  1  0.47412682  0.43285704  0.23304301  1
  Te  Te12  1  0.89849477  0.57282079  0.36744719  1
  Te  Te13  1  0.39849477  0.92717921  0.63255281  1
  Te  Te14  1  0.10150523  0.42717921  0.63255281  1
  Te  Te15  1  0.60150523  0.07282079  0.36744719  1
  Br  Br16  1  0.28781055  0.62160330  0.49399375  1
  Br  Br17  1  0.78781055  0.87839670  0.50600625  1
  Br  Br18  1  0.71218945  0.37839670  0.50600625  1
  Br  Br19  1  0.21218945  0.12160330  0.49399375  1
  O  O20  1  0.49019448  0.91179592  0.03953869  1
  O  O21  1  0.99019448  0.58820408  0.96046131  1
  O  O22  1  0.50980552  0.08820408  0.96046131  1
  O  O23  1  0.00980552  0.41179592  0.03953869  1
  O  O24  1  0.23902179  0.76093896  0.13012991  1
  O  O25  1  0.73902179  0.73906104  0.86987009  1
  O  O26  1  0.76097821  0.23906104  0.86987009  1
  O  O27  1  0.26097821  0.26093896  0.13012991  1
  O  O28  1  0.89186236  0.83322691  0.08755662  1
  O  O29  1  0.39186236  0.66677309  0.91244338  1
  O  O30  1  0.10813764  0.16677309  0.91244338  1
  O  O31  1  0.60813764  0.33322691  0.08755662  1
  O  O32  1  0.35804757  0.52935998  0.14582729  1
  O  O33  1  0.85804757  0.97064002  0.85417271  1
  O  O34  1  0.64195243  0.47064002  0.85417271  1
  O  O35  1  0.14195243  0.02935998  0.14582729  1
  O  O36  1  0.99847783  0.65849010  0.26358920  1
  O  O37  1  0.49847783  0.84150990  0.73641080  1
  O  O38  1  0.00152217  0.34150990  0.73641080  1
  O  O39  1  0.50152217  0.15849010  0.26358920  1
  O  O40  1  0.67150283  0.55928758  0.27775360  1
  O  O41  1  0.17150283  0.94071242  0.72224640  1
  O  O42  1  0.32849717  0.44071242  0.72224640  1
  O  O43  1  0.82849717  0.05928758  0.27775360  1
  O  O44  1  0.00554855  0.59469726  0.72169683  1
  O  O45  1  0.50554855  0.90530274  0.27830317  1
  O  O46  1  0.99445145  0.40530274  0.27830317  1
  O  O47  1  0.49445145  0.09469726  0.72169683  1
