# generated using pymatgen
data_Cs3B(SeO4)3
_symmetry_space_group_name_H-M   'P 1'
_cell_length_a   8.25392812
_cell_length_b   11.62863492
_cell_length_c   16.42805294
_cell_angle_alpha   101.10452047
_cell_angle_beta   90.00000000
_cell_angle_gamma   90.00000000
_symmetry_Int_Tables_number   1
_chemical_formula_structural   Cs3B(SeO4)3
_chemical_formula_sum   'Cs12 B4 Se12 O48'
_cell_volume   1547.27440184
_cell_formula_units_Z   4
loop_
 _symmetry_equiv_pos_site_id
 _symmetry_equiv_pos_as_xyz
  1  'x, y, z'
loop_
 _atom_site_type_symbol
 _atom_site_label
 _atom_site_symmetry_multiplicity
 _atom_site_fract_x
 _atom_site_fract_y
 _atom_site_fract_z
 _atom_site_occupancy
  Cs  Cs0  1  0.79078636  0.87068563  0.43792085  1
  Cs  Cs1  1  0.29078636  0.12931437  0.06207915  1
  Cs  Cs2  1  0.20921364  0.12931437  0.56207915  1
  Cs  Cs3  1  0.70921364  0.87068563  0.93792085  1
  Cs  Cs4  1  0.06876575  0.86445655  0.19567577  1
  Cs  Cs5  1  0.56876575  0.13554345  0.30432423  1
  Cs  Cs6  1  0.93123425  0.13554345  0.80432423  1
  Cs  Cs7  1  0.43123425  0.86445655  0.69567577  1
  Cs  Cs8  1  0.22448661  0.53510522  0.44884232  1
  Cs  Cs9  1  0.72448661  0.46489478  0.05115768  1
  Cs  Cs10  1  0.77551339  0.46489478  0.55115768  1
  Cs  Cs11  1  0.27551339  0.53510522  0.94884232  1
  B  B12  1  0.94889959  0.34449535  0.23085957  1
  B  B13  1  0.44889959  0.65550465  0.26914043  1
  B  B14  1  0.05110041  0.65550465  0.76914043  1
  B  B15  1  0.55110041  0.34449535  0.73085957  1
  Se  Se16  1  0.70450800  0.50853027  0.31181313  1
  Se  Se17  1  0.20450800  0.49146973  0.18818687  1
  Se  Se18  1  0.29549200  0.49146973  0.68818687  1
  Se  Se19  1  0.79549200  0.50853027  0.81181313  1
  Se  Se20  1  0.93141360  0.81348827  0.66816252  1
  Se  Se21  1  0.43141360  0.18651173  0.83183748  1
  Se  Se22  1  0.06858640  0.18651173  0.33183748  1
  Se  Se23  1  0.56858640  0.81348827  0.16816252  1
  Se  Se24  1  0.32510505  0.82994488  0.40517350  1
  Se  Se25  1  0.82510505  0.17005512  0.09482650  1
  Se  Se26  1  0.67489495  0.17005512  0.59482650  1
  Se  Se27  1  0.17489495  0.82994488  0.90517350  1
  O  O28  1  0.07841161  0.56898782  0.14324870  1
  O  O29  1  0.57841161  0.43101218  0.35675130  1
  O  O30  1  0.92158839  0.43101218  0.85675130  1
  O  O31  1  0.42158839  0.56898782  0.64324870  1
  O  O32  1  0.83210392  0.58981843  0.37453581  1
  O  O33  1  0.33210392  0.41018157  0.12546419  1
  O  O34  1  0.16789608  0.41018157  0.62546419  1
  O  O35  1  0.66789608  0.58981843  0.87453581  1
  O  O36  1  0.95460317  0.08242002  0.35728157  1
  O  O37  1  0.45460317  0.91757998  0.14271843  1
  O  O38  1  0.04539683  0.91757998  0.64271843  1
  O  O39  1  0.54539683  0.08242002  0.85728157  1
  O  O40  1  0.69482262  0.86020664  0.24545440  1
  O  O41  1  0.19482262  0.13979336  0.25454560  1
  O  O42  1  0.30517738  0.13979336  0.75454560  1
  O  O43  1  0.80517738  0.86020664  0.74545440  1
  O  O44  1  0.84442881  0.72831501  0.58738730  1
  O  O45  1  0.34442881  0.27168499  0.91261270  1
  O  O46  1  0.15557119  0.27168499  0.41261270  1
  O  O47  1  0.65557119  0.72831501  0.08738730  1
  O  O48  1  0.13935999  0.78034338  0.38178732  1
  O  O49  1  0.63935999  0.21965662  0.11821268  1
  O  O50  1  0.86064001  0.21965662  0.61821268  1
  O  O51  1  0.36064001  0.78034338  0.88178732  1
  O  O52  1  0.36554440  0.95184867  0.37204932  1
  O  O53  1  0.86554440  0.04815133  0.12795068  1
  O  O54  1  0.63445560  0.04815133  0.62795068  1
  O  O55  1  0.13445560  0.95184867  0.87204932  1
  O  O56  1  0.37668911  0.83222724  0.50235353  1
  O  O57  1  0.87668911  0.16777276  0.99764647  1
  O  O58  1  0.62331089  0.16777276  0.49764647  1
  O  O59  1  0.12331089  0.83222724  0.00235353  1
  O  O60  1  0.10308685  0.41282025  0.25292736  1
  O  O61  1  0.60308685  0.58717975  0.24707264  1
  O  O62  1  0.89691315  0.58717975  0.74707264  1
  O  O63  1  0.39691315  0.41282025  0.75292736  1
  O  O64  1  0.46640183  0.71931723  0.35455907  1
  O  O65  1  0.96640183  0.28068277  0.14544093  1
  O  O66  1  0.53359817  0.28068277  0.64544093  1
  O  O67  1  0.03359817  0.71931723  0.85455907  1
  O  O68  1  0.30512438  0.57572159  0.27168854  1
  O  O69  1  0.80512438  0.42427841  0.22831146  1
  O  O70  1  0.69487562  0.42427841  0.72831146  1
  O  O71  1  0.19487562  0.57572159  0.77168854  1
  O  O72  1  0.41822968  0.72068412  0.20344063  1
  O  O73  1  0.91822968  0.27931588  0.29655937  1
  O  O74  1  0.58177032  0.27931588  0.79655937  1
  O  O75  1  0.08177032  0.72068412  0.70344063  1
