# generated using pymatgen
data_LuGe2Os
_symmetry_space_group_name_H-M   'P 1'
_cell_length_a   8.35533473
_cell_length_b   9.63303047
_cell_length_c   10.55251907
_cell_angle_alpha   90.00000000
_cell_angle_beta   90.00000000
_cell_angle_gamma   90.00000000
_symmetry_Int_Tables_number   1
_chemical_formula_structural   LuGe2Os
_chemical_formula_sum   'Lu12 Ge24 Os12'
_cell_volume   849.34265001
_cell_formula_units_Z   12
loop_
 _symmetry_equiv_pos_site_id
 _symmetry_equiv_pos_as_xyz
  1  'x, y, z'
loop_
 _atom_site_type_symbol
 _atom_site_label
 _atom_site_symmetry_multiplicity
 _atom_site_fract_x
 _atom_site_fract_y
 _atom_site_fract_z
 _atom_site_occupancy
  Lu  Lu0  1  0.24559754  0.82256141  0.44965253  1
  Lu  Lu1  1  0.24559754  0.17743859  0.55034747  1
  Lu  Lu2  1  0.75440246  0.32256141  0.05034747  1
  Lu  Lu3  1  0.75440246  0.67743859  0.94965253  1
  Lu  Lu4  1  0.75440246  0.17743859  0.55034747  1
  Lu  Lu5  1  0.75440246  0.82256141  0.44965253  1
  Lu  Lu6  1  0.24559754  0.67743859  0.94965253  1
  Lu  Lu7  1  0.24559754  0.32256141  0.05034747  1
  Lu  Lu8  1  -0.00000000  0.83549815  0.17710860  1
  Lu  Lu9  1  -0.00000000  0.16450185  0.82289140  1
  Lu  Lu10  1  -0.00000000  0.33549815  0.32289140  1
  Lu  Lu11  1  -0.00000000  0.66450185  0.67710860  1
  Ge  Ge12  1  0.34747670  0.84276611  0.18003855  1
  Ge  Ge13  1  0.34747670  0.15723389  0.81996145  1
  Ge  Ge14  1  0.65252330  0.34276611  0.31996145  1
  Ge  Ge15  1  0.65252330  0.65723389  0.68003855  1
  Ge  Ge16  1  0.65252330  0.15723389  0.81996145  1
  Ge  Ge17  1  0.65252330  0.84276611  0.18003855  1
  Ge  Ge18  1  0.34747670  0.65723389  0.68003855  1
  Ge  Ge19  1  0.34747670  0.34276611  0.31996145  1
  Ge  Ge20  1  0.50000000  0.54760028  0.11694128  1
  Ge  Ge21  1  0.50000000  0.45239972  0.88305872  1
  Ge  Ge22  1  0.50000000  0.04760028  0.38305872  1
  Ge  Ge23  1  0.50000000  0.95239972  0.61694128  1
  Ge  Ge24  1  -0.00000000  0.53599879  0.11785053  1
  Ge  Ge25  1  -0.00000000  0.46400121  0.88214947  1
  Ge  Ge26  1  -0.00000000  0.03599879  0.38214947  1
  Ge  Ge27  1  -0.00000000  0.96400121  0.61785053  1
  Ge  Ge28  1  0.50000000  0.62754234  0.40469562  1
  Ge  Ge29  1  0.50000000  0.37245766  0.59530438  1
  Ge  Ge30  1  0.50000000  0.12754234  0.09530438  1
  Ge  Ge31  1  0.50000000  0.87245766  0.90469562  1
  Ge  Ge32  1  -0.00000000  0.63089937  0.39992331  1
  Ge  Ge33  1  -0.00000000  0.36910063  0.60007669  1
  Ge  Ge34  1  -0.00000000  0.13089937  0.10007669  1
  Ge  Ge35  1  -0.00000000  0.86910063  0.89992331  1
  Os  Os36  1  0.24986025  0.58950337  0.23641262  1
  Os  Os37  1  0.24986025  0.41049663  0.76358738  1
  Os  Os38  1  0.75013975  0.08950337  0.26358738  1
  Os  Os39  1  0.75013975  0.91049663  0.73641262  1
  Os  Os40  1  0.75013975  0.41049663  0.76358738  1
  Os  Os41  1  0.75013975  0.58950337  0.23641262  1
  Os  Os42  1  0.24986025  0.91049663  0.73641262  1
  Os  Os43  1  0.24986025  0.08950337  0.26358738  1
  Os  Os44  1  0.24831306  0.50000000  0.50000000  1
  Os  Os45  1  0.75168694  -0.00000000  -0.00000000  1
  Os  Os46  1  0.75168694  0.50000000  0.50000000  1
  Os  Os47  1  0.24831306  -0.00000000  -0.00000000  1
