# generated using pymatgen
data_Rb2Ta2P7O24
_symmetry_space_group_name_H-M   'P 1'
_cell_length_a   5.26298815
_cell_length_b   10.96882515
_cell_length_c   18.84853747
_cell_angle_alpha   90.00000000
_cell_angle_beta   90.00000000
_cell_angle_gamma   95.38557750
_symmetry_Int_Tables_number   1
_chemical_formula_structural   Rb2Ta2P7O24
_chemical_formula_sum   'Rb4 Ta4 P14 O48'
_cell_volume   1083.30008889
_cell_formula_units_Z   2
loop_
 _symmetry_equiv_pos_site_id
 _symmetry_equiv_pos_as_xyz
  1  'x, y, z'
loop_
 _atom_site_type_symbol
 _atom_site_label
 _atom_site_symmetry_multiplicity
 _atom_site_fract_x
 _atom_site_fract_y
 _atom_site_fract_z
 _atom_site_occupancy
  Rb  Rb0  1  0.29289325  0.27236158  0.75000000  1
  Rb  Rb1  1  0.70710675  0.72763842  0.25000000  1
  Rb  Rb2  1  0.73244440  0.00949896  0.75000000  1
  Rb  Rb3  1  0.26755560  0.99050104  0.25000000  1
  Ta  Ta4  1  0.70386933  0.80493859  0.97550594  1
  Ta  Ta5  1  0.29613067  0.19506141  0.47550594  1
  Ta  Ta6  1  0.29613067  0.19506141  0.02449406  1
  Ta  Ta7  1  0.70386933  0.80493859  0.52449406  1
  P  P8  1  0.76047053  0.04278084  0.09678568  1
  P  P9  1  0.23952947  0.95721916  0.59678568  1
  P  P10  1  0.23952947  0.95721916  0.90321432  1
  P  P11  1  0.76047053  0.04278084  0.40321432  1
  P  P12  1  0.17785723  0.70455860  0.08325176  1
  P  P13  1  0.82214277  0.29544140  0.58325176  1
  P  P14  1  0.82214277  0.29544140  0.91674824  1
  P  P15  1  0.17785723  0.70455860  0.41674824  1
  P  P16  1  0.67758197  0.53388052  0.87459385  1
  P  P17  1  0.32241803  0.46611948  0.37459385  1
  P  P18  1  0.32241803  0.46611948  0.12540615  1
  P  P19  1  0.67758197  0.53388052  0.62540615  1
  P  P20  1  0.89836711  0.66390202  0.75000000  1
  P  P21  1  0.10163289  0.33609798  0.25000000  1
  O  O22  1  0.74625653  0.95769605  0.02955234  1
  O  O23  1  0.25374347  0.04230395  0.52955234  1
  O  O24  1  0.25374347  0.04230395  0.97044766  1
  O  O25  1  0.74625653  0.95769605  0.47044766  1
  O  O26  1  0.47946434  0.88311607  0.90825360  1
  O  O27  1  0.52053566  0.11688393  0.40825360  1
  O  O28  1  0.52053566  0.11688393  0.09174640  1
  O  O29  1  0.47946434  0.88311607  0.59174640  1
  O  O30  1  0.00133211  0.86270144  0.91665476  1
  O  O31  1  0.99866789  0.13729856  0.41665476  1
  O  O32  1  0.99866789  0.13729856  0.08334524  1
  O  O33  1  0.00133211  0.86270144  0.58334524  1
  O  O34  1  0.77177746  0.97388824  0.16478654  1
  O  O35  1  0.22822254  0.02611176  0.66478654  1
  O  O36  1  0.22822254  0.02611176  0.83521346  1
  O  O37  1  0.77177746  0.97388824  0.33521346  1
  O  O38  1  0.40242971  0.75221088  0.03388267  1
  O  O39  1  0.59757029  0.24778912  0.53388267  1
  O  O40  1  0.59757029  0.24778912  0.96611733  1
  O  O41  1  0.40242971  0.75221088  0.46611733  1
  O  O42  1  0.92828253  0.72876644  0.04444226  1
  O  O43  1  0.07171747  0.27123356  0.54444226  1
  O  O44  1  0.07171747  0.27123356  0.95555774  1
  O  O45  1  0.92828253  0.72876644  0.45555774  1
  O  O46  1  0.19900102  0.74833429  0.15783042  1
  O  O47  1  0.80099898  0.25166571  0.65783042  1
  O  O48  1  0.80099898  0.25166571  0.84216958  1
  O  O49  1  0.19900102  0.74833429  0.34216958  1
  O  O50  1  0.82601267  0.44377246  0.92324677  1
  O  O51  1  0.17398733  0.55622754  0.42324677  1
  O  O52  1  0.17398733  0.55622754  0.07675323  1
  O  O53  1  0.82601267  0.44377246  0.57675323  1
  O  O54  1  0.66546805  0.64757977  0.92224571  1
  O  O55  1  0.33453195  0.35242023  0.42224571  1
  O  O56  1  0.33453195  0.35242023  0.07775429  1
  O  O57  1  0.66546805  0.64757977  0.57775429  1
  O  O58  1  0.43969327  0.47830245  0.84271156  1
  O  O59  1  0.56030673  0.52169755  0.34271156  1
  O  O60  1  0.56030673  0.52169755  0.15728844  1
  O  O61  1  0.43969327  0.47830245  0.65728844  1
  O  O62  1  0.89634582  0.57247792  0.81613642  1
  O  O63  1  0.10365418  0.42752208  0.31613642  1
  O  O64  1  0.10365418  0.42752208  0.18386358  1
  O  O65  1  0.89634582  0.57247792  0.68386358  1
  O  O66  1  0.67446813  0.74060133  0.75000000  1
  O  O67  1  0.32553187  0.25939867  0.25000000  1
  O  O68  1  0.14558543  0.74623458  0.75000000  1
  O  O69  1  0.85441457  0.25376542  0.25000000  1
