# generated using pymatgen
data_K5Nb3O3F14
_symmetry_space_group_name_H-M   'P 1'
_cell_length_a   8.03246693
_cell_length_b   11.62440252
_cell_length_c   20.41089881
_cell_angle_alpha   90.00000000
_cell_angle_beta   90.00000000
_cell_angle_gamma   90.00000000
_symmetry_Int_Tables_number   1
_chemical_formula_structural   K5Nb3O3F14
_chemical_formula_sum   'K20 Nb12 O12 F56'
_cell_volume   1905.81927853
_cell_formula_units_Z   4
loop_
 _symmetry_equiv_pos_site_id
 _symmetry_equiv_pos_as_xyz
  1  'x, y, z'
loop_
 _atom_site_type_symbol
 _atom_site_label
 _atom_site_symmetry_multiplicity
 _atom_site_fract_x
 _atom_site_fract_y
 _atom_site_fract_z
 _atom_site_occupancy
  K  K0  1  0.45173125  0.89811000  0.00000000  1
  K  K1  1  0.54826875  0.39811000  0.50000000  1
  K  K2  1  0.52816226  0.50303279  0.14878023  1
  K  K3  1  0.52816226  0.50303279  0.85121977  1
  K  K4  1  0.47183774  0.00303279  0.35121977  1
  K  K5  1  0.47183774  0.00303279  0.64878023  1
  K  K6  1  0.23467521  0.10809213  0.17293088  1
  K  K7  1  0.23467521  0.10809213  0.82706912  1
  K  K8  1  0.76532479  0.60809213  0.32706912  1
  K  K9  1  0.76532479  0.60809213  0.67293088  1
  K  K10  1  0.04553261  0.24998417  0.39275829  1
  K  K11  1  0.04553261  0.24998417  0.60724171  1
  K  K12  1  0.95446739  0.74998417  0.10724171  1
  K  K13  1  0.95446739  0.74998417  0.89275829  1
  K  K14  1  0.05619761  0.89106347  0.50000000  1
  K  K15  1  0.94380239  0.39106347  0.00000000  1
  K  K16  1  0.26187893  0.64284651  0.34125462  1
  K  K17  1  0.26187893  0.64284651  0.65874538  1
  K  K18  1  0.73812107  0.14284651  0.15874538  1
  K  K19  1  0.73812107  0.14284651  0.84125462  1
  Nb  Nb20  1  0.45008302  0.81664586  0.19396863  1
  Nb  Nb21  1  0.45008302  0.81664586  0.80603137  1
  Nb  Nb22  1  0.54991698  0.31664586  0.30603137  1
  Nb  Nb23  1  0.54991698  0.31664586  0.69396863  1
  Nb  Nb24  1  0.99621455  0.92420689  0.30131278  1
  Nb  Nb25  1  0.99621455  0.92420689  0.69868722  1
  Nb  Nb26  1  0.00378545  0.42420689  0.19868722  1
  Nb  Nb27  1  0.00378545  0.42420689  0.80131278  1
  Nb  Nb28  1  0.92531919  0.02157514  0.00000000  1
  Nb  Nb29  1  0.07468081  0.52157514  0.50000000  1
  Nb  Nb30  1  0.46638831  0.23397302  0.00000000  1
  Nb  Nb31  1  0.53361169  0.73397302  0.50000000  1
  O  O32  1  0.60821199  0.75597294  0.14494110  1
  O  O33  1  0.60821199  0.75597294  0.85505890  1
  O  O34  1  0.39178801  0.25597294  0.35505890  1
  O  O35  1  0.39178801  0.25597294  0.64494110  1
  O  O36  1  0.80892144  0.95068810  0.34268546  1
  O  O37  1  0.80892144  0.95068810  0.65731454  1
  O  O38  1  0.19107856  0.45068810  0.15731454  1
  O  O39  1  0.19107856  0.45068810  0.84268546  1
  O  O40  1  0.07817480  0.91223397  0.00000000  1
  O  O41  1  0.92182520  0.41223397  0.50000000  1
  O  O42  1  0.26727264  0.29497262  0.00000000  1
  O  O43  1  0.73272736  0.79497262  0.50000000  1
  F  F44  1  0.53207409  0.76863855  0.28202660  1
  F  F45  1  0.53207409  0.76863855  0.71797340  1
  F  F46  1  0.46792591  0.26863855  0.21797340  1
  F  F47  1  0.46792591  0.26863855  0.78202660  1
  F  F48  1  0.30473280  0.68053091  0.19685706  1
  F  F49  1  0.30473280  0.68053091  0.80314294  1
  F  F50  1  0.69526720  0.18053091  0.30314294  1
  F  F51  1  0.69526720  0.18053091  0.69685706  1
  F  F52  1  0.30830688  0.87702914  0.12187535  1
  F  F53  1  0.30830688  0.87702914  0.87812465  1
  F  F54  1  0.69169312  0.37702914  0.37812465  1
  F  F55  1  0.69169312  0.37702914  0.62187535  1
  F  F56  1  0.53462327  0.97605672  0.20862848  1
  F  F57  1  0.53462327  0.97605672  0.79137152  1
  F  F58  1  0.46537673  0.47605672  0.29137152  1
  F  F59  1  0.46537673  0.47605672  0.70862848  1
  F  F60  1  0.25071362  0.89373855  0.25481844  1
  F  F61  1  0.25071362  0.89373855  0.74518156  1
  F  F62  1  0.74928638  0.39373855  0.24518156  1
  F  F63  1  0.74928638  0.39373855  0.75481844  1
  F  F64  1  0.11893807  0.85202006  0.37474632  1
  F  F65  1  0.11893807  0.85202006  0.62525368  1
  F  F66  1  0.88106193  0.35202006  0.12525368  1
  F  F67  1  0.88106193  0.35202006  0.87474632  1
  F  F68  1  0.95684574  0.76585560  0.26931329  1
  F  F69  1  0.95684574  0.76585560  0.73068671  1
  F  F70  1  0.04315426  0.26585560  0.23068671  1
  F  F71  1  0.04315426  0.26585560  0.76931329  1
  F  F72  1  0.94869981  0.98320951  0.21179262  1
  F  F73  1  0.94869981  0.98320951  0.78820738  1
  F  F74  1  0.05130019  0.48320951  0.28820738  1
  F  F75  1  0.05130019  0.48320951  0.71179262  1
  F  F76  1  0.12005446  0.06800572  0.32035766  1
  F  F77  1  0.12005446  0.06800572  0.67964234  1
  F  F78  1  0.87994554  0.56800572  0.17964234  1
  F  F79  1  0.87994554  0.56800572  0.82035766  1
  F  F80  1  0.01407950  0.11862080  0.07148816  1
  F  F81  1  0.01407950  0.11862080  0.92851184  1
  F  F82  1  0.98592050  0.61862080  0.42851184  1
  F  F83  1  0.98592050  0.61862080  0.57148816  1
  F  F84  1  0.77329993  0.95138474  0.06588565  1
  F  F85  1  0.77329993  0.95138474  0.93411435  1
  F  F86  1  0.22670007  0.45138474  0.43411435  1
  F  F87  1  0.22670007  0.45138474  0.56588565  1
  F  F88  1  0.73002856  0.15916028  0.00000000  1
  F  F89  1  0.26997144  0.65916028  0.50000000  1
  F  F90  1  0.56888468  0.33091437  0.06814556  1
  F  F91  1  0.56888468  0.33091437  0.93185444  1
  F  F92  1  0.43111532  0.83091437  0.43185444  1
  F  F93  1  0.43111532  0.83091437  0.56814556  1
  F  F94  1  0.43657017  0.11058750  0.06743228  1
  F  F95  1  0.43657017  0.11058750  0.93256772  1
  F  F96  1  0.56342983  0.61058750  0.43256772  1
  F  F97  1  0.56342983  0.61058750  0.56743228  1
  F  F98  1  0.91076531  0.61990838  0.00000000  1
  F  F99  1  0.08923469  0.11990838  0.50000000  1
