# generated using pymatgen
data_SmCo5P3
_symmetry_space_group_name_H-M   'P 1'
_cell_length_a   3.68021274
_cell_length_b   10.37025252
_cell_length_c   11.81361038
_cell_angle_alpha   90.00000000
_cell_angle_beta   90.00000000
_cell_angle_gamma   90.00000000
_symmetry_Int_Tables_number   1
_chemical_formula_structural   SmCo5P3
_chemical_formula_sum   'Sm4 Co20 P12'
_cell_volume   450.86331476
_cell_formula_units_Z   4
loop_
 _symmetry_equiv_pos_site_id
 _symmetry_equiv_pos_as_xyz
  1  'x, y, z'
loop_
 _atom_site_type_symbol
 _atom_site_label
 _atom_site_symmetry_multiplicity
 _atom_site_fract_x
 _atom_site_fract_y
 _atom_site_fract_z
 _atom_site_occupancy
  Sm  Sm0  1  0.25000000  0.58331411  0.70252377  1
  Sm  Sm1  1  0.25000000  0.91668589  0.20252377  1
  Sm  Sm2  1  0.75000000  0.41668589  0.29747623  1
  Sm  Sm3  1  0.75000000  0.08331411  0.79747623  1
  Co  Co4  1  0.25000000  0.71438244  0.99007302  1
  Co  Co5  1  0.25000000  0.78561756  0.49007302  1
  Co  Co6  1  0.75000000  0.28561756  0.00992698  1
  Co  Co7  1  0.75000000  0.21438244  0.50992698  1
  Co  Co8  1  0.25000000  0.40598759  0.48893627  1
  Co  Co9  1  0.25000000  0.09401241  0.98893627  1
  Co  Co10  1  0.75000000  0.59401241  0.51106373  1
  Co  Co11  1  0.75000000  0.90598759  0.01106373  1
  Co  Co12  1  0.25000000  0.22083921  0.17566429  1
  Co  Co13  1  0.25000000  0.27916079  0.67566429  1
  Co  Co14  1  0.75000000  0.77916079  0.82433571  1
  Co  Co15  1  0.75000000  0.72083921  0.32433571  1
  Co  Co16  1  0.25000000  0.88202608  0.69724618  1
  Co  Co17  1  0.25000000  0.61797392  0.19724618  1
  Co  Co18  1  0.75000000  0.11797392  0.30275382  1
  Co  Co19  1  0.75000000  0.38202608  0.80275382  1
  Co  Co20  1  0.25000000  0.46825940  0.93234453  1
  Co  Co21  1  0.25000000  0.03174060  0.43234453  1
  Co  Co22  1  0.75000000  0.53174060  0.06765547  1
  Co  Co23  1  0.75000000  0.96825940  0.56765547  1
  P  P24  1  0.25000000  0.41818711  0.11125027  1
  P  P25  1  0.25000000  0.08181289  0.61125027  1
  P  P26  1  0.75000000  0.58181289  0.88874973  1
  P  P27  1  0.75000000  0.91818711  0.38874973  1
  P  P28  1  0.25000000  0.27280635  0.86990570  1
  P  P29  1  0.25000000  0.22719365  0.36990570  1
  P  P30  1  0.75000000  0.72719365  0.13009430  1
  P  P31  1  0.75000000  0.77280635  0.63009430  1
  P  P32  1  0.25000000  0.60355084  0.39188039  1
  P  P33  1  0.25000000  0.89644916  0.89188039  1
  P  P34  1  0.75000000  0.39644916  0.60811961  1
  P  P35  1  0.75000000  0.10355084  0.10811961  1
