# generated using pymatgen
data_Dy4Te3N2
_symmetry_space_group_name_H-M   'P 1'
_cell_length_a   7.28704115
_cell_length_b   11.04305581
_cell_length_c   11.74376502
_cell_angle_alpha   90.00000000
_cell_angle_beta   90.00000000
_cell_angle_gamma   91.50808939
_symmetry_Int_Tables_number   1
_chemical_formula_structural   Dy4Te3N2
_chemical_formula_sum   'Dy16 Te12 N8'
_cell_volume   944.70754578
_cell_formula_units_Z   4
loop_
 _symmetry_equiv_pos_site_id
 _symmetry_equiv_pos_as_xyz
  1  'x, y, z'
loop_
 _atom_site_type_symbol
 _atom_site_label
 _atom_site_symmetry_multiplicity
 _atom_site_fract_x
 _atom_site_fract_y
 _atom_site_fract_z
 _atom_site_occupancy
  Dy  Dy0  1  0.63910900  0.86302951  0.14282612  1
  Dy  Dy1  1  0.13910900  0.36302951  0.35717388  1
  Dy  Dy2  1  0.36089100  0.13697049  0.85717388  1
  Dy  Dy3  1  0.86089100  0.63697049  0.64282612  1
  Dy  Dy4  1  0.67196346  0.61177388  0.34289630  1
  Dy  Dy5  1  0.17196346  0.11177388  0.15710370  1
  Dy  Dy6  1  0.32803654  0.38822612  0.65710370  1
  Dy  Dy7  1  0.82803654  0.88822612  0.84289630  1
  Dy  Dy8  1  0.96959903  0.83269412  0.39850587  1
  Dy  Dy9  1  0.46959903  0.33269412  0.10149413  1
  Dy  Dy10  1  0.03040097  0.16730588  0.60149413  1
  Dy  Dy11  1  0.53040097  0.66730588  0.89850587  1
  Dy  Dy12  1  0.97997550  0.68477942  0.08597470  1
  Dy  Dy13  1  0.47997550  0.18477942  0.41402530  1
  Dy  Dy14  1  0.02002450  0.31522058  0.91402530  1
  Dy  Dy15  1  0.52002450  0.81522058  0.58597470  1
  Te  Te16  1  0.75255036  0.39514901  0.51519060  1
  Te  Te17  1  0.25255036  0.89514901  0.98480940  1
  Te  Te18  1  0.24744964  0.60485099  0.48480940  1
  Te  Te19  1  0.74744964  0.10485099  0.01519060  1
  Te  Te20  1  0.87899006  0.09877678  0.34556003  1
  Te  Te21  1  0.37899006  0.59877678  0.15443997  1
  Te  Te22  1  0.12100994  0.90122322  0.65443997  1
  Te  Te23  1  0.62100994  0.40122322  0.84556003  1
  Te  Te24  1  0.87100775  0.42688735  0.16210797  1
  Te  Te25  1  0.37100775  0.92688735  0.33789203  1
  Te  Te26  1  0.12899225  0.57311265  0.83789203  1
  Te  Te27  1  0.62899225  0.07311265  0.66210797  1
  N  N28  1  0.74886770  0.72935874  0.49118238  1
  N  N29  1  0.24886770  0.22935874  0.00881762  1
  N  N30  1  0.25113230  0.27064126  0.50881762  1
  N  N31  1  0.75113230  0.77064126  0.99118238  1
  N  N32  1  0.83980517  0.75263952  0.24214285  1
  N  N33  1  0.33980517  0.25263952  0.25785715  1
  N  N34  1  0.16019483  0.24736048  0.75785715  1
  N  N35  1  0.66019483  0.74736048  0.74214285  1
