# generated using pymatgen
data_NaMg30BO31
_symmetry_space_group_name_H-M   'P 1'
_cell_length_a   8.55981241
_cell_length_b   8.47624424
_cell_length_c   8.63620336
_cell_angle_alpha   90.00000000
_cell_angle_beta   90.00000000
_cell_angle_gamma   90.00000000
_symmetry_Int_Tables_number   1
_chemical_formula_structural   NaMg30BO31
_chemical_formula_sum   'Na1 Mg30 B1 O31'
_cell_volume   626.60025845
_cell_formula_units_Z   1
loop_
 _symmetry_equiv_pos_site_id
 _symmetry_equiv_pos_as_xyz
  1  'x, y, z'
loop_
 _atom_site_type_symbol
 _atom_site_label
 _atom_site_symmetry_multiplicity
 _atom_site_fract_x
 _atom_site_fract_y
 _atom_site_fract_z
 _atom_site_occupancy
  Na  Na0  1  1.00009003  -0.00000000  0.00000000  1
  Mg  Mg1  1  0.00488065  -0.00000000  0.50000000  1
  Mg  Mg2  1  0.00231790  0.50000000  0.00000000  1
  Mg  Mg3  1  0.49950796  -0.00000000  0.00000000  1
  Mg  Mg4  1  0.50522523  -0.00000000  0.50000000  1
  Mg  Mg5  1  0.49842172  0.50000000  0.00000000  1
  Mg  Mg6  1  0.50558873  0.50000000  0.50000000  1
  Mg  Mg7  1  0.99994230  0.25852799  0.24186108  1
  Mg  Mg8  1  0.99994230  0.25852799  0.75813892  1
  Mg  Mg9  1  0.99994230  0.74147201  0.24186108  1
  Mg  Mg10  1  0.99994230  0.74147201  0.75813892  1
  Mg  Mg11  1  0.50026825  0.24988308  0.24917265  1
  Mg  Mg12  1  0.50026825  0.24988308  0.75082735  1
  Mg  Mg13  1  0.50026825  0.75011692  0.24917265  1
  Mg  Mg14  1  0.50026825  0.75011692  0.75082735  1
  Mg  Mg15  1  0.24705493  -0.00000000  0.24521410  1
  Mg  Mg16  1  0.24705493  -0.00000000  0.75478590  1
  Mg  Mg17  1  0.24659081  0.50000000  0.25417952  1
  Mg  Mg18  1  0.24659081  0.50000000  0.74582048  1
  Mg  Mg19  1  0.75312773  -0.00000000  0.24685578  1
  Mg  Mg20  1  0.75312773  -0.00000000  0.75314422  1
  Mg  Mg21  1  0.75165589  0.50000000  0.23676783  1
  Mg  Mg22  1  0.75165589  0.50000000  0.76323217  1
  Mg  Mg23  1  0.24896570  0.25011778  0.00000000  1
  Mg  Mg24  1  0.25276597  0.26752281  0.50000000  1
  Mg  Mg25  1  0.24896570  0.74988222  0.00000000  1
  Mg  Mg26  1  0.25276597  0.73247719  0.50000000  1
  Mg  Mg27  1  0.75109430  0.24691884  0.00000000  1
  Mg  Mg28  1  0.74761930  0.24724074  0.50000000  1
  Mg  Mg29  1  0.75109430  0.75308116  0.00000000  1
  Mg  Mg30  1  0.74761930  0.75275926  0.50000000  1
  B  B31  1  0.93668787  0.50000000  0.50000000  1
  O  O32  1  0.26268172  -0.00000000  0.00000000  1
  O  O33  1  0.25542273  0.50000000  0.00000000  1
  O  O34  1  0.27597598  0.50000000  0.50000000  1
  O  O35  1  0.73690180  -0.00000000  0.00000000  1
  O  O36  1  0.75899894  -0.00000000  0.50000000  1
  O  O37  1  0.74388646  0.50000000  0.00000000  1
  O  O38  1  0.76470866  0.50000000  0.50000000  1
  O  O39  1  0.24824686  0.25101515  0.25274404  1
  O  O40  1  0.24824686  0.25101515  0.74725596  1
  O  O41  1  0.24824686  0.74898485  0.25274404  1
  O  O42  1  0.24824686  0.74898485  0.74725596  1
  O  O43  1  0.75203633  0.24966273  0.25263458  1
  O  O44  1  0.75203633  0.24966273  0.74736542  1
  O  O45  1  0.75203633  0.75033727  0.25263458  1
  O  O46  1  0.75203633  0.75033727  0.74736542  1
  O  O47  1  0.99997782  -0.00000000  0.27046843  1
  O  O48  1  0.99997782  -0.00000000  0.72953157  1
  O  O49  1  0.99610484  0.50000000  0.23433602  1
  O  O50  1  0.99610484  0.50000000  0.76566398  1
  O  O51  1  0.49964249  -0.00000000  0.25540736  1
  O  O52  1  0.49964249  -0.00000000  0.74459264  1
  O  O53  1  0.50651267  0.50000000  0.25201461  1
  O  O54  1  0.50651267  0.50000000  0.74798539  1
  O  O55  1  0.99982726  0.25953744  0.00000000  1
  O  O56  1  0.99093957  0.33723845  0.50000000  1
  O  O57  1  0.99982726  0.74046256  0.00000000  1
  O  O58  1  0.99093957  0.66276155  0.50000000  1
  O  O59  1  0.50010169  0.25104807  0.00000000  1
  O  O60  1  0.50638336  0.24915834  0.50000000  1
  O  O61  1  0.50010169  0.74895193  0.00000000  1
  O  O62  1  0.50638336  0.75084166  0.50000000  1
