# generated using pymatgen
data_Er3Si11Pt23
_symmetry_space_group_name_H-M   'P 1'
_cell_length_a   12.02869736
_cell_length_b   12.02869736
_cell_length_c   12.02869736
_cell_angle_alpha   60.00000000
_cell_angle_beta   60.00000000
_cell_angle_gamma   60.00000000
_symmetry_Int_Tables_number   1
_chemical_formula_structural   Er3Si11Pt23
_chemical_formula_sum   'Er6 Si22 Pt46'
_cell_volume   1230.66768383
_cell_formula_units_Z   2
loop_
 _symmetry_equiv_pos_site_id
 _symmetry_equiv_pos_as_xyz
  1  'x, y, z'
loop_
 _atom_site_type_symbol
 _atom_site_label
 _atom_site_symmetry_multiplicity
 _atom_site_fract_x
 _atom_site_fract_y
 _atom_site_fract_z
 _atom_site_occupancy
  Er  Er0  1  0.50000000  -0.00000000  0.00000000  1
  Er  Er1  1  0.50000000  -0.00000000  0.50000000  1
  Er  Er2  1  0.50000000  0.50000000  0.00000000  1
  Er  Er3  1  0.00000000  0.50000000  0.50000000  1
  Er  Er4  1  0.00000000  0.50000000  0.00000000  1
  Er  Er5  1  0.00000000  -0.00000000  0.50000000  1
  Si  Si6  1  0.82826282  0.17173718  0.17173718  1
  Si  Si7  1  0.82826282  0.17173718  0.82826282  1
  Si  Si8  1  0.82826282  0.82826282  0.17173718  1
  Si  Si9  1  0.17173718  0.82826282  0.82826282  1
  Si  Si10  1  0.17173718  0.82826282  0.17173718  1
  Si  Si11  1  0.17173718  0.17173718  0.82826282  1
  Si  Si12  1  0.50467989  0.16510670  0.16510670  1
  Si  Si13  1  0.16510670  0.50467989  0.16510670  1
  Si  Si14  1  0.16510670  0.16510670  0.50467989  1
  Si  Si15  1  0.16510670  0.16510670  0.16510670  1
  Si  Si16  1  0.49532011  0.83489330  0.83489330  1
  Si  Si17  1  0.83489330  0.49532011  0.83489330  1
  Si  Si18  1  0.83489330  0.83489330  0.49532011  1
  Si  Si19  1  0.83489330  0.83489330  0.83489330  1
  Si  Si20  1  0.81901962  0.39366013  0.39366013  1
  Si  Si21  1  0.39366013  0.81901962  0.39366013  1
  Si  Si22  1  0.39366013  0.39366013  0.81901962  1
  Si  Si23  1  0.39366013  0.39366013  0.39366013  1
  Si  Si24  1  0.18098038  0.60633987  0.60633987  1
  Si  Si25  1  0.60633987  0.18098038  0.60633987  1
  Si  Si26  1  0.60633987  0.60633987  0.18098038  1
  Si  Si27  1  0.60633987  0.60633987  0.60633987  1
  Pt  Pt28  1  0.75184590  0.08271803  0.08271803  1
  Pt  Pt29  1  0.08271803  0.75184590  0.08271803  1
  Pt  Pt30  1  0.08271803  0.08271803  0.75184590  1
  Pt  Pt31  1  0.08271803  0.08271803  0.08271803  1
  Pt  Pt32  1  0.24815410  0.91728197  0.91728197  1
  Pt  Pt33  1  0.91728197  0.24815410  0.91728197  1
  Pt  Pt34  1  0.91728197  0.91728197  0.24815410  1
  Pt  Pt35  1  0.91728197  0.91728197  0.91728197  1
  Pt  Pt36  1  0.07548849  0.30817050  0.30817050  1
  Pt  Pt37  1  0.30817050  0.07548849  0.30817050  1
  Pt  Pt38  1  0.30817050  0.30817050  0.07548849  1
  Pt  Pt39  1  0.30817050  0.30817050  0.30817050  1
  Pt  Pt40  1  0.92451151  0.69182950  0.69182950  1
  Pt  Pt41  1  0.69182950  0.92451151  0.69182950  1
  Pt  Pt42  1  0.69182950  0.69182950  0.92451151  1
  Pt  Pt43  1  0.69182950  0.69182950  0.69182950  1
  Pt  Pt44  1  0.62545794  0.37454206  0.37454206  1
  Pt  Pt45  1  0.62545794  0.37454206  0.62545794  1
  Pt  Pt46  1  0.62545794  0.62545794  0.37454206  1
  Pt  Pt47  1  0.37454206  0.62545794  0.62545794  1
  Pt  Pt48  1  0.37454206  0.62545794  0.37454206  1
  Pt  Pt49  1  0.37454206  0.37454206  0.62545794  1
  Pt  Pt50  1  0.57824992  0.91741429  0.25216789  1
  Pt  Pt51  1  0.57824992  0.25216789  0.25216789  1
  Pt  Pt52  1  0.57824992  0.25216789  0.91741429  1
  Pt  Pt53  1  0.91741429  0.57824992  0.25216789  1
  Pt  Pt54  1  0.25216789  0.57824992  0.91741429  1
  Pt  Pt55  1  0.25216789  0.57824992  0.25216789  1
  Pt  Pt56  1  0.25216789  0.25216789  0.57824992  1
  Pt  Pt57  1  0.25216789  0.91741429  0.57824992  1
  Pt  Pt58  1  0.91741429  0.25216789  0.57824992  1
  Pt  Pt59  1  0.25216789  0.25216789  0.91741429  1
  Pt  Pt60  1  0.91741429  0.25216789  0.25216789  1
  Pt  Pt61  1  0.25216789  0.91741429  0.25216789  1
  Pt  Pt62  1  0.42175008  0.08258571  0.74783211  1
  Pt  Pt63  1  0.42175008  0.74783211  0.74783211  1
  Pt  Pt64  1  0.42175008  0.74783211  0.08258571  1
  Pt  Pt65  1  0.08258571  0.42175008  0.74783211  1
  Pt  Pt66  1  0.74783211  0.42175008  0.08258571  1
  Pt  Pt67  1  0.74783211  0.42175008  0.74783211  1
  Pt  Pt68  1  0.74783211  0.74783211  0.42175008  1
  Pt  Pt69  1  0.74783211  0.08258571  0.42175008  1
  Pt  Pt70  1  0.08258571  0.74783211  0.42175008  1
  Pt  Pt71  1  0.74783211  0.74783211  0.08258571  1
  Pt  Pt72  1  0.08258571  0.74783211  0.74783211  1
  Pt  Pt73  1  0.74783211  0.08258571  0.74783211  1
