# generated using pymatgen
data_Er5Ir3
_symmetry_space_group_name_H-M   'P 1'
_cell_length_a   6.33272341
_cell_length_b   10.80517767
_cell_length_c   10.80517767
_cell_angle_alpha   90.00000000
_cell_angle_beta   90.00000000
_cell_angle_gamma   90.00000000
_symmetry_Int_Tables_number   1
_chemical_formula_structural   Er5Ir3
_chemical_formula_sum   'Er20 Ir12'
_cell_volume   739.35726536
_cell_formula_units_Z   4
loop_
 _symmetry_equiv_pos_site_id
 _symmetry_equiv_pos_as_xyz
  1  'x, y, z'
loop_
 _atom_site_type_symbol
 _atom_site_label
 _atom_site_symmetry_multiplicity
 _atom_site_fract_x
 _atom_site_fract_y
 _atom_site_fract_z
 _atom_site_occupancy
  Er  Er0  1  0.50000000  0.50000000  0.50000000  1
  Er  Er1  1  -0.00000000  0.50000000  0.50000000  1
  Er  Er2  1  0.50000000  -0.00000000  -0.00000000  1
  Er  Er3  1  -0.00000000  -0.00000000  -0.00000000  1
  Er  Er4  1  0.37609191  0.58829285  0.79126767  1
  Er  Er5  1  0.87609191  0.58829285  0.20873233  1
  Er  Er6  1  0.62390809  0.91170715  0.70873233  1
  Er  Er7  1  0.12390809  0.08829285  0.70873233  1
  Er  Er8  1  0.37609191  0.41170715  0.20873233  1
  Er  Er9  1  0.87609191  0.41170715  0.79126767  1
  Er  Er10  1  0.62390809  0.08829285  0.29126767  1
  Er  Er11  1  0.12390809  0.91170715  0.29126767  1
  Er  Er12  1  0.62390809  0.79126767  0.41170715  1
  Er  Er13  1  0.12390809  0.20873233  0.41170715  1
  Er  Er14  1  0.37609191  0.29126767  0.91170715  1
  Er  Er15  1  0.87609191  0.70873233  0.91170715  1
  Er  Er16  1  0.62390809  0.20873233  0.58829285  1
  Er  Er17  1  0.12390809  0.79126767  0.58829285  1
  Er  Er18  1  0.37609191  0.70873233  0.08829285  1
  Er  Er19  1  0.87609191  0.29126767  0.08829285  1
  Ir  Ir20  1  0.38445271  -0.00000000  0.50000000  1
  Ir  Ir21  1  0.88445271  -0.00000000  0.50000000  1
  Ir  Ir22  1  0.61554729  0.50000000  -0.00000000  1
  Ir  Ir23  1  0.11554729  0.50000000  -0.00000000  1
  Ir  Ir24  1  0.75000000  0.65335103  0.65335103  1
  Ir  Ir25  1  0.25000000  0.65335103  0.34664897  1
  Ir  Ir26  1  0.25000000  0.84664897  0.84664897  1
  Ir  Ir27  1  0.75000000  0.15335103  0.84664897  1
  Ir  Ir28  1  0.75000000  0.34664897  0.34664897  1
  Ir  Ir29  1  0.25000000  0.34664897  0.65335103  1
  Ir  Ir30  1  0.25000000  0.15335103  0.15335103  1
  Ir  Ir31  1  0.75000000  0.84664897  0.15335103  1
