# generated using pymatgen
data_Sr2Mn2SeO4
_symmetry_space_group_name_H-M   'P 1'
_cell_length_a   6.35441628
_cell_length_b   9.66541624
_cell_length_c   10.44861779
_cell_angle_alpha   90.00000000
_cell_angle_beta   90.00000000
_cell_angle_gamma   90.00000000
_symmetry_Int_Tables_number   1
_chemical_formula_structural   Sr2Mn2SeO4
_chemical_formula_sum   'Sr8 Mn8 Se4 O16'
_cell_volume   641.73402564
_cell_formula_units_Z   4
loop_
 _symmetry_equiv_pos_site_id
 _symmetry_equiv_pos_as_xyz
  1  'x, y, z'
loop_
 _atom_site_type_symbol
 _atom_site_label
 _atom_site_symmetry_multiplicity
 _atom_site_fract_x
 _atom_site_fract_y
 _atom_site_fract_z
 _atom_site_occupancy
  Sr  Sr0  1  0.23483408  0.87150273  0.45158784  1
  Sr  Sr1  1  0.26516592  0.37150273  0.04841216  1
  Sr  Sr2  1  0.76516592  0.12849727  0.95158784  1
  Sr  Sr3  1  0.73483408  0.62849727  0.54841216  1
  Sr  Sr4  1  0.76516592  0.12849727  0.54841216  1
  Sr  Sr5  1  0.73483408  0.62849727  0.95158784  1
  Sr  Sr6  1  0.23483408  0.87150273  0.04841216  1
  Sr  Sr7  1  0.26516592  0.37150273  0.45158784  1
  Mn  Mn8  1  0.72500375  0.87994112  0.25000000  1
  Mn  Mn9  1  0.77499625  0.37994112  0.25000000  1
  Mn  Mn10  1  0.27499625  0.12005888  0.75000000  1
  Mn  Mn11  1  0.22500375  0.62005888  0.75000000  1
  Mn  Mn12  1  0.53200340  0.62059712  0.25000000  1
  Mn  Mn13  1  0.96799660  0.12059712  0.25000000  1
  Mn  Mn14  1  0.46799660  0.37940288  0.75000000  1
  Mn  Mn15  1  0.03200340  0.87940288  0.75000000  1
  Se  Se16  1  0.40925257  0.11483613  0.25000000  1
  Se  Se17  1  0.09074743  0.61483613  0.25000000  1
  Se  Se18  1  0.59074743  0.88516387  0.75000000  1
  Se  Se19  1  0.90925257  0.38516387  0.75000000  1
  O  O20  1  0.60203647  0.47560273  0.37307400  1
  O  O21  1  0.89796353  0.97560273  0.12692600  1
  O  O22  1  0.39796353  0.52439727  0.87307400  1
  O  O23  1  0.10203647  0.02439727  0.62692600  1
  O  O24  1  0.39796353  0.52439727  0.62692600  1
  O  O25  1  0.10203647  0.02439727  0.87307400  1
  O  O26  1  0.60203647  0.47560273  0.12692600  1
  O  O27  1  0.89796353  0.97560273  0.37307400  1
  O  O28  1  0.57463521  0.76880599  0.37529643  1
  O  O29  1  0.92536479  0.26880599  0.12470357  1
  O  O30  1  0.42536479  0.23119401  0.87529643  1
  O  O31  1  0.07463521  0.73119401  0.62470357  1
  O  O32  1  0.42536479  0.23119401  0.62470357  1
  O  O33  1  0.07463521  0.73119401  0.87529643  1
  O  O34  1  0.57463521  0.76880599  0.12470357  1
  O  O35  1  0.92536479  0.26880599  0.37529643  1
