# generated using pymatgen
data_CsMnH4Cl3O2
_symmetry_space_group_name_H-M   'P 1'
_cell_length_a   7.50086585
_cell_length_b   9.07165770
_cell_length_c   11.76378633
_cell_angle_alpha   90.00000000
_cell_angle_beta   90.00000000
_cell_angle_gamma   90.00000000
_symmetry_Int_Tables_number   1
_chemical_formula_structural   CsMnH4Cl3O2
_chemical_formula_sum   'Cs4 Mn4 H16 Cl12 O8'
_cell_volume   800.47022226
_cell_formula_units_Z   4
loop_
 _symmetry_equiv_pos_site_id
 _symmetry_equiv_pos_as_xyz
  1  'x, y, z'
loop_
 _atom_site_type_symbol
 _atom_site_label
 _atom_site_symmetry_multiplicity
 _atom_site_fract_x
 _atom_site_fract_y
 _atom_site_fract_z
 _atom_site_occupancy
  Cs  Cs0  1  0.00000000  0.75000000  0.35299806  1
  Cs  Cs1  1  0.00000000  0.25000000  0.14700194  1
  Cs  Cs2  1  0.00000000  0.25000000  0.64700194  1
  Cs  Cs3  1  0.00000000  0.75000000  0.85299806  1
  Mn  Mn4  1  0.47357788  0.00000000  0.25000000  1
  Mn  Mn5  1  0.52642212  0.50000000  0.25000000  1
  Mn  Mn6  1  0.52642212  0.00000000  0.75000000  1
  Mn  Mn7  1  0.47357788  0.50000000  0.75000000  1
  H  H8  1  0.69125797  0.97577340  0.05524067  1
  H  H9  1  0.30874203  0.52422660  0.05524067  1
  H  H10  1  0.30874203  0.47577340  0.44475933  1
  H  H11  1  0.69125797  0.02422660  0.44475933  1
  H  H12  1  0.30874203  0.02422660  0.94475933  1
  H  H13  1  0.69125797  0.47577340  0.94475933  1
  H  H14  1  0.69125797  0.52422660  0.55524067  1
  H  H15  1  0.30874203  0.97577340  0.55524067  1
  H  H16  1  0.70274204  0.82300820  0.11866863  1
  H  H17  1  0.29725796  0.67699180  0.11866863  1
  H  H18  1  0.29725796  0.32300820  0.38133137  1
  H  H19  1  0.70274204  0.17699180  0.38133137  1
  H  H20  1  0.29725796  0.17699180  0.88133137  1
  H  H21  1  0.70274204  0.32300820  0.88133137  1
  H  H22  1  0.70274204  0.67699180  0.61866863  1
  H  H23  1  0.29725796  0.82300820  0.61866863  1
  Cl  Cl24  1  0.50000000  0.75000000  0.34764657  1
  Cl  Cl25  1  0.50000000  0.25000000  0.15235343  1
  Cl  Cl26  1  0.50000000  0.25000000  0.65235343  1
  Cl  Cl27  1  0.50000000  0.75000000  0.84764657  1
  Cl  Cl28  1  0.23334161  0.91047399  0.10846521  1
  Cl  Cl29  1  0.76665839  0.58952601  0.10846521  1
  Cl  Cl30  1  0.76665839  0.41047399  0.39153479  1
  Cl  Cl31  1  0.23334161  0.08952601  0.39153479  1
  Cl  Cl32  1  0.76665839  0.08952601  0.89153479  1
  Cl  Cl33  1  0.23334161  0.41047399  0.89153479  1
  Cl  Cl34  1  0.23334161  0.58952601  0.60846521  1
  Cl  Cl35  1  0.76665839  0.91047399  0.60846521  1
  O  O36  1  0.69040191  0.93046837  0.13161457  1
  O  O37  1  0.30959809  0.56953163  0.13161457  1
  O  O38  1  0.30959809  0.43046837  0.36838543  1
  O  O39  1  0.69040191  0.06953163  0.36838543  1
  O  O40  1  0.30959809  0.06953163  0.86838543  1
  O  O41  1  0.69040191  0.43046837  0.86838543  1
  O  O42  1  0.69040191  0.56953163  0.63161457  1
  O  O43  1  0.30959809  0.93046837  0.63161457  1
