# generated using pymatgen
data_Tm6Al43W4
_symmetry_space_group_name_H-M   'P 1'
_cell_length_a   11.03146131
_cell_length_b   11.03137710
_cell_length_c   17.54139311
_cell_angle_alpha   90.00000000
_cell_angle_beta   90.00000000
_cell_angle_gamma   120.00025552
_symmetry_Int_Tables_number   1
_chemical_formula_structural   Tm6Al43W4
_chemical_formula_sum   'Tm12 Al86 W8'
_cell_volume   1848.65713755
_cell_formula_units_Z   2
loop_
 _symmetry_equiv_pos_site_id
 _symmetry_equiv_pos_as_xyz
  1  'x, y, z'
loop_
 _atom_site_type_symbol
 _atom_site_label
 _atom_site_symmetry_multiplicity
 _atom_site_fract_x
 _atom_site_fract_y
 _atom_site_fract_z
 _atom_site_occupancy
  Tm  Tm0  1  0.53174407  0.00000000  0.59561103  1
  Tm  Tm1  1  0.46825044  0.46825489  0.59561162  1
  Tm  Tm2  1  0.99999555  0.53174511  0.59561162  1
  Tm  Tm3  1  0.46825593  1.00000000  0.40438897  1
  Tm  Tm4  1  0.53174956  0.53174511  0.40438838  1
  Tm  Tm5  1  0.00000445  0.46825489  0.40438838  1
  Tm  Tm6  1  0.46825593  1.00000000  0.09561103  1
  Tm  Tm7  1  0.53174956  0.53174511  0.09561162  1
  Tm  Tm8  1  0.00000445  0.46825489  0.09561162  1
  Tm  Tm9  1  0.53174407  0.00000000  0.90438897  1
  Tm  Tm10  1  0.46825044  0.46825489  0.90438838  1
  Tm  Tm11  1  0.99999555  0.53174511  0.90438838  1
  Al  Al12  1  0.15808480  0.39503377  0.66331511  1
  Al  Al13  1  0.23694504  0.84192039  0.66331612  1
  Al  Al14  1  0.60496340  0.76305167  0.66331521  1
  Al  Al15  1  0.76305103  0.60496623  0.66331511  1
  Al  Al16  1  0.39502465  0.15807961  0.66331612  1
  Al  Al17  1  0.84191173  0.23694833  0.66331521  1
  Al  Al18  1  0.84191520  0.60496623  0.33668489  1
  Al  Al19  1  0.76305496  0.15807961  0.33668388  1
  Al  Al20  1  0.39503660  0.23694833  0.33668479  1
  Al  Al21  1  0.23694897  0.39503377  0.33668489  1
  Al  Al22  1  0.60497535  0.84192039  0.33668388  1
  Al  Al23  1  0.15808827  0.76305167  0.33668479  1
  Al  Al24  1  0.84191520  0.60496623  0.16331511  1
  Al  Al25  1  0.76305496  0.15807961  0.16331612  1
  Al  Al26  1  0.39503660  0.23694833  0.16331521  1
  Al  Al27  1  0.23694897  0.39503377  0.16331511  1
  Al  Al28  1  0.60497535  0.84192039  0.16331612  1
  Al  Al29  1  0.15808827  0.76305167  0.16331521  1
  Al  Al30  1  0.15808480  0.39503377  0.83668489  1
  Al  Al31  1  0.23694504  0.84192039  0.83668388  1
  Al  Al32  1  0.60496340  0.76305167  0.83668479  1
  Al  Al33  1  0.76305103  0.60496623  0.83668489  1
  Al  Al34  1  0.39502465  0.15807961  0.83668388  1
  Al  Al35  1  0.84191173  0.23694833  0.83668479  1
  Al  Al36  1  0.15978484  0.00000000  0.11473585  1
  Al  Al37  1  0.84021668  0.84021491  0.11473535  1
  Al  Al38  1  0.00000177  0.15978509  0.11473535  1
  Al  Al39  1  0.84021516  1.00000000  0.88526415  1
  Al  Al40  1  0.15978332  0.15978509  0.88526465  1
  Al  Al41  1  0.99999823  0.84021491  0.88526465  1
  Al  Al42  1  0.84021516  1.00000000  0.61473585  1
  Al  Al43  1  0.15978332  0.15978509  0.61473535  1
  Al  Al44  1  0.99999823  0.84021491  0.61473535  1
  Al  Al45  1  0.15978484  0.00000000  0.38526415  1
  Al  Al46  1  0.84021668  0.84021491  0.38526465  1
  Al  Al47  1  0.00000177  0.15978509  0.38526465  1
  Al  Al48  1  0.25501934  1.00000000  0.53061859  1
  Al  Al49  1  0.74498105  0.74498030  0.53061942  1
  Al  Al50  1  0.00000075  0.25501970  0.53061942  1
  Al  Al51  1  0.74498066  0.00000000  0.46938141  1
  Al  Al52  1  0.25501895  0.25501970  0.46938058  1
  Al  Al53  1  0.99999925  0.74498030  0.46938058  1
  Al  Al54  1  0.74498066  0.00000000  0.03061859  1
  Al  Al55  1  0.25501895  0.25501970  0.03061942  1
  Al  Al56  1  0.99999925  0.74498030  0.03061942  1
  Al  Al57  1  0.25501934  1.00000000  0.96938141  1
  Al  Al58  1  0.74498105  0.74498030  0.96938058  1
  Al  Al59  1  0.00000075  0.25501970  0.96938058  1
  Al  Al60  1  0.14726863  0.59505876  0.75000000  1
  Al  Al61  1  0.44778611  0.85272786  0.75000000  1
  Al  Al62  1  0.40493853  0.55221667  0.75000000  1
  Al  Al63  1  0.55220987  0.40494124  0.75000000  1
  Al  Al64  1  0.59505825  0.14727214  0.75000000  1
  Al  Al65  1  0.85272186  0.44778333  0.75000000  1
  Al  Al66  1  0.85273137  0.40494124  0.25000000  1
  Al  Al67  1  0.55221389  0.14727214  0.25000000  1
  Al  Al68  1  0.59506147  0.44778333  0.25000000  1
  Al  Al69  1  0.44779013  0.59505876  0.25000000  1
  Al  Al70  1  0.40494175  0.85272786  0.25000000  1
  Al  Al71  1  0.14727814  0.55221667  0.25000000  1
  Al  Al72  1  0.24678197  0.49356394  0.50000000  1
  Al  Al73  1  0.24677913  0.75321919  0.49999633  1
  Al  Al74  1  0.50644006  0.75321919  0.50000367  1
  Al  Al75  1  0.75321803  0.50643606  0.50000000  1
  Al  Al76  1  0.49355994  0.24678081  0.49999633  1
  Al  Al77  1  0.75322087  0.24678081  0.50000367  1
  Al  Al78  1  0.75321803  0.50643606  0.00000000  1
  Al  Al79  1  0.75322087  0.24678081  0.99999633  1
  Al  Al80  1  0.49355994  0.24678081  0.00000367  1
  Al  Al81  1  0.24678197  0.49356394  0.00000000  1
  Al  Al82  1  0.50644006  0.75321919  0.99999633  1
  Al  Al83  1  0.24677913  0.75321919  0.00000367  1
  Al  Al84  1  0.33332701  0.66667292  0.62596116  1
  Al  Al85  1  0.66665409  0.33332708  0.62596116  1
  Al  Al86  1  0.66667299  0.33332708  0.37403884  1
  Al  Al87  1  0.33334591  0.66667292  0.37403884  1
  Al  Al88  1  0.66667299  0.33332708  0.12596116  1
  Al  Al89  1  0.33334591  0.66667292  0.12596116  1
  Al  Al90  1  0.33332701  0.66667292  0.87403884  1
  Al  Al91  1  0.66665409  0.33332708  0.87403884  1
  Al  Al92  1  0.14765104  1.00000000  0.75000000  1
  Al  Al93  1  0.85233883  0.85234160  0.75000000  1
  Al  Al94  1  0.99999723  0.14765840  0.75000000  1
  Al  Al95  1  0.85234896  0.00000000  0.25000000  1
  Al  Al96  1  0.14766117  0.14765840  0.25000000  1
  Al  Al97  1  0.00000277  0.85234160  0.25000000  1
  W  W98  1  0.72861192  0.00000000  0.75000000  1
  W  W99  1  0.27139242  0.27140110  0.75000000  1
  W  W100  1  0.99999132  0.72859890  0.75000000  1
  W  W101  1  0.27138808  1.00000000  0.25000000  1
  W  W102  1  0.72860758  0.72859890  0.25000000  1
  W  W103  1  0.00000868  0.27140110  0.25000000  1
  W  W104  1  -0.00000000  -0.00000000  0.50000000  1
  W  W105  1  -0.00000000  -0.00000000  -0.00000000  1
