# generated using pymatgen
data_LiCa2Mn2Si5HO15
_symmetry_space_group_name_H-M   'P 1'
_cell_length_a   6.92223644
_cell_length_b   7.77447948
_cell_length_c   11.88723581
_cell_angle_alpha   106.20120654
_cell_angle_beta   92.20583014
_cell_angle_gamma   94.59066565
_symmetry_Int_Tables_number   1
_chemical_formula_structural   LiCa2Mn2Si5HO15
_chemical_formula_sum   'Li2 Ca4 Mn4 Si10 H2 O30'
_cell_volume   611.11943929
_cell_formula_units_Z   2
loop_
 _symmetry_equiv_pos_site_id
 _symmetry_equiv_pos_as_xyz
  1  'x, y, z'
loop_
 _atom_site_type_symbol
 _atom_site_label
 _atom_site_symmetry_multiplicity
 _atom_site_fract_x
 _atom_site_fract_y
 _atom_site_fract_z
 _atom_site_occupancy
  Li  Li0  1  0.66695478  0.34453273  0.87709672  1
  Li  Li1  1  0.33304522  0.65546727  0.12290328  1
  Ca  Ca2  1  0.86094010  0.19387876  0.05847818  1
  Ca  Ca3  1  0.13905990  0.80612124  0.94152182  1
  Ca  Ca4  1  0.71570409  0.76420512  0.47694436  1
  Ca  Ca5  1  0.28429591  0.23579488  0.52305564  1
  Mn  Mn6  1  0.93804983  0.40759459  0.35270330  1
  Mn  Mn7  1  0.06195017  0.59240541  0.64729670  1
  Mn  Mn8  1  0.82272423  0.95481166  0.76316827  1
  Mn  Mn9  1  0.17727577  0.04518834  0.23683173  1
  Si  Si10  1  0.65060966  0.72091077  0.94816291  1
  Si  Si11  1  0.34939034  0.27908923  0.05183709  1
  Si  Si12  1  0.57754069  0.53565969  0.67937299  1
  Si  Si13  1  0.42245931  0.46434031  0.32062701  1
  Si  Si14  1  0.78468991  0.19267037  0.54979066  1
  Si  Si15  1  0.21531009  0.80732963  0.45020934  1
  Si  Si16  1  0.70299946  0.00277229  0.28160742  1
  Si  Si17  1  0.29700054  0.99722771  0.71839258  1
  Si  Si18  1  0.89144437  0.65938521  0.15450904  1
  Si  Si19  1  0.10855563  0.34061479  0.84549096  1
  H  H20  1  0.51456558  0.07365704  0.88054984  1
  H  H21  1  0.48543442  0.92634296  0.11945016  1
  O  O22  1  0.45546605  0.79260782  0.00916595  1
  O  O23  1  0.54453395  0.20739218  0.99083405  1
  O  O24  1  0.80936572  0.87708858  0.93244174  1
  O  O25  1  0.19063428  0.12291142  0.06755826  1
  O  O26  1  0.58941346  0.55854245  0.82373494  1
  O  O27  1  0.41058654  0.44145755  0.17626506  1
  O  O28  1  0.74695369  0.67331799  0.65200008  1
  O  O29  1  0.25304631  0.32668201  0.34799992  1
  O  O30  1  0.63770843  0.45882904  0.37502713  1
  O  O31  1  0.36229157  0.54117096  0.62497287  1
  O  O32  1  0.62049368  0.31822142  0.62276235  1
  O  O33  1  0.37950632  0.68177858  0.37723765  1
  O  O34  1  0.83579647  0.03753099  0.60835160  1
  O  O35  1  0.16420353  0.96246901  0.39164840  1
  O  O36  1  0.96482776  0.32230522  0.52593778  1
  O  O37  1  0.03517224  0.67769478  0.47406222  1
  O  O38  1  0.66187777  0.07171774  0.42224321  1
  O  O39  1  0.33812223  0.92828226  0.57775679  1
  O  O40  1  0.87180869  0.12478707  0.24162829  1
  O  O41  1  0.12819131  0.87521293  0.75837171  1
  O  O42  1  0.50728654  0.00039036  0.78959432  1
  O  O43  1  0.49271346  0.99960964  0.21040568  1
  O  O44  1  0.76340903  0.79278010  0.25737578  1
  O  O45  1  0.23659097  0.20721990  0.74262422  1
  O  O46  1  0.93028782  0.47972198  0.19000068  1
  O  O47  1  0.06971218  0.52027802  0.80999932  1
  O  O48  1  0.91168992  0.22867612  0.86870133  1
  O  O49  1  0.08831008  0.77132388  0.13129867  1
  O  O50  1  0.75154098  0.60236199  0.02878824  1
  O  O51  1  0.24845902  0.39763801  0.97121176  1
