# generated using pymatgen
data_La7Ru3
_symmetry_space_group_name_H-M   'P 1'
_cell_length_a   6.75953799
_cell_length_b   7.41355022
_cell_length_c   23.77622552
_cell_angle_alpha   90.00000000
_cell_angle_beta   90.00000000
_cell_angle_gamma   90.00000000
_symmetry_Int_Tables_number   1
_chemical_formula_structural   La7Ru3
_chemical_formula_sum   'La28 Ru12'
_cell_volume   1191.47835871
_cell_formula_units_Z   4
loop_
 _symmetry_equiv_pos_site_id
 _symmetry_equiv_pos_as_xyz
  1  'x, y, z'
loop_
 _atom_site_type_symbol
 _atom_site_label
 _atom_site_symmetry_multiplicity
 _atom_site_fract_x
 _atom_site_fract_y
 _atom_site_fract_z
 _atom_site_occupancy
  La  La0  1  0.31789147  0.81924502  0.17469504  1
  La  La1  1  0.18210853  0.31924502  0.32530496  1
  La  La2  1  0.68210853  0.18075498  0.67469504  1
  La  La3  1  0.81789147  0.68075498  0.82530496  1
  La  La4  1  0.68210853  0.18075498  0.82530496  1
  La  La5  1  0.81789147  0.68075498  0.67469504  1
  La  La6  1  0.31789147  0.81924502  0.32530496  1
  La  La7  1  0.18210853  0.31924502  0.17469504  1
  La  La8  1  0.31938107  0.83013164  0.02387033  1
  La  La9  1  0.18061893  0.33013164  0.47612967  1
  La  La10  1  0.68061893  0.16986836  0.52387033  1
  La  La11  1  0.81938107  0.66986836  0.97612967  1
  La  La12  1  0.68061893  0.16986836  0.97612967  1
  La  La13  1  0.81938107  0.66986836  0.52387033  1
  La  La14  1  0.31938107  0.83013164  0.47612967  1
  La  La15  1  0.18061893  0.33013164  0.02387033  1
  La  La16  1  0.85715118  0.68282666  0.25000000  1
  La  La17  1  0.64284882  0.18282666  0.25000000  1
  La  La18  1  0.14284882  0.31717334  0.75000000  1
  La  La19  1  0.35715118  0.81717334  0.75000000  1
  La  La20  1  0.85088695  0.94956323  0.11471547  1
  La  La21  1  0.64911305  0.44956323  0.38528453  1
  La  La22  1  0.14911305  0.05043677  0.61471547  1
  La  La23  1  0.35088695  0.55043677  0.88528453  1
  La  La24  1  0.14911305  0.05043677  0.88528453  1
  La  La25  1  0.35088695  0.55043677  0.61471547  1
  La  La26  1  0.85088695  0.94956323  0.38528453  1
  La  La27  1  0.64911305  0.44956323  0.11471547  1
  Ru  Ru28  1  0.47133959  0.51920138  0.25000000  1
  Ru  Ru29  1  0.02866041  0.01920138  0.25000000  1
  Ru  Ru30  1  0.52866041  0.48079862  0.75000000  1
  Ru  Ru31  1  0.97133959  0.98079862  0.75000000  1
  Ru  Ru32  1  0.02859512  0.62052207  0.09495680  1
  Ru  Ru33  1  0.47140488  0.12052207  0.40504320  1
  Ru  Ru34  1  0.97140488  0.37947793  0.59495680  1
  Ru  Ru35  1  0.52859512  0.87947793  0.90504320  1
  Ru  Ru36  1  0.97140488  0.37947793  0.90504320  1
  Ru  Ru37  1  0.52859512  0.87947793  0.59495680  1
  Ru  Ru38  1  0.02859512  0.62052207  0.40504320  1
  Ru  Ru39  1  0.47140488  0.12052207  0.09495680  1
