# generated using pymatgen
data_Lu5Pt4
_symmetry_space_group_name_H-M   'P 1'
_cell_length_a   7.31365794
_cell_length_b   7.40541934
_cell_length_c   14.60029343
_cell_angle_alpha   90.00000000
_cell_angle_beta   90.00000000
_cell_angle_gamma   90.00000000
_symmetry_Int_Tables_number   1
_chemical_formula_structural   Lu5Pt4
_chemical_formula_sum   'Lu20 Pt16'
_cell_volume   790.76217012
_cell_formula_units_Z   4
loop_
 _symmetry_equiv_pos_site_id
 _symmetry_equiv_pos_as_xyz
  1  'x, y, z'
loop_
 _atom_site_type_symbol
 _atom_site_label
 _atom_site_symmetry_multiplicity
 _atom_site_fract_x
 _atom_site_fract_y
 _atom_site_fract_z
 _atom_site_occupancy
  Lu  Lu0  1  0.37509541  0.83634094  0.88142220  1
  Lu  Lu1  1  0.87509541  0.66365906  0.61857780  1
  Lu  Lu2  1  0.62490459  0.16365906  0.38142220  1
  Lu  Lu3  1  0.12490459  0.33634094  0.11857780  1
  Lu  Lu4  1  0.62490459  0.16365906  0.11857780  1
  Lu  Lu5  1  0.12490459  0.33634094  0.38142220  1
  Lu  Lu6  1  0.37509541  0.83634094  0.61857780  1
  Lu  Lu7  1  0.87509541  0.66365906  0.88142220  1
  Lu  Lu8  1  0.52802444  0.32504607  0.90112344  1
  Lu  Lu9  1  0.02802444  0.17495393  0.59887656  1
  Lu  Lu10  1  0.47197556  0.67495393  0.40112344  1
  Lu  Lu11  1  0.97197556  0.82504607  0.09887656  1
  Lu  Lu12  1  0.47197556  0.67495393  0.09887656  1
  Lu  Lu13  1  0.97197556  0.82504607  0.40112344  1
  Lu  Lu14  1  0.52802444  0.32504607  0.59887656  1
  Lu  Lu15  1  0.02802444  0.17495393  0.90112344  1
  Lu  Lu16  1  0.20903301  0.49555725  0.75000000  1
  Lu  Lu17  1  0.70903301  0.00444275  0.75000000  1
  Lu  Lu18  1  0.79096699  0.50444275  0.25000000  1
  Lu  Lu19  1  0.29096699  0.99555725  0.25000000  1
  Pt  Pt20  1  0.28819216  0.02586824  0.04410318  1
  Pt  Pt21  1  0.78819216  0.47413176  0.45589682  1
  Pt  Pt22  1  0.71180784  0.97413176  0.54410318  1
  Pt  Pt23  1  0.21180784  0.52586824  0.95589682  1
  Pt  Pt24  1  0.71180784  0.97413176  0.95589682  1
  Pt  Pt25  1  0.21180784  0.52586824  0.54410318  1
  Pt  Pt26  1  0.28819216  0.02586824  0.45589682  1
  Pt  Pt27  1  0.78819216  0.47413176  0.04410318  1
  Pt  Pt28  1  0.57597257  0.62257405  0.75000000  1
  Pt  Pt29  1  0.07597257  0.87742595  0.75000000  1
  Pt  Pt30  1  0.42402743  0.37742595  0.25000000  1
  Pt  Pt31  1  0.92402743  0.12257405  0.25000000  1
  Pt  Pt32  1  0.34127866  0.14230949  0.75000000  1
  Pt  Pt33  1  0.84127866  0.35769051  0.75000000  1
  Pt  Pt34  1  0.65872134  0.85769051  0.25000000  1
  Pt  Pt35  1  0.15872134  0.64230949  0.25000000  1
