# generated using pymatgen
data_Ho(PO3)3
_symmetry_space_group_name_H-M   'P 1'
_cell_length_a   10.19299558
_cell_length_b   11.41478841
_cell_length_c   20.23036514
_cell_angle_alpha   90.00000000
_cell_angle_beta   90.00000000
_cell_angle_gamma   97.76829655
_symmetry_Int_Tables_number   1
_chemical_formula_structural   Ho(PO3)3
_chemical_formula_sum   'Ho12 P36 O108'
_cell_volume   2332.21942167
_cell_formula_units_Z   12
loop_
 _symmetry_equiv_pos_site_id
 _symmetry_equiv_pos_as_xyz
  1  'x, y, z'
loop_
 _atom_site_type_symbol
 _atom_site_label
 _atom_site_symmetry_multiplicity
 _atom_site_fract_x
 _atom_site_fract_y
 _atom_site_fract_z
 _atom_site_occupancy
  Ho  Ho0  1  0.47204572  0.50275063  0.82251068  1
  Ho  Ho1  1  0.02795428  0.49724937  0.32251068  1
  Ho  Ho2  1  0.52795428  0.49724937  0.17748932  1
  Ho  Ho3  1  0.97204572  0.50275063  0.67748932  1
  Ho  Ho4  1  0.01839843  0.99962320  0.34629435  1
  Ho  Ho5  1  0.48160157  0.00037680  0.84629435  1
  Ho  Ho6  1  0.98160157  0.00037680  0.65370565  1
  Ho  Ho7  1  0.51839843  0.99962320  0.15370565  1
  Ho  Ho8  1  -0.00000000  0.50000000  0.00000000  1
  Ho  Ho9  1  0.50000000  0.50000000  0.50000000  1
  Ho  Ho10  1  -0.00000000  0.00000000  0.00000000  1
  Ho  Ho11  1  0.50000000  0.00000000  0.50000000  1
  P  P12  1  0.03364132  0.27250607  0.44811557  1
  P  P13  1  0.46635868  0.72749393  0.94811557  1
  P  P14  1  0.96635868  0.72749393  0.55188443  1
  P  P15  1  0.53364132  0.27250607  0.05188443  1
  P  P16  1  0.18192240  0.81941397  0.45945135  1
  P  P17  1  0.31807760  0.18058603  0.95945135  1
  P  P18  1  0.81807760  0.18058603  0.54054865  1
  P  P19  1  0.68192240  0.81941397  0.04054865  1
  P  P20  1  0.67734306  0.34628781  0.62514148  1
  P  P21  1  0.82265694  0.65371219  0.12514148  1
  P  P22  1  0.32265694  0.65371219  0.37485852  1
  P  P23  1  0.17734306  0.34628781  0.87485852  1
  P  P24  1  0.49112582  0.23805875  0.72687765  1
  P  P25  1  0.00887418  0.76194125  0.22687765  1
  P  P26  1  0.50887418  0.76194125  0.27312235  1
  P  P27  1  0.99112582  0.23805875  0.77312235  1
  P  P28  1  0.80797511  0.14561727  0.88265561  1
  P  P29  1  0.69202489  0.85438273  0.38265561  1
  P  P30  1  0.19202489  0.85438273  0.11734439  1
  P  P31  1  0.30797511  0.14561727  0.61734439  1
  P  P32  1  0.69136911  0.36078919  0.93339563  1
  P  P33  1  0.80863089  0.63921081  0.43339563  1
  P  P34  1  0.30863089  0.63921081  0.06660437  1
  P  P35  1  0.19136911  0.36078919  0.56660437  1
  P  P36  1  0.80175854  0.67743030  0.79173111  1
  P  P37  1  0.69824146  0.32256970  0.29173111  1
  P  P38  1  0.19824146  0.32256970  0.20826889  1
  P  P39  1  0.30175854  0.67743030  0.70826889  1
  P  P40  1  0.82436215  0.13227858  0.22205574  1
  P  P41  1  0.67563785  0.86772142  0.72205574  1
  P  P42  1  0.17563785  0.86772142  0.77794426  1
  P  P43  1  0.32436215  0.13227858  0.27794426  1
  P  P44  1  0.97672157  0.24600660  0.11139461  1
  P  P45  1  0.52327843  0.75399340  0.61139461  1
  P  P46  1  0.02327843  0.75399340  0.88860539  1
  P  P47  1  0.47672157  0.24600660  0.38860539  1
  O  O48  1  0.05398930  0.38802139  0.41227898  1
  O  O49  1  0.44601070  0.61197861  0.91227898  1
  O  O50  1  0.94601070  0.61197861  0.58772102  1
  O  O51  1  0.55398930  0.38802139  0.08772102  1
  O  O52  1  0.03964048  0.16129581  0.40940108  1
  O  O53  1  0.46035952  0.83870419  0.90940108  1
  O  O54  1  0.96035952  0.83870419  0.59059892  1
  O  O55  1  0.53964048  0.16129581  0.09059892  1
  O  O56  1  0.30886255  0.88097395  0.48694644  1
  O  O57  1  0.19113745  0.11902605  0.98694644  1
  O  O58  1  0.69113745  0.11902605  0.51305356  1
  O  O59  1  0.80886255  0.88097395  0.01305356  1
  O  O60  1  0.08643835  0.89234746  0.42859198  1
  O  O61  1  0.41356165  0.10765254  0.92859198  1
  O  O62  1  0.91356165  0.10765254  0.57140802  1
  O  O63  1  0.58643835  0.89234746  0.07140802  1
  O  O64  1  0.58252767  0.37975535  0.57397594  1
  O  O65  1  0.91747233  0.62024465  0.07397594  1
  O  O66  1  0.41747233  0.62024465  0.42602406  1
  O  O67  1  0.08252767  0.37975535  0.92602406  1
  O  O68  1  0.75261737  0.44115073  0.66671825  1
  O  O69  1  0.74738263  0.55884927  0.16671825  1
  O  O70  1  0.24738263  0.55884927  0.33328175  1
  O  O71  1  0.25261737  0.44115073  0.83328175  1
  O  O72  1  0.46326712  0.36167076  0.74123494  1
  O  O73  1  0.03673288  0.63832924  0.24123494  1
  O  O74  1  0.53673288  0.63832924  0.25876506  1
  O  O75  1  0.96326712  0.36167076  0.75876506  1
  O  O76  1  0.52357306  0.16450757  0.78432885  1
  O  O77  1  0.97642694  0.83549243  0.28432885  1
  O  O78  1  0.47642694  0.83549243  0.21567115  1
  O  O79  1  0.02357306  0.16450757  0.71567115  1
  O  O80  1  0.91174313  0.12550219  0.93235301  1
  O  O81  1  0.58825687  0.87449781  0.43235301  1
  O  O82  1  0.08825687  0.87449781  0.06764699  1
  O  O83  1  0.41174313  0.12550219  0.56764699  1
  O  O84  1  0.68803733  0.05423681  0.87995524  1
  O  O85  1  0.81196267  0.94576319  0.37995524  1
  O  O86  1  0.31196267  0.94576319  0.12004476  1
  O  O87  1  0.18803733  0.05423681  0.62004476  1
  O  O88  1  0.57608224  0.39310438  0.89469656  1
  O  O89  1  0.92391776  0.60689562  0.39469656  1
  O  O90  1  0.42391776  0.60689562  0.10530344  1
  O  O91  1  0.07608224  0.39310438  0.60530344  1
  O  O92  1  0.79397649  0.45716669  0.95855661  1
  O  O93  1  0.70602351  0.54283331  0.45855661  1
  O  O94  1  0.20602351  0.54283331  0.04144339  1
  O  O95  1  0.29397649  0.45716669  0.54144339  1
  O  O96  1  0.10762024  0.73414248  0.51517455  1
  O  O97  1  0.39237976  0.26585752  0.01517455  1
  O  O98  1  0.89237976  0.26585752  0.48482545  1
  O  O99  1  0.60762024  0.73414248  0.98482545  1
  O  O100  1  0.21015472  0.72189215  0.40637688  1
  O  O101  1  0.28984528  0.27810785  0.90637688  1
  O  O102  1  0.78984528  0.27810785  0.59362312  1
  O  O103  1  0.71015472  0.72189215  0.09362312  1
  O  O104  1  0.60656224  0.24197381  0.67225743  1
  O  O105  1  0.89343776  0.75802619  0.17225743  1
  O  O106  1  0.39343776  0.75802619  0.32774257  1
  O  O107  1  0.10656224  0.24197381  0.82774257  1
  O  O108  1  0.86963612  0.15841551  0.80951516  1
  O  O109  1  0.63036388  0.84158449  0.30951516  1
  O  O110  1  0.13036388  0.84158449  0.19048484  1
  O  O111  1  0.36963612  0.15841551  0.69048484  1
  O  O112  1  0.76722723  0.27548530  0.88917054  1
  O  O113  1  0.73277277  0.72451470  0.38917054  1
  O  O114  1  0.23277277  0.72451470  0.11082946  1
  O  O115  1  0.26722723  0.27548530  0.61082946  1
  O  O116  1  0.13947659  0.27221702  0.50695424  1
  O  O117  1  0.36052341  0.72778298  0.00695424  1
  O  O118  1  0.86052341  0.72778298  0.49304576  1
  O  O119  1  0.63947659  0.27221702  0.99304576  1
  O  O120  1  0.67660556  0.59778853  0.80731350  1
  O  O121  1  0.82339444  0.40221147  0.30731350  1
  O  O122  1  0.32339444  0.40221147  0.19268650  1
  O  O123  1  0.17660556  0.59778853  0.69268650  1
  O  O124  1  0.89656939  0.63706878  0.74267696  1
  O  O125  1  0.60343061  0.36293122  0.24267696  1
  O  O126  1  0.10343061  0.36293122  0.25732304  1
  O  O127  1  0.39656939  0.63706878  0.75732304  1
  O  O128  1  0.93819451  0.09329395  0.25928527  1
  O  O129  1  0.56180549  0.90670605  0.75928527  1
  O  O130  1  0.06180549  0.90670605  0.74071473  1
  O  O131  1  0.43819451  0.09329395  0.24071473  1
  O  O132  1  0.73222331  0.04180684  0.18482499  1
  O  O133  1  0.76777669  0.95819316  0.68482499  1
  O  O134  1  0.26777669  0.95819316  0.81517501  1
  O  O135  1  0.23222331  0.04180684  0.31517501  1
  O  O136  1  0.94592627  0.34366180  0.06692374  1
  O  O137  1  0.55407373  0.65633820  0.56692374  1
  O  O138  1  0.05407373  0.65633820  0.93307626  1
  O  O139  1  0.44592627  0.34366180  0.43307626  1
  O  O140  1  0.97151728  0.12298054  0.08451195  1
  O  O141  1  0.52848272  0.87701946  0.58451195  1
  O  O142  1  0.02848272  0.87701946  0.91548805  1
  O  O143  1  0.47151728  0.12298054  0.41548805  1
  O  O144  1  0.76635965  0.80549850  0.77197431  1
  O  O145  1  0.73364035  0.19450150  0.27197431  1
  O  O146  1  0.23364035  0.19450150  0.22802569  1
  O  O147  1  0.26635965  0.80549850  0.72802569  1
  O  O148  1  0.87861777  0.24237858  0.17421885  1
  O  O149  1  0.62138223  0.75762142  0.67421885  1
  O  O150  1  0.12138223  0.75762142  0.82578115  1
  O  O151  1  0.37861777  0.24237858  0.32578115  1
  O  O152  1  0.87750305  0.71214896  0.85960051  1
  O  O153  1  0.62249695  0.28785104  0.35960051  1
  O  O154  1  0.12249695  0.28785104  0.14039949  1
  O  O155  1  0.37750305  0.71214896  0.64039949  1
