# generated using pymatgen
data_Dy5(Ge5Rh2)2
_symmetry_space_group_name_H-M   'P 1'
_cell_length_a   4.31337089
_cell_length_b   13.09252179
_cell_length_c   13.09252179
_cell_angle_alpha   90.00000000
_cell_angle_beta   90.00000000
_cell_angle_gamma   90.00000000
_symmetry_Int_Tables_number   1
_chemical_formula_structural   Dy5(Ge5Rh2)2
_chemical_formula_sum   'Dy10 Ge20 Rh8'
_cell_volume   739.37270477
_cell_formula_units_Z   2
loop_
 _symmetry_equiv_pos_site_id
 _symmetry_equiv_pos_as_xyz
  1  'x, y, z'
loop_
 _atom_site_type_symbol
 _atom_site_label
 _atom_site_symmetry_multiplicity
 _atom_site_fract_x
 _atom_site_fract_y
 _atom_site_fract_z
 _atom_site_occupancy
  Dy  Dy0  1  0.00000000  0.50000000  0.50000000  1
  Dy  Dy1  1  0.00000000  -0.00000000  -0.00000000  1
  Dy  Dy2  1  0.50000000  0.17566294  0.67566294  1
  Dy  Dy3  1  0.50000000  0.82433706  0.32433706  1
  Dy  Dy4  1  0.50000000  0.32433706  0.17566294  1
  Dy  Dy5  1  0.50000000  0.67566294  0.82433706  1
  Dy  Dy6  1  0.50000000  0.38670341  0.88670341  1
  Dy  Dy7  1  0.50000000  0.61329659  0.11329659  1
  Dy  Dy8  1  0.50000000  0.11329659  0.38670341  1
  Dy  Dy9  1  0.50000000  0.88670341  0.61329659  1
  Ge  Ge10  1  -0.00000000  0.06630198  0.56630198  1
  Ge  Ge11  1  0.00000000  0.93369802  0.43369802  1
  Ge  Ge12  1  0.00000000  0.43369802  0.06630198  1
  Ge  Ge13  1  -0.00000000  0.56630198  0.93369802  1
  Ge  Ge14  1  0.00000000  0.70001958  0.66121379  1
  Ge  Ge15  1  -0.00000000  0.29998042  0.33878621  1
  Ge  Ge16  1  0.00000000  0.79998042  0.16121379  1
  Ge  Ge17  1  -0.00000000  0.20001958  0.83878621  1
  Ge  Ge18  1  0.00000000  0.66121379  0.29998042  1
  Ge  Ge19  1  -0.00000000  0.33878621  0.70001958  1
  Ge  Ge20  1  0.00000000  0.16121379  0.20001958  1
  Ge  Ge21  1  -0.00000000  0.83878621  0.79998042  1
  Ge  Ge22  1  0.50000000  0.50300023  0.65924959  1
  Ge  Ge23  1  0.50000000  0.49699977  0.34075041  1
  Ge  Ge24  1  0.50000000  0.99699977  0.15924959  1
  Ge  Ge25  1  0.50000000  0.00300023  0.84075041  1
  Ge  Ge26  1  0.50000000  0.65924959  0.49699977  1
  Ge  Ge27  1  0.50000000  0.34075041  0.50300023  1
  Ge  Ge28  1  0.50000000  0.15924959  0.00300023  1
  Ge  Ge29  1  0.50000000  0.84075041  0.99699977  1
  Rh  Rh30  1  0.00000000  0.52195062  0.74588752  1
  Rh  Rh31  1  -0.00000000  0.47804938  0.25411248  1
  Rh  Rh32  1  -0.00000000  0.97804938  0.24588752  1
  Rh  Rh33  1  0.00000000  0.02195062  0.75411248  1
  Rh  Rh34  1  -0.00000000  0.74588752  0.47804938  1
  Rh  Rh35  1  0.00000000  0.25411248  0.52195062  1
  Rh  Rh36  1  0.00000000  0.24588752  0.02195062  1
  Rh  Rh37  1  -0.00000000  0.75411248  0.97804938  1
