# generated using pymatgen
data_KHfMg30O31
_symmetry_space_group_name_H-M   'P 1'
_cell_length_a   8.58863174
_cell_length_b   8.68321910
_cell_length_c   8.71979665
_cell_angle_alpha   90.00000000
_cell_angle_beta   90.00000000
_cell_angle_gamma   90.00000000
_symmetry_Int_Tables_number   1
_chemical_formula_structural   KHfMg30O31
_chemical_formula_sum   'K1 Hf1 Mg30 O31'
_cell_volume   650.29602335
_cell_formula_units_Z   1
loop_
 _symmetry_equiv_pos_site_id
 _symmetry_equiv_pos_as_xyz
  1  'x, y, z'
loop_
 _atom_site_type_symbol
 _atom_site_label
 _atom_site_symmetry_multiplicity
 _atom_site_fract_x
 _atom_site_fract_y
 _atom_site_fract_z
 _atom_site_occupancy
  K  K0  1  0.01298400  -0.00000000  -0.00000000  1
  Hf  Hf1  1  0.99894990  -0.00000000  0.50000000  1
  Mg  Mg2  1  0.99873106  0.50000000  -0.00000000  1
  Mg  Mg3  1  0.99976709  0.50000000  0.50000000  1
  Mg  Mg4  1  0.49210461  0.00000000  -0.00000000  1
  Mg  Mg5  1  0.50171626  0.00000000  0.50000000  1
  Mg  Mg6  1  0.50179231  0.50000000  -0.00000000  1
  Mg  Mg7  1  0.50020172  0.50000000  0.50000000  1
  Mg  Mg8  1  0.99991285  0.25854935  0.24364833  1
  Mg  Mg9  1  0.99991285  0.25854935  0.75635167  1
  Mg  Mg10  1  0.99991285  0.74145065  0.24364833  1
  Mg  Mg11  1  0.99991285  0.74145065  0.75635167  1
  Mg  Mg12  1  0.50039357  0.25103257  0.24841569  1
  Mg  Mg13  1  0.50039357  0.25103257  0.75158431  1
  Mg  Mg14  1  0.50039357  0.74896743  0.24841569  1
  Mg  Mg15  1  0.50039357  0.74896743  0.75158431  1
  Mg  Mg16  1  0.25997720  -0.00000000  0.24908507  1
  Mg  Mg17  1  0.25997720  0.00000000  0.75091493  1
  Mg  Mg18  1  0.25123155  0.50000000  0.24983460  1
  Mg  Mg19  1  0.25123155  0.50000000  0.75016540  1
  Mg  Mg20  1  0.74287755  -0.00000000  0.24183661  1
  Mg  Mg21  1  0.74287755  0.00000000  0.75816339  1
  Mg  Mg22  1  0.74878331  0.50000000  0.24834333  1
  Mg  Mg23  1  0.74878331  0.50000000  0.75165667  1
  Mg  Mg24  1  0.25403217  0.25832086  -0.00000000  1
  Mg  Mg25  1  0.25531247  0.25659358  0.50000000  1
  Mg  Mg26  1  0.25403217  0.74167914  -0.00000000  1
  Mg  Mg27  1  0.25531247  0.74340642  0.50000000  1
  Mg  Mg28  1  0.74837941  0.25126320  -0.00000000  1
  Mg  Mg29  1  0.74463644  0.25571964  0.50000000  1
  Mg  Mg30  1  0.74837941  0.74873680  -0.00000000  1
  Mg  Mg31  1  0.74463644  0.74428036  0.50000000  1
  O  O32  1  0.24916037  0.00000000  0.50000000  1
  O  O33  1  0.25423499  0.50000000  -0.00000000  1
  O  O34  1  0.24982379  0.50000000  0.50000000  1
  O  O35  1  0.72748545  0.00000000  -0.00000000  1
  O  O36  1  0.75121156  -0.00000000  0.50000000  1
  O  O37  1  0.74672841  0.50000000  -0.00000000  1
  O  O38  1  0.75011873  0.50000000  0.50000000  1
  O  O39  1  0.24867786  0.25033310  0.25240952  1
  O  O40  1  0.24867786  0.25033310  0.74759048  1
  O  O41  1  0.24867786  0.74966690  0.25240952  1
  O  O42  1  0.24867786  0.74966690  0.74759048  1
  O  O43  1  0.75146034  0.24862583  0.25060448  1
  O  O44  1  0.75146034  0.24862583  0.74939552  1
  O  O45  1  0.75146034  0.75137417  0.25060448  1
  O  O46  1  0.75146034  0.75137417  0.74939552  1
  O  O47  1  0.99891904  -0.00000000  0.26957075  1
  O  O48  1  0.99891904  0.00000000  0.73042925  1
  O  O49  1  0.99994662  0.50000000  0.25604383  1
  O  O50  1  0.99994662  0.50000000  0.74395617  1
  O  O51  1  0.50143850  -0.00000000  0.25781173  1
  O  O52  1  0.50143850  -0.00000000  0.74218827  1
  O  O53  1  0.50008597  0.50000000  0.25191727  1
  O  O54  1  0.50008597  0.50000000  0.74808273  1
  O  O55  1  0.99978950  0.27395348  -0.00000000  1
  O  O56  1  0.99980777  0.24777630  0.50000000  1
  O  O57  1  0.99978950  0.72604652  -0.00000000  1
  O  O58  1  0.99980777  0.75222370  0.50000000  1
  O  O59  1  0.50125219  0.25546376  -0.00000000  1
  O  O60  1  0.50013595  0.24984449  0.50000000  1
  O  O61  1  0.50125219  0.74453624  -0.00000000  1
  O  O62  1  0.50013595  0.75015551  0.50000000  1
