# generated using pymatgen
data_Zr2Te4Br2O11
_symmetry_space_group_name_H-M   'P 1'
_cell_length_a   7.96533462
_cell_length_b   9.89598621
_cell_length_c   10.82668510
_cell_angle_alpha   113.09792181
_cell_angle_beta   107.38993097
_cell_angle_gamma   98.44462501
_symmetry_Int_Tables_number   1
_chemical_formula_structural   Zr2Te4Br2O11
_chemical_formula_sum   'Zr4 Te8 Br4 O22'
_cell_volume   714.40800399
_cell_formula_units_Z   2
loop_
 _symmetry_equiv_pos_site_id
 _symmetry_equiv_pos_as_xyz
  1  'x, y, z'
loop_
 _atom_site_type_symbol
 _atom_site_label
 _atom_site_symmetry_multiplicity
 _atom_site_fract_x
 _atom_site_fract_y
 _atom_site_fract_z
 _atom_site_occupancy
  Zr  Zr0  1  0.88798763  0.11122950  0.61924158  1
  Zr  Zr1  1  0.11201237  0.88877050  0.38075842  1
  Zr  Zr2  1  0.62408519  0.38961140  0.89213223  1
  Zr  Zr3  1  0.37591481  0.61038860  0.10786777  1
  Te  Te4  1  0.25474539  0.01065042  0.78613832  1
  Te  Te5  1  0.74525461  0.98934958  0.21386168  1
  Te  Te6  1  0.48519971  0.25984418  0.47996021  1
  Te  Te7  1  0.51480029  0.74015582  0.52003979  1
  Te  Te8  1  0.78111726  0.48168102  0.25633068  1
  Te  Te9  1  0.21888274  0.51831898  0.74366932  1
  Te  Te10  1  0.98607365  0.24050053  0.99199710  1
  Te  Te11  1  0.01392635  0.75949947  0.00800290  1
  Br  Br12  1  0.09841888  0.37441212  0.36507038  1
  Br  Br13  1  0.90158112  0.62558788  0.63492962  1
  Br  Br14  1  0.63350134  0.88592966  0.89180757  1
  Br  Br15  1  0.36649866  0.11407034  0.10819243  1
  O  O16  1  0.51357757  0.35976077  0.67713345  1
  O  O17  1  0.48642243  0.64023923  0.32286655  1
  O  O18  1  0.68201963  0.17364153  0.49764488  1
  O  O19  1  0.31798037  0.82635847  0.50235512  1
  O  O20  1  0.06789504  0.11181339  0.82548719  1
  O  O21  1  0.93210496  0.88818661  0.17451281  1
  O  O22  1  0.58467332  0.49232739  0.10424720  1
  O  O23  1  0.41532668  0.50767261  0.89575280  1
  O  O24  1  0.81847550  0.36493615  0.07663329  1
  O  O25  1  0.18152450  0.63506385  0.92336671  1
  O  O26  1  0.81707230  0.24402064  0.82122281  1
  O  O27  1  0.18292770  0.75597936  0.17877719  1
  O  O28  1  0.10550484  0.99053751  0.59652332  1
  O  O29  1  0.89449516  0.00946249  0.40347668  1
  O  O30  1  0.93069541  0.67657823  0.31837080  1
  O  O31  1  0.06930459  0.32342177  0.68162920  1
  O  O32  1  0.70540110  0.91729274  0.58061747  1
  O  O33  1  0.29459890  0.08270726  0.41938253  1
  O  O34  1  0.17269145  0.41849562  0.05282900  1
  O  O35  1  0.82730855  0.58150438  0.94717100  1
  O  O36  1  0.44172618  0.17946663  0.83189387  1
  O  O37  1  0.55827382  0.82053337  0.16810613  1
