# generated using pymatgen
data_Tm5(Si5Ir2)2
_symmetry_space_group_name_H-M   'P 1'
_cell_length_a   4.23121177
_cell_length_b   12.57940525
_cell_length_c   12.57940525
_cell_angle_alpha   90.00000000
_cell_angle_beta   90.00000000
_cell_angle_gamma   90.00000000
_symmetry_Int_Tables_number   1
_chemical_formula_structural   Tm5(Si5Ir2)2
_chemical_formula_sum   'Tm10 Si20 Ir8'
_cell_volume   669.55302838
_cell_formula_units_Z   2
loop_
 _symmetry_equiv_pos_site_id
 _symmetry_equiv_pos_as_xyz
  1  'x, y, z'
loop_
 _atom_site_type_symbol
 _atom_site_label
 _atom_site_symmetry_multiplicity
 _atom_site_fract_x
 _atom_site_fract_y
 _atom_site_fract_z
 _atom_site_occupancy
  Tm  Tm0  1  -0.00000000  0.50000000  0.50000000  1
  Tm  Tm1  1  0.00000000  0.00000000  -0.00000000  1
  Tm  Tm2  1  0.50000000  0.17542535  0.67542535  1
  Tm  Tm3  1  0.50000000  0.82457465  0.32457465  1
  Tm  Tm4  1  0.50000000  0.32457465  0.17542535  1
  Tm  Tm5  1  0.50000000  0.67542535  0.82457465  1
  Tm  Tm6  1  0.50000000  0.38408236  0.88408236  1
  Tm  Tm7  1  0.50000000  0.61591764  0.11591764  1
  Tm  Tm8  1  0.50000000  0.11591764  0.38408236  1
  Tm  Tm9  1  0.50000000  0.88408236  0.61591764  1
  Si  Si10  1  0.00000000  0.06560652  0.56560652  1
  Si  Si11  1  -0.00000000  0.93439348  0.43439348  1
  Si  Si12  1  0.00000000  0.43439348  0.06560652  1
  Si  Si13  1  -0.00000000  0.56560652  0.93439348  1
  Si  Si14  1  0.00000000  0.70080558  0.66407926  1
  Si  Si15  1  -0.00000000  0.29919442  0.33592074  1
  Si  Si16  1  0.00000000  0.79919442  0.16407926  1
  Si  Si17  1  -0.00000000  0.20080558  0.83592074  1
  Si  Si18  1  -0.00000000  0.66407926  0.29919442  1
  Si  Si19  1  0.00000000  0.33592074  0.70080558  1
  Si  Si20  1  -0.00000000  0.16407926  0.20080558  1
  Si  Si21  1  0.00000000  0.83592074  0.79919442  1
  Si  Si22  1  0.50000000  0.50372442  0.65554297  1
  Si  Si23  1  0.50000000  0.49627558  0.34445703  1
  Si  Si24  1  0.50000000  0.99627558  0.15554297  1
  Si  Si25  1  0.50000000  0.00372442  0.84445703  1
  Si  Si26  1  0.50000000  0.65554297  0.49627558  1
  Si  Si27  1  0.50000000  0.34445703  0.50372442  1
  Si  Si28  1  0.50000000  0.15554297  0.00372442  1
  Si  Si29  1  0.50000000  0.84445703  0.99627558  1
  Ir  Ir30  1  0.00000000  0.52055454  0.74593371  1
  Ir  Ir31  1  -0.00000000  0.47944546  0.25406629  1
  Ir  Ir32  1  -0.00000000  0.97944546  0.24593371  1
  Ir  Ir33  1  0.00000000  0.02055454  0.75406629  1
  Ir  Ir34  1  0.00000000  0.74593371  0.47944546  1
  Ir  Ir35  1  -0.00000000  0.25406629  0.52055454  1
  Ir  Ir36  1  -0.00000000  0.24593371  0.02055454  1
  Ir  Ir37  1  0.00000000  0.75406629  0.97944546  1
