# generated using pymatgen
data_CsCoF4
_symmetry_space_group_name_H-M   'P 1'
_cell_length_a   11.08279393
_cell_length_b   11.08279393
_cell_length_c   11.08279393
_cell_angle_alpha   106.36646469
_cell_angle_beta   111.04555058
_cell_angle_gamma   111.04555058
_symmetry_Int_Tables_number   1
_chemical_formula_structural   CsCoF4
_chemical_formula_sum   'Cs10 Co10 F40'
_cell_volume   1045.62272160
_cell_formula_units_Z   10
loop_
 _symmetry_equiv_pos_site_id
 _symmetry_equiv_pos_as_xyz
  1  'x, y, z'
loop_
 _atom_site_type_symbol
 _atom_site_label
 _atom_site_symmetry_multiplicity
 _atom_site_fract_x
 _atom_site_fract_y
 _atom_site_fract_z
 _atom_site_occupancy
  Cs  Cs0  1  0.00000000  0.75000000  0.75000000  1
  Cs  Cs1  1  0.00000000  0.25000000  0.25000000  1
  Cs  Cs2  1  0.82395495  0.33878912  0.83196268  1
  Cs  Cs3  1  0.17604505  0.00800773  0.51483417  1
  Cs  Cs4  1  0.50682644  0.83878912  0.01483417  1
  Cs  Cs5  1  0.49317356  0.50800773  0.33196268  1
  Cs  Cs6  1  0.49317356  0.48516583  0.66121088  1
  Cs  Cs7  1  0.50682644  0.16803732  0.99199227  1
  Cs  Cs8  1  0.17604505  0.66803732  0.16121088  1
  Cs  Cs9  1  0.82395495  0.98516583  0.49199227  1
  Co  Co10  1  0.50000000  0.50000000  0.00000000  1
  Co  Co11  1  0.50000000  -0.00000000  0.50000000  1
  Co  Co12  1  0.13240546  0.42197305  0.70892928  1
  Co  Co13  1  0.86759454  0.57652382  0.28956759  1
  Co  Co14  1  0.71304377  0.92197305  0.78956759  1
  Co  Co15  1  0.28695623  0.07652382  0.20892928  1
  Co  Co16  1  0.28695623  0.71043241  0.57802695  1
  Co  Co17  1  0.71304377  0.29107072  0.42347618  1
  Co  Co18  1  0.86759454  0.79107072  0.07802695  1
  Co  Co19  1  0.13240546  0.21043241  0.92347618  1
  F  F20  1  0.65096833  0.49533816  0.15339970  1
  F  F21  1  0.34903167  0.50243138  0.84436984  1
  F  F22  1  0.34193846  0.99533816  0.34436984  1
  F  F23  1  0.65806154  0.00243138  0.65339970  1
  F  F24  1  0.65806154  0.15563016  0.50466184  1
  F  F25  1  0.34193846  0.84660030  0.49756862  1
  F  F26  1  0.34903167  0.34660030  0.00466184  1
  F  F27  1  0.65096833  0.65563016  0.99756862  1
  F  F28  1  0.78685202  0.43112314  0.35066600  1
  F  F29  1  0.21314798  0.56381397  0.64427112  1
  F  F30  1  0.08045715  0.93112314  0.14427112  1
  F  F31  1  0.91954285  0.06381397  0.85066600  1
  F  F32  1  0.91954285  0.35572888  0.56887686  1
  F  F33  1  0.08045715  0.64933400  0.43618603  1
  F  F34  1  0.21314798  0.14933400  0.06887686  1
  F  F35  1  0.78685202  0.85572888  0.93618603  1
  F  F36  1  0.71100153  0.42920429  0.55787368  1
  F  F37  1  0.28899847  0.84687215  0.71820276  1
  F  F38  1  0.87133061  0.92920429  0.21820276  1
  F  F39  1  0.12866939  0.34687215  0.05787368  1
  F  F40  1  0.12866939  0.28179724  0.57079571  1
  F  F41  1  0.87133061  0.44212632  0.15312785  1
  F  F42  1  0.28899847  0.94212632  0.07079571  1
  F  F43  1  0.71100153  0.78179724  0.65312785  1
  F  F44  1  0.28820225  0.57500366  0.43928325  1
  F  F45  1  0.71179775  0.15108100  0.28680141  1
  F  F46  1  0.13572041  0.07500366  0.78680141  1
  F  F47  1  0.86427959  0.65108100  0.93928325  1
  F  F48  1  0.86427959  0.71319859  0.42499634  1
  F  F49  1  0.13572041  0.56071675  0.84891900  1
  F  F50  1  0.71179775  0.06071675  0.92499634  1
  F  F51  1  0.28820225  0.21319859  0.34891900  1
  F  F52  1  0.05846252  0.27923126  0.77923126  1
  F  F53  1  0.94153748  0.72076874  0.22076874  1
  F  F54  1  0.50000000  0.77923126  0.72076874  1
  F  F55  1  0.50000000  0.22076874  0.27923126  1
  F  F56  1  0.50000000  0.13744853  0.63744853  1
  F  F57  1  0.50000000  0.63744853  0.13744853  1
  F  F58  1  0.50000000  0.36255147  0.86255147  1
  F  F59  1  0.50000000  0.86255147  0.36255147  1
