# generated using pymatgen
data_NaTc12Br25
_symmetry_space_group_name_H-M   'P 1'
_cell_length_a   9.82883920
_cell_length_b   10.92174158
_cell_length_c   11.58192877
_cell_angle_alpha   84.51130397
_cell_angle_beta   74.25457017
_cell_angle_gamma   87.51665466
_symmetry_Int_Tables_number   1
_chemical_formula_structural   NaTc12Br25
_chemical_formula_sum   'Na1 Tc12 Br25'
_cell_volume   1190.96261150
_cell_formula_units_Z   1
loop_
 _symmetry_equiv_pos_site_id
 _symmetry_equiv_pos_as_xyz
  1  'x, y, z'
loop_
 _atom_site_type_symbol
 _atom_site_label
 _atom_site_symmetry_multiplicity
 _atom_site_fract_x
 _atom_site_fract_y
 _atom_site_fract_z
 _atom_site_occupancy
  Na  Na0  1  0.50000000  -0.00000000  -0.00000000  1
  Tc  Tc1  1  0.82790498  0.25297588  0.12348695  1
  Tc  Tc2  1  0.17209502  0.74702412  0.87651305  1
  Tc  Tc3  1  0.75379876  0.12021328  0.28030697  1
  Tc  Tc4  1  0.24620124  0.87978672  0.71969303  1
  Tc  Tc5  1  0.06657274  0.27336371  0.19343964  1
  Tc  Tc6  1  0.93342726  0.72663629  0.80656036  1
  Tc  Tc7  1  0.84434469  0.42780265  0.26784161  1
  Tc  Tc8  1  0.15565531  0.57219735  0.73215839  1
  Tc  Tc9  1  0.76753534  0.29668546  0.42734712  1
  Tc  Tc10  1  0.23246466  0.70331454  0.57265288  1
  Tc  Tc11  1  0.98975432  0.14287543  0.35314383  1
  Tc  Tc12  1  0.01024568  0.85712457  0.64685617  1
  Br  Br13  1  0.94381289  0.95835337  0.25886273  1
  Br  Br14  1  0.05618711  0.04164663  0.74113727  1
  Br  Br15  1  0.96805994  0.27699642  0.52097000  1
  Br  Br16  1  0.03194006  0.72300358  0.47903000  1
  Br  Br17  1  0.64574821  0.42227611  0.16977504  1
  Br  Br18  1  0.35425179  0.57772389  0.83022496  1
  Br  Br19  1  0.08874119  0.46797445  0.28249326  1
  Br  Br20  1  0.91125881  0.53202555  0.71750674  1
  Br  Br21  1  -0.00000000  0.50000000  -0.00000000  1
  Br  Br22  1  0.59818625  0.96334797  0.23403189  1
  Br  Br23  1  0.40181375  0.03665203  0.76596811  1
  Br  Br24  1  0.19840811  0.03054920  0.40863342  1
  Br  Br25  1  0.80159189  0.96945080  0.59136658  1
  Br  Br26  1  0.54045857  0.21796588  0.40957204  1
  Br  Br27  1  0.45954143  0.78203412  0.59042796  1
  Br  Br28  1  0.06064045  0.15884069  0.01967935  1
  Br  Br29  1  0.93935955  0.84115931  0.98032065  1
  Br  Br30  1  0.77258056  0.64253695  0.31692512  1
  Br  Br31  1  0.22741944  0.35746305  0.68307488  1
  Br  Br32  1  0.73394705  0.20785193  0.94841045  1
  Br  Br33  1  0.26605295  0.79214807  0.05158955  1
  Br  Br34  1  0.33240564  0.25754729  0.11981922  1
  Br  Br35  1  0.66759436  0.74245271  0.88018078  1
  Br  Br36  1  0.63285305  0.40791798  0.60154037  1
  Br  Br37  1  0.36714695  0.59208202  0.39845963  1
