# generated using pymatgen
data_Ca6Cd11Pt
_symmetry_space_group_name_H-M   'P 1'
_cell_length_a   6.03347746
_cell_length_b   15.88061910
_cell_length_c   19.10974476
_cell_angle_alpha   90.00000000
_cell_angle_beta   90.00000000
_cell_angle_gamma   90.00000000
_symmetry_Int_Tables_number   1
_chemical_formula_structural   Ca6Cd11Pt
_chemical_formula_sum   'Ca24 Cd44 Pt4'
_cell_volume   1831.00702382
_cell_formula_units_Z   4
loop_
 _symmetry_equiv_pos_site_id
 _symmetry_equiv_pos_as_xyz
  1  'x, y, z'
loop_
 _atom_site_type_symbol
 _atom_site_label
 _atom_site_symmetry_multiplicity
 _atom_site_fract_x
 _atom_site_fract_y
 _atom_site_fract_z
 _atom_site_occupancy
  Ca  Ca0  1  0.25000000  0.87562982  0.53355335  1
  Ca  Ca1  1  0.25000000  0.62437018  0.03355335  1
  Ca  Ca2  1  0.75000000  0.12437018  0.46644665  1
  Ca  Ca3  1  0.75000000  0.37562982  0.96644665  1
  Ca  Ca4  1  0.25000000  0.46000570  0.54218080  1
  Ca  Ca5  1  0.25000000  0.03999430  0.04218080  1
  Ca  Ca6  1  0.75000000  0.53999430  0.45781920  1
  Ca  Ca7  1  0.75000000  0.96000570  0.95781920  1
  Ca  Ca8  1  0.25000000  0.22598278  0.54814219  1
  Ca  Ca9  1  0.25000000  0.27401722  0.04814219  1
  Ca  Ca10  1  0.75000000  0.77401722  0.45185781  1
  Ca  Ca11  1  0.75000000  0.72598278  0.95185781  1
  Ca  Ca12  1  0.25000000  0.16239561  0.74058308  1
  Ca  Ca13  1  0.25000000  0.33760439  0.24058308  1
  Ca  Ca14  1  0.75000000  0.83760439  0.25941692  1
  Ca  Ca15  1  0.75000000  0.66239561  0.75941692  1
  Ca  Ca16  1  0.25000000  0.35391276  0.85030756  1
  Ca  Ca17  1  0.25000000  0.14608724  0.35030756  1
  Ca  Ca18  1  0.75000000  0.64608724  0.14969244  1
  Ca  Ca19  1  0.75000000  0.85391276  0.64969244  1
  Ca  Ca20  1  0.25000000  0.95953737  0.22636366  1
  Ca  Ca21  1  0.25000000  0.54046263  0.72636366  1
  Ca  Ca22  1  0.75000000  0.04046263  0.77363634  1
  Ca  Ca23  1  0.75000000  0.45953737  0.27363634  1
  Cd  Cd24  1  0.49947617  0.04378982  0.60965043  1
  Cd  Cd25  1  0.00052383  0.45621018  0.10965043  1
  Cd  Cd26  1  0.99947617  0.95621018  0.39034957  1
  Cd  Cd27  1  0.50052383  0.54378982  0.89034957  1
  Cd  Cd28  1  0.50052383  0.95621018  0.39034957  1
  Cd  Cd29  1  0.99947617  0.54378982  0.89034957  1
  Cd  Cd30  1  0.00052383  0.04378982  0.60965043  1
  Cd  Cd31  1  0.49947617  0.45621018  0.10965043  1
  Cd  Cd32  1  0.01530822  0.34914433  0.68076674  1
  Cd  Cd33  1  0.48469178  0.15085567  0.18076674  1
  Cd  Cd34  1  0.51530822  0.65085567  0.31923326  1
  Cd  Cd35  1  0.98469178  0.84914433  0.81923326  1
  Cd  Cd36  1  0.98469178  0.65085567  0.31923326  1
  Cd  Cd37  1  0.51530822  0.84914433  0.81923326  1
  Cd  Cd38  1  0.48469178  0.34914433  0.68076674  1
  Cd  Cd39  1  0.01530822  0.15085567  0.18076674  1
  Cd  Cd40  1  0.00425993  0.16347771  0.90931526  1
  Cd  Cd41  1  0.49574007  0.33652229  0.40931526  1
  Cd  Cd42  1  0.50425993  0.83652229  0.09068474  1
  Cd  Cd43  1  0.99574007  0.66347771  0.59068474  1
  Cd  Cd44  1  0.99574007  0.83652229  0.09068474  1
  Cd  Cd45  1  0.50425993  0.66347771  0.59068474  1
  Cd  Cd46  1  0.49574007  0.16347771  0.90931526  1
  Cd  Cd47  1  0.00425993  0.33652229  0.40931526  1
  Cd  Cd48  1  0.25000000  0.75654317  0.69981985  1
  Cd  Cd49  1  0.25000000  0.74345683  0.19981985  1
  Cd  Cd50  1  0.75000000  0.24345683  0.30018015  1
  Cd  Cd51  1  0.75000000  0.25654317  0.80018015  1
  Cd  Cd52  1  0.25000000  0.94700636  0.71419809  1
  Cd  Cd53  1  0.25000000  0.55299364  0.21419809  1
  Cd  Cd54  1  0.75000000  0.05299364  0.28580191  1
  Cd  Cd55  1  0.75000000  0.44700636  0.78580191  1
  Cd  Cd56  1  0.25000000  0.69633298  0.85238789  1
  Cd  Cd57  1  0.25000000  0.80366702  0.35238789  1
  Cd  Cd58  1  0.75000000  0.30366702  0.14761211  1
  Cd  Cd59  1  0.75000000  0.19633298  0.64761211  1
  Cd  Cd60  1  0.25000000  0.00481242  0.86624494  1
  Cd  Cd61  1  0.25000000  0.49518758  0.36624494  1
  Cd  Cd62  1  0.75000000  0.99518758  0.13375506  1
  Cd  Cd63  1  0.75000000  0.50481242  0.63375506  1
  Cd  Cd64  1  0.25000000  0.84466907  0.95758957  1
  Cd  Cd65  1  0.25000000  0.65533093  0.45758957  1
  Cd  Cd66  1  0.75000000  0.15533093  0.04241043  1
  Cd  Cd67  1  0.75000000  0.34466907  0.54241043  1
  Pt  Pt68  1  0.25000000  0.44017544  0.98405189  1
  Pt  Pt69  1  0.25000000  0.05982456  0.48405189  1
  Pt  Pt70  1  0.75000000  0.55982456  0.01594811  1
  Pt  Pt71  1  0.75000000  0.94017544  0.51594811  1
