# generated using pymatgen
data_Y(Ni2B)6
_symmetry_space_group_name_H-M   'P 1'
_cell_length_a   6.03406536
_cell_length_b   6.03406536
_cell_length_c   10.95468092
_cell_angle_alpha   90.00000000
_cell_angle_beta   90.00000000
_cell_angle_gamma   104.91370426
_symmetry_Int_Tables_number   1
_chemical_formula_structural   Y(Ni2B)6
_chemical_formula_sum   'Y2 Ni24 B12'
_cell_volume   385.42357178
_cell_formula_units_Z   2
loop_
 _symmetry_equiv_pos_site_id
 _symmetry_equiv_pos_as_xyz
  1  'x, y, z'
loop_
 _atom_site_type_symbol
 _atom_site_label
 _atom_site_symmetry_multiplicity
 _atom_site_fract_x
 _atom_site_fract_y
 _atom_site_fract_z
 _atom_site_occupancy
  Y  Y0  1  0.83535504  0.83535504  0.49667694  1
  Y  Y1  1  0.16464496  0.16464496  0.99667694  1
  Ni  Ni2  1  0.56422594  0.56422594  0.91967643  1
  Ni  Ni3  1  0.43577406  0.43577406  0.41967643  1
  Ni  Ni4  1  0.78238944  0.78238944  0.09924708  1
  Ni  Ni5  1  0.21761056  0.21761056  0.59924708  1
  Ni  Ni6  1  0.80488979  0.54407649  0.73358302  1
  Ni  Ni7  1  0.54407649  0.80488979  0.73358302  1
  Ni  Ni8  1  0.19511021  0.45592351  0.23358302  1
  Ni  Ni9  1  0.45592351  0.19511021  0.23358302  1
  Ni  Ni10  1  0.88215113  0.14541046  0.75545182  1
  Ni  Ni11  1  0.14541046  0.88215113  0.75545182  1
  Ni  Ni12  1  0.11784887  0.85458954  0.25545182  1
  Ni  Ni13  1  0.85458954  0.11784887  0.25545182  1
  Ni  Ni14  1  0.27009108  0.65976440  0.56815880  1
  Ni  Ni15  1  0.65976440  0.27009108  0.56815880  1
  Ni  Ni16  1  0.72990892  0.34023560  0.06815880  1
  Ni  Ni17  1  0.34023560  0.72990892  0.06815880  1
  Ni  Ni18  1  0.99586991  0.63043411  0.93696544  1
  Ni  Ni19  1  0.63043411  0.99586991  0.93696544  1
  Ni  Ni20  1  0.00413009  0.36956589  0.43696544  1
  Ni  Ni21  1  0.36956589  0.00413009  0.43696544  1
  Ni  Ni22  1  0.21280928  0.47354821  0.77634299  1
  Ni  Ni23  1  0.47354821  0.21280928  0.77634299  1
  Ni  Ni24  1  0.78719072  0.52645179  0.27634299  1
  Ni  Ni25  1  0.52645179  0.78719072  0.27634299  1
  B  B26  1  0.83607905  0.83607905  0.83865367  1
  B  B27  1  0.16392095  0.16392095  0.33865367  1
  B  B28  1  0.48897255  0.48897255  0.65225653  1
  B  B29  1  0.51102745  0.51102745  0.15225653  1
  B  B30  1  0.75701561  0.32626898  0.88492289  1
  B  B31  1  0.32626898  0.75701561  0.88492289  1
  B  B32  1  0.24298439  0.67373102  0.38492289  1
  B  B33  1  0.67373102  0.24298439  0.38492289  1
  B  B34  1  0.98905489  0.40184482  0.62281972  1
  B  B35  1  0.40184482  0.98905489  0.62281972  1
  B  B36  1  0.01094511  0.59815518  0.12281972  1
  B  B37  1  0.59815518  0.01094511  0.12281972  1
