# generated using pymatgen
data_Sr3B6O11F2
_symmetry_space_group_name_H-M   'P 1'
_cell_length_a   6.46537673
_cell_length_b   8.33399708
_cell_length_c   9.49281085
_cell_angle_alpha   90.00000000
_cell_angle_beta   101.72967896
_cell_angle_gamma   90.00000000
_symmetry_Int_Tables_number   1
_chemical_formula_structural   Sr3B6O11F2
_chemical_formula_sum   'Sr6 B12 O22 F4'
_cell_volume   500.81448426
_cell_formula_units_Z   2
loop_
 _symmetry_equiv_pos_site_id
 _symmetry_equiv_pos_as_xyz
  1  'x, y, z'
loop_
 _atom_site_type_symbol
 _atom_site_label
 _atom_site_symmetry_multiplicity
 _atom_site_fract_x
 _atom_site_fract_y
 _atom_site_fract_z
 _atom_site_occupancy
  Sr  Sr0  1  0.01882157  0.73972291  0.23665190  1
  Sr  Sr1  1  0.98117843  0.23972291  0.76334810  1
  Sr  Sr2  1  0.43899872  0.38590848  0.46826423  1
  Sr  Sr3  1  0.56100128  0.88590848  0.53173577  1
  Sr  Sr4  1  0.45445927  0.89763703  0.95043346  1
  Sr  Sr5  1  0.54554073  0.39763703  0.04956654  1
  B  B6  1  0.06886230  0.38111682  0.14303761  1
  B  B7  1  0.93113770  0.88111682  0.85696239  1
  B  B8  1  0.10199966  0.60350707  0.93577093  1
  B  B9  1  0.89800034  0.10350707  0.06422907  1
  B  B10  1  0.10466416  0.84058079  0.62712290  1
  B  B11  1  0.89533584  0.34058079  0.37287710  1
  B  B12  1  0.67259814  0.09856201  0.26594589  1
  B  B13  1  0.32740186  0.59856201  0.73405411  1
  B  B14  1  0.00751974  0.05747823  0.44404808  1
  B  B15  1  0.99248026  0.55747823  0.55595192  1
  B  B16  1  0.27073245  0.12285921  0.20933864  1
  B  B17  1  0.72926755  0.62285921  0.79066136  1
  O  O18  1  0.45347043  0.04092097  0.27056705  1
  O  O19  1  0.54652957  0.54092097  0.72943295  1
  O  O20  1  0.15854991  0.95260037  0.51533518  1
  O  O21  1  0.84145009  0.45260037  0.48466482  1
  O  O22  1  0.81728638  0.99552217  0.37210125  1
  O  O23  1  0.18271362  0.49552217  0.62789875  1
  O  O24  1  0.69528237  0.26776873  0.30646234  1
  O  O25  1  0.30471763  0.76776873  0.69353766  1
  O  O26  1  0.05212664  0.21845402  0.44929150  1
  O  O27  1  0.94787336  0.71845402  0.55070850  1
  O  O28  1  0.09005805  0.03578862  0.16451231  1
  O  O29  1  0.90994195  0.53578862  0.83548769  1
  O  O30  1  0.00814403  0.93493100  0.72610944  1
  O  O31  1  0.99185597  0.43493100  0.27389056  1
  O  O32  1  0.07884719  0.77955367  0.95630253  1
  O  O33  1  0.92115281  0.27955367  0.04369747  1
  O  O34  1  0.12957104  0.52813745  0.07805240  1
  O  O35  1  0.87042896  0.02813745  0.92194760  1
  O  O36  1  0.27289321  0.28767434  0.19730436  1
  O  O37  1  0.72710679  0.78767434  0.80269564  1
  O  O38  1  0.70707418  0.06887773  0.12156358  1
  O  O39  1  0.29292582  0.56887773  0.87843642  1
  F  F40  1  0.66171399  0.68216391  0.10350710  1
  F  F41  1  0.33828601  0.18216391  0.89649290  1
  F  F42  1  0.37659868  0.66706447  0.38787169  1
  F  F43  1  0.62340132  0.16706447  0.61212831  1
