# generated using pymatgen
data_Pr2ThS5
_symmetry_space_group_name_H-M   'P 1'
_cell_length_a   7.59800675
_cell_length_b   8.28493795
_cell_length_c   12.10070922
_cell_angle_alpha   90.00000000
_cell_angle_beta   90.00000000
_cell_angle_gamma   90.00000000
_symmetry_Int_Tables_number   1
_chemical_formula_structural   Pr2ThS5
_chemical_formula_sum   'Pr8 Th4 S20'
_cell_volume   761.72771976
_cell_formula_units_Z   4
loop_
 _symmetry_equiv_pos_site_id
 _symmetry_equiv_pos_as_xyz
  1  'x, y, z'
loop_
 _atom_site_type_symbol
 _atom_site_label
 _atom_site_symmetry_multiplicity
 _atom_site_fract_x
 _atom_site_fract_y
 _atom_site_fract_z
 _atom_site_occupancy
  Pr  Pr0  1  0.97844653  0.99997709  0.17774437  1
  Pr  Pr1  1  0.52155347  0.50002291  0.67774437  1
  Pr  Pr2  1  0.02155347  0.49997709  0.82225563  1
  Pr  Pr3  1  0.47844653  0.00002291  0.32225563  1
  Pr  Pr4  1  0.02155347  0.00002291  0.82225563  1
  Pr  Pr5  1  0.47844653  0.49997709  0.32225563  1
  Pr  Pr6  1  0.97844653  0.50002291  0.17774437  1
  Pr  Pr7  1  0.52155347  0.99997709  0.67774437  1
  Th  Th8  1  0.42530833  0.75000000  0.00985504  1
  Th  Th9  1  0.07469167  0.75000000  0.50985504  1
  Th  Th10  1  0.57469167  0.25000000  0.99014496  1
  Th  Th11  1  0.92530833  0.25000000  0.49014496  1
  S  S12  1  0.66347718  0.54254943  0.90172723  1
  S  S13  1  0.83652282  0.95745057  0.40172723  1
  S  S14  1  0.33652282  0.04254943  0.09827277  1
  S  S15  1  0.16347718  0.45745057  0.59827277  1
  S  S16  1  0.33652282  0.45745057  0.09827277  1
  S  S17  1  0.16347718  0.04254943  0.59827277  1
  S  S18  1  0.66347718  0.95745057  0.90172723  1
  S  S19  1  0.83652282  0.54254943  0.40172723  1
  S  S20  1  0.67216791  0.75000000  0.18711826  1
  S  S21  1  0.82783209  0.75000000  0.68711826  1
  S  S22  1  0.32783209  0.25000000  0.81288174  1
  S  S23  1  0.17216791  0.25000000  0.31288174  1
  S  S24  1  0.04140764  0.75000000  0.00100317  1
  S  S25  1  0.45859236  0.75000000  0.50100317  1
  S  S26  1  0.95859236  0.25000000  0.99899683  1
  S  S27  1  0.54140764  0.25000000  0.49899683  1
  S  S28  1  0.30181232  0.75000000  0.78388790  1
  S  S29  1  0.19818768  0.75000000  0.28388790  1
  S  S30  1  0.69818768  0.25000000  0.21611210  1
  S  S31  1  0.80181232  0.25000000  0.71611210  1
