# generated using pymatgen
data_Sr2B5HO10
_symmetry_space_group_name_H-M   'P 1'
_cell_length_a   6.55962236
_cell_length_b   8.52703930
_cell_length_c   14.37114456
_cell_angle_alpha   90.00000000
_cell_angle_beta   94.43461462
_cell_angle_gamma   90.00000000
_symmetry_Int_Tables_number   1
_chemical_formula_structural   Sr2B5HO10
_chemical_formula_sum   'Sr8 B20 H4 O40'
_cell_volume   801.43135239
_cell_formula_units_Z   4
loop_
 _symmetry_equiv_pos_site_id
 _symmetry_equiv_pos_as_xyz
  1  'x, y, z'
loop_
 _atom_site_type_symbol
 _atom_site_label
 _atom_site_symmetry_multiplicity
 _atom_site_fract_x
 _atom_site_fract_y
 _atom_site_fract_z
 _atom_site_occupancy
  Sr  Sr0  1  0.52128797  0.34189175  0.10947537  1
  Sr  Sr1  1  0.47871203  0.84189175  0.39052463  1
  Sr  Sr2  1  0.47871203  0.65810825  0.89052463  1
  Sr  Sr3  1  0.52128797  0.15810825  0.60947537  1
  Sr  Sr4  1  0.04635955  0.50005068  0.27241480  1
  Sr  Sr5  1  0.95364045  0.00005068  0.22758520  1
  Sr  Sr6  1  0.95364045  0.49994932  0.72758520  1
  Sr  Sr7  1  0.04635955  0.99994932  0.77241480  1
  B  B8  1  0.80417280  0.22553794  0.39313721  1
  B  B9  1  0.19582720  0.72553794  0.10686279  1
  B  B10  1  0.19582720  0.77446206  0.60686279  1
  B  B11  1  0.80417280  0.27446206  0.89313721  1
  B  B12  1  0.53503773  0.65968537  0.18514433  1
  B  B13  1  0.46496227  0.15968537  0.31485567  1
  B  B14  1  0.46496227  0.34031463  0.81485567  1
  B  B15  1  0.53503773  0.84031463  0.68514433  1
  B  B16  1  0.18335781  0.31676678  0.93314498  1
  B  B17  1  0.81664219  0.81676678  0.56685502  1
  B  B18  1  0.81664219  0.68323322  0.06685502  1
  B  B19  1  0.18335781  0.18323322  0.43314498  1
  B  B20  1  0.95899416  0.20333147  0.56150325  1
  B  B21  1  0.04100584  0.70333147  0.93849675  1
  B  B22  1  0.04100584  0.79666853  0.43849675  1
  B  B23  1  0.95899416  0.29666853  0.06150325  1
  B  B24  1  0.57285643  0.44564772  0.32032447  1
  B  B25  1  0.42714357  0.94564772  0.17967553  1
  B  B26  1  0.42714357  0.55435228  0.67967553  1
  B  B27  1  0.57285643  0.05435228  0.82032447  1
  H  H28  1  0.59135412  0.99097371  0.06389909  1
  H  H29  1  0.40864588  0.49097371  0.43610091  1
  H  H30  1  0.40864588  0.00902629  0.93610091  1
  H  H31  1  0.59135412  0.50902629  0.56389909  1
  O  O32  1  0.31934717  0.61419721  0.16491854  1
  O  O33  1  0.68065283  0.11419721  0.33508146  1
  O  O34  1  0.68065283  0.38580279  0.83508146  1
  O  O35  1  0.31934717  0.88580279  0.66491854  1
  O  O36  1  0.56120618  0.04672178  0.12031679  1
  O  O37  1  0.43879382  0.54672178  0.37968321  1
  O  O38  1  0.43879382  0.95327822  0.87968321  1
  O  O39  1  0.56120618  0.45327822  0.62031679  1
  O  O40  1  0.75446459  0.38888636  0.37478753  1
  O  O41  1  0.24553541  0.88888636  0.12521247  1
  O  O42  1  0.24553541  0.61111364  0.62521247  1
  O  O43  1  0.75446459  0.11111364  0.87478753  1
  O  O44  1  0.64461561  0.54533124  0.24545332  1
  O  O45  1  0.35538439  0.04533124  0.25454668  1
  O  O46  1  0.35538439  0.45466876  0.75454668  1
  O  O47  1  0.64461561  0.95466876  0.74545332  1
  O  O48  1  0.37664598  0.35335747  0.91272612  1
  O  O49  1  0.62335402  0.85335747  0.58727388  1
  O  O50  1  0.62335402  0.64664253  0.08727388  1
  O  O51  1  0.37664598  0.14664253  0.41272612  1
  O  O52  1  0.56016789  0.81845497  0.22108176  1
  O  O53  1  0.43983211  0.31845497  0.27891824  1
  O  O54  1  0.43983211  0.18154503  0.77891824  1
  O  O55  1  0.56016789  0.68154503  0.72108176  1
  O  O56  1  0.02368005  0.20065206  0.36713887  1
  O  O57  1  0.97631995  0.70065206  0.13286113  1
  O  O58  1  0.97631995  0.79934794  0.63286113  1
  O  O59  1  0.02368005  0.29934794  0.86713887  1
  O  O60  1  0.93092277  0.28860530  0.15294717  1
  O  O61  1  0.06907723  0.78860530  0.34705283  1
  O  O62  1  0.06907723  0.71139470  0.84705283  1
  O  O63  1  0.93092277  0.21139470  0.65294717  1
  O  O64  1  0.79631731  0.18853707  0.49475037  1
  O  O65  1  0.20368269  0.68853707  0.00524963  1
  O  O66  1  0.20368269  0.81146293  0.50524963  1
  O  O67  1  0.79631731  0.31146293  0.99475037  1
  O  O68  1  0.15823787  0.29561383  0.02849932  1
  O  O69  1  0.84176213  0.79561383  0.47150068  1
  O  O70  1  0.84176213  0.70438617  0.97150068  1
  O  O71  1  0.15823787  0.20438617  0.52849932  1
