# generated using pymatgen
data_ScGe2Os
_symmetry_space_group_name_H-M   'P 1'
_cell_length_a   8.20399870
_cell_length_b   9.38073920
_cell_length_c   10.41531775
_cell_angle_alpha   90.00000000
_cell_angle_beta   90.00000000
_cell_angle_gamma   90.00000000
_symmetry_Int_Tables_number   1
_chemical_formula_structural   ScGe2Os
_chemical_formula_sum   'Sc12 Ge24 Os12'
_cell_volume   801.55839839
_cell_formula_units_Z   12
loop_
 _symmetry_equiv_pos_site_id
 _symmetry_equiv_pos_as_xyz
  1  'x, y, z'
loop_
 _atom_site_type_symbol
 _atom_site_label
 _atom_site_symmetry_multiplicity
 _atom_site_fract_x
 _atom_site_fract_y
 _atom_site_fract_z
 _atom_site_occupancy
  Sc  Sc0  1  0.24082449  0.82351039  0.44917364  1
  Sc  Sc1  1  0.24082449  0.17648961  0.55082636  1
  Sc  Sc2  1  0.75917551  0.32351039  0.05082636  1
  Sc  Sc3  1  0.75917551  0.67648961  0.94917364  1
  Sc  Sc4  1  0.75917551  0.17648961  0.55082636  1
  Sc  Sc5  1  0.75917551  0.82351039  0.44917364  1
  Sc  Sc6  1  0.24082449  0.67648961  0.94917364  1
  Sc  Sc7  1  0.24082449  0.32351039  0.05082636  1
  Sc  Sc8  1  -0.00000000  0.83507599  0.17771007  1
  Sc  Sc9  1  -0.00000000  0.16492401  0.82228993  1
  Sc  Sc10  1  -0.00000000  0.33507599  0.32228993  1
  Sc  Sc11  1  -0.00000000  0.66492401  0.67771007  1
  Ge  Ge12  1  0.34643888  0.84069187  0.18067407  1
  Ge  Ge13  1  0.34643888  0.15930813  0.81932593  1
  Ge  Ge14  1  0.65356112  0.34069187  0.31932593  1
  Ge  Ge15  1  0.65356112  0.65930813  0.68067407  1
  Ge  Ge16  1  0.65356112  0.15930813  0.81932593  1
  Ge  Ge17  1  0.65356112  0.84069187  0.18067407  1
  Ge  Ge18  1  0.34643888  0.65930813  0.68067407  1
  Ge  Ge19  1  0.34643888  0.34069187  0.31932593  1
  Ge  Ge20  1  0.50000000  0.54127005  0.11533972  1
  Ge  Ge21  1  0.50000000  0.45872995  0.88466028  1
  Ge  Ge22  1  0.50000000  0.04127005  0.38466028  1
  Ge  Ge23  1  0.50000000  0.95872995  0.61533972  1
  Ge  Ge24  1  -0.00000000  0.53601033  0.11734586  1
  Ge  Ge25  1  -0.00000000  0.46398967  0.88265414  1
  Ge  Ge26  1  -0.00000000  0.03601033  0.38265414  1
  Ge  Ge27  1  -0.00000000  0.96398967  0.61734586  1
  Ge  Ge28  1  0.50000000  0.63605240  0.40371392  1
  Ge  Ge29  1  0.50000000  0.36394760  0.59628608  1
  Ge  Ge30  1  0.50000000  0.13605240  0.09628608  1
  Ge  Ge31  1  0.50000000  0.86394760  0.90371392  1
  Ge  Ge32  1  -0.00000000  0.63368006  0.39869889  1
  Ge  Ge33  1  -0.00000000  0.36631994  0.60130111  1
  Ge  Ge34  1  -0.00000000  0.13368006  0.10130111  1
  Ge  Ge35  1  -0.00000000  0.86631994  0.89869889  1
  Os  Os36  1  0.24931278  0.59049075  0.23775355  1
  Os  Os37  1  0.24931278  0.40950925  0.76224645  1
  Os  Os38  1  0.75068722  0.09049075  0.26224645  1
  Os  Os39  1  0.75068722  0.90950925  0.73775355  1
  Os  Os40  1  0.75068722  0.40950925  0.76224645  1
  Os  Os41  1  0.75068722  0.59049075  0.23775355  1
  Os  Os42  1  0.24931278  0.90950925  0.73775355  1
  Os  Os43  1  0.24931278  0.09049075  0.26224645  1
  Os  Os44  1  0.24787943  0.50000000  0.50000000  1
  Os  Os45  1  0.75212057  0.00000000  -0.00000000  1
  Os  Os46  1  0.75212057  0.50000000  0.50000000  1
  Os  Os47  1  0.24787943  0.00000000  0.00000000  1
