# generated using pymatgen
data_Pr(Al4Fe)2
_symmetry_space_group_name_H-M   'P 1'
_cell_length_a   4.03002338
_cell_length_b   12.56940547
_cell_length_c   14.35567167
_cell_angle_alpha   90.00000000
_cell_angle_beta   90.00000000
_cell_angle_gamma   90.00000000
_symmetry_Int_Tables_number   1
_chemical_formula_structural   Pr(Al4Fe)2
_chemical_formula_sum   'Pr4 Al32 Fe8'
_cell_volume   727.18651854
_cell_formula_units_Z   4
loop_
 _symmetry_equiv_pos_site_id
 _symmetry_equiv_pos_as_xyz
  1  'x, y, z'
loop_
 _atom_site_type_symbol
 _atom_site_label
 _atom_site_symmetry_multiplicity
 _atom_site_fract_x
 _atom_site_fract_y
 _atom_site_fract_z
 _atom_site_occupancy
  Pr  Pr0  1  -0.00000000  0.83869811  0.18126879  1
  Pr  Pr1  1  0.00000000  0.16130189  0.81873121  1
  Pr  Pr2  1  -0.00000000  0.33869811  0.31873121  1
  Pr  Pr3  1  0.00000000  0.66130189  0.68126879  1
  Al  Al4  1  0.00000000  0.50000000  0.50000000  1
  Al  Al5  1  0.00000000  0.00000000  -0.00000000  1
  Al  Al6  1  0.50000000  0.50000000  -0.00000000  1
  Al  Al7  1  0.50000000  0.00000000  0.50000000  1
  Al  Al8  1  0.50000000  0.73422571  0.33039031  1
  Al  Al9  1  0.50000000  0.26577429  0.66960969  1
  Al  Al10  1  0.50000000  0.23422571  0.16960969  1
  Al  Al11  1  0.50000000  0.76577429  0.83039031  1
  Al  Al12  1  0.50000000  0.95111934  0.32252351  1
  Al  Al13  1  0.50000000  0.04888066  0.67747649  1
  Al  Al14  1  0.50000000  0.45111934  0.17747649  1
  Al  Al15  1  0.50000000  0.54888066  0.82252351  1
  Al  Al16  1  0.50000000  0.65756362  0.12164732  1
  Al  Al17  1  0.50000000  0.34243638  0.87835268  1
  Al  Al18  1  0.50000000  0.15756362  0.37835268  1
  Al  Al19  1  0.50000000  0.84243638  0.62164732  1
  Al  Al20  1  0.00000000  0.83406162  0.45647510  1
  Al  Al21  1  0.00000000  0.16593838  0.54352490  1
  Al  Al22  1  0.00000000  0.33406162  0.04352490  1
  Al  Al23  1  -0.00000000  0.66593838  0.95647510  1
  Al  Al24  1  0.00000000  0.59219973  0.24651233  1
  Al  Al25  1  0.00000000  0.40780027  0.75348767  1
  Al  Al26  1  0.00000000  0.09219973  0.25348767  1
  Al  Al27  1  -0.00000000  0.90780027  0.74651233  1
  Al  Al28  1  0.50000000  0.83229601  0.00801093  1
  Al  Al29  1  0.50000000  0.16770399  0.99198907  1
  Al  Al30  1  0.50000000  0.33229601  0.49198907  1
  Al  Al31  1  0.50000000  0.66770399  0.50801093  1
  Al  Al32  1  0.50000000  0.52752989  0.36794452  1
  Al  Al33  1  0.50000000  0.47247011  0.63205548  1
  Al  Al34  1  0.50000000  0.02752989  0.13205548  1
  Al  Al35  1  0.50000000  0.97247011  0.86794452  1
  Fe  Fe36  1  -0.00000000  0.64946017  0.40250344  1
  Fe  Fe37  1  -0.00000000  0.35053983  0.59749656  1
  Fe  Fe38  1  -0.00000000  0.14946017  0.09749656  1
  Fe  Fe39  1  0.00000000  0.85053983  0.90250344  1
  Fe  Fe40  1  -0.00000000  0.53320940  0.08990100  1
  Fe  Fe41  1  0.00000000  0.46679060  0.91009900  1
  Fe  Fe42  1  0.00000000  0.03320940  0.41009900  1
  Fe  Fe43  1  -0.00000000  0.96679060  0.58990100  1
