# generated using pymatgen
data_Cs2Re(ClO)3
_symmetry_space_group_name_H-M   'P 1'
_cell_length_a   7.18980983
_cell_length_b   10.81605836
_cell_length_c   12.86761118
_cell_angle_alpha   90.00000000
_cell_angle_beta   90.00000000
_cell_angle_gamma   90.00000000
_symmetry_Int_Tables_number   1
_chemical_formula_structural   Cs2Re(ClO)3
_chemical_formula_sum   'Cs8 Re4 Cl12 O12'
_cell_volume   1000.65496544
_cell_formula_units_Z   4
loop_
 _symmetry_equiv_pos_site_id
 _symmetry_equiv_pos_as_xyz
  1  'x, y, z'
loop_
 _atom_site_type_symbol
 _atom_site_label
 _atom_site_symmetry_multiplicity
 _atom_site_fract_x
 _atom_site_fract_y
 _atom_site_fract_z
 _atom_site_occupancy
  Cs  Cs0  1  0.25000000  0.65537979  0.08906065  1
  Cs  Cs1  1  0.25000000  0.15537979  0.41093935  1
  Cs  Cs2  1  0.75000000  0.34462021  0.91093935  1
  Cs  Cs3  1  0.75000000  0.84462021  0.58906065  1
  Cs  Cs4  1  0.25000000  0.96676250  0.81811074  1
  Cs  Cs5  1  0.25000000  0.46676250  0.68188926  1
  Cs  Cs6  1  0.75000000  0.03323750  0.18188926  1
  Cs  Cs7  1  0.75000000  0.53323750  0.31811074  1
  Re  Re8  1  0.25000000  0.68768543  0.43320791  1
  Re  Re9  1  0.25000000  0.18768543  0.06679209  1
  Re  Re10  1  0.75000000  0.31231457  0.56679209  1
  Re  Re11  1  0.75000000  0.81231457  0.93320791  1
  Cl  Cl12  1  0.25000000  0.87681062  0.55411606  1
  Cl  Cl13  1  0.25000000  0.37681062  0.94588394  1
  Cl  Cl14  1  0.75000000  0.12318938  0.44588394  1
  Cl  Cl15  1  0.75000000  0.62318938  0.05411606  1
  Cl  Cl16  1  0.02040182  0.82102631  0.33279099  1
  Cl  Cl17  1  0.47959818  0.32102631  0.16720901  1
  Cl  Cl18  1  0.52040182  0.17897369  0.66720901  1
  Cl  Cl19  1  0.97959818  0.67897369  0.83279099  1
  Cl  Cl20  1  0.97959818  0.17897369  0.66720901  1
  Cl  Cl21  1  0.52040182  0.67897369  0.83279099  1
  Cl  Cl22  1  0.47959818  0.82102631  0.33279099  1
  Cl  Cl23  1  0.02040182  0.32102631  0.16720901  1
  O  O24  1  0.25000000  0.58745340  0.32690650  1
  O  O25  1  0.25000000  0.08745340  0.17309350  1
  O  O26  1  0.75000000  0.41254660  0.67309350  1
  O  O27  1  0.75000000  0.91254660  0.82690650  1
  O  O28  1  0.06022082  0.63529234  0.50626437  1
  O  O29  1  0.43977918  0.13529234  0.99373563  1
  O  O30  1  0.56022082  0.36470766  0.49373563  1
  O  O31  1  0.93977918  0.86470766  0.00626437  1
  O  O32  1  0.93977918  0.36470766  0.49373563  1
  O  O33  1  0.56022082  0.86470766  0.00626437  1
  O  O34  1  0.43977918  0.63529234  0.50626437  1
  O  O35  1  0.06022082  0.13529234  0.99373563  1
