# generated using pymatgen
data_TbCo3P2
_symmetry_space_group_name_H-M   'P 1'
_cell_length_a   3.70107658
_cell_length_b   10.54028798
_cell_length_c   12.20555049
_cell_angle_alpha   90.00000000
_cell_angle_beta   90.00000000
_cell_angle_gamma   90.00000000
_symmetry_Int_Tables_number   1
_chemical_formula_structural   TbCo3P2
_chemical_formula_sum   'Tb6 Co18 P12'
_cell_volume   476.14356538
_cell_formula_units_Z   6
loop_
 _symmetry_equiv_pos_site_id
 _symmetry_equiv_pos_as_xyz
  1  'x, y, z'
loop_
 _atom_site_type_symbol
 _atom_site_label
 _atom_site_symmetry_multiplicity
 _atom_site_fract_x
 _atom_site_fract_y
 _atom_site_fract_z
 _atom_site_occupancy
  Tb  Tb0  1  0.75000000  0.25000000  0.47730530  1
  Tb  Tb1  1  0.25000000  0.75000000  0.52269470  1
  Tb  Tb2  1  0.25000000  0.93332985  0.79425015  1
  Tb  Tb3  1  0.25000000  0.56667015  0.79425015  1
  Tb  Tb4  1  0.75000000  0.06667015  0.20574985  1
  Tb  Tb5  1  0.75000000  0.43332985  0.20574985  1
  Co  Co6  1  0.25000000  0.25000000  0.84098143  1
  Co  Co7  1  0.75000000  0.75000000  0.15901857  1
  Co  Co8  1  0.25000000  0.25000000  0.29650067  1
  Co  Co9  1  0.75000000  0.75000000  0.70349933  1
  Co  Co10  1  0.75000000  0.25000000  0.01418317  1
  Co  Co11  1  0.25000000  0.75000000  0.98581683  1
  Co  Co12  1  0.25000000  0.41681652  0.00535870  1
  Co  Co13  1  0.25000000  0.08318348  0.00535870  1
  Co  Co14  1  0.75000000  0.58318348  0.99464130  1
  Co  Co15  1  0.75000000  0.91681652  0.99464130  1
  Co  Co16  1  0.25000000  0.45299657  0.56923432  1
  Co  Co17  1  0.25000000  0.04700343  0.56923432  1
  Co  Co18  1  0.75000000  0.54700343  0.43076568  1
  Co  Co19  1  0.75000000  0.95299657  0.43076568  1
  Co  Co20  1  0.25000000  0.87022439  0.29064426  1
  Co  Co21  1  0.25000000  0.62977561  0.29064426  1
  Co  Co22  1  0.75000000  0.12977561  0.70935574  1
  Co  Co23  1  0.75000000  0.37022439  0.70935574  1
  P  P24  1  0.25000000  0.25000000  0.11712555  1
  P  P25  1  0.75000000  0.75000000  0.88287445  1
  P  P26  1  0.25000000  0.25000000  0.65625810  1
  P  P27  1  0.75000000  0.75000000  0.34374190  1
  P  P28  1  0.25000000  0.43986944  0.38383451  1
  P  P29  1  0.25000000  0.06013056  0.38383451  1
  P  P30  1  0.75000000  0.56013056  0.61616549  1
  P  P31  1  0.75000000  0.93986944  0.61616549  1
  P  P32  1  0.25000000  0.90189162  0.10677755  1
  P  P33  1  0.25000000  0.59810838  0.10677755  1
  P  P34  1  0.75000000  0.09810838  0.89322245  1
  P  P35  1  0.75000000  0.40189162  0.89322245  1
