# generated using pymatgen
data_KV2SeO7
_symmetry_space_group_name_H-M   'P 1'
_cell_length_a   5.52736572
_cell_length_b   7.15805997
_cell_length_c   18.57842360
_cell_angle_alpha   90.00000000
_cell_angle_beta   90.00000000
_cell_angle_gamma   90.00000000
_symmetry_Int_Tables_number   1
_chemical_formula_structural   KV2SeO7
_chemical_formula_sum   'K4 V8 Se4 O28'
_cell_volume   735.05932967
_cell_formula_units_Z   4
loop_
 _symmetry_equiv_pos_site_id
 _symmetry_equiv_pos_as_xyz
  1  'x, y, z'
loop_
 _atom_site_type_symbol
 _atom_site_label
 _atom_site_symmetry_multiplicity
 _atom_site_fract_x
 _atom_site_fract_y
 _atom_site_fract_z
 _atom_site_occupancy
  K  K0  1  0.25000000  0.23950435  0.96421160  1
  K  K1  1  0.25000000  0.26049565  0.46421160  1
  K  K2  1  0.75000000  0.76049565  0.03578840  1
  K  K3  1  0.75000000  0.73950435  0.53578840  1
  V  V4  1  0.25000000  0.72168734  0.88019200  1
  V  V5  1  0.25000000  0.77831266  0.38019200  1
  V  V6  1  0.75000000  0.27831266  0.11980800  1
  V  V7  1  0.75000000  0.22168734  0.61980800  1
  V  V8  1  0.25000000  0.93294877  0.68694867  1
  V  V9  1  0.25000000  0.56705123  0.18694867  1
  V  V10  1  0.75000000  0.06705123  0.31305133  1
  V  V11  1  0.75000000  0.43294877  0.81305133  1
  Se  Se12  1  0.25000000  0.47218913  0.65001107  1
  Se  Se13  1  0.25000000  0.02781087  0.15001107  1
  Se  Se14  1  0.75000000  0.52781087  0.34998893  1
  Se  Se15  1  0.75000000  0.97218913  0.84998893  1
  O  O16  1  0.25000000  0.87145500  0.77471482  1
  O  O17  1  0.25000000  0.62854500  0.27471482  1
  O  O18  1  0.75000000  0.12854500  0.22528518  1
  O  O19  1  0.75000000  0.37145500  0.72528518  1
  O  O20  1  0.99684744  0.05952708  0.66531175  1
  O  O21  1  0.50315256  0.44047292  0.16531175  1
  O  O22  1  0.49684744  0.94047292  0.33468825  1
  O  O23  1  0.00315256  0.55952708  0.83468825  1
  O  O24  1  0.00315256  0.94047292  0.33468825  1
  O  O25  1  0.49684744  0.55952708  0.83468825  1
  O  O26  1  0.50315256  0.05952708  0.66531175  1
  O  O27  1  0.99684744  0.44047292  0.16531175  1
  O  O28  1  0.25000000  0.71672065  0.63119271  1
  O  O29  1  0.25000000  0.78327935  0.13119271  1
  O  O30  1  0.75000000  0.28327935  0.36880729  1
  O  O31  1  0.75000000  0.21672065  0.86880729  1
  O  O32  1  0.01097634  0.42003069  0.59488926  1
  O  O33  1  0.48902366  0.07996931  0.09488926  1
  O  O34  1  0.51097634  0.57996931  0.40511074  1
  O  O35  1  0.98902366  0.92003069  0.90511074  1
  O  O36  1  0.98902366  0.57996931  0.40511074  1
  O  O37  1  0.51097634  0.92003069  0.90511074  1
  O  O38  1  0.48902366  0.42003069  0.59488926  1
  O  O39  1  0.01097634  0.07996931  0.09488926  1
  O  O40  1  0.25000000  0.63013302  0.96214719  1
  O  O41  1  0.25000000  0.86986698  0.46214719  1
  O  O42  1  0.75000000  0.36986698  0.03785281  1
  O  O43  1  0.75000000  0.13013302  0.53785281  1
