# generated using pymatgen
data_La15Cd2Rh5
_symmetry_space_group_name_H-M   'P 1'
_cell_length_a   10.18908251
_cell_length_b   10.18908251
_cell_length_c   15.96205608
_cell_angle_alpha   71.38751975
_cell_angle_beta   71.38751975
_cell_angle_gamma   59.99999927
_symmetry_Int_Tables_number   1
_chemical_formula_structural   La15Cd2Rh5
_chemical_formula_sum   'La30 Cd4 Rh10'
_cell_volume   1334.10843776
_cell_formula_units_Z   2
loop_
 _symmetry_equiv_pos_site_id
 _symmetry_equiv_pos_as_xyz
  1  'x, y, z'
loop_
 _atom_site_type_symbol
 _atom_site_label
 _atom_site_symmetry_multiplicity
 _atom_site_fract_x
 _atom_site_fract_y
 _atom_site_fract_z
 _atom_site_occupancy
  La  La0  1  0.05824167  0.68016173  0.58143487  1
  La  La1  1  0.68016173  0.68016173  0.58143487  1
  La  La2  1  0.68016173  0.05824167  0.58143487  1
  La  La3  1  0.22079413  0.82655197  0.12610193  1
  La  La4  1  0.82655197  0.82655197  0.12610193  1
  La  La5  1  0.82655197  0.22079413  0.12610193  1
  La  La6  1  0.29359461  0.67597187  0.35446166  1
  La  La7  1  0.67597187  0.67597187  0.35446166  1
  La  La8  1  0.67597187  0.29359461  0.35446166  1
  La  La9  1  0.15112725  0.52288379  0.80310517  1
  La  La10  1  0.52288379  0.52288379  0.80310517  1
  La  La11  1  0.52288379  0.15112725  0.80310517  1
  La  La12  1  0.57969155  0.20220928  0.01588989  1
  La  La13  1  0.20220928  0.20220928  0.01588989  1
  La  La14  1  0.20220928  0.57969155  0.01588989  1
  La  La15  1  0.00484507  0.38347328  0.22820838  1
  La  La16  1  0.38347328  0.38347328  0.22820838  1
  La  La17  1  0.38347328  0.00484507  0.22820838  1
  La  La18  1  0.86557568  0.24074299  0.65293833  1
  La  La19  1  0.24074299  0.24074299  0.65293833  1
  La  La20  1  0.24074299  0.86557568  0.65293833  1
  La  La21  1  0.29447368  0.91741989  0.87068654  1
  La  La22  1  0.91741989  0.91741989  0.87068654  1
  La  La23  1  0.91741989  0.29447368  0.87068654  1
  La  La24  1  0.44039118  0.05986999  0.43986883  1
  La  La25  1  0.05986999  0.05986999  0.43986883  1
  La  La26  1  0.05986999  0.44039118  0.43986883  1
  La  La27  1  0.88805411  0.88805411  0.33583767  1
  La  La28  1  0.73457076  0.73457076  0.79628772  1
  La  La29  1  0.47843488  0.47843488  0.56469536  1
  Cd  Cd30  1  0.87714426  0.55981290  0.00322993  1
  Cd  Cd31  1  0.55981290  0.55981290  0.00322993  1
  Cd  Cd32  1  0.55981290  0.87714426  0.00322993  1
  Cd  Cd33  1  0.60762676  0.60762676  0.17711973  1
  Rh  Rh34  1  0.80351909  0.36805889  0.46036313  1
  Rh  Rh35  1  0.36805889  0.36805889  0.46036313  1
  Rh  Rh36  1  0.36805889  0.80351909  0.46036313  1
  Rh  Rh37  1  0.62763177  0.06879976  0.23476872  1
  Rh  Rh38  1  0.06879976  0.06879976  0.23476872  1
  Rh  Rh39  1  0.06879976  0.62763177  0.23476872  1
  Rh  Rh40  1  0.48254990  0.91148925  0.69447160  1
  Rh  Rh41  1  0.91148925  0.91148925  0.69447160  1
  Rh  Rh42  1  0.91148925  0.48254990  0.69447160  1
  Rh  Rh43  1  0.00045248  0.00045248  0.99864255  1
