# generated using pymatgen
data_AsH9(NO2)2
_symmetry_space_group_name_H-M   'P 1'
_cell_length_a   6.82664997
_cell_length_b   8.48048200
_cell_length_c   11.08476127
_cell_angle_alpha   109.44343351
_cell_angle_beta   90.00000000
_cell_angle_gamma   90.00000000
_symmetry_Int_Tables_number   1
_chemical_formula_structural   AsH9(NO2)2
_chemical_formula_sum   'As4 H36 N8 O16'
_cell_volume   605.13554540
_cell_formula_units_Z   4
loop_
 _symmetry_equiv_pos_site_id
 _symmetry_equiv_pos_as_xyz
  1  'x, y, z'
loop_
 _atom_site_type_symbol
 _atom_site_label
 _atom_site_symmetry_multiplicity
 _atom_site_fract_x
 _atom_site_fract_y
 _atom_site_fract_z
 _atom_site_occupancy
  As  As0  1  0.38992207  0.31838714  0.25154679  1
  As  As1  1  0.88992207  0.18161286  0.74845321  1
  As  As2  1  0.61007793  0.68161286  0.74845321  1
  As  As3  1  0.11007793  0.81838714  0.25154679  1
  H  H4  1  0.63880007  0.71496697  0.50346382  1
  H  H5  1  0.13880007  0.78503303  0.49653618  1
  H  H6  1  0.36119993  0.28503303  0.49653618  1
  H  H7  1  0.86119993  0.21496697  0.50346382  1
  H  H8  1  0.48943525  0.80916280  0.42057086  1
  H  H9  1  0.98943525  0.69083720  0.57942914  1
  H  H10  1  0.51056475  0.19083720  0.57942914  1
  H  H11  1  0.01056475  0.30916280  0.42057086  1
  H  H12  1  0.73079954  0.76328099  0.37635525  1
  H  H13  1  0.23079954  0.73671901  0.62364475  1
  H  H14  1  0.26920046  0.23671901  0.62364475  1
  H  H15  1  0.76920046  0.26328099  0.37635525  1
  H  H16  1  0.67664297  0.91608059  0.51727435  1
  H  H17  1  0.17664297  0.58391941  0.48272565  1
  H  H18  1  0.32335703  0.08391941  0.48272565  1
  H  H19  1  0.82335703  0.41608059  0.51727435  1
  H  H20  1  0.01849275  0.30460406  0.12365165  1
  H  H21  1  0.51849275  0.19539594  0.87634835  1
  H  H22  1  0.98150725  0.69539594  0.87634835  1
  H  H23  1  0.48150725  0.80460406  0.12365165  1
  H  H24  1  0.88611440  0.48764843  0.17099282  1
  H  H25  1  0.38611440  0.01235157  0.82900718  1
  H  H26  1  0.11388560  0.51235157  0.82900718  1
  H  H27  1  0.61388560  0.98764843  0.17099282  1
  H  H28  1  0.83236556  0.33603432  0.02815110  1
  H  H29  1  0.33236556  0.16396568  0.97184890  1
  H  H30  1  0.16763444  0.66396568  0.97184890  1
  H  H31  1  0.66763444  0.83603432  0.02815110  1
  H  H32  1  0.77891336  0.30586060  0.16908168  1
  H  H33  1  0.27891336  0.19413940  0.83091832  1
  H  H34  1  0.22108664  0.69413940  0.83091832  1
  H  H35  1  0.72108664  0.80586060  0.16908168  1
  H  H36  1  0.38041187  0.55753144  0.18216633  1
  H  H37  1  0.88041187  0.94246856  0.81783367  1
  H  H38  1  0.61958813  0.44246856  0.81783367  1
  H  H39  1  0.11958813  0.05753144  0.18216633  1
  N  N40  1  0.63012345  0.80031005  0.45329687  1
  N  N41  1  0.13012345  0.69968995  0.54670313  1
  N  N42  1  0.36987655  0.19968995  0.54670313  1
  N  N43  1  0.86987655  0.30031005  0.45329687  1
  N  N44  1  0.87980014  0.35851847  0.12270660  1
  N  N45  1  0.37980014  0.14148153  0.87729340  1
  N  N46  1  0.12019986  0.64148153  0.87729340  1
  N  N47  1  0.62019986  0.85851847  0.12270660  1
  O  O48  1  0.47986537  0.49480052  0.21621991  1
  O  O49  1  0.97986537  0.00519948  0.78378009  1
  O  O50  1  0.52013463  0.50519948  0.78378009  1
  O  O51  1  0.02013463  0.99480052  0.21621991  1
  O  O52  1  0.60071801  0.21201004  0.25591617  1
  O  O53  1  0.10071801  0.28798996  0.74408383  1
  O  O54  1  0.39928199  0.78798996  0.74408383  1
  O  O55  1  0.89928199  0.71201004  0.25591617  1
  O  O56  1  0.26778788  0.38498342  0.39495077  1
  O  O57  1  0.76778788  0.11501658  0.60504923  1
  O  O58  1  0.73221212  0.61501658  0.60504923  1
  O  O59  1  0.23221212  0.88498342  0.39495077  1
  O  O60  1  0.23998721  0.20174760  0.13004946  1
  O  O61  1  0.73998721  0.29825240  0.86995054  1
  O  O62  1  0.76001279  0.79825240  0.86995054  1
  O  O63  1  0.26001279  0.70174760  0.13004946  1
