# generated using pymatgen
data_KMnGa2P3(H2O7)2
_symmetry_space_group_name_H-M   'P 1'
_cell_length_a   8.56878990
_cell_length_b   8.56878990
_cell_length_c   8.98610754
_cell_angle_alpha   75.48925785
_cell_angle_beta   75.48925785
_cell_angle_gamma   73.19981251
_symmetry_Int_Tables_number   1
_chemical_formula_structural   KMnGa2P3(H2O7)2
_chemical_formula_sum   'K2 Mn2 Ga4 P6 H8 O28'
_cell_volume   600.08510487
_cell_formula_units_Z   2
loop_
 _symmetry_equiv_pos_site_id
 _symmetry_equiv_pos_as_xyz
  1  'x, y, z'
loop_
 _atom_site_type_symbol
 _atom_site_label
 _atom_site_symmetry_multiplicity
 _atom_site_fract_x
 _atom_site_fract_y
 _atom_site_fract_z
 _atom_site_occupancy
  K  K0  1  0.13901597  0.86098403  0.25000000  1
  K  K1  1  0.86098403  0.13901597  0.75000000  1
  Mn  Mn2  1  0.78140963  0.21859037  0.25000000  1
  Mn  Mn3  1  0.21859037  0.78140963  0.75000000  1
  Ga  Ga4  1  0.74462464  0.59642573  0.43185989  1
  Ga  Ga5  1  0.40357427  0.25537536  0.06814011  1
  Ga  Ga6  1  0.25537536  0.40357427  0.56814011  1
  Ga  Ga7  1  0.59642573  0.74462464  0.93185989  1
  P  P8  1  0.49624146  0.50375854  0.25000000  1
  P  P9  1  0.50375854  0.49624146  0.75000000  1
  P  P10  1  0.91551111  0.66377474  0.67924157  1
  P  P11  1  0.33622526  0.08448889  0.82075843  1
  P  P12  1  0.08448889  0.33622526  0.32075843  1
  P  P13  1  0.66377474  0.91551111  0.17924157  1
  H  H14  1  0.58134405  0.12310870  0.55350186  1
  H  H15  1  0.87689130  0.41865595  0.94649814  1
  H  H16  1  0.41865595  0.87689130  0.44649814  1
  H  H17  1  0.12310870  0.58134405  0.05350186  1
  H  H18  1  0.72725493  0.96984441  0.50661142  1
  H  H19  1  0.03015559  0.27274507  0.99338858  1
  H  H20  1  0.27274507  0.03015559  0.49338858  1
  H  H21  1  0.96984441  0.72725493  0.00661142  1
  O  O22  1  0.66135042  0.47698297  0.30606745  1
  O  O23  1  0.52301703  0.33864958  0.19393255  1
  O  O24  1  0.33864958  0.52301703  0.69393255  1
  O  O25  1  0.47698297  0.66135042  0.80606745  1
  O  O26  1  0.65794773  0.46334713  0.61782789  1
  O  O27  1  0.53665287  0.34205227  0.88217211  1
  O  O28  1  0.34205227  0.53665287  0.38217211  1
  O  O29  1  0.46334713  0.65794773  0.11782789  1
  O  O30  1  0.81730135  0.72798481  0.54286752  1
  O  O31  1  0.27201519  0.18269865  0.95713248  1
  O  O32  1  0.18269865  0.27201519  0.45713248  1
  O  O33  1  0.72798481  0.81730135  0.04286752  1
  O  O34  1  0.61494005  0.79742803  0.33951703  1
  O  O35  1  0.20257197  0.38505995  0.16048297  1
  O  O36  1  0.38505995  0.20257197  0.66048297  1
  O  O37  1  0.79742803  0.61494005  0.83951703  1
  O  O38  1  0.96068463  0.50671146  0.33730418  1
  O  O39  1  0.49328854  0.03931537  0.16269582  1
  O  O40  1  0.03931537  0.49328854  0.66269582  1
  O  O41  1  0.50671146  0.96068463  0.83730418  1
  O  O42  1  0.00749744  0.19891973  0.31551848  1
  O  O43  1  0.80108027  0.99250256  0.18448152  1
  O  O44  1  0.99250256  0.80108027  0.68448152  1
  O  O45  1  0.19891973  0.00749744  0.81551848  1
  O  O46  1  0.69744775  0.09182960  0.49549059  1
  O  O47  1  0.90817040  0.30255225  0.00450941  1
  O  O48  1  0.30255225  0.90817040  0.50450941  1
  O  O49  1  0.09182960  0.69744775  0.99549059  1
