# generated using pymatgen
data_Na3B3(HO2)4
_symmetry_space_group_name_H-M   'P 1'
_cell_length_a   7.15271311
_cell_length_b   7.53432776
_cell_length_c   7.53432776
_cell_angle_alpha   61.77682354
_cell_angle_beta   82.89773879
_cell_angle_gamma   82.89773879
_symmetry_Int_Tables_number   1
_chemical_formula_structural   Na3B3(HO2)4
_chemical_formula_sum   'Na6 B6 H8 O16'
_cell_volume   354.02681617
_cell_formula_units_Z   2
loop_
 _symmetry_equiv_pos_site_id
 _symmetry_equiv_pos_as_xyz
  1  'x, y, z'
loop_
 _atom_site_type_symbol
 _atom_site_label
 _atom_site_symmetry_multiplicity
 _atom_site_fract_x
 _atom_site_fract_y
 _atom_site_fract_z
 _atom_site_occupancy
  Na  Na0  1  0.04486592  0.01655698  0.82790045  1
  Na  Na1  1  0.54486592  0.82790045  0.01655698  1
  Na  Na2  1  0.14587016  0.08115175  0.26809841  1
  Na  Na3  1  0.64587016  0.26809841  0.08115175  1
  Na  Na4  1  0.12539363  0.54148795  0.49625080  1
  Na  Na5  1  0.62539363  0.49625080  0.54148795  1
  B  B6  1  0.24928514  0.53719207  0.09553090  1
  B  B7  1  0.74928514  0.09553090  0.53719207  1
  B  B8  1  0.81343569  0.71150514  0.74090294  1
  B  B9  1  0.31343569  0.74090294  0.71150514  1
  B  B10  1  0.80990308  0.87772671  0.35492595  1
  B  B11  1  0.30990308  0.35492595  0.87772671  1
  H  H12  1  0.51741026  0.88071121  0.37477430  1
  H  H13  1  0.01741026  0.37477430  0.88071121  1
  H  H14  1  0.42960769  0.41286647  0.32390236  1
  H  H15  1  0.92960769  0.32390236  0.41286647  1
  H  H16  1  0.97836695  0.74688473  0.19402564  1
  H  H17  1  0.47836695  0.19402564  0.74688473  1
  H  H18  1  0.95661743  0.53722787  0.08128036  1
  H  H19  1  0.45661743  0.08128036  0.53722787  1
  O  O20  1  0.62728430  0.85804945  0.29023481  1
  O  O21  1  0.12728430  0.29023481  0.85804945  1
  O  O22  1  0.36286725  0.54668534  0.24428107  1
  O  O23  1  0.86286725  0.24428107  0.54668534  1
  O  O24  1  0.96438670  0.87442185  0.20583082  1
  O  O25  1  0.46438670  0.20583082  0.87442185  1
  O  O26  1  0.04639446  0.52644728  0.18259315  1
  O  O27  1  0.54639446  0.18259315  0.52644728  1
  O  O28  1  0.31728268  0.36174434  0.06702433  1
  O  O29  1  0.81728268  0.06702433  0.36174434  1
  O  O30  1  0.26877117  0.73152238  0.90315351  1
  O  O31  1  0.76877117  0.90315351  0.73152238  1
  O  O32  1  0.84199916  0.69950926  0.55896877  1
  O  O33  1  0.34199916  0.55896877  0.69950926  1
  O  O34  1  0.82747835  0.54247578  0.91961485  1
  O  O35  1  0.32747835  0.91961485  0.54247578  1
