# generated using pymatgen
data_Ba2GaSbSe5
_symmetry_space_group_name_H-M   'P 1'
_cell_length_a   9.27160289
_cell_length_b   9.45881465
_cell_length_c   12.80890907
_cell_angle_alpha   90.00000000
_cell_angle_beta   90.00000000
_cell_angle_gamma   90.00000000
_symmetry_Int_Tables_number   1
_chemical_formula_structural   Ba2GaSbSe5
_chemical_formula_sum   'Ba8 Ga4 Sb4 Se20'
_cell_volume   1123.32048848
_cell_formula_units_Z   4
loop_
 _symmetry_equiv_pos_site_id
 _symmetry_equiv_pos_as_xyz
  1  'x, y, z'
loop_
 _atom_site_type_symbol
 _atom_site_label
 _atom_site_symmetry_multiplicity
 _atom_site_fract_x
 _atom_site_fract_y
 _atom_site_fract_z
 _atom_site_occupancy
  Ba  Ba0  1  0.00689922  0.12333512  0.82502853  1
  Ba  Ba1  1  0.49310078  0.37666488  0.32502853  1
  Ba  Ba2  1  0.50689922  0.87666488  0.17497147  1
  Ba  Ba3  1  0.99310078  0.62333512  0.67497147  1
  Ba  Ba4  1  0.99310078  0.87666488  0.17497147  1
  Ba  Ba5  1  0.50689922  0.62333512  0.67497147  1
  Ba  Ba6  1  0.49310078  0.12333512  0.82502853  1
  Ba  Ba7  1  0.00689922  0.37666488  0.32502853  1
  Ga  Ga8  1  0.25000000  0.33279042  0.59707301  1
  Ga  Ga9  1  0.25000000  0.16720958  0.09707301  1
  Ga  Ga10  1  0.75000000  0.66720958  0.40292699  1
  Ga  Ga11  1  0.75000000  0.83279042  0.90292699  1
  Sb  Sb12  1  0.25000000  0.98098884  0.52673249  1
  Sb  Sb13  1  0.25000000  0.51901116  0.02673249  1
  Sb  Sb14  1  0.75000000  0.01901116  0.47326751  1
  Sb  Sb15  1  0.75000000  0.48098884  0.97326751  1
  Se  Se16  1  0.04329866  0.17566629  0.55851040  1
  Se  Se17  1  0.45670134  0.32433371  0.05851040  1
  Se  Se18  1  0.54329866  0.82433371  0.44148960  1
  Se  Se19  1  0.95670134  0.67566629  0.94148960  1
  Se  Se20  1  0.95670134  0.82433371  0.44148960  1
  Se  Se21  1  0.54329866  0.67566629  0.94148960  1
  Se  Se22  1  0.45670134  0.17566629  0.55851040  1
  Se  Se23  1  0.04329866  0.32433371  0.05851040  1
  Se  Se24  1  0.25000000  0.88385618  0.71846002  1
  Se  Se25  1  0.25000000  0.61614382  0.21846002  1
  Se  Se26  1  0.75000000  0.11614382  0.28153998  1
  Se  Se27  1  0.75000000  0.38385618  0.78153998  1
  Se  Se28  1  0.25000000  0.39282082  0.78016718  1
  Se  Se29  1  0.25000000  0.10717918  0.28016718  1
  Se  Se30  1  0.75000000  0.60717918  0.21983282  1
  Se  Se31  1  0.75000000  0.89282082  0.71983282  1
  Se  Se32  1  0.25000000  0.96163773  0.99033298  1
  Se  Se33  1  0.25000000  0.53836227  0.49033298  1
  Se  Se34  1  0.75000000  0.03836227  0.00966702  1
  Se  Se35  1  0.75000000  0.46163773  0.50966702  1
