# generated using pymatgen
data_Zr14As9
_symmetry_space_group_name_H-M   'P 1'
_cell_length_a   3.80874655
_cell_length_b   17.26461890
_cell_length_c   28.48027291
_cell_angle_alpha   90.00000000
_cell_angle_beta   90.00000000
_cell_angle_gamma   90.00000000
_symmetry_Int_Tables_number   1
_chemical_formula_structural   Zr14As9
_chemical_formula_sum   'Zr56 As36'
_cell_volume   1872.76470813
_cell_formula_units_Z   4
loop_
 _symmetry_equiv_pos_site_id
 _symmetry_equiv_pos_as_xyz
  1  'x, y, z'
loop_
 _atom_site_type_symbol
 _atom_site_label
 _atom_site_symmetry_multiplicity
 _atom_site_fract_x
 _atom_site_fract_y
 _atom_site_fract_z
 _atom_site_occupancy
  Zr  Zr0  1  -0.00000000  0.50000000  0.00000000  1
  Zr  Zr1  1  0.50000000  -0.00000000  0.50000000  1
  Zr  Zr2  1  0.50000000  0.50000000  0.50000000  1
  Zr  Zr3  1  0.00000000  -0.00000000  0.00000000  1
  Zr  Zr4  1  0.50000000  0.55019601  0.92097169  1
  Zr  Zr5  1  0.50000000  0.44980399  0.07902831  1
  Zr  Zr6  1  -0.00000000  0.05019601  0.57902831  1
  Zr  Zr7  1  -0.00000000  0.94980399  0.42097169  1
  Zr  Zr8  1  0.50000000  0.59926342  0.39585312  1
  Zr  Zr9  1  0.50000000  0.40073658  0.60414688  1
  Zr  Zr10  1  0.00000000  0.09926342  0.10414688  1
  Zr  Zr11  1  -0.00000000  0.90073658  0.89585312  1
  Zr  Zr12  1  0.50000000  0.61784139  0.74416656  1
  Zr  Zr13  1  0.50000000  0.38215861  0.25583344  1
  Zr  Zr14  1  -0.00000000  0.11784139  0.75583344  1
  Zr  Zr15  1  0.00000000  0.88215861  0.24416656  1
  Zr  Zr16  1  0.50000000  0.63413535  0.03063245  1
  Zr  Zr17  1  0.50000000  0.36586465  0.96936755  1
  Zr  Zr18  1  -0.00000000  0.13413535  0.46936755  1
  Zr  Zr19  1  -0.00000000  0.86586465  0.53063245  1
  Zr  Zr20  1  0.50000000  0.63823238  0.14734017  1
  Zr  Zr21  1  0.50000000  0.36176762  0.85265983  1
  Zr  Zr22  1  -0.00000000  0.13823238  0.35265983  1
  Zr  Zr23  1  0.00000000  0.86176762  0.64734017  1
  Zr  Zr24  1  0.50000000  0.69934528  0.50884903  1
  Zr  Zr25  1  0.50000000  0.30065472  0.49115097  1
  Zr  Zr26  1  -0.00000000  0.19934528  0.99115097  1
  Zr  Zr27  1  0.00000000  0.80065472  0.00884903  1
  Zr  Zr28  1  0.50000000  0.70250032  0.64245081  1
  Zr  Zr29  1  0.50000000  0.29749968  0.35754919  1
  Zr  Zr30  1  -0.00000000  0.20250032  0.85754919  1
  Zr  Zr31  1  0.00000000  0.79749968  0.14245081  1
  Zr  Zr32  1  0.50000000  0.74711403  0.91664691  1
  Zr  Zr33  1  0.50000000  0.25288597  0.08335309  1
  Zr  Zr34  1  -0.00000000  0.24711403  0.58335309  1
  Zr  Zr35  1  -0.00000000  0.75288597  0.41664691  1
  Zr  Zr36  1  0.50000000  0.76764465  0.31194685  1
  Zr  Zr37  1  0.50000000  0.23235535  0.68805315  1
  Zr  Zr38  1  -0.00000000  0.26764465  0.18805315  1
  Zr  Zr39  1  0.00000000  0.73235535  0.81194685  1
  Zr  Zr40  1  0.50000000  0.83359814  0.73738229  1
  Zr  Zr41  1  0.50000000  0.16640186  0.26261771  1
  Zr  Zr42  1  0.00000000  0.33359814  0.76261771  1
  Zr  Zr43  1  0.00000000  0.66640186  0.23738229  1
  Zr  Zr44  1  0.50000000  0.93146630  0.07434404  1
  Zr  Zr45  1  0.50000000  0.06853370  0.92565596  1
  Zr  Zr46  1  -0.00000000  0.43146630  0.42565596  1
  Zr  Zr47  1  -0.00000000  0.56853370  0.57434404  1
  Zr  Zr48  1  0.50000000  0.98046067  0.32266595  1
  Zr  Zr49  1  0.50000000  0.01953933  0.67733405  1
  Zr  Zr50  1  0.00000000  0.48046067  0.17733405  1
  Zr  Zr51  1  -0.00000000  0.51953933  0.82266595  1
  Zr  Zr52  1  0.50000000  0.98695786  0.80298633  1
  Zr  Zr53  1  0.50000000  0.01304214  0.19701367  1
  Zr  Zr54  1  0.00000000  0.48695786  0.69701367  1
  Zr  Zr55  1  0.00000000  0.51304214  0.30298633  1
  As  As56  1  0.50000000  0.63282448  0.84283354  1
  As  As57  1  0.50000000  0.36717552  0.15716646  1
  As  As58  1  -0.00000000  0.13282448  0.65716646  1
  As  As59  1  -0.00000000  0.86717552  0.34283354  1
  As  As60  1  0.50000000  0.84157634  0.83456646  1
  As  As61  1  0.50000000  0.15842366  0.16543354  1
  As  As62  1  0.00000000  0.34157634  0.66543354  1
  As  As63  1  0.00000000  0.65842366  0.33456646  1
  As  As64  1  0.50000000  0.54907785  0.64303718  1
  As  As65  1  0.50000000  0.45092215  0.35696282  1
  As  As66  1  -0.00000000  0.04907785  0.85696282  1
  As  As67  1  0.00000000  0.95092215  0.14303718  1
  As  As68  1  0.50000000  0.76751799  0.07779246  1
  As  As69  1  0.50000000  0.23248201  0.92220754  1
  As  As70  1  -0.00000000  0.26751799  0.42220754  1
  As  As71  1  0.00000000  0.73248201  0.57779246  1
  As  As72  1  0.50000000  0.77453068  0.21383565  1
  As  As73  1  0.50000000  0.22546932  0.78616435  1
  As  As74  1  0.00000000  0.27453068  0.28616435  1
  As  As75  1  -0.00000000  0.72546932  0.71383565  1
  As  As76  1  0.50000000  0.54811006  0.23349029  1
  As  As77  1  0.50000000  0.45188994  0.76650971  1
  As  As78  1  0.00000000  0.04811006  0.26650971  1
  As  As79  1  0.00000000  0.95188994  0.73349029  1
  As  As80  1  0.50000000  0.93590718  0.59222074  1
  As  As81  1  0.50000000  0.06409282  0.40777926  1
  As  As82  1  0.00000000  0.43590718  0.90777926  1
  As  As83  1  0.00000000  0.56409282  0.09222074  1
  As  As84  1  0.50000000  0.84437152  0.46148250  1
  As  As85  1  0.50000000  0.15562848  0.53851750  1
  As  As86  1  0.00000000  0.34437152  0.03851750  1
  As  As87  1  0.00000000  0.65562848  0.96148250  1
  As  As88  1  0.50000000  0.89588770  0.96739653  1
  As  As89  1  0.50000000  0.10411230  0.03260347  1
  As  As90  1  -0.00000000  0.39588770  0.53260347  1
  As  As91  1  -0.00000000  0.60411230  0.46739653  1
