# generated using pymatgen
data_B2Pb4O7
_symmetry_space_group_name_H-M   'P 1'
_cell_length_a   7.53949580
_cell_length_b   7.53949580
_cell_length_c   15.76275029
_cell_angle_alpha   90.00000000
_cell_angle_beta   90.00000000
_cell_angle_gamma   94.79173336
_symmetry_Int_Tables_number   1
_chemical_formula_structural   B2Pb4O7
_chemical_formula_sum   'B8 Pb16 O28'
_cell_volume   892.88607700
_cell_formula_units_Z   4
loop_
 _symmetry_equiv_pos_site_id
 _symmetry_equiv_pos_as_xyz
  1  'x, y, z'
loop_
 _atom_site_type_symbol
 _atom_site_label
 _atom_site_symmetry_multiplicity
 _atom_site_fract_x
 _atom_site_fract_y
 _atom_site_fract_z
 _atom_site_occupancy
  B  B0  1  0.36364213  0.60910822  0.75459569  1
  B  B1  1  0.60910822  0.36364213  0.24540431  1
  B  B2  1  0.86364213  0.10910822  0.74540431  1
  B  B3  1  0.10910822  0.86364213  0.25459569  1
  B  B4  1  0.37308833  0.59708756  0.00795997  1
  B  B5  1  0.59708756  0.37308833  0.99204003  1
  B  B6  1  0.87308833  0.09708756  0.49204003  1
  B  B7  1  0.09708756  0.87308833  0.50795997  1
  Pb  Pb8  1  0.68081208  0.77317734  0.88221712  1
  Pb  Pb9  1  0.77317734  0.68081208  0.11778288  1
  Pb  Pb10  1  0.18081208  0.27317734  0.61778288  1
  Pb  Pb11  1  0.27317734  0.18081208  0.38221712  1
  Pb  Pb12  1  0.02456017  0.42083542  0.87641172  1
  Pb  Pb13  1  0.42083542  0.02456017  0.12358828  1
  Pb  Pb14  1  0.52456017  0.92083542  0.62358828  1
  Pb  Pb15  1  0.92083542  0.52456017  0.37641172  1
  Pb  Pb16  1  0.01844971  0.76834158  0.69995905  1
  Pb  Pb17  1  0.76834158  0.01844971  0.30004095  1
  Pb  Pb18  1  0.51844971  0.26834158  0.80004095  1
  Pb  Pb19  1  0.26834158  0.51844971  0.19995905  1
  Pb  Pb20  1  0.15142567  0.90346007  0.91798654  1
  Pb  Pb21  1  0.90346007  0.15142567  0.08201346  1
  Pb  Pb22  1  0.65142567  0.40346007  0.58201346  1
  Pb  Pb23  1  0.40346007  0.65142567  0.41798654  1
  O  O24  1  0.23049824  0.46998729  0.75861431  1
  O  O25  1  0.46998729  0.23049824  0.24138569  1
  O  O26  1  0.73049824  0.96998729  0.74138569  1
  O  O27  1  0.96998729  0.73049824  0.25861431  1
  O  O28  1  0.96275035  0.70836998  0.84092277  1
  O  O29  1  0.70836998  0.96275035  0.15907723  1
  O  O30  1  0.46275035  0.20836998  0.65907723  1
  O  O31  1  0.20836998  0.46275035  0.34092277  1
  O  O32  1  0.71812469  0.48051434  0.94614027  1
  O  O33  1  0.48051434  0.71812469  0.05385973  1
  O  O34  1  0.21812469  0.98051434  0.55385973  1
  O  O35  1  0.98051434  0.21812469  0.44614027  1
  O  O36  1  0.32215257  0.78215625  0.73772283  1
  O  O37  1  0.78215625  0.32215257  0.26227717  1
  O  O38  1  0.82215257  0.28215625  0.76227717  1
  O  O39  1  0.28215625  0.82215257  0.23772283  1
  O  O40  1  0.04046296  0.07086310  0.73429368  1
  O  O41  1  0.07086310  0.04046296  0.26570632  1
  O  O42  1  0.54046296  0.57086310  0.76570632  1
  O  O43  1  0.57086310  0.54046296  0.23429368  1
  O  O44  1  0.91022817  0.91022817  -0.00000000  1
  O  O45  1  0.41022817  0.41022817  0.50000000  1
  O  O46  1  0.21744734  0.63579398  0.97017495  1
  O  O47  1  0.63579398  0.21744734  0.02982505  1
  O  O48  1  0.71744734  0.13579398  0.52982505  1
  O  O49  1  0.13579398  0.71744734  0.47017495  1
  O  O50  1  0.41906245  0.41906245  0.00000000  1
  O  O51  1  0.91906245  0.91906245  0.50000000  1
