# generated using pymatgen
data_UB8O17
_symmetry_space_group_name_H-M   'P 1'
_cell_length_a   6.60069590
_cell_length_b   8.97706881
_cell_length_c   11.12518295
_cell_angle_alpha   90.01038507
_cell_angle_beta   90.02824773
_cell_angle_gamma   68.42972829
_symmetry_Int_Tables_number   1
_chemical_formula_structural   UB8O17
_chemical_formula_sum   'U2 B16 O34'
_cell_volume   613.05451611
_cell_formula_units_Z   2
loop_
 _symmetry_equiv_pos_site_id
 _symmetry_equiv_pos_as_xyz
  1  'x, y, z'
loop_
 _atom_site_type_symbol
 _atom_site_label
 _atom_site_symmetry_multiplicity
 _atom_site_fract_x
 _atom_site_fract_y
 _atom_site_fract_z
 _atom_site_occupancy
  U  U0  1  0.52872258  0.46309274  0.24597243  1
  U  U1  1  0.99181532  0.53690726  0.74597243  1
  B  B2  1  0.10691867  0.40214225  0.31043077  1
  B  B3  1  0.50906091  0.59785775  0.81043077  1
  B  B4  1  0.33288038  0.46111504  0.94740005  1
  B  B5  1  0.79399542  0.53888496  0.44740005  1
  B  B6  1  0.72625886  0.40347056  0.98330802  1
  B  B7  1  0.12972942  0.59652944  0.48330802  1
  B  B8  1  0.07405045  0.38399510  0.08236731  1
  B  B9  1  0.45804555  0.61600490  0.58236731  1
  B  B10  1  0.03546072  0.12551771  0.99364968  1
  B  B11  1  0.16097843  0.87448229  0.49364968  1
  B  B12  1  0.11352080  0.14181106  0.41550247  1
  B  B13  1  0.25533185  0.85818894  0.91550247  1
  B  B14  1  0.00554684  0.87974125  0.07714780  1
  B  B15  1  0.88528808  0.12025875  0.57714780  1
  B  B16  1  0.71526188  0.88367277  0.21356108  1
  B  B17  1  0.59893465  0.11632723  0.71356108  1
  O  O18  1  0.58524984  0.55011433  0.47078183  1
  O  O19  1  0.13536417  0.44988567  0.97078183  1
  O  O20  1  0.50437303  0.42115088  0.02705502  1
  O  O21  1  0.92552391  0.57884912  0.52705502  1
  O  O22  1  0.64808194  0.25361858  0.27627758  1
  O  O23  1  0.90170052  0.74638142  0.77627757  1
  O  O24  1  0.15563148  0.20814677  0.06351902  1
  O  O25  1  0.36377825  0.79185323  0.56351902  1
  O  O26  1  0.16974037  0.42545206  0.18823836  1
  O  O27  1  0.59519243  0.57454794  0.68823836  1
  O  O28  1  0.86561952  0.48576779  0.33280679  1
  O  O29  1  0.35138731  0.51423221  0.83280679  1
  O  O30  1  0.22872565  0.48225466  0.38528209  1
  O  O31  1  0.71098031  0.51774534  0.88528209  1
  O  O32  1  0.83354460  0.43571818  0.09026034  1
  O  O33  1  0.26926278  0.56428182  0.59026034  1
  O  O34  1  0.20576740  0.97812520  0.40814948  1
  O  O35  1  0.18389261  0.02187480  0.90814948  1
  O  O36  1  0.42073912  0.67295695  0.21751507  1
  O  O37  1  0.09369607  0.32704305  0.71751507  1
  O  O38  1  0.17988964  0.23492409  0.34066892  1
  O  O39  1  0.41481373  0.76507591  0.84066892  1
  O  O40  1  0.83894122  0.24385425  0.93474680  1
  O  O41  1  0.08279547  0.75614575  0.43474680  1
  O  O42  1  0.16164915  0.78536111  0.99883447  1
  O  O43  1  0.94701026  0.21463889  0.49883447  1
  O  O44  1  0.90819975  0.80825624  0.15456046  1
  O  O45  1  0.71645599  0.19174376  0.65456046  1
  O  O46  1  0.94632626  0.04453505  0.08094479  1
  O  O47  1  0.99086131  0.95546495  0.58094479  1
  O  O48  1  0.66643369  0.87413457  0.33117473  1
  O  O49  1  0.54056826  0.12586543  0.83117473  1
  O  O50  1  0.51914243  0.97553828  0.16404464  1
  O  O51  1  0.49468071  0.02446172  0.66404464  1
