# generated using pymatgen
data_Sn21H14(Cl4O5)4
_symmetry_space_group_name_H-M   'P 1'
_cell_length_a   10.25407403
_cell_length_b   10.25407403
_cell_length_c   16.05612537
_cell_angle_alpha   71.37821411
_cell_angle_beta   71.37821411
_cell_angle_gamma   60.00000382
_symmetry_Int_Tables_number   1
_chemical_formula_structural   Sn21H14(Cl4O5)4
_chemical_formula_sum   'Sn21 H14 Cl16 O20'
_cell_volume   1359.04200088
_cell_formula_units_Z   1
loop_
 _symmetry_equiv_pos_site_id
 _symmetry_equiv_pos_as_xyz
  1  'x, y, z'
loop_
 _atom_site_type_symbol
 _atom_site_label
 _atom_site_symmetry_multiplicity
 _atom_site_fract_x
 _atom_site_fract_y
 _atom_site_fract_z
 _atom_site_occupancy
  Sn  Sn0  1  0.30425315  0.30425315  0.08724055  1
  Sn  Sn1  1  0.69574685  0.69574685  0.91275945  1
  Sn  Sn2  1  0.06865854  0.06865854  0.79402438  1
  Sn  Sn3  1  0.93134146  0.93134146  0.20597562  1
  Sn  Sn4  1  0.58897592  0.58897592  0.23307223  1
  Sn  Sn5  1  0.41102408  0.41102408  0.76692777  1
  Sn  Sn6  1  0.73412644  1.00000000  0.00000000  1
  Sn  Sn7  1  0.26587356  0.73412644  0.00000000  1
  Sn  Sn8  1  0.00000000  0.26587356  1.00000000  1
  Sn  Sn9  1  0.49962989  0.23270754  0.28466508  1
  Sn  Sn10  1  0.98299749  0.49962989  0.28466508  1
  Sn  Sn11  1  0.23270754  0.98299749  0.28466508  1
  Sn  Sn12  1  0.01700251  0.76729246  0.71533492  1
  Sn  Sn13  1  0.76729246  0.50037011  0.71533492  1
  Sn  Sn14  1  0.50037011  0.01700251  0.71533492  1
  Sn  Sn15  1  0.08912591  0.68716828  0.39228668  1
  Sn  Sn16  1  0.83141913  0.08912591  0.39228668  1
  Sn  Sn17  1  0.68716828  0.83141913  0.39228668  1
  Sn  Sn18  1  0.16858087  0.31283172  0.60771332  1
  Sn  Sn19  1  0.31283172  0.91087409  0.60771332  1
  Sn  Sn20  1  0.91087409  0.16858087  0.60771332  1
  H  H21  1  0.17586337  0.17586337  0.47240988  1
  H  H22  1  0.82413663  0.82413663  0.52759012  1
  H  H23  1  0.84694011  0.53895722  0.04779745  1
  H  H24  1  0.56630522  0.84694011  0.04779745  1
  H  H25  1  0.53895722  0.56630522  0.04779745  1
  H  H26  1  0.43369478  0.46104278  0.95220255  1
  H  H27  1  0.46104278  0.15305989  0.95220255  1
  H  H28  1  0.15305989  0.43369478  0.95220255  1
  H  H29  1  0.69867229  0.52112165  0.38314859  1
  H  H30  1  0.39705746  0.69867229  0.38314859  1
  H  H31  1  0.52112165  0.39705746  0.38314859  1
  H  H32  1  0.60294254  0.47887835  0.61685141  1
  H  H33  1  0.47887835  0.30132771  0.61685141  1
  H  H34  1  0.30132771  0.60294254  0.61685141  1
  Cl  Cl35  1  0.50000000  0.50000000  0.50000000  1
  Cl  Cl36  1  0.87492397  0.50000000  0.50000000  1
  Cl  Cl37  1  0.12507603  0.87492397  0.50000000  1
  Cl  Cl38  1  0.50000000  0.12507603  0.50000000  1
  Cl  Cl39  1  0.29690657  0.95327101  0.12319059  1
  Cl  Cl40  1  0.62663183  0.29690657  0.12319059  1
  Cl  Cl41  1  0.95327101  0.62663183  0.12319059  1
  Cl  Cl42  1  0.37336817  0.04672899  0.87680941  1
  Cl  Cl43  1  0.04672899  0.70309343  0.87680941  1
  Cl  Cl44  1  0.70309343  0.37336817  0.87680941  1
  Cl  Cl45  1  0.25223607  0.60775846  0.19617583  1
  Cl  Cl46  1  0.94382964  0.25223607  0.19617583  1
  Cl  Cl47  1  0.60775846  0.94382964  0.19617583  1
  Cl  Cl48  1  0.05617036  0.39224154  0.80382417  1
  Cl  Cl49  1  0.39224154  0.74776393  0.80382417  1
  Cl  Cl50  1  0.74776393  0.05617036  0.80382417  1
  O  O51  1  0.15414525  0.15414525  0.53756426  1
  O  O52  1  0.84585475  0.84585475  0.46243574  1
  O  O53  1  0.27183052  0.08385008  0.68792374  1
  O  O54  1  0.95639566  0.27183052  0.68792374  1
  O  O55  1  0.08385008  0.95639566  0.68792374  1
  O  O56  1  0.04360434  0.91614992  0.31207626  1
  O  O57  1  0.91614992  0.72816948  0.31207626  1
  O  O58  1  0.72816948  0.04360434  0.31207626  1
  O  O59  1  0.73357797  0.56303672  0.32045117  1
  O  O60  1  0.38293414  0.73357797  0.32045117  1
  O  O61  1  0.56303672  0.38293414  0.32045117  1
  O  O62  1  0.61706586  0.43696328  0.67954883  1
  O  O63  1  0.43696328  0.26642203  0.67954883  1
  O  O64  1  0.26642203  0.61706586  0.67954883  1
  O  O65  1  0.17183310  0.33443028  0.99357909  1
  O  O66  1  0.50015753  0.17183310  0.99357909  1
  O  O67  1  0.33443028  0.50015753  0.99357909  1
  O  O68  1  0.49984247  0.66556972  0.00642091  1
  O  O69  1  0.66556972  0.82816690  0.00642091  1
  O  O70  1  0.82816690  0.49984247  0.00642091  1
