# generated using pymatgen
data_Zn(CoO2)2
_symmetry_space_group_name_H-M   'P 1'
_cell_length_a   5.97652851
_cell_length_b   5.97311316
_cell_length_c   17.89217866
_cell_angle_alpha   60.06110761
_cell_angle_beta   60.07510832
_cell_angle_gamma   59.56059219
_symmetry_Int_Tables_number   1
_chemical_formula_structural   Zn(CoO2)2
_chemical_formula_sum   'Zn6 Co12 O24'
_cell_volume   450.58666954
_cell_formula_units_Z   6
loop_
 _symmetry_equiv_pos_site_id
 _symmetry_equiv_pos_as_xyz
  1  'x, y, z'
loop_
 _atom_site_type_symbol
 _atom_site_label
 _atom_site_symmetry_multiplicity
 _atom_site_fract_x
 _atom_site_fract_y
 _atom_site_fract_z
 _atom_site_occupancy
  Zn  Zn0  1  0.12368898  0.12388712  0.04299836  1
  Zn  Zn1  1  0.12309206  0.12434650  0.37566064  1
  Zn  Zn2  1  0.50043151  0.49998171  0.99989554  1
  Zn  Zn3  1  0.12564053  0.12579417  0.70765979  1
  Zn  Zn4  1  0.87531713  0.87506159  0.29161177  1
  Zn  Zn5  1  0.87603663  0.87517604  0.62478257  1
  Co  Co6  1  0.00193176  0.49981650  0.16682493  1
  Co  Co7  1  0.49882998  0.49920318  0.16638838  1
  Co  Co8  1  0.99943785  0.49954524  0.50007687  1
  Co  Co9  1  0.49953205  0.00169974  0.16693479  1
  Co  Co10  1  0.50251731  0.50131339  0.33178312  1
  Co  Co11  1  0.50029248  0.50001277  0.50057937  1
  Co  Co12  1  0.00059534  0.50028351  0.83290487  1
  Co  Co13  1  0.49982515  0.99940901  0.50003154  1
  Co  Co14  1  0.50012230  0.00045366  0.83297609  1
  Co  Co15  1  0.49742336  0.49844724  0.66815679  1
  Co  Co16  1  0.50008547  0.50024199  0.83301457  1
  Co  Co17  1  0.87628883  0.87631099  0.95698247  1
  O  O18  1  0.24973559  0.24991848  0.09405700  1
  O  O19  1  0.25742220  0.25746484  0.24180640  1
  O  O20  1  0.24990980  0.71926752  0.09352692  1
  O  O21  1  0.71928440  0.24993518  0.09358599  1
  O  O22  1  0.28330596  0.73792157  0.24675239  1
  O  O23  1  0.25925448  0.25768161  0.42208311  1
  O  O24  1  0.73725051  0.28370033  0.24700184  1
  O  O25  1  0.74265230  0.74245438  0.09137585  1
  O  O26  1  0.26388639  0.71423486  0.42035088  1
  O  O27  1  0.26540455  0.25906034  0.57265831  1
  O  O28  1  0.74179740  0.74196620  0.24499273  1
  O  O29  1  0.71613301  0.26282576  0.42049255  1
  O  O30  1  0.28198754  0.73695142  0.58026378  1
  O  O31  1  0.26054808  0.26107712  0.75307728  1
  O  O32  1  0.73737980  0.28342338  0.57970871  1
  O  O33  1  0.73549321  0.74179427  0.42653144  1
  O  O34  1  0.25811532  0.25832409  0.90829442  1
  O  O35  1  0.26077865  0.71894950  0.75305779  1
  O  O36  1  0.73878829  0.73932251  0.57930165  1
  O  O37  1  0.71877558  0.26143813  0.75268599  1
  O  O38  1  0.27646423  0.75174495  0.90681897  1
  O  O39  1  0.74136216  0.74121087  0.75882308  1
  O  O40  1  0.75157753  0.27665896  0.90670822  1
  O  O41  1  0.75160729  0.75169040  0.90678221  1
