# generated using pymatgen
data_Ga8Sb7Se8Cl29
_symmetry_space_group_name_H-M   'P 1'
_cell_length_a   11.14157292
_cell_length_b   15.97128118
_cell_length_c   19.54873819
_cell_angle_alpha   79.83927662
_cell_angle_beta   83.98391801
_cell_angle_gamma   70.60779767
_symmetry_Int_Tables_number   1
_chemical_formula_structural   Ga8Sb7Se8Cl29
_chemical_formula_sum   'Ga16 Sb14 Se16 Cl58'
_cell_volume   3225.78790747
_cell_formula_units_Z   2
loop_
 _symmetry_equiv_pos_site_id
 _symmetry_equiv_pos_as_xyz
  1  'x, y, z'
loop_
 _atom_site_type_symbol
 _atom_site_label
 _atom_site_symmetry_multiplicity
 _atom_site_fract_x
 _atom_site_fract_y
 _atom_site_fract_z
 _atom_site_occupancy
  Ga  Ga0  1  0.79144567  0.37304955  0.58742678  1
  Ga  Ga1  1  0.20855433  0.62695045  0.41257322  1
  Ga  Ga2  1  0.96052112  0.27215964  0.99796631  1
  Ga  Ga3  1  0.03947888  0.72784036  0.00203369  1
  Ga  Ga4  1  0.63692951  0.60163686  0.90320907  1
  Ga  Ga5  1  0.36307049  0.39836314  0.09679093  1
  Ga  Ga6  1  0.56855687  0.79831936  0.74796273  1
  Ga  Ga7  1  0.43144313  0.20168064  0.25203727  1
  Ga  Ga8  1  0.41674619  0.83324294  0.49650004  1
  Ga  Ga9  1  0.58325381  0.16675706  0.50349996  1
  Ga  Ga10  1  0.77586756  0.83326746  0.49574363  1
  Ga  Ga11  1  0.22413244  0.16673254  0.50425637  1
  Ga  Ga12  1  0.68391384  0.04718950  0.97941892  1
  Ga  Ga13  1  0.31608616  0.95281050  0.02058108  1
  Ga  Ga14  1  0.87304754  0.11199588  0.81136642  1
  Ga  Ga15  1  0.12695246  0.88800412  0.18863358  1
  Sb  Sb16  1  0.22026337  0.48695092  0.73222915  1
  Sb  Sb17  1  0.77973663  0.51304908  0.26777085  1
  Sb  Sb18  1  0.26903961  0.70672573  0.78863205  1
  Sb  Sb19  1  0.73096039  0.29327427  0.21136795  1
  Sb  Sb20  1  0.12709652  0.72250681  0.61165130  1
  Sb  Sb21  1  0.87290348  0.27749319  0.38834870  1
  Sb  Sb22  1  0.93971818  0.70266797  0.79011267  1
  Sb  Sb23  1  0.06028182  0.29733203  0.20988733  1
  Sb  Sb24  1  0.15056326  0.25838884  0.71162134  1
  Sb  Sb25  1  0.84943674  0.74161116  0.28837866  1
  Sb  Sb26  1  0.28579353  0.27407718  0.88201560  1
  Sb  Sb27  1  0.71420647  0.72592282  0.11798440  1
  Sb  Sb28  1  0.49901299  0.25656947  0.71076285  1
  Sb  Sb29  1  0.50098701  0.74343053  0.28923715  1
  Se  Se30  1  0.15597624  0.58050589  0.84515523  1
  Se  Se31  1  0.84402376  0.41949411  0.15484477  1
  Se  Se32  1  0.06022494  0.81841917  0.72124483  1
  Se  Se33  1  0.93977506  0.18158083  0.27875517  1
  Se  Se34  1  0.34548339  0.63162296  0.67529000  1
  Se  Se35  1  0.65451661  0.36837704  0.32471000  1
  Se  Se36  1  0.97858114  0.62596293  0.67690286  1
  Se  Se37  1  0.02141886  0.37403707  0.32309714  1
  Se  Se38  1  0.08501359  0.37729621  0.80542332  1
  Se  Se39  1  0.91498641  0.62270379  0.19457668  1
  Se  Se40  1  0.35797243  0.15662939  0.78814734  1
  Se  Se41  1  0.64202757  0.84337061  0.21185266  1
  Se  Se42  1  0.29987578  0.33815902  0.63286683  1
  Se  Se43  1  0.70012422  0.66184098  0.36713317  1
  Se  Se44  1  0.43027104  0.37119226  0.80669983  1
  Se  Se45  1  0.56972896  0.62880774  0.19330017  1
  Cl  Cl46  1  0.59787667  0.41989998  0.63889247  1
  Cl  Cl47  1  0.40212333  0.58010002  0.36110753  1
  Cl  Cl48  1  0.85895796  0.22826069  0.59296953  1
  Cl  Cl49  1  0.14104204  0.77173931  0.40703047  1
  Cl  Cl50  1  0.77928893  0.43808974  0.47598399  1
  Cl  Cl51  1  0.22071107  0.56191026  0.52401601  1
  Cl  Cl52  1  0.92081354  0.42062486  0.63853689  1
  Cl  Cl53  1  0.07918646  0.57937514  0.36146311  1
  Cl  Cl54  1  0.97218394  0.18830474  0.10327092  1
  Cl  Cl55  1  0.02781606  0.81169526  0.89672908  1
  Cl  Cl56  1  0.07942251  0.18409967  0.92262422  1
  Cl  Cl57  1  0.92057749  0.81590033  0.07737578  1
  Cl  Cl58  1  0.76204931  0.33406508  0.97662481  1
  Cl  Cl59  1  0.23795069  0.66593492  0.02337519  1
  Cl  Cl60  1  0.06225221  0.36871335  0.00009925  1
  Cl  Cl61  1  0.93774779  0.63128665  0.99990075  1
  Cl  Cl62  1  0.62656439  0.58869823  0.01521336  1
  Cl  Cl63  1  0.37343561  0.41130177  0.98478664  1
  Cl  Cl64  1  0.82931494  0.54750219  0.85694240  1
  Cl  Cl65  1  0.17068506  0.45249781  0.14305760  1
  Cl  Cl66  1  0.50465401  0.55298149  0.85894605  1
  Cl  Cl67  1  0.49534599  0.44701851  0.14105395  1
  Cl  Cl68  1  0.57271789  0.75658434  0.86989948  1
  Cl  Cl69  1  0.42728211  0.24341566  0.13010052  1
  Cl  Cl70  1  0.70405954  0.87213085  0.72612622  1
  Cl  Cl71  1  0.29594046  0.12786915  0.27387378  1
  Cl  Cl72  1  0.63125153  0.67414365  0.70567867  1
  Cl  Cl73  1  0.36874847  0.32585635  0.29432133  1
  Cl  Cl74  1  0.37104334  0.87839126  0.73071651  1
  Cl  Cl75  1  0.62895666  0.12160874  0.26928349  1
  Cl  Cl76  1  0.24299605  0.88768832  0.55945616  1
  Cl  Cl77  1  0.75700395  0.11231168  0.44054384  1
  Cl  Cl78  1  0.47073721  0.68910300  0.50457142  1
  Cl  Cl79  1  0.52926279  0.31089700  0.49542858  1
  Cl  Cl80  1  0.41430333  0.90213529  0.38987133  1
  Cl  Cl81  1  0.58569667  0.09786471  0.61012867  1
  Cl  Cl82  1  0.56973615  0.86970410  0.54953885  1
  Cl  Cl83  1  0.43026385  0.13029590  0.45046115  1
  Cl  Cl84  1  0.87566574  0.89164907  0.55458272  1
  Cl  Cl85  1  0.12433426  0.10835093  0.44541728  1
  Cl  Cl86  1  0.85653826  0.68897145  0.50628599  1
  Cl  Cl87  1  0.14346174  0.31102855  0.49371401  1
  Cl  Cl88  1  0.74772296  0.89738910  0.38778638  1
  Cl  Cl89  1  0.25227704  0.10261090  0.61221362  1
  Cl  Cl90  1  0.70005429  0.04726314  0.08831367  1
  Cl  Cl91  1  0.29994571  0.95273686  0.91168633  1
  Cl  Cl92  1  0.65103674  0.93150549  0.95226420  1
  Cl  Cl93  1  0.34896326  0.06849451  0.04773580  1
  Cl  Cl94  1  0.56507297  0.17927659  0.92641232  1
  Cl  Cl95  1  0.43492703  0.82072341  0.07358768  1
  Cl  Cl96  1  0.88393618  0.05083163  0.92935337  1
  Cl  Cl97  1  0.11606382  0.94916837  0.07064663  1
  Cl  Cl98  1  0.06770145  0.05590640  0.77062169  1
  Cl  Cl99  1  0.93229855  0.94409360  0.22937831  1
  Cl  Cl100  1  0.73658225  0.06196498  0.77360117  1
  Cl  Cl101  1  0.26341775  0.93803502  0.22639883  1
  Cl  Cl102  1  0.81187307  0.25774653  0.79572499  1
  Cl  Cl103  1  0.18812693  0.74225347  0.20427501  1
