# generated using pymatgen
data_LiBH6O
_symmetry_space_group_name_H-M   'P 1'
_cell_length_a   6.29986683
_cell_length_b   6.35081292
_cell_length_c   9.11170635
_cell_angle_alpha   90.00000000
_cell_angle_beta   100.12285485
_cell_angle_gamma   90.00000000
_symmetry_Int_Tables_number   1
_chemical_formula_structural   LiBH6O
_chemical_formula_sum   'Li4 B4 H24 O4'
_cell_volume   358.87783263
_cell_formula_units_Z   4
loop_
 _symmetry_equiv_pos_site_id
 _symmetry_equiv_pos_as_xyz
  1  'x, y, z'
loop_
 _atom_site_type_symbol
 _atom_site_label
 _atom_site_symmetry_multiplicity
 _atom_site_fract_x
 _atom_site_fract_y
 _atom_site_fract_z
 _atom_site_occupancy
  Li  Li0  1  0.62968471  0.08042811  0.13698420  1
  Li  Li1  1  0.87031529  0.58042811  0.36301580  1
  Li  Li2  1  0.37031529  0.91957189  0.86301580  1
  Li  Li3  1  0.12968471  0.41957189  0.63698420  1
  B  B4  1  0.03011075  0.08962634  0.73795664  1
  B  B5  1  0.46988925  0.58962634  0.76204336  1
  B  B6  1  0.96988925  0.91037366  0.26204336  1
  B  B7  1  0.53011075  0.41037366  0.23795664  1
  H  H8  1  0.91007750  0.78139864  0.61669917  1
  H  H9  1  0.58992250  0.28139864  0.88330083  1
  H  H10  1  0.08992250  0.21860136  0.38330083  1
  H  H11  1  0.41007750  0.71860136  0.11669917  1
  H  H12  1  0.74618199  0.60128478  0.62542750  1
  H  H13  1  0.75381801  0.10128478  0.87457250  1
  H  H14  1  0.25381801  0.39871522  0.37457250  1
  H  H15  1  0.24618199  0.89871522  0.12542750  1
  H  H16  1  0.03539333  0.96438719  0.84100857  1
  H  H17  1  0.46460667  0.46438719  0.65899143  1
  H  H18  1  0.96460667  0.03561281  0.15899143  1
  H  H19  1  0.53539333  0.53561281  0.34100857  1
  H  H20  1  0.90219253  0.03438291  0.62750822  1
  H  H21  1  0.59780747  0.53438291  0.87249178  1
  H  H22  1  0.09780747  0.96561709  0.37249178  1
  H  H23  1  0.40219253  0.46561709  0.12750822  1
  H  H24  1  0.20935974  0.10592769  0.70312509  1
  H  H25  1  0.29064026  0.60592769  0.79687491  1
  H  H26  1  0.79064026  0.89407231  0.29687491  1
  H  H27  1  0.70935974  0.39407231  0.20312509  1
  H  H28  1  0.97337118  0.26149287  0.77896084  1
  H  H29  1  0.52662882  0.76149287  0.72103916  1
  H  H30  1  0.02662882  0.73850713  0.22103916  1
  H  H31  1  0.47337118  0.23850713  0.27896084  1
  O  O32  1  0.87905978  0.63225787  0.58676916  1
  O  O33  1  0.62094022  0.13225787  0.91323084  1
  O  O34  1  0.12094022  0.36774213  0.41323084  1
  O  O35  1  0.37905978  0.86774213  0.08676916  1
