# generated using pymatgen
data_Ce12(ReC3)5
_symmetry_space_group_name_H-M   'P 1'
_cell_length_a   5.21423663
_cell_length_b   10.83977252
_cell_length_c   10.84515053
_cell_angle_alpha   119.98360075
_cell_angle_beta   90.00000000
_cell_angle_gamma   90.00000000
_symmetry_Int_Tables_number   1
_chemical_formula_structural   Ce12(ReC3)5
_chemical_formula_sum   'Ce12 Re5 C15'
_cell_volume   530.94417917
_cell_formula_units_Z   1
loop_
 _symmetry_equiv_pos_site_id
 _symmetry_equiv_pos_as_xyz
  1  'x, y, z'
loop_
 _atom_site_type_symbol
 _atom_site_label
 _atom_site_symmetry_multiplicity
 _atom_site_fract_x
 _atom_site_fract_y
 _atom_site_fract_z
 _atom_site_occupancy
  Ce  Ce0  1  -0.00000000  0.27299808  0.46289588  1
  Ce  Ce1  1  -0.00000000  0.18995854  0.72698295  1
  Ce  Ce2  1  0.00000000  0.53685386  0.80999538  1
  Ce  Ce3  1  -0.00000000  0.81010220  0.53710412  1
  Ce  Ce4  1  -0.00000000  0.46297559  0.27301705  1
  Ce  Ce5  1  0.00000000  0.72685848  0.19000462  1
  Ce  Ce6  1  0.50000000  0.42650714  0.00000000  1
  Ce  Ce7  1  0.50000000  0.57337110  0.57326861  1
  Ce  Ce8  1  0.50000000  0.00010249  0.42673139  1
  Ce  Ce9  1  0.50000000  0.79093181  1.00000000  1
  Ce  Ce10  1  0.50000000  0.20916971  0.20912415  1
  Ce  Ce11  1  0.50000000  0.00004556  0.79087585  1
  Re  Re12  1  0.00000000  0.15074505  1.00000000  1
  Re  Re13  1  -0.00000000  0.84916803  0.84913095  1
  Re  Re14  1  -0.00000000  0.00003708  0.15086905  1
  Re  Re15  1  0.50000000  0.33326890  0.66664867  1
  Re  Re16  1  0.50000000  0.66662023  0.33335133  1
  C  C17  1  0.50000000  0.28039311  0.46515510  1
  C  C18  1  0.50000000  0.18457963  0.71964072  1
  C  C19  1  0.50000000  0.53484772  0.81524730  1
  C  C20  1  0.50000000  0.81523801  0.53484490  1
  C  C21  1  0.50000000  0.46493891  0.28035928  1
  C  C22  1  0.50000000  0.71960042  0.18475270  1
  C  C23  1  -0.00000000  0.32856557  0.00000000  1
  C  C24  1  -0.00000000  0.67139143  0.67140700  1
  C  C25  1  -0.00000000  0.99998443  0.32859300  1
  C  C26  1  -0.00000000  0.45346992  1.00000000  1
  C  C27  1  0.00000000  0.54660310  0.54645215  1
  C  C28  1  -0.00000000  0.00015095  0.45354785  1
  C  C29  1  -0.00000000  0.78467142  0.00000000  1
  C  C30  1  -0.00000000  0.21567672  0.21560191  1
  C  C31  1  0.00000000  0.00007481  0.78439809  1
