# generated using pymatgen
data_BeH12(N2Cl)2
_symmetry_space_group_name_H-M   'P 1'
_cell_length_a   6.81512834
_cell_length_b   9.38446860
_cell_length_c   11.92748938
_cell_angle_alpha   90.00000000
_cell_angle_beta   90.00000000
_cell_angle_gamma   90.00000000
_symmetry_Int_Tables_number   1
_chemical_formula_structural   BeH12(N2Cl)2
_chemical_formula_sum   'Be4 H48 N16 Cl8'
_cell_volume   762.83877978
_cell_formula_units_Z   4
loop_
 _symmetry_equiv_pos_site_id
 _symmetry_equiv_pos_as_xyz
  1  'x, y, z'
loop_
 _atom_site_type_symbol
 _atom_site_label
 _atom_site_symmetry_multiplicity
 _atom_site_fract_x
 _atom_site_fract_y
 _atom_site_fract_z
 _atom_site_occupancy
  Be  Be0  1  0.55995950  0.74804951  0.58252442  1
  Be  Be1  1  0.05995950  0.25195049  0.41747558  1
  Be  Be2  1  0.05995950  0.75195049  0.08252442  1
  Be  Be3  1  0.55995950  0.24804951  0.91747558  1
  H  H4  1  0.55213418  0.89238683  0.42207153  1
  H  H5  1  0.05213418  0.10761317  0.57792847  1
  H  H6  1  0.05213418  0.60761317  0.92207153  1
  H  H7  1  0.55213418  0.39238683  0.07792847  1
  H  H8  1  0.54076918  0.72307391  0.38802125  1
  H  H9  1  0.04076918  0.27692609  0.61197875  1
  H  H10  1  0.04076918  0.77692609  0.88802125  1
  H  H11  1  0.54076918  0.22307391  0.11197875  1
  H  H12  1  0.75220339  0.79615316  0.42269298  1
  H  H13  1  0.25220339  0.20384684  0.57730702  1
  H  H14  1  0.25220339  0.70384684  0.92269298  1
  H  H15  1  0.75220339  0.29615316  0.07730702  1
  H  H16  1  0.78498817  0.90877363  0.66495753  1
  H  H17  1  0.28498817  0.09122637  0.33504247  1
  H  H18  1  0.28498817  0.59122637  0.16495753  1
  H  H19  1  0.78498817  0.40877363  0.83504247  1
  H  H20  1  0.87772446  0.74436351  0.65173761  1
  H  H21  1  0.37772446  0.25563649  0.34826239  1
  H  H22  1  0.37772446  0.75563649  0.15173761  1
  H  H23  1  0.87772446  0.24436351  0.84826239  1
  H  H24  1  0.71688349  0.77681223  0.74980877  1
  H  H25  1  0.21688349  0.22318777  0.25019123  1
  H  H26  1  0.21688349  0.72318777  0.24980877  1
  H  H27  1  0.71688349  0.27681223  0.75019123  1
  H  H28  1  0.57412742  0.54278917  0.68478801  1
  H  H29  1  0.07412742  0.45721083  0.31521199  1
  H  H30  1  0.07412742  0.95721083  0.18478801  1
  H  H31  1  0.57412742  0.04278917  0.81521199  1
  H  H32  1  0.39933225  0.52685821  0.59151833  1
  H  H33  1  0.89933225  0.47314179  0.40848167  1
  H  H34  1  0.89933225  0.97314179  0.09151833  1
  H  H35  1  0.39933225  0.02685821  0.90848167  1
  H  H36  1  0.62929783  0.50305299  0.55241237  1
  H  H37  1  0.12929783  0.49694701  0.44758763  1
  H  H38  1  0.12929783  0.99694701  0.05241237  1
  H  H39  1  0.62929783  0.00305299  0.94758763  1
  H  H40  1  0.24141366  0.82578999  0.55642976  1
  H  H41  1  0.74141366  0.17421001  0.44357024  1
  H  H42  1  0.74141366  0.67421001  0.05642976  1
  H  H43  1  0.24141366  0.32578999  0.94357024  1
  H  H44  1  0.35369083  0.92586163  0.65067439  1
  H  H45  1  0.85369083  0.07413837  0.34932561  1
  H  H46  1  0.85369083  0.57413837  0.15067439  1
  H  H47  1  0.35369083  0.42586163  0.84932561  1
  H  H48  1  0.26917763  0.76388080  0.68428228  1
  H  H49  1  0.76917763  0.23611920  0.31571772  1
  H  H50  1  0.76917763  0.73611920  0.18428228  1
  H  H51  1  0.26917763  0.26388080  0.81571772  1
  N  N52  1  0.60397854  0.79354446  0.44317627  1
  N  N53  1  0.10397854  0.20645554  0.55682373  1
  N  N54  1  0.10397854  0.70645554  0.94317627  1
  N  N55  1  0.60397854  0.29354446  0.05682373  1
  N  N56  1  0.75156202  0.80193167  0.66774186  1
  N  N57  1  0.25156202  0.19806833  0.33225814  1
  N  N58  1  0.25156202  0.69806833  0.16774186  1
  N  N59  1  0.75156202  0.30193167  0.83225814  1
  N  N60  1  0.54046038  0.56396609  0.60232545  1
  N  N61  1  0.04046038  0.43603391  0.39767455  1
  N  N62  1  0.04046038  0.93603391  0.10232545  1
  N  N63  1  0.54046038  0.06396609  0.89767455  1
  N  N64  1  0.33846036  0.82243473  0.62335583  1
  N  N65  1  0.83846036  0.17756527  0.37664417  1
  N  N66  1  0.83846036  0.67756527  0.12335583  1
  N  N67  1  0.33846036  0.32243473  0.87664417  1
  Cl  Cl68  1  0.57548675  0.64098922  0.89034953  1
  Cl  Cl69  1  0.07548675  0.35901078  0.10965047  1
  Cl  Cl70  1  0.07548675  0.85901078  0.39034953  1
  Cl  Cl71  1  0.57548675  0.14098922  0.60965047  1
  Cl  Cl72  1  0.06775195  0.03175861  0.83199154  1
  Cl  Cl73  1  0.56775195  0.96824139  0.16800846  1
  Cl  Cl74  1  0.56775195  0.46824139  0.33199154  1
  Cl  Cl75  1  0.06775195  0.53175861  0.66800846  1
