# generated using pymatgen
data_B11H10SI
_symmetry_space_group_name_H-M   'P 1'
_cell_length_a   7.81118121
_cell_length_b   12.34248615
_cell_length_c   14.32763786
_cell_angle_alpha   90.00000000
_cell_angle_beta   90.00000000
_cell_angle_gamma   90.52180586
_symmetry_Int_Tables_number   1
_chemical_formula_structural   B11H10SI
_chemical_formula_sum   'B44 H40 S4 I4'
_cell_volume   1381.26162694
_cell_formula_units_Z   4
loop_
 _symmetry_equiv_pos_site_id
 _symmetry_equiv_pos_as_xyz
  1  'x, y, z'
loop_
 _atom_site_type_symbol
 _atom_site_label
 _atom_site_symmetry_multiplicity
 _atom_site_fract_x
 _atom_site_fract_y
 _atom_site_fract_z
 _atom_site_occupancy
  B  B0  1  0.97682119  0.59874948  0.23023566  1
  B  B1  1  0.47682119  0.09874948  0.26976434  1
  B  B2  1  0.02317881  0.40125052  0.76976434  1
  B  B3  1  0.52317881  0.90125052  0.73023566  1
  B  B4  1  0.89557711  0.73209093  0.18735568  1
  B  B5  1  0.39557711  0.23209093  0.31264432  1
  B  B6  1  0.10442289  0.26790907  0.81264432  1
  B  B7  1  0.60442289  0.76790907  0.68735568  1
  B  B8  1  0.70369658  0.76914743  0.25906132  1
  B  B9  1  0.20369658  0.26914743  0.24093868  1
  B  B10  1  0.29630342  0.23085257  0.74093868  1
  B  B11  1  0.79630342  0.73085257  0.75906132  1
  B  B12  1  0.66568915  0.65812804  0.34617482  1
  B  B13  1  0.16568915  0.15812804  0.15382518  1
  B  B14  1  0.33431085  0.34187196  0.65382518  1
  B  B15  1  0.83431085  0.84187196  0.84617482  1
  B  B16  1  0.83504706  0.55286648  0.32800191  1
  B  B17  1  0.33504706  0.05286648  0.17199809  1
  B  B18  1  0.16495294  0.44713352  0.67199809  1
  B  B19  1  0.66495294  0.94713352  0.82800191  1
  B  B20  1  0.06989010  0.72290527  0.26490900  1
  B  B21  1  0.56989010  0.22290527  0.23509100  1
  B  B22  1  0.93010990  0.27709473  0.73509100  1
  B  B23  1  0.43010990  0.77709473  0.76490900  1
  B  B24  1  0.90874816  0.82306494  0.28205805  1
  B  B25  1  0.40874816  0.32306494  0.21794195  1
  B  B26  1  0.09125184  0.17693506  0.71794195  1
  B  B27  1  0.59125184  0.67693506  0.78205805  1
  B  B28  1  0.77335731  0.77935276  0.37584447  1
  B  B29  1  0.27335731  0.27935276  0.12415553  1
  B  B30  1  0.22664269  0.22064724  0.62415553  1
  B  B31  1  0.72664269  0.72064724  0.87584447  1
  B  B32  1  0.85048289  0.65144242  0.41634556  1
  B  B33  1  0.35048289  0.15144242  0.08365444  1
  B  B34  1  0.14951711  0.34855758  0.58365444  1
  B  B35  1  0.64951711  0.84855758  0.91634556  1
  B  B36  1  0.03412897  0.61686130  0.34812388  1
  B  B37  1  0.53412897  0.11686130  0.15187612  1
  B  B38  1  0.96587103  0.38313870  0.65187612  1
  B  B39  1  0.46587103  0.88313870  0.84812388  1
  B  B40  1  0.99757662  0.75417673  0.37973104  1
  B  B41  1  0.49757662  0.25417673  0.12026896  1
  B  B42  1  0.00242338  0.24582327  0.62026896  1
  B  B43  1  0.50242338  0.74582327  0.87973104  1
  H  H44  1  0.02906477  0.53386925  0.17625638  1
  H  H45  1  0.52906477  0.03386925  0.32374362  1
  H  H46  1  0.97093523  0.46613075  0.82374362  1
  H  H47  1  0.47093523  0.96613075  0.67625638  1
  H  H48  1  0.89847662  0.75148747  0.10630425  1
  H  H49  1  0.39847662  0.25148747  0.39369575  1
  H  H50  1  0.10152338  0.24851253  0.89369575  1
  H  H51  1  0.60152338  0.74851253  0.60630425  1
  H  H52  1  0.58666004  0.81275815  0.22218412  1
  H  H53  1  0.08666004  0.31275815  0.27781588  1
  H  H54  1  0.41333996  0.18724185  0.77781588  1
  H  H55  1  0.91333996  0.68724185  0.72218412  1
  H  H56  1  0.52303801  0.63144829  0.36505720  1
  H  H57  1  0.02303801  0.13144829  0.13494280  1
  H  H58  1  0.47696199  0.36855171  0.63494280  1
  H  H59  1  0.97696199  0.86855171  0.86505720  1
  H  H60  1  0.80163659  0.45916645  0.33569170  1
  H  H61  1  0.30163659  0.95916645  0.16430830  1
  H  H62  1  0.19836341  0.54083355  0.66430830  1
  H  H63  1  0.69836341  0.04083355  0.83569170  1
  H  H64  1  0.20767924  0.74626924  0.23530021  1
  H  H65  1  0.70767924  0.24626924  0.26469979  1
  H  H66  1  0.79232076  0.25373076  0.76469979  1
  H  H67  1  0.29232076  0.75373076  0.73530021  1
  H  H68  1  0.93330898  0.91638661  0.26521840  1
  H  H69  1  0.43330898  0.41638661  0.23478160  1
  H  H70  1  0.06669102  0.08361339  0.73478160  1
  H  H71  1  0.56669102  0.58361339  0.76521840  1
  H  H72  1  0.70307340  0.84204986  0.42588723  1
  H  H73  1  0.20307340  0.34204986  0.07411277  1
  H  H74  1  0.29692660  0.15795014  0.57411277  1
  H  H75  1  0.79692660  0.65795014  0.92588723  1
  H  H76  1  0.83450406  0.62121139  0.49486760  1
  H  H77  1  0.33450406  0.12121139  0.00513240  1
  H  H78  1  0.16549594  0.37878861  0.50513240  1
  H  H79  1  0.66549594  0.87878861  0.99486760  1
  H  H80  1  0.14688170  0.56326232  0.37905894  1
  H  H81  1  0.64688170  0.06326232  0.12094106  1
  H  H82  1  0.85311830  0.43673768  0.62094106  1
  H  H83  1  0.35311830  0.93673768  0.87905894  1
  S  S84  1  0.72285543  0.61559506  0.21474128  1
  S  S85  1  0.22285543  0.11559506  0.28525872  1
  S  S86  1  0.27714457  0.38440494  0.78525872  1
  S  S87  1  0.77714457  0.88440494  0.71474128  1
  I  I88  1  0.16493725  0.83802664  0.47903475  1
  I  I89  1  0.66493725  0.33802664  0.02096525  1
  I  I90  1  0.83506275  0.16197336  0.52096525  1
  I  I91  1  0.33506275  0.66197336  0.97903475  1
