# generated using pymatgen
data_Y5RuCl9
_symmetry_space_group_name_H-M   'P 1'
_cell_length_a   12.44934090
_cell_length_b   12.44934090
_cell_length_c   23.90243102
_cell_angle_alpha   105.09498443
_cell_angle_beta   105.09498443
_cell_angle_gamma   90.00000000
_symmetry_Int_Tables_number   1
_chemical_formula_structural   Y5RuCl9
_chemical_formula_sum   'Y40 Ru8 Cl72'
_cell_volume   3444.15620563
_cell_formula_units_Z   8
loop_
 _symmetry_equiv_pos_site_id
 _symmetry_equiv_pos_as_xyz
  1  'x, y, z'
loop_
 _atom_site_type_symbol
 _atom_site_label
 _atom_site_symmetry_multiplicity
 _atom_site_fract_x
 _atom_site_fract_y
 _atom_site_fract_z
 _atom_site_occupancy
  Y  Y0  1  0.82945209  0.45477294  0.31355462  1
  Y  Y1  1  0.48410253  0.35878168  0.31355462  1
  Y  Y2  1  0.95477294  0.98410253  0.81355462  1
  Y  Y3  1  0.85878168  0.32945209  0.81355462  1
  Y  Y4  1  0.17054791  0.54522706  0.68644538  1
  Y  Y5  1  0.51589747  0.64121832  0.68644538  1
  Y  Y6  1  0.04522706  0.01589747  0.18644538  1
  Y  Y7  1  0.14121832  0.67054791  0.18644538  1
  Y  Y8  1  0.21347069  0.23749204  0.32204335  1
  Y  Y9  1  0.10857266  0.58455132  0.32204335  1
  Y  Y10  1  0.73749204  0.60857266  0.82204335  1
  Y  Y11  1  0.08455132  0.71347069  0.82204335  1
  Y  Y12  1  0.78652931  0.76250796  0.67795665  1
  Y  Y13  1  0.89142734  0.41544868  0.67795665  1
  Y  Y14  1  0.26250796  0.39142734  0.17795665  1
  Y  Y15  1  0.91544868  0.28652931  0.17795665  1
  Y  Y16  1  0.09061809  0.82253759  0.69190113  1
  Y  Y17  1  0.60128304  0.36936354  0.69190113  1
  Y  Y18  1  0.32253759  0.10128304  0.19190113  1
  Y  Y19  1  0.86936354  0.59061809  0.19190113  1
  Y  Y20  1  0.90938191  0.17746241  0.30809887  1
  Y  Y21  1  0.39871696  0.63063646  0.30809887  1
  Y  Y22  1  0.67746241  0.89871696  0.80809887  1
  Y  Y23  1  0.13063646  0.40938191  0.80809887  1
  Y  Y24  1  0.06866742  0.41444546  0.42536821  1
  Y  Y25  1  0.35670079  0.51092275  0.42536821  1
  Y  Y26  1  0.91444546  0.85670079  0.92536821  1
  Y  Y27  1  0.01092275  0.56866742  0.92536821  1
  Y  Y28  1  0.93133258  0.58555454  0.57463179  1
  Y  Y29  1  0.64329921  0.48907725  0.57463179  1
  Y  Y30  1  0.08555454  0.14329921  0.07463179  1
  Y  Y31  1  0.98907725  0.43133258  0.07463179  1
  Y  Y32  1  0.86820074  0.01910321  0.43476413  1
  Y  Y33  1  0.56656339  0.91566092  0.43476413  1
  Y  Y34  1  0.51910321  0.06656339  0.93476413  1
  Y  Y35  1  0.41566092  0.36820074  0.93476413  1
  Y  Y36  1  0.13179926  0.98089679  0.56523587  1
  Y  Y37  1  0.43343661  0.08433908  0.56523587  1
  Y  Y38  1  0.48089679  0.93343661  0.06523587  1
  Y  Y39  1  0.58433908  0.63179926  0.06523587  1
  Ru  Ru40  1  0.02603578  0.36190299  0.30252699  1
  Ru  Ru41  1  0.27649121  0.44062400  0.30252699  1
  Ru  Ru42  1  0.86190299  0.77649121  0.80252699  1
  Ru  Ru43  1  0.94062400  0.52603578  0.80252699  1
  Ru  Ru44  1  0.97396422  0.63809701  0.69747301  1
  Ru  Ru45  1  0.72350879  0.55937600  0.69747301  1
  Ru  Ru46  1  0.13809701  0.22350879  0.19747301  1
  Ru  Ru47  1  0.05937600  0.47396422  0.19747301  1
  Cl  Cl48  1  0.03247797  0.78379229  0.56724543  1
  Cl  Cl49  1  0.53476747  0.28345314  0.56724543  1
  Cl  Cl50  1  0.28379229  0.03476747  0.06724543  1
  Cl  Cl51  1  0.78345314  0.53247797  0.06724543  1
  Cl  Cl52  1  0.96752203  0.21620771  0.43275457  1
  Cl  Cl53  1  0.46523253  0.71654686  0.43275457  1
  Cl  Cl54  1  0.71620771  0.96523253  0.93275457  1
  Cl  Cl55  1  0.21654686  0.46752203  0.93275457  1
  Cl  Cl56  1  0.71341937  0.27482115  0.31836126  1
  Cl  Cl57  1  0.60494189  0.54354010  0.31836126  1
  Cl  Cl58  1  0.77482115  0.10494189  0.81836126  1
  Cl  Cl59  1  0.04354010  0.21341937  0.81836126  1
  Cl  Cl60  1  0.28658063  0.72517885  0.68163874  1
  Cl  Cl61  1  0.39505811  0.45645990  0.68163874  1
  Cl  Cl62  1  0.22517885  0.89505811  0.18163874  1
  Cl  Cl63  1  0.95645990  0.78658063  0.18163874  1
  Cl  Cl64  1  0.88556005  0.52337903  0.43879984  1
  Cl  Cl65  1  0.55323979  0.41542081  0.43879984  1
  Cl  Cl66  1  0.02337903  0.05323979  0.93879984  1
  Cl  Cl67  1  0.91542081  0.38556005  0.93879984  1
  Cl  Cl68  1  0.11443995  0.47662097  0.56120016  1
  Cl  Cl69  1  0.44676021  0.58457919  0.56120016  1
  Cl  Cl70  1  0.97662097  0.94676021  0.06120016  1
  Cl  Cl71  1  0.08457919  0.61443995  0.06120016  1
  Cl  Cl72  1  0.08412840  0.03907189  0.30808711  1
  Cl  Cl73  1  0.22395871  0.76901522  0.30808711  1
  Cl  Cl74  1  0.53907189  0.72395871  0.80808711  1
  Cl  Cl75  1  0.26901522  0.58412840  0.80808711  1
  Cl  Cl76  1  0.91587160  0.96092811  0.69191289  1
  Cl  Cl77  1  0.77604129  0.23098478  0.69191289  1
  Cl  Cl78  1  0.46092811  0.27604129  0.19191289  1
  Cl  Cl79  1  0.73098478  0.41587160  0.19191289  1
  Cl  Cl80  1  0.82126404  0.37852900  0.54894309  1
  Cl  Cl81  1  0.72767904  0.67041409  0.54894309  1
  Cl  Cl82  1  0.87852900  0.22767904  0.04894309  1
  Cl  Cl83  1  0.17041409  0.32126404  0.04894309  1
  Cl  Cl84  1  0.17873596  0.62147100  0.45105691  1
  Cl  Cl85  1  0.27232096  0.32958591  0.45105691  1
  Cl  Cl86  1  0.12147100  0.77232096  0.95105691  1
  Cl  Cl87  1  0.82958591  0.67873596  0.95105691  1
  Cl  Cl88  1  0.89012668  0.66711189  0.31291252  1
  Cl  Cl89  1  0.42278585  0.14580063  0.31291252  1
  Cl  Cl90  1  0.16711189  0.92278585  0.81291252  1
  Cl  Cl91  1  0.64580063  0.39012668  0.81291252  1
  Cl  Cl92  1  0.10987332  0.33288811  0.68708748  1
  Cl  Cl93  1  0.57721415  0.85419937  0.68708748  1
  Cl  Cl94  1  0.83288811  0.07721415  0.18708748  1
  Cl  Cl95  1  0.35419937  0.60987332  0.18708748  1
  Cl  Cl96  1  0.51117930  0.83681907  0.31942861  1
  Cl  Cl97  1  0.80824932  0.98260954  0.31942861  1
  Cl  Cl98  1  0.33681907  0.30824932  0.81942861  1
  Cl  Cl99  1  0.48260954  0.01117930  0.81942861  1
  Cl  Cl100  1  0.48882070  0.16318093  0.68057139  1
  Cl  Cl101  1  0.19175068  0.01739046  0.68057139  1
  Cl  Cl102  1  0.66318093  0.69175068  0.18057139  1
  Cl  Cl103  1  0.51739046  0.98882070  0.18057139  1
  Cl  Cl104  1  0.05573020  0.91590923  0.44403139  1
  Cl  Cl105  1  0.38830119  0.02812216  0.44403139  1
  Cl  Cl106  1  0.41590923  0.88830119  0.94403139  1
  Cl  Cl107  1  0.52812216  0.55573020  0.94403139  1
  Cl  Cl108  1  0.94426980  0.08409077  0.55596861  1
  Cl  Cl109  1  0.61169881  0.97187784  0.55596861  1
  Cl  Cl110  1  0.58409077  0.11169881  0.05596861  1
  Cl  Cl111  1  0.47187784  0.44426980  0.05596861  1
  Cl  Cl112  1  0.76700774  0.83778690  0.44187517  1
  Cl  Cl113  1  0.67486744  0.10408827  0.44187517  1
  Cl  Cl114  1  0.33778690  0.17486744  0.94187517  1
  Cl  Cl115  1  0.60408827  0.26700774  0.94187517  1
  Cl  Cl116  1  0.23299226  0.16221310  0.55812483  1
  Cl  Cl117  1  0.32513256  0.89591173  0.55812483  1
  Cl  Cl118  1  0.66221310  0.82513256  0.05812483  1
  Cl  Cl119  1  0.39591173  0.73299226  0.05812483  1
