# generated using pymatgen
data_Cs2BaTa6(Br5O)3
_symmetry_space_group_name_H-M   'P 1'
_cell_length_a   9.98310078
_cell_length_b   9.93140385
_cell_length_c   18.74710454
_cell_angle_alpha   89.48145491
_cell_angle_beta   90.25792725
_cell_angle_gamma   119.82884580
_symmetry_Int_Tables_number   1
_chemical_formula_structural   Cs2BaTa6(Br5O)3
_chemical_formula_sum   'Cs4 Ba2 Ta12 Br30 O6'
_cell_volume   1612.38806671
_cell_formula_units_Z   2
loop_
 _symmetry_equiv_pos_site_id
 _symmetry_equiv_pos_as_xyz
  1  'x, y, z'
loop_
 _atom_site_type_symbol
 _atom_site_label
 _atom_site_symmetry_multiplicity
 _atom_site_fract_x
 _atom_site_fract_y
 _atom_site_fract_z
 _atom_site_occupancy
  Cs  Cs0  1  0.33291981  0.66703035  0.54041960  1
  Cs  Cs1  1  0.66708019  0.33411054  0.04041960  1
  Cs  Cs2  1  0.66703930  0.33270120  0.45955771  1
  Cs  Cs3  1  0.33296070  0.66566190  0.95955771  1
  Ba  Ba4  1  0.33496597  0.66723668  0.25001685  1
  Ba  Ba5  1  0.66503403  0.33227070  0.75001685  1
  Ta  Ta6  1  0.81676050  0.83280010  0.18744582  1
  Ta  Ta7  1  0.17087771  0.98402719  0.18449036  1
  Ta  Ta8  1  0.01205355  0.17644751  0.18772302  1
  Ta  Ta9  1  0.18323950  0.01603961  0.68744582  1
  Ta  Ta10  1  0.98794645  0.16439395  0.68772302  1
  Ta  Ta11  1  0.82912229  0.81314948  0.68449036  1
  Ta  Ta12  1  0.18304476  0.16714852  0.81251393  1
  Ta  Ta13  1  0.82929216  0.01627403  0.81540716  1
  Ta  Ta14  1  0.98809474  0.82356705  0.81239394  1
  Ta  Ta15  1  0.81695524  0.98410376  0.31251393  1
  Ta  Ta16  1  0.01190526  0.83547231  0.31239394  1
  Ta  Ta17  1  0.17070784  0.18698187  0.31540716  1
  Br  Br18  1  0.20100537  0.21753157  0.59068110  1
  Br  Br19  1  0.78398278  0.98651848  0.59091803  1
  Br  Br20  1  0.01540021  0.79843979  0.59076621  1
  Br  Br21  1  0.79899463  0.01652619  0.09068110  1
  Br  Br22  1  0.98459979  0.78303959  0.09076621  1
  Br  Br23  1  0.21601722  0.20253570  0.09091803  1
  Br  Br24  1  0.79888849  0.78248560  0.40933045  1
  Br  Br25  1  0.21603911  0.01365440  0.40908652  1
  Br  Br26  1  0.98458701  0.20163015  0.40921972  1
  Br  Br27  1  0.20111151  0.98359711  0.90933045  1
  Br  Br28  1  0.01541299  0.21704313  0.90921972  1
  Br  Br29  1  0.78396089  0.79761529  0.90908652  1
  Br  Br30  1  0.55646874  0.61508907  0.11489752  1
  Br  Br31  1  0.38579576  0.94148190  0.11413453  1
  Br  Br32  1  0.05684245  0.44095648  0.11517236  1
  Br  Br33  1  0.44353126  0.05862033  0.61489752  1
  Br  Br34  1  0.94315755  0.38411403  0.61517236  1
  Br  Br35  1  0.61420424  0.55568614  0.61413453  1
  Br  Br36  1  0.44332570  0.38476501  0.88506957  1
  Br  Br37  1  0.61440324  0.05857506  0.88583598  1
  Br  Br38  1  0.94311660  0.55878681  0.88485765  1
  Br  Br39  1  0.55667430  0.94143931  0.38506957  1
  Br  Br40  1  0.05688340  0.61567021  0.38485765  1
  Br  Br41  1  0.38559676  0.44417183  0.38583598  1
  Br  Br42  1  0.20570961  0.41431327  0.74965187  1
  Br  Br43  1  0.58586768  0.79304355  0.75003271  1
  Br  Br44  1  0.20577830  0.79144758  0.75035901  1
  Br  Br45  1  0.79429039  0.20860366  0.24965187  1
  Br  Br46  1  0.79422170  0.58566928  0.25035901  1
  Br  Br47  1  0.41413232  0.20717587  0.25003271  1
  O  O48  1  0.82933103  0.16786169  0.74981883  1
  O  O49  1  0.82941746  0.66168548  0.75019211  1
  O  O50  1  0.34222979  0.17112039  0.75000743  1
  O  O51  1  0.17066897  0.33853066  0.24981883  1
  O  O52  1  0.65777021  0.82889061  0.25000743  1
  O  O53  1  0.17058254  0.83226802  0.25019211  1
