# generated using pymatgen
data_Rb2TiV3(PO6)3
_symmetry_space_group_name_H-M   'P 1'
_cell_length_a   9.63748137
_cell_length_b   13.78946266
_cell_length_c   13.78962036
_cell_angle_alpha   119.99961873
_cell_angle_beta   90.00000000
_cell_angle_gamma   90.00000000
_symmetry_Int_Tables_number   1
_chemical_formula_structural   Rb2TiV3(PO6)3
_chemical_formula_sum   'Rb8 Ti4 V12 P12 O72'
_cell_volume   1587.06788964
_cell_formula_units_Z   4
loop_
 _symmetry_equiv_pos_site_id
 _symmetry_equiv_pos_as_xyz
  1  'x, y, z'
loop_
 _atom_site_type_symbol
 _atom_site_label
 _atom_site_symmetry_multiplicity
 _atom_site_fract_x
 _atom_site_fract_y
 _atom_site_fract_z
 _atom_site_occupancy
  Rb  Rb0  1  0.51488725  0.00000000  0.50000000  1
  Rb  Rb1  1  0.51488577  0.50000000  0.00000000  1
  Rb  Rb2  1  0.51488682  0.50000000  0.50000000  1
  Rb  Rb3  1  0.01488725  0.50000000  0.50000000  1
  Rb  Rb4  1  0.01488577  0.50000000  0.00000000  1
  Rb  Rb5  1  0.01488682  0.00000000  0.50000000  1
  Rb  Rb6  1  0.07423969  0.00000000  0.00000000  1
  Rb  Rb7  1  0.57423969  0.00000000  0.00000000  1
  Ti  Ti8  1  0.50918432  0.33332706  0.66666675  1
  Ti  Ti9  1  0.50918432  0.66667294  0.33333325  1
  Ti  Ti10  1  0.00918432  0.66666031  0.33333325  1
  Ti  Ti11  1  0.00918432  0.33333969  0.66666675  1
  V  V12  1  0.30668668  0.76632898  0.73548472  1
  V  V13  1  0.30669574  0.96915848  0.23367303  1
  V  V14  1  0.30667011  0.26450449  0.03084421  1
  V  V15  1  0.30668668  0.23367102  0.26451528  1
  V  V16  1  0.30669574  0.03084152  0.76632697  1
  V  V17  1  0.30667011  0.73549551  0.96915579  1
  V  V18  1  0.80668668  0.03084426  0.26451528  1
  V  V19  1  0.80669574  0.73548545  0.76632697  1
  V  V20  1  0.80667011  0.23366028  0.96915579  1
  V  V21  1  0.80668668  0.96915574  0.73548472  1
  V  V22  1  0.80669574  0.26451455  0.23367303  1
  V  V23  1  0.80667011  0.76633972  0.03084421  1
  P  P24  1  0.25845012  0.52406030  0.71698329  1
  P  P25  1  0.25844403  0.19292892  0.47594274  1
  P  P26  1  0.25844063  0.28301326  0.80707249  1
  P  P27  1  0.25845012  0.47593970  0.28301671  1
  P  P28  1  0.25844403  0.80707108  0.52405726  1
  P  P29  1  0.25844063  0.71698674  0.19292751  1
  P  P30  1  0.75845012  0.80707701  0.28301671  1
  P  P31  1  0.75844403  0.71698617  0.52405726  1
  P  P32  1  0.75844063  0.47594077  0.19292751  1
  P  P33  1  0.75845012  0.19292299  0.71698329  1
  P  P34  1  0.75844403  0.28301383  0.47594274  1
  P  P35  1  0.75844063  0.52405923  0.80707249  1
  O  O36  1  0.39144112  0.45157065  0.67225800  1
  O  O37  1  0.39144106  0.22067800  0.54843051  1
  O  O38  1  0.39143969  0.32774621  0.77932603  1
  O  O39  1  0.39144112  0.54842935  0.32774200  1
  O  O40  1  0.39144106  0.77932200  0.45156949  1
  O  O41  1  0.39143969  0.67225379  0.22067397  1
  O  O42  1  0.89144112  0.77931265  0.32774200  1
  O  O43  1  0.89144106  0.67224749  0.45156949  1
  O  O44  1  0.89143969  0.54842018  0.22067397  1
  O  O45  1  0.89144112  0.22068735  0.67225800  1
  O  O46  1  0.89144106  0.32775251  0.54843051  1
  O  O47  1  0.89143969  0.45157982  0.77932603  1
  O  O48  1  0.26197082  0.78499759  0.87199969  1
  O  O49  1  0.26197606  0.08699170  0.21500844  1
  O  O50  1  0.26197177  0.12800625  0.91299998  1
  O  O51  1  0.26197082  0.21500241  0.12800031  1
  O  O52  1  0.26197606  0.91300830  0.78499156  1
  O  O53  1  0.26197177  0.87199375  0.08700002  1
  O  O54  1  0.76197082  0.91299790  0.12800031  1
  O  O55  1  0.76197606  0.87198326  0.78499156  1
  O  O56  1  0.76197177  0.21500626  0.08700002  1
  O  O57  1  0.76197082  0.08700210  0.87199969  1
  O  O58  1  0.76197606  0.12801674  0.21500844  1
  O  O59  1  0.76197177  0.78499374  0.91299998  1
  O  O60  1  0.12850834  0.44934013  0.66791019  1
  O  O61  1  0.12850571  0.21857478  0.55067032  1
  O  O62  1  0.12850692  0.33210280  0.78143618  1
  O  O63  1  0.12850834  0.55065987  0.33208981  1
  O  O64  1  0.12850571  0.78142522  0.44932968  1
  O  O65  1  0.12850692  0.66789720  0.21856382  1
  O  O66  1  0.62850834  0.78142994  0.33208981  1
  O  O67  1  0.62850571  0.66790447  0.44932968  1
  O  O68  1  0.62850692  0.55066662  0.21856382  1
  O  O69  1  0.62850834  0.21857006  0.66791019  1
  O  O70  1  0.62850571  0.33209553  0.55067032  1
  O  O71  1  0.62850692  0.44933338  0.78143618  1
  O  O72  1  0.25910416  0.60535172  0.66925529  1
  O  O73  1  0.25910357  0.06390025  0.39465069  1
  O  O74  1  0.25909952  0.33074794  0.93610567  1
  O  O75  1  0.25910416  0.39464828  0.33074471  1
  O  O76  1  0.25910357  0.93609975  0.60534931  1
  O  O77  1  0.25909952  0.66925206  0.06389433  1
  O  O78  1  0.75910416  0.93609643  0.33074471  1
  O  O79  1  0.75910357  0.66924956  0.60534931  1
  O  O80  1  0.75909952  0.39464227  0.06389433  1
  O  O81  1  0.75910416  0.06390357  0.66925529  1
  O  O82  1  0.75910357  0.33075044  0.39465069  1
  O  O83  1  0.75909952  0.60535773  0.93610567  1
  O  O84  1  0.25415565  0.58507846  0.84641112  1
  O  O85  1  0.25415955  0.26133063  0.41492858  1
  O  O86  1  0.25415354  0.15359584  0.73866902  1
  O  O87  1  0.25415565  0.41492154  0.15358888  1
  O  O88  1  0.25415955  0.73866937  0.58507142  1
  O  O89  1  0.25415354  0.84640416  0.26133098  1
  O  O90  1  0.75415565  0.73866735  0.15358888  1
  O  O91  1  0.75415955  0.84640205  0.58507142  1
  O  O92  1  0.75415354  0.41492682  0.26133098  1
  O  O93  1  0.75415565  0.26133265  0.84641112  1
  O  O94  1  0.75415955  0.15359795  0.41492858  1
  O  O95  1  0.75415354  0.58507318  0.73866902  1
  O  O96  1  0.47493192  0.76126130  0.73275651  1
  O  O97  1  0.47492280  0.97149343  0.23873887  1
  O  O98  1  0.47493640  0.26723484  0.02850468  1
  O  O99  1  0.47493192  0.23873870  0.26724349  1
  O  O100  1  0.47492280  0.02850657  0.76126113  1
  O  O101  1  0.47493640  0.73276516  0.97149532  1
  O  O102  1  0.97493192  0.02850479  0.26724349  1
  O  O103  1  0.97492280  0.73275456  0.76126113  1
  O  O104  1  0.97493640  0.23873015  0.97149532  1
  O  O105  1  0.97493192  0.97149521  0.73275651  1
  O  O106  1  0.97492280  0.26724544  0.23873887  1
  O  O107  1  0.97493640  0.76126985  0.02850468  1
