# generated using pymatgen
data_Rb2Ti4H3F21
_symmetry_space_group_name_H-M   'P 1'
_cell_length_a   10.55441410
_cell_length_b   10.58054770
_cell_length_c   10.92978712
_cell_angle_alpha   89.44196412
_cell_angle_beta   66.19653083
_cell_angle_gamma   64.23723288
_symmetry_Int_Tables_number   1
_chemical_formula_structural   Rb2Ti4H3F21
_chemical_formula_sum   'Rb4 Ti8 H6 F42'
_cell_volume   985.17877461
_cell_formula_units_Z   2
loop_
 _symmetry_equiv_pos_site_id
 _symmetry_equiv_pos_as_xyz
  1  'x, y, z'
loop_
 _atom_site_type_symbol
 _atom_site_label
 _atom_site_symmetry_multiplicity
 _atom_site_fract_x
 _atom_site_fract_y
 _atom_site_fract_z
 _atom_site_occupancy
  Rb  Rb0  1  0.31476832  0.07326837  0.89037774  1
  Rb  Rb1  1  0.68523168  0.92673163  0.10962226  1
  Rb  Rb2  1  0.90567038  0.84115828  0.64361217  1
  Rb  Rb3  1  0.09432962  0.15884172  0.35638783  1
  Ti  Ti4  1  0.79532553  0.59892024  0.39410072  1
  Ti  Ti5  1  0.20467447  0.40107976  0.60589928  1
  Ti  Ti6  1  0.77729562  0.31190472  0.17464426  1
  Ti  Ti7  1  0.22270438  0.68809528  0.82535574  1
  Ti  Ti8  1  0.32771310  0.57332608  0.28131135  1
  Ti  Ti9  1  0.67228690  0.42667392  0.71868865  1
  Ti  Ti10  1  0.34659405  0.85643096  0.50298825  1
  Ti  Ti11  1  0.65340595  0.14356904  0.49701175  1
  H  H12  1  0.34673531  0.81357511  0.12378917  1
  H  H13  1  0.65326469  0.18642489  0.87621083  1
  H  H14  1  0.19834181  0.44927728  0.99857998  1
  H  H15  1  0.80165819  0.55072272  0.00142002  1
  H  H16  1  0.64211803  0.73350548  0.84273526  1
  H  H17  1  0.35788197  0.26649452  0.15726474  1
  F  F18  1  0.31540124  0.91448800  0.12570216  1
  F  F19  1  0.68459876  0.08551200  0.87429784  1
  F  F20  1  0.56267659  0.70625730  0.45018832  1
  F  F21  1  0.43732341  0.29374270  0.54981168  1
  F  F22  1  0.78369834  0.45902761  0.28087236  1
  F  F23  1  0.21630166  0.54097239  0.71912764  1
  F  F24  1  0.20422712  0.35735641  0.01182216  1
  F  F25  1  0.79577288  0.64264359  0.98817784  1
  F  F26  1  0.62561045  0.83061037  0.85296247  1
  F  F27  1  0.37438955  0.16938963  0.14703753  1
  F  F28  1  0.72206972  0.49762460  0.54809768  1
  F  F29  1  0.27793028  0.50237540  0.45190232  1
  F  F30  1  0.77293968  0.72505653  0.52035604  1
  F  F31  1  0.22706032  0.27494347  0.47964396  1
  F  F32  1  0.99279185  0.46529777  0.35263490  1
  F  F33  1  0.00720815  0.53470223  0.64736510  1
  F  F34  1  0.83121958  0.69070413  0.25573948  1
  F  F35  1  0.16878042  0.30929587  0.74426052  1
  F  F36  1  0.98234942  0.19349996  0.13189843  1
  F  F37  1  0.01765058  0.80650004  0.86810157  1
  F  F38  1  0.81330843  0.39897133  0.02778971  1
  F  F39  1  0.18669157  0.60102867  0.97221029  1
  F  F40  1  0.74509780  0.18040208  0.10667618  1
  F  F41  1  0.25490220  0.81959792  0.89332382  1
  F  F42  1  0.55070278  0.45069813  0.24612955  1
  F  F43  1  0.44929722  0.54930187  0.75387045  1
  F  F44  1  0.39311272  0.65301484  0.13241502  1
  F  F45  1  0.60688728  0.34698516  0.86758498  1
  F  F46  1  0.34070468  0.42189396  0.18855112  1
  F  F47  1  0.65929532  0.57810604  0.81144888  1
  F  F48  1  0.12237652  0.69200551  0.33862069  1
  F  F49  1  0.87762348  0.30799449  0.66137931  1
  F  F50  1  0.34200195  0.71405045  0.38582333  1
  F  F51  1  0.65799805  0.28594955  0.61417667  1
  F  F52  1  0.41280049  0.93113966  0.35520244  1
  F  F53  1  0.58719951  0.06886034  0.64479756  1
  F  F54  1  0.28571176  0.74619685  0.64621682  1
  F  F55  1  0.71428824  0.25380315  0.35378318  1
  F  F56  1  0.13802876  0.96518089  0.54938098  1
  F  F57  1  0.86197124  0.03481911  0.45061902  1
  F  F58  1  0.35640921  0.96244933  0.62283119  1
  F  F59  1  0.64359079  0.03755067  0.37716881  1
