# generated using pymatgen
data_Ba2Na2SrAl4F20
_symmetry_space_group_name_H-M   'P 1'
_cell_length_a   5.37969306
_cell_length_b   7.17621000
_cell_length_c   20.40078029
_cell_angle_alpha   90.00000000
_cell_angle_beta   90.00000000
_cell_angle_gamma   89.55578112
_symmetry_Int_Tables_number   1
_chemical_formula_structural   Ba2Na2SrAl4F20
_chemical_formula_sum   'Ba4 Na4 Sr2 Al8 F40'
_cell_volume   787.56491809
_cell_formula_units_Z   2
loop_
 _symmetry_equiv_pos_site_id
 _symmetry_equiv_pos_as_xyz
  1  'x, y, z'
loop_
 _atom_site_type_symbol
 _atom_site_label
 _atom_site_symmetry_multiplicity
 _atom_site_fract_x
 _atom_site_fract_y
 _atom_site_fract_z
 _atom_site_occupancy
  Ba  Ba0  1  0.51674704  0.51426806  0.72238176  1
  Ba  Ba1  1  0.01674704  0.01426806  0.77761824  1
  Ba  Ba2  1  0.48325296  0.48573194  0.27761824  1
  Ba  Ba3  1  0.98325296  0.98573194  0.22238176  1
  Na  Na4  1  0.50430371  0.75283650  0.90660401  1
  Na  Na5  1  0.00430371  0.25283650  0.59339599  1
  Na  Na6  1  0.49569629  0.24716350  0.09339599  1
  Na  Na7  1  0.99569629  0.74716350  0.40660401  1
  Sr  Sr8  1  0.50000000  0.50000000  0.50000000  1
  Sr  Sr9  1  0.00000000  0.00000000  0.00000000  1
  Al  Al10  1  0.49143312  0.04435139  0.63589611  1
  Al  Al11  1  0.99143312  0.54435139  0.86410389  1
  Al  Al12  1  0.50856688  0.95564861  0.36410389  1
  Al  Al13  1  0.00856688  0.45564861  0.13589611  1
  Al  Al14  1  0.49369266  0.22585078  0.90058572  1
  Al  Al15  1  0.99369266  0.72585078  0.59941428  1
  Al  Al16  1  0.50630734  0.77414922  0.09941428  1
  Al  Al17  1  0.00630734  0.27414922  0.40058572  1
  F  F18  1  0.49195581  0.20188131  0.56665332  1
  F  F19  1  0.99195581  0.70188131  0.93334668  1
  F  F20  1  0.50804419  0.79811869  0.43334668  1
  F  F21  1  0.00804419  0.29811869  0.06665332  1
  F  F22  1  0.47734773  0.23628171  0.81241161  1
  F  F23  1  0.97734773  0.73628171  0.68758839  1
  F  F24  1  0.52265227  0.76371829  0.18758839  1
  F  F25  1  0.02265227  0.26371829  0.31241161  1
  F  F26  1  0.26600637  0.19621009  0.67801115  1
  F  F27  1  0.76600637  0.69621009  0.82198885  1
  F  F28  1  0.73399363  0.80378991  0.32198885  1
  F  F29  1  0.23399363  0.30378991  0.17801115  1
  F  F30  1  0.74105251  0.17330922  0.67597236  1
  F  F31  1  0.24105251  0.67330922  0.82402764  1
  F  F32  1  0.25894749  0.82669078  0.32402764  1
  F  F33  1  0.75894749  0.32669078  0.17597236  1
  F  F34  1  0.99633708  0.29478398  0.48793081  1
  F  F35  1  0.49633708  0.79478398  0.01206919  1
  F  F36  1  0.00366292  0.70521602  0.51206919  1
  F  F37  1  0.50366292  0.20521602  0.98793081  1
  F  F38  1  0.76712822  0.53497924  0.60091621  1
  F  F39  1  0.26712822  0.03497924  0.89908379  1
  F  F40  1  0.23287178  0.46502076  0.39908379  1
  F  F41  1  0.73287178  0.96502076  0.10091621  1
  F  F42  1  0.24848734  0.55606165  0.60454877  1
  F  F43  1  0.74848734  0.05606165  0.89545123  1
  F  F44  1  0.75151266  0.44393835  0.39545123  1
  F  F45  1  0.25151266  0.94393835  0.10454877  1
  F  F46  1  0.47655421  0.88643683  0.70507875  1
  F  F47  1  0.97655421  0.38643683  0.79492125  1
  F  F48  1  0.52344579  0.11356317  0.29492125  1
  F  F49  1  0.02344579  0.61356317  0.20507875  1
  F  F50  1  0.21956534  0.92173752  0.59735132  1
  F  F51  1  0.71956534  0.42173752  0.90264868  1
  F  F52  1  0.78043466  0.07826248  0.40264868  1
  F  F53  1  0.28043466  0.57826248  0.09735132  1
  F  F54  1  0.72620058  0.89490682  0.59382256  1
  F  F55  1  0.22620058  0.39490682  0.90617744  1
  F  F56  1  0.27379942  0.10509318  0.40617744  1
  F  F57  1  0.77379942  0.60509318  0.09382256  1
