# generated using pymatgen
data_MgCu2(TeO4)2
_symmetry_space_group_name_H-M   'P 1'
_cell_length_a   6.28836134
_cell_length_b   8.74945464
_cell_length_c   13.39749756
_cell_angle_alpha   90.00000000
_cell_angle_beta   91.02887294
_cell_angle_gamma   90.00000000
_symmetry_Int_Tables_number   1
_chemical_formula_structural   MgCu2(TeO4)2
_chemical_formula_sum   'Mg4 Cu8 Te8 O32'
_cell_volume   737.00788521
_cell_formula_units_Z   4
loop_
 _symmetry_equiv_pos_site_id
 _symmetry_equiv_pos_as_xyz
  1  'x, y, z'
loop_
 _atom_site_type_symbol
 _atom_site_label
 _atom_site_symmetry_multiplicity
 _atom_site_fract_x
 _atom_site_fract_y
 _atom_site_fract_z
 _atom_site_occupancy
  Mg  Mg0  1  0.11908810  0.15590027  0.04685389  1
  Mg  Mg1  1  0.88091190  0.84409973  0.95314611  1
  Mg  Mg2  1  0.88091190  0.65590027  0.45314611  1
  Mg  Mg3  1  0.11908810  0.34409973  0.54685389  1
  Cu  Cu4  1  0.74625018  0.18276658  0.89063624  1
  Cu  Cu5  1  0.39393619  0.07427359  0.62224327  1
  Cu  Cu6  1  0.60606381  0.92572641  0.37775673  1
  Cu  Cu7  1  0.25374982  0.81723342  0.10936376  1
  Cu  Cu8  1  0.74625018  0.31723342  0.39063624  1
  Cu  Cu9  1  0.39393619  0.42572641  0.12224327  1
  Cu  Cu10  1  0.25374982  0.68276658  0.60936376  1
  Cu  Cu11  1  0.60606381  0.57427359  0.87775673  1
  Te  Te12  1  0.04684594  0.44538157  0.84143254  1
  Te  Te13  1  0.04684594  0.05461843  0.34143254  1
  Te  Te14  1  0.64712890  0.09762592  0.13665438  1
  Te  Te15  1  0.95315406  0.94538157  0.65856746  1
  Te  Te16  1  0.35287110  0.90237408  0.86334562  1
  Te  Te17  1  0.35287110  0.59762592  0.36334562  1
  Te  Te18  1  0.64712890  0.40237408  0.63665438  1
  Te  Te19  1  0.95315406  0.55461843  0.15856746  1
  O  O20  1  0.04275531  0.24923354  0.40714823  1
  O  O21  1  0.68936517  0.01408116  0.60714395  1
  O  O22  1  0.19432697  0.55794845  0.48583722  1
  O  O23  1  0.80567303  0.05794845  0.01416278  1
  O  O24  1  0.04275531  0.25076646  0.90714823  1
  O  O25  1  0.95724469  0.75076646  0.59285177  1
  O  O26  1  0.09227321  0.12793194  0.61584520  1
  O  O27  1  0.51874158  0.90623003  0.15642150  1
  O  O28  1  0.51874158  0.59376997  0.65642150  1
  O  O29  1  0.27731468  0.88475208  0.66478242  1
  O  O30  1  0.72268532  0.38475208  0.83521758  1
  O  O31  1  0.48125842  0.09376997  0.84357850  1
  O  O32  1  0.90772679  0.87206806  0.38415480  1
  O  O33  1  0.92798204  0.55520131  0.29696294  1
  O  O34  1  0.42555401  0.28590226  0.57295337  1
  O  O35  1  0.42555401  0.21409774  0.07295337  1
  O  O36  1  0.07201796  0.05520131  0.20303706  1
  O  O37  1  0.48125842  0.40623003  0.34357850  1
  O  O38  1  0.07201796  0.44479869  0.70303706  1
  O  O39  1  0.80567303  0.44205155  0.51416278  1
  O  O40  1  0.68936517  0.48591884  0.10714395  1
  O  O41  1  0.72268532  0.11524792  0.33521758  1
  O  O42  1  0.95724469  0.74923354  0.09285177  1
  O  O43  1  0.09227321  0.37206806  0.11584520  1
  O  O44  1  0.19432697  0.94205155  0.98583722  1
  O  O45  1  0.57444599  0.78590226  0.92704663  1
  O  O46  1  0.31063483  0.98591884  0.39285605  1
  O  O47  1  0.31063483  0.51408116  0.89285605  1
  O  O48  1  0.90772679  0.62793194  0.88415480  1
  O  O49  1  0.57444599  0.71409774  0.42704663  1
  O  O50  1  0.27731468  0.61524792  0.16478242  1
  O  O51  1  0.92798204  0.94479869  0.79696294  1
