# generated using pymatgen
data_Gd(Ni2B)6
_symmetry_space_group_name_H-M   'P 1'
_cell_length_a   6.03278667
_cell_length_b   6.03278667
_cell_length_c   10.97341143
_cell_angle_alpha   90.00000000
_cell_angle_beta   90.00000000
_cell_angle_gamma   104.80948315
_symmetry_Int_Tables_number   1
_chemical_formula_structural   Gd(Ni2B)6
_chemical_formula_sum   'Gd2 Ni24 B12'
_cell_volume   386.10528759
_cell_formula_units_Z   2
loop_
 _symmetry_equiv_pos_site_id
 _symmetry_equiv_pos_as_xyz
  1  'x, y, z'
loop_
 _atom_site_type_symbol
 _atom_site_label
 _atom_site_symmetry_multiplicity
 _atom_site_fract_x
 _atom_site_fract_y
 _atom_site_fract_z
 _atom_site_occupancy
  Gd  Gd0  1  0.83421976  0.83421976  0.49734885  1
  Gd  Gd1  1  0.16578024  0.16578024  0.99734885  1
  Ni  Ni2  1  0.56505616  0.56505616  0.91885034  1
  Ni  Ni3  1  0.43494384  0.43494384  0.41885034  1
  Ni  Ni4  1  0.78235926  0.78235926  0.09926794  1
  Ni  Ni5  1  0.21764074  0.21764074  0.59926794  1
  Ni  Ni6  1  0.80493536  0.54338807  0.73396396  1
  Ni  Ni7  1  0.54338807  0.80493536  0.73396396  1
  Ni  Ni8  1  0.19506464  0.45661193  0.23396396  1
  Ni  Ni9  1  0.45661193  0.19506464  0.23396396  1
  Ni  Ni10  1  0.88155691  0.14537546  0.75539839  1
  Ni  Ni11  1  0.14537546  0.88155691  0.75539839  1
  Ni  Ni12  1  0.11844309  0.85462454  0.25539839  1
  Ni  Ni13  1  0.85462454  0.11844309  0.25539839  1
  Ni  Ni14  1  0.27129707  0.65890488  0.56793536  1
  Ni  Ni15  1  0.65890488  0.27129707  0.56793536  1
  Ni  Ni16  1  0.72870293  0.34109512  0.06793536  1
  Ni  Ni17  1  0.34109512  0.72870293  0.06793536  1
  Ni  Ni18  1  0.99568003  0.63036499  0.93689336  1
  Ni  Ni19  1  0.63036499  0.99568003  0.93689336  1
  Ni  Ni20  1  0.00431997  0.36963501  0.43689336  1
  Ni  Ni21  1  0.36963501  0.00431997  0.43689336  1
  Ni  Ni22  1  0.21250707  0.47374109  0.77598984  1
  Ni  Ni23  1  0.47374109  0.21250707  0.77598984  1
  Ni  Ni24  1  0.78749293  0.52625891  0.27598984  1
  Ni  Ni25  1  0.52625891  0.78749293  0.27598984  1
  B  B26  1  0.83605066  0.83605066  0.83806318  1
  B  B27  1  0.16394934  0.16394934  0.33806318  1
  B  B28  1  0.48816185  0.48816185  0.65393479  1
  B  B29  1  0.51183815  0.51183815  0.15393479  1
  B  B30  1  0.75631178  0.32586599  0.88515490  1
  B  B31  1  0.32586599  0.75631178  0.88515490  1
  B  B32  1  0.24368822  0.67413401  0.38515490  1
  B  B33  1  0.67413401  0.24368822  0.38515490  1
  B  B34  1  0.98847468  0.40170897  0.62243166  1
  B  B35  1  0.40170897  0.98847468  0.62243166  1
  B  B36  1  0.01152532  0.59829103  0.12243166  1
  B  B37  1  0.59829103  0.01152532  0.12243166  1
