# generated using pymatgen
data_Cu3Mo8Br2O23
_symmetry_space_group_name_H-M   'P 1'
_cell_length_a   3.99378412
_cell_length_b   22.13812883
_cell_length_c   24.09775460
_cell_angle_alpha   90.00000000
_cell_angle_beta   90.00000000
_cell_angle_gamma   90.00000000
_symmetry_Int_Tables_number   1
_chemical_formula_structural   Cu3Mo8Br2O23
_chemical_formula_sum   'Cu12 Mo32 Br8 O92'
_cell_volume   2130.60074073
_cell_formula_units_Z   4
loop_
 _symmetry_equiv_pos_site_id
 _symmetry_equiv_pos_as_xyz
  1  'x, y, z'
loop_
 _atom_site_type_symbol
 _atom_site_label
 _atom_site_symmetry_multiplicity
 _atom_site_fract_x
 _atom_site_fract_y
 _atom_site_fract_z
 _atom_site_occupancy
  Cu  Cu0  1  0.50000000  0.50000000  0.50000000  1
  Cu  Cu1  1  0.50000000  0.00000000  0.50000000  1
  Cu  Cu2  1  0.50000000  0.50000000  -0.00000000  1
  Cu  Cu3  1  0.50000000  0.00000000  -0.00000000  1
  Cu  Cu4  1  0.02962158  0.40403276  0.47995981  1
  Cu  Cu5  1  0.97037842  0.90403276  0.52004019  1
  Cu  Cu6  1  0.02962158  0.59596724  0.02004019  1
  Cu  Cu7  1  0.97037842  0.09596724  0.97995981  1
  Cu  Cu8  1  0.97037842  0.59596724  0.52004019  1
  Cu  Cu9  1  0.02962158  0.09596724  0.47995981  1
  Cu  Cu10  1  0.97037842  0.40403276  0.97995981  1
  Cu  Cu11  1  0.02962158  0.90403276  0.02004019  1
  Mo  Mo12  1  0.06603215  0.25000000  0.67510136  1
  Mo  Mo13  1  0.93396785  0.75000000  0.32489864  1
  Mo  Mo14  1  0.06603215  0.75000000  0.82489864  1
  Mo  Mo15  1  0.93396785  0.25000000  0.17510136  1
  Mo  Mo16  1  0.91347506  0.25000000  0.53955746  1
  Mo  Mo17  1  0.08652494  0.75000000  0.46044254  1
  Mo  Mo18  1  0.91347506  0.75000000  0.96044254  1
  Mo  Mo19  1  0.08652494  0.25000000  0.03955746  1
  Mo  Mo20  1  0.93010444  0.39479544  0.62934551  1
  Mo  Mo21  1  0.06989556  0.89479544  0.37065449  1
  Mo  Mo22  1  0.93010444  0.60520456  0.87065449  1
  Mo  Mo23  1  0.06989556  0.10520456  0.12934551  1
  Mo  Mo24  1  0.06989556  0.60520456  0.37065449  1
  Mo  Mo25  1  0.93010444  0.10520456  0.62934551  1
  Mo  Mo26  1  0.06989556  0.39479544  0.12934551  1
  Mo  Mo27  1  0.93010444  0.89479544  0.87065449  1
  Mo  Mo28  1  0.92542348  0.33863548  0.78553118  1
  Mo  Mo29  1  0.07457652  0.83863548  0.21446882  1
  Mo  Mo30  1  0.92542348  0.66136452  0.71446882  1
  Mo  Mo31  1  0.07457652  0.16136452  0.28553118  1
  Mo  Mo32  1  0.07457652  0.66136452  0.21446882  1
  Mo  Mo33  1  0.92542348  0.16136452  0.78553118  1
  Mo  Mo34  1  0.07457652  0.33863548  0.28553118  1
  Mo  Mo35  1  0.92542348  0.83863548  0.71446882  1
  Mo  Mo36  1  0.91897553  0.25000000  0.41510102  1
  Mo  Mo37  1  0.08102447  0.75000000  0.58489898  1
  Mo  Mo38  1  0.91897553  0.75000000  0.08489898  1
  Mo  Mo39  1  0.08102447  0.25000000  0.91510102  1
  Mo  Mo40  1  0.06677112  0.50000000  0.75000000  1
  Mo  Mo41  1  0.93322888  0.00000000  0.25000000  1
  Mo  Mo42  1  0.93322888  0.50000000  0.25000000  1
  Mo  Mo43  1  0.06677112  0.00000000  0.75000000  1
  Br  Br44  1  0.51867966  0.43653517  0.42541832  1
  Br  Br45  1  0.48132034  0.93653517  0.57458168  1
  Br  Br46  1  0.51867966  0.56346483  0.07458168  1
  Br  Br47  1  0.48132034  0.06346483  0.92541832  1
  Br  Br48  1  0.48132034  0.56346483  0.57458168  1
  Br  Br49  1  0.51867966  0.06346483  0.42541832  1
  Br  Br50  1  0.48132034  0.43653517  0.92541832  1
  Br  Br51  1  0.51867966  0.93653517  0.07458168  1
  O  O52  1  0.50396542  0.25000000  0.67467893  1
  O  O53  1  0.49603458  0.75000000  0.32532107  1
  O  O54  1  0.50396542  0.75000000  0.82532107  1
  O  O55  1  0.49603458  0.25000000  0.17467893  1
  O  O56  1  0.99792002  0.33573471  0.70086284  1
  O  O57  1  0.00207998  0.83573471  0.29913716  1
  O  O58  1  0.99792002  0.66426529  0.79913716  1
  O  O59  1  0.00207998  0.16426529  0.20086284  1
  O  O60  1  0.00207998  0.66426529  0.29913716  1
  O  O61  1  0.99792002  0.16426529  0.70086284  1
  O  O62  1  0.00207998  0.33573471  0.20086284  1
  O  O63  1  0.99792002  0.83573471  0.79913716  1
  O  O64  1  0.99814550  0.25000000  0.75882134  1
  O  O65  1  0.00185450  0.75000000  0.24117866  1
  O  O66  1  0.99814550  0.75000000  0.74117866  1
  O  O67  1  0.00185450  0.25000000  0.25882134  1
  O  O68  1  0.99823184  0.30473243  0.60723454  1
  O  O69  1  0.00176816  0.80473243  0.39276546  1
  O  O70  1  0.99823184  0.69526757  0.89276546  1
  O  O71  1  0.00176816  0.19526757  0.10723454  1
  O  O72  1  0.00176816  0.69526757  0.39276546  1
  O  O73  1  0.99823184  0.19526757  0.60723454  1
  O  O74  1  0.00176816  0.30473243  0.10723454  1
  O  O75  1  0.99823184  0.80473243  0.89276546  1
  O  O76  1  0.47272031  0.25000000  0.54213191  1
  O  O77  1  0.52727969  0.75000000  0.45786809  1
  O  O78  1  0.47272031  0.75000000  0.95786809  1
  O  O79  1  0.52727969  0.25000000  0.04213191  1
  O  O80  1  0.98473371  0.30878585  0.47748606  1
  O  O81  1  0.01526629  0.80878585  0.52251394  1
  O  O82  1  0.98473371  0.69121415  0.02251394  1
  O  O83  1  0.01526629  0.19121415  0.97748606  1
  O  O84  1  0.01526629  0.69121415  0.52251394  1
  O  O85  1  0.98473371  0.19121415  0.47748606  1
  O  O86  1  0.01526629  0.30878585  0.97748606  1
  O  O87  1  0.98473371  0.80878585  0.02251394  1
  O  O88  1  0.48732535  0.38925156  0.63257032  1
  O  O89  1  0.51267465  0.88925156  0.36742968  1
  O  O90  1  0.48732535  0.61074844  0.86742968  1
  O  O91  1  0.51267465  0.11074844  0.13257032  1
  O  O92  1  0.51267465  0.61074844  0.36742968  1
  O  O93  1  0.48732535  0.11074844  0.63257032  1
  O  O94  1  0.51267465  0.38925156  0.13257032  1
  O  O95  1  0.48732535  0.88925156  0.86742968  1
  O  O96  1  0.98483721  0.41959362  0.55944719  1
  O  O97  1  0.01516279  0.91959362  0.44055281  1
  O  O98  1  0.98483721  0.58040638  0.94055281  1
  O  O99  1  0.01516279  0.08040638  0.05944719  1
  O  O100  1  0.01516279  0.58040638  0.44055281  1
  O  O101  1  0.98483721  0.08040638  0.55944719  1
  O  O102  1  0.01516279  0.41959362  0.05944719  1
  O  O103  1  0.98483721  0.91959362  0.94055281  1
  O  O104  1  0.99736477  0.46074059  0.67533653  1
  O  O105  1  0.00263523  0.96074059  0.32466347  1
  O  O106  1  0.99736477  0.53925941  0.82466347  1
  O  O107  1  0.00263523  0.03925941  0.17533653  1
  O  O108  1  0.00263523  0.53925941  0.32466347  1
  O  O109  1  0.99736477  0.03925941  0.67533653  1
  O  O110  1  0.00263523  0.46074059  0.17533653  1
  O  O111  1  0.99736477  0.96074059  0.82466347  1
  O  O112  1  0.48559849  0.33606678  0.78222286  1
  O  O113  1  0.51440151  0.83606678  0.21777714  1
  O  O114  1  0.48559849  0.66393322  0.71777714  1
  O  O115  1  0.51440151  0.16393322  0.28222286  1
  O  O116  1  0.51440151  0.66393322  0.21777714  1
  O  O117  1  0.48559849  0.16393322  0.78222286  1
  O  O118  1  0.51440151  0.33606678  0.28222286  1
  O  O119  1  0.48559849  0.83606678  0.71777714  1
  O  O120  1  0.99477756  0.31516508  0.85721039  1
  O  O121  1  0.00522244  0.81516508  0.14278961  1
  O  O122  1  0.99477756  0.68483492  0.64278961  1
  O  O123  1  0.00522244  0.18483492  0.35721039  1
  O  O124  1  0.00522244  0.68483492  0.14278961  1
  O  O125  1  0.99477756  0.18483492  0.85721039  1
  O  O126  1  0.00522244  0.31516508  0.35721039  1
  O  O127  1  0.99477756  0.81516508  0.64278961  1
  O  O128  1  0.99512808  0.42002233  0.78747265  1
  O  O129  1  0.00487192  0.92002233  0.21252735  1
  O  O130  1  0.99512808  0.57997767  0.71252735  1
  O  O131  1  0.00487192  0.07997767  0.28747265  1
  O  O132  1  0.00487192  0.57997767  0.21252735  1
  O  O133  1  0.99512808  0.07997767  0.78747265  1
  O  O134  1  0.00487192  0.42002233  0.28747265  1
  O  O135  1  0.99512808  0.92002233  0.71252735  1
  O  O136  1  0.47905142  0.25000000  0.41077065  1
  O  O137  1  0.52094858  0.75000000  0.58922935  1
  O  O138  1  0.47905142  0.75000000  0.08922935  1
  O  O139  1  0.52094858  0.25000000  0.91077065  1
  O  O140  1  0.50929902  0.50000000  0.75000000  1
  O  O141  1  0.49070098  0.00000000  0.25000000  1
  O  O142  1  0.49070098  0.50000000  0.25000000  1
  O  O143  1  0.50929902  0.00000000  0.75000000  1
