# generated using pymatgen
data_Tb11(In3Si2)2
_symmetry_space_group_name_H-M   'P 1'
_cell_length_a   11.53485903
_cell_length_b   11.53485903
_cell_length_c   11.53485903
_cell_angle_alpha   90.28411932
_cell_angle_beta   119.83609943
_cell_angle_gamma   119.83609943
_symmetry_Int_Tables_number   1
_chemical_formula_structural   Tb11(In3Si2)2
_chemical_formula_sum   'Tb22 In12 Si8'
_cell_volume   1087.90422883
_cell_formula_units_Z   2
loop_
 _symmetry_equiv_pos_site_id
 _symmetry_equiv_pos_as_xyz
  1  'x, y, z'
loop_
 _atom_site_type_symbol
 _atom_site_label
 _atom_site_symmetry_multiplicity
 _atom_site_fract_x
 _atom_site_fract_y
 _atom_site_fract_z
 _atom_site_occupancy
  Tb  Tb0  1  0.74986156  0.06524034  0.31537878  1
  Tb  Tb1  1  0.25013844  0.56551723  0.31537878  1
  Tb  Tb2  1  0.74986156  0.31537878  0.06524034  1
  Tb  Tb3  1  0.25013844  0.31537878  0.56551723  1
  Tb  Tb4  1  0.25013844  0.93475966  0.68462122  1
  Tb  Tb5  1  0.74986156  0.43448277  0.68462122  1
  Tb  Tb6  1  0.25013844  0.68462122  0.93475966  1
  Tb  Tb7  1  0.74986156  0.68462122  0.43448277  1
  Tb  Tb8  1  0.65270784  0.75347423  0.10076639  1
  Tb  Tb9  1  0.34729216  0.44805855  0.10076639  1
  Tb  Tb10  1  0.65270784  0.10076639  0.75347423  1
  Tb  Tb11  1  0.34729216  0.10076639  0.44805855  1
  Tb  Tb12  1  0.34729216  0.24652577  0.89923361  1
  Tb  Tb13  1  0.65270784  0.55194145  0.89923361  1
  Tb  Tb14  1  0.34729216  0.89923361  0.24652577  1
  Tb  Tb15  1  0.65270784  0.89923361  0.55194145  1
  Tb  Tb16  1  0.33451468  0.66725734  0.66725734  1
  Tb  Tb17  1  0.66548532  0.33274266  0.33274266  1
  Tb  Tb18  1  0.00000000  0.33274266  0.66725734  1
  Tb  Tb19  1  0.00000000  0.66725734  0.33274266  1
  Tb  Tb20  1  -0.00000000  0.16799207  0.16799207  1
  Tb  Tb21  1  0.00000000  0.83200793  0.83200793  1
  In  In22  1  0.58940741  0.96622730  0.96622730  1
  In  In23  1  0.41059259  0.37681988  0.37681988  1
  In  In24  1  0.00000000  0.37681988  0.96622730  1
  In  In25  1  0.00000000  0.96622730  0.37681988  1
  In  In26  1  0.41059259  0.03377270  0.03377270  1
  In  In27  1  0.58940741  0.62318012  0.62318012  1
  In  In28  1  0.00000000  0.62318012  0.03377270  1
  In  In29  1  -0.00000000  0.03377270  0.62318012  1
  In  In30  1  0.74141971  0.87070985  0.87070985  1
  In  In31  1  0.25858029  0.12929015  0.12929015  1
  In  In32  1  -0.00000000  0.12929015  0.87070985  1
  In  In33  1  0.00000000  0.87070985  0.12929015  1
  Si  Si34  1  0.34639011  0.50000000  0.84639011  1
  Si  Si35  1  0.65360989  0.50000000  0.15360989  1
  Si  Si36  1  0.65360989  0.15360989  0.50000000  1
  Si  Si37  1  0.34639011  0.84639011  0.50000000  1
  Si  Si38  1  -0.00000000  0.38294607  0.38294607  1
  Si  Si39  1  0.00000000  0.61705393  0.61705393  1
  Si  Si40  1  0.50000000  0.75000000  0.25000000  1
  Si  Si41  1  0.50000000  0.25000000  0.75000000  1
