# generated using pymatgen
data_Sm6Fe13Bi
_symmetry_space_group_name_H-M   'P 1'
_cell_length_a   8.06491457
_cell_length_b   8.06491457
_cell_length_c   12.97658855
_cell_angle_alpha   108.10435048
_cell_angle_beta   108.10435048
_cell_angle_gamma   90.00000000
_symmetry_Int_Tables_number   1
_chemical_formula_structural   Sm6Fe13Bi
_chemical_formula_sum   'Sm12 Fe26 Bi2'
_cell_volume   758.16202337
_cell_formula_units_Z   2
loop_
 _symmetry_equiv_pos_site_id
 _symmetry_equiv_pos_as_xyz
  1  'x, y, z'
loop_
 _atom_site_type_symbol
 _atom_site_label
 _atom_site_symmetry_multiplicity
 _atom_site_fract_x
 _atom_site_fract_y
 _atom_site_fract_z
 _atom_site_occupancy
  Sm  Sm0  1  0.60301748  0.60301748  0.20603496  1
  Sm  Sm1  1  0.10301748  0.10301748  0.20603496  1
  Sm  Sm2  1  0.39698252  0.39698252  0.79396504  1
  Sm  Sm3  1  0.89698252  0.89698252  0.79396504  1
  Sm  Sm4  1  0.97672128  0.47672128  0.63138887  1
  Sm  Sm5  1  0.65466758  0.15466758  0.63138887  1
  Sm  Sm6  1  0.15466758  0.97672128  0.63138887  1
  Sm  Sm7  1  0.47672128  0.65466758  0.63138887  1
  Sm  Sm8  1  0.02327872  0.52327872  0.36861113  1
  Sm  Sm9  1  0.34533242  0.84533242  0.36861113  1
  Sm  Sm10  1  0.84533242  0.02327872  0.36861113  1
  Sm  Sm11  1  0.52327872  0.34533242  0.36861113  1
  Fe  Fe12  1  0.00000000  0.50000000  0.00000000  1
  Fe  Fe13  1  0.50000000  0.00000000  0.00000000  1
  Fe  Fe14  1  0.71022370  0.56676936  1.00000000  1
  Fe  Fe15  1  0.28977630  0.43323064  0.00000000  1
  Fe  Fe16  1  0.78977630  0.06676936  0.00000000  1
  Fe  Fe17  1  0.21022370  0.93323064  1.00000000  1
  Fe  Fe18  1  0.56676936  0.28977630  0.00000000  1
  Fe  Fe19  1  0.43323064  0.71022370  1.00000000  1
  Fe  Fe20  1  0.06676936  0.21022370  1.00000000  1
  Fe  Fe21  1  0.93323064  0.78977630  0.00000000  1
  Fe  Fe22  1  0.12005313  0.62005313  0.88129191  1
  Fe  Fe23  1  0.76123878  0.26123878  0.88129191  1
  Fe  Fe24  1  0.26123878  0.12005313  0.88129191  1
  Fe  Fe25  1  0.62005313  0.76123878  0.88129191  1
  Fe  Fe26  1  0.87994687  0.37994687  0.11870809  1
  Fe  Fe27  1  0.23876122  0.73876122  0.11870809  1
  Fe  Fe28  1  0.73876122  0.87994687  0.11870809  1
  Fe  Fe29  1  0.37994687  0.23876122  0.11870809  1
  Fe  Fe30  1  0.29154832  0.79154832  0.81064049  1
  Fe  Fe31  1  0.51909218  0.01909218  0.81064049  1
  Fe  Fe32  1  0.01909218  0.29154832  0.81064049  1
  Fe  Fe33  1  0.79154832  0.51909218  0.81064049  1
  Fe  Fe34  1  0.70845168  0.20845168  0.18935951  1
  Fe  Fe35  1  0.48090782  0.98090782  0.18935951  1
  Fe  Fe36  1  0.98090782  0.70845168  0.18935951  1
  Fe  Fe37  1  0.20845168  0.48090782  0.18935951  1
  Bi  Bi38  1  0.25000000  0.25000000  0.50000000  1
  Bi  Bi39  1  0.75000000  0.75000000  0.50000000  1
