# generated using pymatgen
data_BaMn3(PO4)3
_symmetry_space_group_name_H-M   'P 1'
_cell_length_a   6.81075915
_cell_length_b   9.46721747
_cell_length_c   9.46721747
_cell_angle_alpha   67.53240619
_cell_angle_beta   68.91808444
_cell_angle_gamma   68.91808444
_symmetry_Int_Tables_number   1
_chemical_formula_structural   BaMn3(PO4)3
_chemical_formula_sum   'Ba2 Mn6 P6 O24'
_cell_volume   508.56104646
_cell_formula_units_Z   2
loop_
 _symmetry_equiv_pos_site_id
 _symmetry_equiv_pos_as_xyz
  1  'x, y, z'
loop_
 _atom_site_type_symbol
 _atom_site_label
 _atom_site_symmetry_multiplicity
 _atom_site_fract_x
 _atom_site_fract_y
 _atom_site_fract_z
 _atom_site_occupancy
  Ba  Ba0  1  0.13445805  0.75000000  0.75000000  1
  Ba  Ba1  1  0.86554195  0.25000000  0.25000000  1
  Mn  Mn2  1  0.38178809  0.11821191  0.61821191  1
  Mn  Mn3  1  0.61821191  0.38178809  0.88178809  1
  Mn  Mn4  1  0.38178809  0.61821191  0.11821191  1
  Mn  Mn5  1  0.61821191  0.88178809  0.38178809  1
  Mn  Mn6  1  0.50000000  -0.00000000  -0.00000000  1
  Mn  Mn7  1  -0.00000000  0.50000000  0.50000000  1
  P  P8  1  0.64705659  0.75000000  0.75000000  1
  P  P9  1  0.35294341  0.25000000  0.25000000  1
  P  P10  1  0.17894108  0.32105892  0.82105892  1
  P  P11  1  0.82105892  0.17894108  0.67894108  1
  P  P12  1  0.17894108  0.82105892  0.32105892  1
  P  P13  1  0.82105892  0.67894108  0.17894108  1
  O  O14  1  0.86280135  0.66033759  0.66033759  1
  O  O15  1  0.13719865  0.33966241  0.33966241  1
  O  O16  1  0.31652347  0.16033759  0.16033759  1
  O  O17  1  0.68347653  0.83966241  0.83966241  1
  O  O18  1  0.50607843  0.86836557  0.63163443  1
  O  O19  1  0.49392157  0.36836557  0.13163443  1
  O  O20  1  0.49392157  0.13163443  0.36836557  1
  O  O21  1  0.50607843  0.63163443  0.86836557  1
  O  O22  1  0.94198850  0.34100504  0.91958405  1
  O  O23  1  0.05801150  0.08041595  0.65899496  1
  O  O24  1  0.29742241  0.84100504  0.41958405  1
  O  O25  1  0.70257759  0.58041595  0.15899496  1
  O  O26  1  0.05801150  0.65899496  0.08041595  1
  O  O27  1  0.94198850  0.91958405  0.34100504  1
  O  O28  1  0.70257759  0.15899496  0.58041595  1
  O  O29  1  0.29742241  0.41958405  0.84100504  1
  O  O30  1  0.20205609  0.36004671  0.63727091  1
  O  O31  1  0.79794391  0.36272909  0.63995329  1
  O  O32  1  0.30062630  0.86004671  0.13727091  1
  O  O33  1  0.69937370  0.86272909  0.13995329  1
  O  O34  1  0.79794391  0.63995329  0.36272909  1
  O  O35  1  0.20205609  0.63727091  0.36004671  1
  O  O36  1  0.69937370  0.13995329  0.86272909  1
  O  O37  1  0.30062630  0.13727091  0.86004671  1
