# generated using pymatgen
data_CeSb3Pd
_symmetry_space_group_name_H-M   'P 1'
_cell_length_a   6.26798444
_cell_length_b   12.86470401
_cell_length_c   12.64884816
_cell_angle_alpha   90.00000000
_cell_angle_beta   90.00000000
_cell_angle_gamma   90.00000000
_symmetry_Int_Tables_number   1
_chemical_formula_structural   CeSb3Pd
_chemical_formula_sum   'Ce8 Sb24 Pd8'
_cell_volume   1019.94954218
_cell_formula_units_Z   8
loop_
 _symmetry_equiv_pos_site_id
 _symmetry_equiv_pos_as_xyz
  1  'x, y, z'
loop_
 _atom_site_type_symbol
 _atom_site_label
 _atom_site_symmetry_multiplicity
 _atom_site_fract_x
 _atom_site_fract_y
 _atom_site_fract_z
 _atom_site_occupancy
  Ce  Ce0  1  0.75000000  0.00000000  0.19440261  1
  Ce  Ce1  1  0.25000000  0.50000000  0.80559739  1
  Ce  Ce2  1  0.25000000  0.00000000  0.80559739  1
  Ce  Ce3  1  0.75000000  0.50000000  0.19440261  1
  Ce  Ce4  1  0.27819984  0.25000000  0.18814311  1
  Ce  Ce5  1  0.72180016  0.75000000  0.81185689  1
  Ce  Ce6  1  0.22180016  0.75000000  0.18814311  1
  Ce  Ce7  1  0.77819984  0.25000000  0.81185689  1
  Sb  Sb8  1  0.01617658  0.12295644  0.00212998  1
  Sb  Sb9  1  0.98382342  0.62295644  0.99787002  1
  Sb  Sb10  1  0.48382342  0.87704356  0.00212998  1
  Sb  Sb11  1  0.51617658  0.37704356  0.99787002  1
  Sb  Sb12  1  0.98382342  0.87704356  0.99787002  1
  Sb  Sb13  1  0.01617658  0.37704356  0.00212998  1
  Sb  Sb14  1  0.51617658  0.12295644  0.99787002  1
  Sb  Sb15  1  0.48382342  0.62295644  0.00212998  1
  Sb  Sb16  1  0.25000000  0.00000000  0.25443607  1
  Sb  Sb17  1  0.75000000  0.50000000  0.74556393  1
  Sb  Sb18  1  0.75000000  0.00000000  0.74556393  1
  Sb  Sb19  1  0.25000000  0.50000000  0.25443607  1
  Sb  Sb20  1  0.25000000  0.00000000  0.53149188  1
  Sb  Sb21  1  0.75000000  0.50000000  0.46850812  1
  Sb  Sb22  1  0.75000000  0.00000000  0.46850812  1
  Sb  Sb23  1  0.25000000  0.50000000  0.53149188  1
  Sb  Sb24  1  0.73027707  0.75000000  0.26121754  1
  Sb  Sb25  1  0.26972293  0.25000000  0.73878246  1
  Sb  Sb26  1  0.76972293  0.25000000  0.26121754  1
  Sb  Sb27  1  0.23027707  0.75000000  0.73878246  1
  Sb  Sb28  1  0.41928111  0.25000000  0.43437293  1
  Sb  Sb29  1  0.58071889  0.75000000  0.56562707  1
  Sb  Sb30  1  0.08071889  0.75000000  0.43437293  1
  Sb  Sb31  1  0.91928111  0.25000000  0.56562707  1
  Pd  Pd32  1  0.05018396  0.13558447  0.39433404  1
  Pd  Pd33  1  0.94981604  0.63558447  0.60566596  1
  Pd  Pd34  1  0.44981604  0.86441553  0.39433404  1
  Pd  Pd35  1  0.55018396  0.36441553  0.60566596  1
  Pd  Pd36  1  0.94981604  0.86441553  0.60566596  1
  Pd  Pd37  1  0.05018396  0.36441553  0.39433404  1
  Pd  Pd38  1  0.55018396  0.13558447  0.60566596  1
  Pd  Pd39  1  0.44981604  0.63558447  0.39433404  1
