# generated using pymatgen
data_La4(TmS2)11
_symmetry_space_group_name_H-M   'P 1'
_cell_length_a   3.95523721
_cell_length_b   11.33374677
_cell_length_c   19.68395146
_cell_angle_alpha   91.38479881
_cell_angle_beta   95.76615241
_cell_angle_gamma   90.00000000
_symmetry_Int_Tables_number   1
_chemical_formula_structural   La4(TmS2)11
_chemical_formula_sum   'La4 Tm11 S22'
_cell_volume   877.66173693
_cell_formula_units_Z   1
loop_
 _symmetry_equiv_pos_site_id
 _symmetry_equiv_pos_as_xyz
  1  'x, y, z'
loop_
 _atom_site_type_symbol
 _atom_site_label
 _atom_site_symmetry_multiplicity
 _atom_site_fract_x
 _atom_site_fract_y
 _atom_site_fract_z
 _atom_site_occupancy
  La  La0  1  0.10404365  0.01241526  0.20808731  1
  La  La1  1  0.89595635  0.98758474  0.79191269  1
  La  La2  1  0.36716830  0.34791986  0.73433661  1
  La  La3  1  0.63283170  0.65208014  0.26566339  1
  Tm  Tm4  1  0.79773518  0.05805789  0.59547035  1
  Tm  Tm5  1  0.20226482  0.94194211  0.40452965  1
  Tm  Tm6  1  0.46210661  0.27097910  0.92421322  1
  Tm  Tm7  1  0.53789339  0.72902090  0.07578678  1
  Tm  Tm8  1  0.65771228  0.30125230  0.31542455  1
  Tm  Tm9  1  0.34228772  0.69874770  0.68457545  1
  Tm  Tm10  1  0.26378654  0.35200317  0.52757307  1
  Tm  Tm11  1  0.73621346  0.64799683  0.47242693  1
  Tm  Tm12  1  0.06928557  0.36072554  0.13857115  1
  Tm  Tm13  1  0.93071443  0.63927446  0.86142885  1
  Tm  Tm14  1  -0.00000000  0.00000000  -0.00000000  1
  S  S15  1  0.08671856  0.75164069  0.17343712  1
  S  S16  1  0.91328144  0.24835931  0.82656288  1
  S  S17  1  0.18943305  0.69205533  0.37886611  1
  S  S18  1  0.81056695  0.30794467  0.62113389  1
  S  S19  1  0.27998436  0.59023294  0.55996872  1
  S  S20  1  0.72001564  0.40976706  0.44003128  1
  S  S21  1  0.44574840  0.49549101  0.89149679  1
  S  S22  1  0.55425160  0.50450899  0.10850321  1
  S  S23  1  0.13438798  0.45141896  0.26877597  1
  S  S24  1  0.86561202  0.54858104  0.73122403  1
  S  S25  1  0.59286521  0.21416886  0.18573042  1
  S  S26  1  0.40713479  0.78583114  0.81426958  1
  S  S27  1  0.45378651  0.03165549  0.90757302  1
  S  S28  1  0.54621349  0.96834451  0.09242698  1
  S  S29  1  0.35006471  0.09103511  0.70012943  1
  S  S30  1  0.64993529  0.90896489  0.29987057  1
  S  S31  1  0.16868637  0.15270025  0.33737275  1
  S  S32  1  0.83131363  0.84729975  0.66262725  1
  S  S33  1  0.00775153  0.23914550  0.01550306  1
  S  S34  1  0.99224847  0.76085450  0.98449694  1
  S  S35  1  0.25545303  0.11904179  0.51090605  1
  S  S36  1  0.74454697  0.88095821  0.48909395  1
