# generated using pymatgen
data_Cs2Th(Si2O5)3
_symmetry_space_group_name_H-M   'P 1'
_cell_length_a   7.32197485
_cell_length_b   13.85941944
_cell_length_c   16.55504300
_cell_angle_alpha   90.00000000
_cell_angle_beta   90.00000000
_cell_angle_gamma   90.00000000
_symmetry_Int_Tables_number   1
_chemical_formula_structural   Cs2Th(Si2O5)3
_chemical_formula_sum   'Cs8 Th4 Si24 O60'
_cell_volume   1679.97796069
_cell_formula_units_Z   4
loop_
 _symmetry_equiv_pos_site_id
 _symmetry_equiv_pos_as_xyz
  1  'x, y, z'
loop_
 _atom_site_type_symbol
 _atom_site_label
 _atom_site_symmetry_multiplicity
 _atom_site_fract_x
 _atom_site_fract_y
 _atom_site_fract_z
 _atom_site_occupancy
  Cs  Cs0  1  0.24442046  0.99980429  0.53196434  1
  Cs  Cs1  1  0.75557954  0.49980429  0.46803566  1
  Cs  Cs2  1  0.24442046  0.49980429  0.96803566  1
  Cs  Cs3  1  0.75557954  0.99980429  0.03196434  1
  Cs  Cs4  1  0.22475027  0.30999207  0.64385019  1
  Cs  Cs5  1  0.77524973  0.80999207  0.35614981  1
  Cs  Cs6  1  0.22475027  0.80999207  0.85614981  1
  Cs  Cs7  1  0.77524973  0.30999207  0.14385019  1
  Th  Th8  1  0.71281856  0.14983992  0.61989510  1
  Th  Th9  1  0.28718144  0.64983992  0.38010490  1
  Th  Th10  1  0.71281856  0.64983992  0.88010490  1
  Th  Th11  1  0.28718144  0.14983992  0.11989510  1
  Si  Si12  1  0.54815907  0.22102792  0.42315284  1
  Si  Si13  1  0.45184093  0.72102792  0.57684716  1
  Si  Si14  1  0.54815907  0.72102792  0.07684716  1
  Si  Si15  1  0.45184093  0.22102792  0.92315284  1
  Si  Si16  1  0.96376394  0.22857998  0.44383849  1
  Si  Si17  1  0.03623606  0.72857998  0.55616151  1
  Si  Si18  1  0.96376394  0.72857998  0.05616151  1
  Si  Si19  1  0.03623606  0.22857998  0.94383849  1
  Si  Si20  1  0.98530460  0.07523379  0.80747136  1
  Si  Si21  1  0.01469540  0.57523379  0.19252864  1
  Si  Si22  1  0.98530460  0.57523379  0.69252864  1
  Si  Si23  1  0.01469540  0.07523379  0.30747136  1
  Si  Si24  1  0.41884946  0.07134765  0.78267210  1
  Si  Si25  1  0.58115054  0.57134765  0.21732790  1
  Si  Si26  1  0.41884946  0.57134765  0.71732790  1
  Si  Si27  1  0.58115054  0.07134765  0.28267210  1
  Si  Si28  1  0.75066607  0.88226380  0.60938271  1
  Si  Si29  1  0.24933393  0.38226380  0.39061729  1
  Si  Si30  1  0.75066607  0.38226380  0.89061729  1
  Si  Si31  1  0.24933393  0.88226380  0.10938271  1
  Si  Si32  1  0.71957758  0.40607741  0.70399273  1
  Si  Si33  1  0.28042242  0.90607741  0.29600727  1
  Si  Si34  1  0.71957758  0.90607741  0.79600727  1
  Si  Si35  1  0.28042242  0.40607741  0.20399273  1
  O  O36  1  0.51551470  0.17755776  0.51232717  1
  O  O37  1  0.48448530  0.67755776  0.48767283  1
  O  O38  1  0.51551470  0.67755776  0.98767283  1
  O  O39  1  0.48448530  0.17755776  0.01232717  1
  O  O40  1  0.43523892  0.32088970  0.40853879  1
  O  O41  1  0.56476108  0.82088970  0.59146121  1
  O  O42  1  0.43523892  0.82088970  0.09146121  1
  O  O43  1  0.56476108  0.32088970  0.90853879  1
  O  O44  1  0.49789101  0.14202870  0.35304678  1
  O  O45  1  0.50210899  0.64202870  0.64695322  1
  O  O46  1  0.49789101  0.64202870  0.14695322  1
  O  O47  1  0.50210899  0.14202870  0.85304678  1
  O  O48  1  0.76066673  0.25717601  0.40944970  1
  O  O49  1  0.23933327  0.75717601  0.59055030  1
  O  O50  1  0.76066673  0.75717601  0.09055030  1
  O  O51  1  0.23933327  0.25717601  0.90944970  1
  O  O52  1  0.95726423  0.18790352  0.53506450  1
  O  O53  1  0.04273577  0.68790352  0.46493550  1
  O  O54  1  0.95726423  0.68790352  0.96493550  1
  O  O55  1  0.04273577  0.18790352  0.03506450  1
  O  O56  1  0.05422632  0.14960738  0.38244458  1
  O  O57  1  0.94577368  0.64960738  0.61755542  1
  O  O58  1  0.05422632  0.64960738  0.11755542  1
  O  O59  1  0.94577368  0.14960738  0.88244458  1
  O  O60  1  0.91326374  0.11612057  0.72247752  1
  O  O61  1  0.08673626  0.61612057  0.27752248  1
  O  O62  1  0.91326374  0.61612057  0.77752248  1
  O  O63  1  0.08673626  0.11612057  0.22247752  1
  O  O64  1  0.20433168  0.04669485  0.80503523  1
  O  O65  1  0.79566832  0.54669485  0.19496477  1
  O  O66  1  0.20433168  0.54669485  0.69496477  1
  O  O67  1  0.79566832  0.04669485  0.30503523  1
  O  O68  1  0.87965025  0.97525413  0.83635707  1
  O  O69  1  0.12034975  0.47525413  0.16364293  1
  O  O70  1  0.87965025  0.47525413  0.66364293  1
  O  O71  1  0.12034975  0.97525413  0.33635707  1
  O  O72  1  0.44667398  0.11733625  0.69413505  1
  O  O73  1  0.55332602  0.61733625  0.30586495  1
  O  O74  1  0.44667398  0.61733625  0.80586495  1
  O  O75  1  0.55332602  0.11733625  0.19413505  1
  O  O76  1  0.72748718  0.99148177  0.57894402  1
  O  O77  1  0.27251282  0.49148177  0.42105598  1
  O  O78  1  0.72748718  0.49148177  0.92105598  1
  O  O79  1  0.27251282  0.99148177  0.07894402  1
  O  O80  1  0.91917488  0.82991090  0.55954589  1
  O  O81  1  0.08082512  0.32991090  0.44045411  1
  O  O82  1  0.91917488  0.32991090  0.94045411  1
  O  O83  1  0.08082512  0.82991090  0.05954589  1
  O  O84  1  0.68908831  0.31275496  0.64843078  1
  O  O85  1  0.31091169  0.81275496  0.35156922  1
  O  O86  1  0.68908831  0.81275496  0.85156922  1
  O  O87  1  0.31091169  0.31275496  0.14843078  1
  O  O88  1  0.79572393  0.37631956  0.79376597  1
  O  O89  1  0.20427607  0.87631956  0.20623403  1
  O  O90  1  0.79572393  0.87631956  0.70623403  1
  O  O91  1  0.20427607  0.37631956  0.29376597  1
  O  O92  1  0.52568586  0.46657711  0.71038435  1
  O  O93  1  0.47431414  0.96657711  0.28961565  1
  O  O94  1  0.52568586  0.96657711  0.78961565  1
  O  O95  1  0.47431414  0.46657711  0.21038435  1
