# generated using pymatgen
data_K8Tl10Zn
_symmetry_space_group_name_H-M   'P 1'
_cell_length_a   10.47830483
_cell_length_b   10.47830483
_cell_length_c   14.17355156
_cell_angle_alpha   90.00000000
_cell_angle_beta   90.00000000
_cell_angle_gamma   90.00000000
_symmetry_Int_Tables_number   1
_chemical_formula_structural   K8Tl10Zn
_chemical_formula_sum   'K16 Tl20 Zn2'
_cell_volume   1556.18328088
_cell_formula_units_Z   2
loop_
 _symmetry_equiv_pos_site_id
 _symmetry_equiv_pos_as_xyz
  1  'x, y, z'
loop_
 _atom_site_type_symbol
 _atom_site_label
 _atom_site_symmetry_multiplicity
 _atom_site_fract_x
 _atom_site_fract_y
 _atom_site_fract_z
 _atom_site_occupancy
  K  K0  1  0.95388067  0.32314050  0.39489078  1
  K  K1  1  0.54611933  0.17685950  0.39489078  1
  K  K2  1  0.54611933  0.32314050  0.10510922  1
  K  K3  1  0.95388067  0.17685950  0.10510922  1
  K  K4  1  0.04611933  0.67685950  0.60510922  1
  K  K5  1  0.45388067  0.82314050  0.60510922  1
  K  K6  1  0.45388067  0.67685950  0.89489078  1
  K  K7  1  0.04611933  0.82314050  0.89489078  1
  K  K8  1  0.32314050  0.95388067  0.10510922  1
  K  K9  1  0.17685950  0.54611933  0.10510922  1
  K  K10  1  0.32314050  0.54611933  0.39489078  1
  K  K11  1  0.17685950  0.95388067  0.39489078  1
  K  K12  1  0.67685950  0.04611933  0.89489078  1
  K  K13  1  0.82314050  0.45388067  0.89489078  1
  K  K14  1  0.67685950  0.45388067  0.60510922  1
  K  K15  1  0.82314050  0.04611933  0.60510922  1
  Tl  Tl16  1  0.01061787  0.34534898  0.66024587  1
  Tl  Tl17  1  0.48938213  0.15465102  0.66024587  1
  Tl  Tl18  1  0.48938213  0.34534898  0.83975413  1
  Tl  Tl19  1  0.01061787  0.15465102  0.83975413  1
  Tl  Tl20  1  0.98938213  0.65465102  0.33975413  1
  Tl  Tl21  1  0.51061787  0.84534898  0.33975413  1
  Tl  Tl22  1  0.51061787  0.65465102  0.16024587  1
  Tl  Tl23  1  0.98938213  0.84534898  0.16024587  1
  Tl  Tl24  1  0.34534898  0.01061787  0.83975413  1
  Tl  Tl25  1  0.15465102  0.48938213  0.83975413  1
  Tl  Tl26  1  0.34534898  0.48938213  0.66024587  1
  Tl  Tl27  1  0.15465102  0.01061787  0.66024587  1
  Tl  Tl28  1  0.65465102  0.98938213  0.16024587  1
  Tl  Tl29  1  0.84534898  0.51061787  0.16024587  1
  Tl  Tl30  1  0.65465102  0.51061787  0.33975413  1
  Tl  Tl31  1  0.84534898  0.98938213  0.33975413  1
  Tl  Tl32  1  0.75000000  0.75000000  0.45967967  1
  Tl  Tl33  1  0.75000000  0.75000000  0.04032033  1
  Tl  Tl34  1  0.25000000  0.25000000  0.54032033  1
  Tl  Tl35  1  0.25000000  0.25000000  0.95967967  1
  Zn  Zn36  1  0.75000000  0.75000000  0.25000000  1
  Zn  Zn37  1  0.25000000  0.25000000  0.75000000  1
