# generated using pymatgen
data_Ho2ReB6
_symmetry_space_group_name_H-M   'P 1'
_cell_length_a   3.66773884
_cell_length_b   9.15923783
_cell_length_c   11.54483214
_cell_angle_alpha   90.00000000
_cell_angle_beta   90.00000000
_cell_angle_gamma   90.00000000
_symmetry_Int_Tables_number   1
_chemical_formula_structural   Ho2ReB6
_chemical_formula_sum   'Ho8 Re4 B24'
_cell_volume   387.83353896
_cell_formula_units_Z   4
loop_
 _symmetry_equiv_pos_site_id
 _symmetry_equiv_pos_as_xyz
  1  'x, y, z'
loop_
 _atom_site_type_symbol
 _atom_site_label
 _atom_site_symmetry_multiplicity
 _atom_site_fract_x
 _atom_site_fract_y
 _atom_site_fract_z
 _atom_site_occupancy
  Ho  Ho0  1  0.00000000  0.32412535  0.41386197  1
  Ho  Ho1  1  -0.00000000  0.67587465  0.58613803  1
  Ho  Ho2  1  0.00000000  0.82412535  0.08613803  1
  Ho  Ho3  1  -0.00000000  0.17587465  0.91386197  1
  Ho  Ho4  1  0.00000000  0.94364337  0.37002271  1
  Ho  Ho5  1  -0.00000000  0.05635663  0.62997729  1
  Ho  Ho6  1  0.00000000  0.44364337  0.12997729  1
  Ho  Ho7  1  -0.00000000  0.55635663  0.87002271  1
  Re  Re8  1  0.00000000  0.63872677  0.32095212  1
  Re  Re9  1  0.00000000  0.36127323  0.67904788  1
  Re  Re10  1  -0.00000000  0.13872677  0.17904788  1
  Re  Re11  1  -0.00000000  0.86127323  0.82095212  1
  B  B12  1  0.50000000  0.55339823  0.43300760  1
  B  B13  1  0.50000000  0.44660177  0.56699240  1
  B  B14  1  0.50000000  0.05339823  0.06699240  1
  B  B15  1  0.50000000  0.94660177  0.93300760  1
  B  B16  1  0.50000000  0.74989777  0.41929348  1
  B  B17  1  0.50000000  0.25010223  0.58070652  1
  B  B18  1  0.50000000  0.24989777  0.08070652  1
  B  B19  1  0.50000000  0.75010223  0.91929348  1
  B  B20  1  0.50000000  0.79279090  0.26587831  1
  B  B21  1  0.50000000  0.20720910  0.73412169  1
  B  B22  1  0.50000000  0.29279090  0.23412169  1
  B  B23  1  0.50000000  0.70720910  0.76587831  1
  B  B24  1  0.50000000  0.63158582  0.18564966  1
  B  B25  1  0.50000000  0.36841418  0.81435034  1
  B  B26  1  0.50000000  0.13158582  0.31435034  1
  B  B27  1  0.50000000  0.86841418  0.68564966  1
  B  B28  1  0.50000000  0.98282010  0.21221478  1
  B  B29  1  0.50000000  0.01717990  0.78778522  1
  B  B30  1  0.50000000  0.48282010  0.28778522  1
  B  B31  1  0.50000000  0.51717990  0.71221478  1
  B  B32  1  0.50000000  0.60015575  0.02799882  1
  B  B33  1  0.50000000  0.39984425  0.97200118  1
  B  B34  1  0.50000000  0.10015575  0.47200118  1
  B  B35  1  0.50000000  0.89984425  0.52799882  1
