# generated using pymatgen
data_Ga40GeMo8
_symmetry_space_group_name_H-M   'P 1'
_cell_length_a   9.61823270
_cell_length_b   9.61823269
_cell_length_c   9.61823238
_cell_angle_alpha   94.00349037
_cell_angle_beta   94.00349042
_cell_angle_gamma   94.00349398
_symmetry_Int_Tables_number   1
_chemical_formula_structural   Ga40GeMo8
_chemical_formula_sum   'Ga40 Ge1 Mo8'
_cell_volume   882.95163258
_cell_formula_units_Z   1
loop_
 _symmetry_equiv_pos_site_id
 _symmetry_equiv_pos_as_xyz
  1  'x, y, z'
loop_
 _atom_site_type_symbol
 _atom_site_label
 _atom_site_symmetry_multiplicity
 _atom_site_fract_x
 _atom_site_fract_y
 _atom_site_fract_z
 _atom_site_occupancy
  Ga  Ga0  1  0.50000000  0.50000000  0.50000000  1
  Ga  Ga1  1  0.50000000  0.00000000  0.50000000  1
  Ga  Ga2  1  -0.00000000  0.50000000  0.50000000  1
  Ga  Ga3  1  0.50000000  0.50000000  0.00000000  1
  Ga  Ga4  1  0.63422392  0.26649976  0.61015799  1
  Ga  Ga5  1  0.26649976  0.61015799  0.63422392  1
  Ga  Ga6  1  0.61015799  0.63422392  0.26649976  1
  Ga  Ga7  1  0.36577608  0.73350024  0.38984201  1
  Ga  Ga8  1  0.73350024  0.38984201  0.36577608  1
  Ga  Ga9  1  0.38984201  0.36577608  0.73350024  1
  Ga  Ga10  1  0.77843390  0.67372417  0.53146125  1
  Ga  Ga11  1  0.67372417  0.53146125  0.77843390  1
  Ga  Ga12  1  0.53146125  0.77843390  0.67372417  1
  Ga  Ga13  1  0.22156610  0.32627583  0.46853875  1
  Ga  Ga14  1  0.32627583  0.46853875  0.22156610  1
  Ga  Ga15  1  0.46853875  0.22156610  0.32627583  1
  Ga  Ga16  1  0.07477931  0.77790289  0.44900670  1
  Ga  Ga17  1  0.77790289  0.44900670  0.07477931  1
  Ga  Ga18  1  0.44900670  0.07477931  0.77790289  1
  Ga  Ga19  1  0.92522069  0.22209711  0.55099330  1
  Ga  Ga20  1  0.22209711  0.55099330  0.92522069  1
  Ga  Ga21  1  0.55099330  0.92522069  0.22209711  1
  Ga  Ga22  1  0.78505936  0.96630667  0.59863024  1
  Ga  Ga23  1  0.96630667  0.59863024  0.78505936  1
  Ga  Ga24  1  0.59863024  0.78505936  0.96630667  1
  Ga  Ga25  1  0.21494064  0.03369333  0.40136976  1
  Ga  Ga26  1  0.03369333  0.40136976  0.21494064  1
  Ga  Ga27  1  0.40136976  0.21494064  0.03369333  1
  Ga  Ga28  1  0.74434542  0.04934301  0.87413153  1
  Ga  Ga29  1  0.04934301  0.87413153  0.74434542  1
  Ga  Ga30  1  0.87413153  0.74434542  0.04934301  1
  Ga  Ga31  1  0.25565458  0.95065699  0.12586847  1
  Ga  Ga32  1  0.95065699  0.12586847  0.25565458  1
  Ga  Ga33  1  0.12586847  0.25565458  0.95065699  1
  Ga  Ga34  1  0.17493031  0.12483905  0.68296353  1
  Ga  Ga35  1  0.12483905  0.68296353  0.17493031  1
  Ga  Ga36  1  0.68296353  0.17493031  0.12483905  1
  Ga  Ga37  1  0.82506969  0.87516095  0.31703647  1
  Ga  Ga38  1  0.87516095  0.31703647  0.82506969  1
  Ga  Ga39  1  0.31703647  0.82506969  0.87516095  1
  Ge  Ge40  1  -0.00000000  0.00000000  0.00000000  1
  Mo  Mo41  1  0.78727895  0.78727895  0.78727895  1
  Mo  Mo42  1  0.21272105  0.21272105  0.21272105  1
  Mo  Mo43  1  0.61288486  0.28702195  0.88918074  1
  Mo  Mo44  1  0.28702195  0.88918074  0.61288486  1
  Mo  Mo45  1  0.88918074  0.61288486  0.28702195  1
  Mo  Mo46  1  0.38711514  0.71297805  0.11081926  1
  Mo  Mo47  1  0.71297805  0.11081926  0.38711514  1
  Mo  Mo48  1  0.11081926  0.38711514  0.71297805  1
