# generated using pymatgen
data_MgSn3P3O13
_symmetry_space_group_name_H-M   'P 1'
_cell_length_a   6.82133839
_cell_length_b   7.86694310
_cell_length_c   10.48996727
_cell_angle_alpha   97.58238340
_cell_angle_beta   90.00000000
_cell_angle_gamma   90.00000000
_symmetry_Int_Tables_number   1
_chemical_formula_structural   MgSn3P3O13
_chemical_formula_sum   'Mg2 Sn6 P6 O26'
_cell_volume   558.00184488
_cell_formula_units_Z   2
loop_
 _symmetry_equiv_pos_site_id
 _symmetry_equiv_pos_as_xyz
  1  'x, y, z'
loop_
 _atom_site_type_symbol
 _atom_site_label
 _atom_site_symmetry_multiplicity
 _atom_site_fract_x
 _atom_site_fract_y
 _atom_site_fract_z
 _atom_site_occupancy
  Mg  Mg0  1  0.75000000  0.56446056  0.22526403  1
  Mg  Mg1  1  0.25000000  0.43553944  0.77473597  1
  Sn  Sn2  1  0.25000000  0.31605189  0.25665700  1
  Sn  Sn3  1  0.75000000  0.68394811  0.74334300  1
  Sn  Sn4  1  0.25000000  0.80300091  0.39263429  1
  Sn  Sn5  1  0.50000000  -0.00000000  -0.00000000  1
  Sn  Sn6  1  0.75000000  0.19699909  0.60736571  1
  Sn  Sn7  1  -0.00000000  0.00000000  0.00000000  1
  P  P8  1  0.25000000  0.30453531  0.52301324  1
  P  P9  1  0.75000000  0.69546469  0.47698676  1
  P  P10  1  0.25000000  0.78981482  0.73042754  1
  P  P11  1  0.75000000  0.21018518  0.26957246  1
  P  P12  1  0.75000000  0.35100925  0.92734024  1
  P  P13  1  0.25000000  0.64899075  0.07265976  1
  O  O14  1  0.75000000  0.44622479  0.80223157  1
  O  O15  1  0.57473174  0.68935246  0.38267114  1
  O  O16  1  0.25000000  0.87332440  0.60784214  1
  O  O17  1  0.56261396  0.23627348  0.91257672  1
  O  O18  1  0.75000000  0.53954780  0.55799147  1
  O  O19  1  0.75000000  0.87557591  0.89362553  1
  O  O20  1  0.25000000  0.46045220  0.44200853  1
  O  O21  1  0.06261396  0.76372652  0.08742328  1
  O  O22  1  0.25000000  0.15129732  0.41057885  1
  O  O23  1  0.75000000  0.84870268  0.58942115  1
  O  O24  1  0.07135571  0.66659819  0.74105181  1
  O  O25  1  0.25000000  0.12442409  0.10637447  1
  O  O26  1  0.57135571  0.33340181  0.25894819  1
  O  O27  1  0.75000000  0.48356002  0.04502874  1
  O  O28  1  0.75000000  0.12667560  0.39215786  1
  O  O29  1  0.43738604  0.76372652  0.08742328  1
  O  O30  1  0.92526826  0.68935246  0.38267114  1
  O  O31  1  0.42526826  0.31064754  0.61732886  1
  O  O32  1  0.42864429  0.66659819  0.74105181  1
  O  O33  1  0.25000000  0.55377521  0.19776843  1
  O  O34  1  0.75000000  0.06817639  0.14730944  1
  O  O35  1  0.25000000  0.93182361  0.85269056  1
  O  O36  1  0.92864429  0.33340181  0.25894819  1
  O  O37  1  0.93738604  0.23627348  0.91257672  1
  O  O38  1  0.07473174  0.31064754  0.61732886  1
  O  O39  1  0.25000000  0.51643998  0.95497126  1
