# generated using pymatgen
data_Pr5P12Ru19
_symmetry_space_group_name_H-M   'P 1'
_cell_length_a   4.02631336
_cell_length_b   12.66553056
_cell_length_c   12.66485225
_cell_angle_alpha   120.00177003
_cell_angle_beta   90.00000000
_cell_angle_gamma   90.00000000
_symmetry_Int_Tables_number   1
_chemical_formula_structural   Pr5P12Ru19
_chemical_formula_sum   'Pr5 P12 Ru19'
_cell_volume   559.31178792
_cell_formula_units_Z   1
loop_
 _symmetry_equiv_pos_site_id
 _symmetry_equiv_pos_as_xyz
  1  'x, y, z'
loop_
 _atom_site_type_symbol
 _atom_site_label
 _atom_site_symmetry_multiplicity
 _atom_site_fract_x
 _atom_site_fract_y
 _atom_site_fract_z
 _atom_site_occupancy
  Pr  Pr0  1  0.50000000  -0.00000593  0.18411424  1
  Pr  Pr1  1  0.50000000  0.18415527  1.00000000  1
  Pr  Pr2  1  0.50000000  0.81587984  0.81588576  1
  Pr  Pr3  1  0.00000000  0.33335864  0.66668018  1
  Pr  Pr4  1  0.00000000  0.66667846  0.33331982  1
  P  P5  1  0.00000000  0.99999283  0.81222097  1
  P  P6  1  0.00000000  0.81223013  1.00000000  1
  P  P7  1  0.00000000  0.18777186  0.18777903  1
  P  P8  1  0.50000000  0.30574631  0.47617832  1
  P  P9  1  0.50000000  0.17041130  0.69425853  1
  P  P10  1  0.50000000  0.52384406  0.82961352  1
  P  P11  1  0.50000000  0.82956799  0.52382168  1
  P  P12  1  0.50000000  0.47615277  0.30574147  1
  P  P13  1  0.50000000  0.69423054  0.17038648  1
  P  P14  1  0.00000000  0.00000182  0.37513938  1
  P  P15  1  0.00000000  0.37512751  0.00000000  1
  P  P16  1  0.00000000  0.62486245  0.62486062  1
  Ru  Ru17  1  -0.00000000  0.00003028  0.55471408  1
  Ru  Ru18  1  0.00000000  0.55467168  1.00000000  1
  Ru  Ru19  1  -0.00000000  0.44531620  0.44528592  1
  Ru  Ru20  1  0.50000000  0.00001390  0.71478860  1
  Ru  Ru21  1  0.50000000  0.71474113  1.00000000  1
  Ru  Ru22  1  0.50000000  0.28522530  0.28521140  1
  Ru  Ru23  1  0.00000000  0.19400367  0.37845958  1
  Ru  Ru24  1  0.00000000  0.18437078  0.80595249  1
  Ru  Ru25  1  -0.00000000  0.62152847  0.81554397  1
  Ru  Ru26  1  0.00000000  0.81554409  0.62154042  1
  Ru  Ru27  1  0.00000000  0.37841828  0.19404751  1
  Ru  Ru28  1  0.00000000  0.80598449  0.18445603  1
  Ru  Ru29  1  0.50000000  0.12443528  0.49079995  1
  Ru  Ru30  1  0.50000000  0.36639656  0.87560680  1
  Ru  Ru31  1  0.50000000  0.50917332  0.63359830  1
  Ru  Ru32  1  0.50000000  0.63363533  0.50920005  1
  Ru  Ru33  1  0.50000000  0.49078977  0.12439320  1
  Ru  Ru34  1  0.50000000  0.87557502  0.36640170  1
  Ru  Ru35  1  0.00000000  0.00004059  0.00000000  1
