# generated using pymatgen
data_LiCe(PO3)4
_symmetry_space_group_name_H-M   'P 1'
_cell_length_a   7.18095331
_cell_length_b   9.08794904
_cell_length_c   9.11680253
_cell_angle_alpha   66.27949029
_cell_angle_beta   66.80693266
_cell_angle_gamma   66.72896952
_symmetry_Int_Tables_number   1
_chemical_formula_structural   LiCe(PO3)4
_chemical_formula_sum   'Li2 Ce2 P8 O24'
_cell_volume   480.47401976
_cell_formula_units_Z   2
loop_
 _symmetry_equiv_pos_site_id
 _symmetry_equiv_pos_as_xyz
  1  'x, y, z'
loop_
 _atom_site_type_symbol
 _atom_site_label
 _atom_site_symmetry_multiplicity
 _atom_site_fract_x
 _atom_site_fract_y
 _atom_site_fract_z
 _atom_site_occupancy
  Li  Li0  1  0.80025898  0.25000000  0.75000000  1
  Li  Li1  1  0.19974102  0.75000000  0.25000000  1
  Ce  Ce2  1  0.30259489  0.25000000  0.75000000  1
  Ce  Ce3  1  0.69740511  0.75000000  0.25000000  1
  P  P4  1  0.51230777  0.20150237  0.09732731  1
  P  P5  1  0.81113745  0.29849763  0.40267269  1
  P  P6  1  0.48769223  0.79849763  0.90267269  1
  P  P7  1  0.18886255  0.70150237  0.59732731  1
  P  P8  1  0.92004744  0.11291896  0.16429522  1
  P  P9  1  0.19726162  0.38708104  0.33570478  1
  P  P10  1  0.07995256  0.88708104  0.83570478  1
  P  P11  1  0.80273838  0.61291896  0.66429522  1
  O  O12  1  0.52606324  0.23436072  0.91802478  1
  O  O13  1  0.67844874  0.26563928  0.58197522  1
  O  O14  1  0.47393676  0.76563928  0.08197522  1
  O  O15  1  0.32155126  0.73436072  0.41802478  1
  O  O16  1  0.48729179  0.03685832  0.22197628  1
  O  O17  1  0.74612640  0.46314168  0.27802372  1
  O  O18  1  0.51270821  0.96314168  0.77802372  1
  O  O19  1  0.25387360  0.53685832  0.72197628  1
  O  O20  1  0.84657402  0.14277183  0.34425195  1
  O  O21  1  0.33359780  0.35722817  0.15574805  1
  O  O22  1  0.15342598  0.85722817  0.65574805  1
  O  O23  1  0.66640220  0.64277183  0.84425195  1
  O  O24  1  0.72272010  0.23251751  0.09065349  1
  O  O25  1  0.04589110  0.26748249  0.40934651  1
  O  O26  1  0.27727990  0.76748249  0.90934651  1
  O  O27  1  0.95410890  0.73251751  0.59065349  1
  O  O28  1  0.10516580  0.17887918  0.04964073  1
  O  O29  1  0.33368571  0.32112082  0.45035927  1
  O  O30  1  0.89483420  0.82112082  0.95035927  1
  O  O31  1  0.66631429  0.67887918  0.54964073  1
  O  O32  1  0.93980632  0.93026588  0.20294507  1
  O  O33  1  0.07301728  0.56973412  0.29705493  1
  O  O34  1  0.06019368  0.06973412  0.79705493  1
  O  O35  1  0.92698272  0.43026588  0.70294507  1
