# generated using pymatgen
data_Ba6Sn7S20
_symmetry_space_group_name_H-M   'P 1'
_cell_length_a   6.49592481
_cell_length_b   12.85713137
_cell_length_c   23.50235149
_cell_angle_alpha   89.90063304
_cell_angle_beta   90.00000000
_cell_angle_gamma   104.63257848
_symmetry_Int_Tables_number   1
_chemical_formula_structural   Ba6Sn7S20
_chemical_formula_sum   'Ba12 Sn14 S40'
_cell_volume   1899.22382061
_cell_formula_units_Z   2
loop_
 _symmetry_equiv_pos_site_id
 _symmetry_equiv_pos_as_xyz
  1  'x, y, z'
loop_
 _atom_site_type_symbol
 _atom_site_label
 _atom_site_symmetry_multiplicity
 _atom_site_fract_x
 _atom_site_fract_y
 _atom_site_fract_z
 _atom_site_occupancy
  Ba  Ba0  1  0.91960315  0.47272108  0.39908452  1
  Ba  Ba1  1  0.44688208  0.52727892  0.10091548  1
  Ba  Ba2  1  0.08039685  0.52727892  0.60091548  1
  Ba  Ba3  1  0.55311792  0.47272108  0.89908452  1
  Ba  Ba4  1  0.54358425  0.68842457  0.29913376  1
  Ba  Ba5  1  0.85515969  0.31157543  0.20086624  1
  Ba  Ba6  1  0.45641575  0.31157543  0.70086624  1
  Ba  Ba7  1  0.14484031  0.68842457  0.79913376  1
  Ba  Ba8  1  0.21921349  0.92534618  0.57557257  1
  Ba  Ba9  1  0.29386731  0.07465382  0.92442743  1
  Ba  Ba10  1  0.78078651  0.07465382  0.42442743  1
  Ba  Ba11  1  0.70613269  0.92534618  0.07557257  1
  Sn  Sn12  1  0.62633769  0.65301988  0.50033886  1
  Sn  Sn13  1  0.97331781  0.34698012  0.99966114  1
  Sn  Sn14  1  0.37366231  0.34698012  0.49966114  1
  Sn  Sn15  1  0.02668219  0.65301988  0.00033886  1
  Sn  Sn16  1  0.15156006  1.00000000  0.25000000  1
  Sn  Sn17  1  0.84843994  0.00000000  0.75000000  1
  Sn  Sn18  1  0.37733766  0.28506751  0.32453987  1
  Sn  Sn19  1  0.09227015  0.71493249  0.17546013  1
  Sn  Sn20  1  0.62266234  0.71493249  0.67546013  1
  Sn  Sn21  1  0.90772985  0.28506751  0.82453987  1
  Sn  Sn22  1  0.01470392  0.82439831  0.40171251  1
  Sn  Sn23  1  0.19030561  0.17560169  0.09828749  1
  Sn  Sn24  1  0.98529608  0.17560169  0.59828749  1
  Sn  Sn25  1  0.80969439  0.82439831  0.90171251  1
  S  S26  1  0.43346987  0.52128420  0.43085343  1
  S  S27  1  0.91218567  0.47871580  0.06914657  1
  S  S28  1  0.56653013  0.47871580  0.56914657  1
  S  S29  1  0.08781433  0.52128420  0.93085343  1
  S  S30  1  0.00801946  0.68160332  0.49475104  1
  S  S31  1  0.32641614  0.31839668  0.00524896  1
  S  S32  1  0.99198054  0.31839668  0.50524896  1
  S  S33  1  0.67358386  0.68160332  0.99475104  1
  S  S34  1  0.61898988  0.44139080  0.28722893  1
  S  S35  1  0.17759907  0.55860920  0.21277107  1
  S  S36  1  0.38101012  0.55860920  0.71277107  1
  S  S37  1  0.82240093  0.44139080  0.78722893  1
  S  S38  1  0.23532985  0.98137402  0.44344208  1
  S  S39  1  0.25395583  0.01862598  0.05655792  1
  S  S40  1  0.76467015  0.01862598  0.55655792  1
  S  S41  1  0.74604417  0.98137402  0.94344208  1
  S  S42  1  0.63503865  0.80485086  0.42843710  1
  S  S43  1  0.83018779  0.19514914  0.07156290  1
  S  S44  1  0.36496135  0.19514914  0.57156290  1
  S  S45  1  0.16981221  0.80485086  0.92843710  1
  S  S46  1  0.00818602  0.26958531  0.33026654  1
  S  S47  1  0.73860071  0.73041469  0.16973346  1
  S  S48  1  0.99181398  0.73041469  0.66973346  1
  S  S49  1  0.26139929  0.26958531  0.83026654  1
  S  S50  1  0.05508116  0.69174285  0.33410936  1
  S  S51  1  0.36333831  0.30825715  0.16589064  1
  S  S52  1  0.94491884  0.30825715  0.66589064  1
  S  S53  1  0.63666169  0.69174285  0.83410936  1
  S  S54  1  0.52198601  0.25970532  0.42151812  1
  S  S55  1  0.26228069  0.74029468  0.07848188  1
  S  S56  1  0.47801399  0.74029468  0.57848188  1
  S  S57  1  0.73771931  0.25970532  0.92151812  1
  S  S58  1  0.35336199  0.87490282  0.21341547  1
  S  S59  1  0.47845916  0.12509718  0.28658453  1
  S  S60  1  0.64663801  0.12509718  0.78658453  1
  S  S61  1  0.52154084  0.87490282  0.71341547  1
  S  S62  1  0.87472215  0.93106422  0.31848385  1
  S  S63  1  0.94365794  0.06893578  0.18151615  1
  S  S64  1  0.12527785  0.06893578  0.68151615  1
  S  S65  1  0.05634206  0.93106422  0.81848385  1
