# generated using pymatgen
data_Cs2P2Pd
_symmetry_space_group_name_H-M   'P 1'
_cell_length_a   6.31139106
_cell_length_b   7.00897217
_cell_length_c   8.30063287
_cell_angle_alpha   114.97325129
_cell_angle_beta   90.00000000
_cell_angle_gamma   90.00000000
_symmetry_Int_Tables_number   1
_chemical_formula_structural   Cs2P2Pd
_chemical_formula_sum   'Cs4 P4 Pd2'
_cell_volume   332.85940314
_cell_formula_units_Z   2
loop_
 _symmetry_equiv_pos_site_id
 _symmetry_equiv_pos_as_xyz
  1  'x, y, z'
loop_
 _atom_site_type_symbol
 _atom_site_label
 _atom_site_symmetry_multiplicity
 _atom_site_fract_x
 _atom_site_fract_y
 _atom_site_fract_z
 _atom_site_occupancy
  Cs  Cs0  1  0.25000000  0.21071340  0.42142680  1
  Cs  Cs1  1  0.75000000  0.78928660  0.57857320  1
  Cs  Cs2  1  0.25000000  0.58323259  0.16646518  1
  Cs  Cs3  1  0.75000000  0.41676741  0.83353482  1
  P  P4  1  0.25000000  0.74453384  0.80040960  1
  P  P5  1  0.75000000  0.25546616  0.19959040  1
  P  P6  1  0.25000000  0.05587577  0.80040960  1
  P  P7  1  0.75000000  0.94412423  0.19959040  1
  Pd  Pd8  1  0.00000000  0.00000000  -0.00000000  1
  Pd  Pd9  1  0.50000000  0.00000000  -0.00000000  1
