# generated using pymatgen
data_BaZnSnF7
_symmetry_space_group_name_H-M   'P 1'
_cell_length_a   5.83246189
_cell_length_b   9.96938890
_cell_length_c   10.43598979
_cell_angle_alpha   90.00000000
_cell_angle_beta   90.00000000
_cell_angle_gamma   92.73677647
_symmetry_Int_Tables_number   1
_chemical_formula_structural   BaZnSnF7
_chemical_formula_sum   'Ba4 Zn4 Sn4 F28'
_cell_volume   606.11979650
_cell_formula_units_Z   4
loop_
 _symmetry_equiv_pos_site_id
 _symmetry_equiv_pos_as_xyz
  1  'x, y, z'
loop_
 _atom_site_type_symbol
 _atom_site_label
 _atom_site_symmetry_multiplicity
 _atom_site_fract_x
 _atom_site_fract_y
 _atom_site_fract_z
 _atom_site_occupancy
  Ba  Ba0  1  0.26804957  0.49535762  0.32396599  1
  Ba  Ba1  1  0.73195043  0.00464238  0.82396599  1
  Ba  Ba2  1  0.73195043  0.50464238  0.67603401  1
  Ba  Ba3  1  0.26804957  0.99535762  0.17603401  1
  Zn  Zn4  1  0.69743134  0.80673003  0.39176229  1
  Zn  Zn5  1  0.30256866  0.69326997  0.89176229  1
  Zn  Zn6  1  0.69743134  0.30673003  0.10823771  1
  Zn  Zn7  1  0.30256866  0.19326997  0.60823771  1
  Sn  Sn8  1  0.20076614  0.81757142  0.60088860  1
  Sn  Sn9  1  0.79923386  0.18242858  0.39911140  1
  Sn  Sn10  1  0.20076614  0.31757142  0.89911140  1
  Sn  Sn11  1  0.79923386  0.68242858  0.10088860  1
  F  F12  1  0.13945362  0.12114976  0.44598591  1
  F  F13  1  0.37553530  0.38269562  0.07361324  1
  F  F14  1  0.49005569  0.75603415  0.71682503  1
  F  F15  1  0.50994431  0.24396585  0.28317497  1
  F  F16  1  0.90594717  0.37749079  0.46062457  1
  F  F17  1  0.24534881  0.50966466  0.79670336  1
  F  F18  1  0.02345977  0.75504441  0.78200638  1
  F  F19  1  0.09405283  0.12250921  0.96062457  1
  F  F20  1  0.37553530  0.88269562  0.42638676  1
  F  F21  1  0.50994431  0.74396585  0.21682503  1
  F  F22  1  0.13945362  0.62114976  0.05401409  1
  F  F23  1  0.86054638  0.87885024  0.55401409  1
  F  F24  1  0.97654023  0.74495559  0.28200638  1
  F  F25  1  0.40883923  0.86850656  0.96379469  1
  F  F26  1  0.09405283  0.62250921  0.53937543  1
  F  F27  1  0.90594717  0.87749079  0.03937543  1
  F  F28  1  0.97654023  0.24495559  0.21799362  1
  F  F29  1  0.86054638  0.37885024  0.94598591  1
  F  F30  1  0.59116077  0.63149344  0.46379469  1
  F  F31  1  0.62446470  0.61730438  0.92638676  1
  F  F32  1  0.59116077  0.13149444  0.03620531  1
  F  F33  1  0.02345977  0.25504441  0.71799362  1
  F  F34  1  0.40883923  0.36850556  0.53620531  1
  F  F35  1  0.75465119  0.99033534  0.29670336  1
  F  F36  1  0.75465119  0.49033534  0.20329664  1
  F  F37  1  0.24534881  0.00966466  0.70329664  1
  F  F38  1  0.62446470  0.11730438  0.57361324  1
  F  F39  1  0.49005569  0.25603415  0.78317497  1
