# generated using pymatgen
data_EuBr3
_symmetry_space_group_name_H-M   'P 1'
_cell_length_a   4.17878925
_cell_length_b   7.05673147
_cell_length_c   9.10129173
_cell_angle_alpha   90.00000000
_cell_angle_beta   90.00000000
_cell_angle_gamma   107.22262953
_symmetry_Int_Tables_number   1
_chemical_formula_structural   EuBr3
_chemical_formula_sum   'Eu2 Br6'
_cell_volume   256.35034263
_cell_formula_units_Z   2
loop_
 _symmetry_equiv_pos_site_id
 _symmetry_equiv_pos_as_xyz
  1  'x, y, z'
loop_
 _atom_site_type_symbol
 _atom_site_label
 _atom_site_symmetry_multiplicity
 _atom_site_fract_x
 _atom_site_fract_y
 _atom_site_fract_z
 _atom_site_occupancy
  Eu  Eu0  1  0.74448198  0.48896396  0.25000000  1
  Eu  Eu1  1  0.25551802  0.51103604  0.75000000  1
  Br  Br2  1  0.35472176  0.70944353  0.06561088  1
  Br  Br3  1  0.64527824  0.29055647  0.93438912  1
  Br  Br4  1  0.64527824  0.29055647  0.56561088  1
  Br  Br5  1  0.35472176  0.70944353  0.43438912  1
  Br  Br6  1  0.09099756  0.18199512  0.25000000  1
  Br  Br7  1  0.90900244  0.81800488  0.75000000  1
