# generated using pymatgen
data_Sm2ScSi2
_symmetry_space_group_name_H-M   'P 1'
_cell_length_a   4.34358334
_cell_length_b   7.32427399
_cell_length_c   7.32427399
_cell_angle_alpha   90.00000000
_cell_angle_beta   90.00000000
_cell_angle_gamma   90.00000000
_symmetry_Int_Tables_number   1
_chemical_formula_structural   Sm2ScSi2
_chemical_formula_sum   'Sm4 Sc2 Si4'
_cell_volume   233.01148258
_cell_formula_units_Z   2
loop_
 _symmetry_equiv_pos_site_id
 _symmetry_equiv_pos_as_xyz
  1  'x, y, z'
loop_
 _atom_site_type_symbol
 _atom_site_label
 _atom_site_symmetry_multiplicity
 _atom_site_fract_x
 _atom_site_fract_y
 _atom_site_fract_z
 _atom_site_occupancy
  Sm  Sm0  1  0.50000000  0.17698612  0.67698612  1
  Sm  Sm1  1  0.50000000  0.82301388  0.32301388  1
  Sm  Sm2  1  0.50000000  0.32301388  0.17698612  1
  Sm  Sm3  1  0.50000000  0.67698612  0.82301388  1
  Sc  Sc4  1  0.00000000  0.00000000  0.00000000  1
  Sc  Sc5  1  -0.00000000  0.50000000  0.50000000  1
  Si  Si6  1  -0.00000000  0.61864473  0.11864473  1
  Si  Si7  1  0.00000000  0.38135527  0.88135527  1
  Si  Si8  1  0.00000000  0.88135527  0.61864473  1
  Si  Si9  1  -0.00000000  0.11864473  0.38135527  1
