# generated using pymatgen
data_Dy4Mg3Co2
_symmetry_space_group_name_H-M   'P 1'
_cell_length_a   3.69913856
_cell_length_b   7.44197307
_cell_length_c   8.13911750
_cell_angle_alpha   109.77163804
_cell_angle_beta   90.00000000
_cell_angle_gamma   90.00000000
_symmetry_Int_Tables_number   1
_chemical_formula_structural   Dy4Mg3Co2
_chemical_formula_sum   'Dy4 Mg3 Co2'
_cell_volume   210.85210472
_cell_formula_units_Z   1
loop_
 _symmetry_equiv_pos_site_id
 _symmetry_equiv_pos_as_xyz
  1  'x, y, z'
loop_
 _atom_site_type_symbol
 _atom_site_label
 _atom_site_symmetry_multiplicity
 _atom_site_fract_x
 _atom_site_fract_y
 _atom_site_fract_z
 _atom_site_occupancy
  Dy  Dy0  1  0.50000000  0.90187285  0.77412074  1
  Dy  Dy1  1  0.50000000  0.09812715  0.22587926  1
  Dy  Dy2  1  0.50000000  0.39724131  0.68023880  1
  Dy  Dy3  1  0.50000000  0.60275869  0.31976120  1
  Mg  Mg4  1  0.00000000  0.70704648  0.99869424  1
  Mg  Mg5  1  0.00000000  0.29295352  0.00130576  1
  Mg  Mg6  1  -0.00000000  0.00000000  0.50000000  1
  Co  Co7  1  0.00000000  0.64766495  0.60466657  1
  Co  Co8  1  0.00000000  0.35233505  0.39533343  1
