# generated using pymatgen
data_CaAgPb
_symmetry_space_group_name_H-M   'P 1'
_cell_length_a   4.96796991
_cell_length_b   4.96796991
_cell_length_c   11.22401422
_cell_angle_alpha   90.00000000
_cell_angle_beta   90.00000000
_cell_angle_gamma   119.99999590
_symmetry_Int_Tables_number   1
_chemical_formula_structural   CaAgPb
_chemical_formula_sum   'Ca3 Ag3 Pb3'
_cell_volume   239.90360368
_cell_formula_units_Z   3
loop_
 _symmetry_equiv_pos_site_id
 _symmetry_equiv_pos_as_xyz
  1  'x, y, z'
loop_
 _atom_site_type_symbol
 _atom_site_label
 _atom_site_symmetry_multiplicity
 _atom_site_fract_x
 _atom_site_fract_y
 _atom_site_fract_z
 _atom_site_occupancy
  Ca  Ca0  1  0.66666700  0.33333300  0.82966824  1
  Ca  Ca1  1  0.66666700  0.33333300  0.49775455  1
  Ca  Ca2  1  0.66666700  0.33333300  0.16585473  1
  Ag  Ag3  1  0.33333300  0.66666700  0.99677165  1
  Ag  Ag4  1  0.00000000  0.00000000  0.69029900  1
  Ag  Ag5  1  -0.00000000  0.00000000  0.30171474  1
  Pb  Pb6  1  0.33333300  0.66666700  0.64909662  1
  Pb  Pb7  1  0.33333300  0.66666700  0.34751833  1
  Pb  Pb8  1  -0.00000000  0.00000000  -0.00077787  1
