# generated using pymatgen
data_Mg(NiO2)2
_symmetry_space_group_name_H-M   'P 1'
_cell_length_a   5.81855375
_cell_length_b   5.81855361
_cell_length_c   5.96322002
_cell_angle_alpha   59.17407315
_cell_angle_beta   59.17408385
_cell_angle_gamma   61.31074462
_symmetry_Int_Tables_number   1
_chemical_formula_structural   Mg(NiO2)2
_chemical_formula_sum   'Mg2 Ni4 O8'
_cell_volume   142.25382943
_cell_formula_units_Z   2
loop_
 _symmetry_equiv_pos_site_id
 _symmetry_equiv_pos_as_xyz
  1  'x, y, z'
loop_
 _atom_site_type_symbol
 _atom_site_label
 _atom_site_symmetry_multiplicity
 _atom_site_fract_x
 _atom_site_fract_y
 _atom_site_fract_z
 _atom_site_occupancy
  Mg  Mg0  1  0.12500000  0.62500000  0.62500000  1
  Mg  Mg1  1  0.62500000  0.12500000  0.62500000  1
  Ni  Ni2  1  0.99084046  0.99084046  0.00915954  1
  Ni  Ni3  1  0.25915954  0.25915954  0.24084046  1
  Ni  Ni4  1  0.62500000  0.62500000  0.12500000  1
  Ni  Ni5  1  0.62500000  0.62500000  0.62500000  1
  O  O6  1  0.39037773  0.39037773  0.37133126  1
  O  O7  1  0.39167826  0.86574468  0.37128903  1
  O  O8  1  0.39037773  0.39037773  0.84791329  1
  O  O9  1  0.86574468  0.39167826  0.37128903  1
  O  O10  1  0.38425532  0.85832174  0.87871097  1
  O  O11  1  0.85832174  0.38425532  0.87871097  1
  O  O12  1  0.85962227  0.85962227  0.40208671  1
  O  O13  1  0.85962227  0.85962227  0.87866874  1
