# generated using pymatgen
data_NaMnIO6
_symmetry_space_group_name_H-M   'P 1'
_cell_length_a   5.09306684
_cell_length_b   5.09306684
_cell_length_c   5.37465938
_cell_angle_alpha   90.00000000
_cell_angle_beta   90.00000000
_cell_angle_gamma   119.99999560
_symmetry_Int_Tables_number   1
_chemical_formula_structural   NaMnIO6
_chemical_formula_sum   'Na1 Mn1 I1 O6'
_cell_volume   120.73699114
_cell_formula_units_Z   1
loop_
 _symmetry_equiv_pos_site_id
 _symmetry_equiv_pos_as_xyz
  1  'x, y, z'
loop_
 _atom_site_type_symbol
 _atom_site_label
 _atom_site_symmetry_multiplicity
 _atom_site_fract_x
 _atom_site_fract_y
 _atom_site_fract_z
 _atom_site_occupancy
  Na  Na0  1  0.66666700  0.33333300  0.50000000  1
  Mn  Mn1  1  0.33333300  0.66666700  0.00000000  1
  I  I2  1  0.00000000  0.00000000  -0.00000000  1
  O  O3  1  0.04136590  0.32901356  0.80040787  1
  O  O4  1  0.28764766  0.95863410  0.80040787  1
  O  O5  1  0.28764766  0.32901356  0.19959213  1
  O  O6  1  0.67098644  0.71235234  0.80040787  1
  O  O7  1  0.67098644  0.95863410  0.19959213  1
  O  O8  1  0.04136590  0.71235234  0.19959213  1
