# generated using pymatgen
data_ThNiGe2
_symmetry_space_group_name_H-M   'P 1'
_cell_length_a   4.26725785
_cell_length_b   4.26589326
_cell_length_c   8.58341063
_cell_angle_alpha   90.00000000
_cell_angle_beta   104.39326002
_cell_angle_gamma   90.00000000
_symmetry_Int_Tables_number   1
_chemical_formula_structural   ThNiGe2
_chemical_formula_sum   'Th2 Ni2 Ge4'
_cell_volume   151.34524779
_cell_formula_units_Z   2
loop_
 _symmetry_equiv_pos_site_id
 _symmetry_equiv_pos_as_xyz
  1  'x, y, z'
loop_
 _atom_site_type_symbol
 _atom_site_label
 _atom_site_symmetry_multiplicity
 _atom_site_fract_x
 _atom_site_fract_y
 _atom_site_fract_z
 _atom_site_occupancy
  Th  Th0  1  0.60786450  0.25000000  0.21572900  1
  Th  Th1  1  0.39213550  0.75000000  0.78427100  1
  Ni  Ni2  1  0.81828471  0.25000000  0.63656941  1
  Ni  Ni3  1  0.18171529  0.75000000  0.36343059  1
  Ge  Ge4  1  0.95857561  0.25000000  0.91715123  1
  Ge  Ge5  1  0.04142439  0.75000000  0.08284877  1
  Ge  Ge6  1  0.25069403  0.25000000  0.50138805  1
  Ge  Ge7  1  0.74930597  0.75000000  0.49861195  1
