# generated using pymatgen
data_TbSiOs2C
_symmetry_space_group_name_H-M   'P 1'
_cell_length_a   3.87915848
_cell_length_b   5.88925908
_cell_length_c   7.14624619
_cell_angle_alpha   90.00000000
_cell_angle_beta   90.00000000
_cell_angle_gamma   109.22883565
_symmetry_Int_Tables_number   1
_chemical_formula_structural   TbSiOs2C
_chemical_formula_sum   'Tb2 Si2 Os4 C2'
_cell_volume   154.15055501
_cell_formula_units_Z   2
loop_
 _symmetry_equiv_pos_site_id
 _symmetry_equiv_pos_as_xyz
  1  'x, y, z'
loop_
 _atom_site_type_symbol
 _atom_site_label
 _atom_site_symmetry_multiplicity
 _atom_site_fract_x
 _atom_site_fract_y
 _atom_site_fract_z
 _atom_site_occupancy
  Tb  Tb0  1  0.45329935  0.90659870  0.25000000  1
  Tb  Tb1  1  0.54670065  0.09340130  0.75000000  1
  Si  Si2  1  0.73209521  0.46419041  0.25000000  1
  Si  Si3  1  0.26790479  0.53580959  0.75000000  1
  Os  Os4  1  0.16534361  0.33068722  0.05892672  1
  Os  Os5  1  0.83465639  0.66931278  0.94107328  1
  Os  Os6  1  0.83465639  0.66931278  0.55892672  1
  Os  Os7  1  0.16534361  0.33068722  0.44107328  1
  C  C8  1  0.00000000  0.00000000  -0.00000000  1
  C  C9  1  0.00000000  0.00000000  0.50000000  1
