# generated using pymatgen
data_YMn2SiC
_symmetry_space_group_name_H-M   'P 1'
_cell_length_a   3.71737986
_cell_length_b   5.60292422
_cell_length_c   7.00637268
_cell_angle_alpha   90.00000000
_cell_angle_beta   90.00000000
_cell_angle_gamma   109.37416327
_symmetry_Int_Tables_number   1
_chemical_formula_structural   YMn2SiC
_chemical_formula_sum   'Y2 Mn4 Si2 C2'
_cell_volume   137.66643479
_cell_formula_units_Z   2
loop_
 _symmetry_equiv_pos_site_id
 _symmetry_equiv_pos_as_xyz
  1  'x, y, z'
loop_
 _atom_site_type_symbol
 _atom_site_label
 _atom_site_symmetry_multiplicity
 _atom_site_fract_x
 _atom_site_fract_y
 _atom_site_fract_z
 _atom_site_occupancy
  Y  Y0  1  0.45601518  0.91203035  0.25000000  1
  Y  Y1  1  0.54398482  0.08796965  0.75000000  1
  Mn  Mn2  1  0.16834781  0.33669562  0.06164192  1
  Mn  Mn3  1  0.83165219  0.66330438  0.93835808  1
  Mn  Mn4  1  0.83165219  0.66330438  0.56164192  1
  Mn  Mn5  1  0.16834781  0.33669562  0.43835808  1
  Si  Si6  1  0.73504483  0.47008966  0.25000000  1
  Si  Si7  1  0.26495517  0.52991034  0.75000000  1
  C  C8  1  0.00000000  0.00000000  -0.00000000  1
  C  C9  1  0.00000000  0.00000000  0.50000000  1
