# generated using pymatgen
data_Sm(PPd)2
_symmetry_space_group_name_H-M   'P 1'
_cell_length_a   4.13883591
_cell_length_b   4.13883591
_cell_length_c   5.78014444
_cell_angle_alpha   110.97876019
_cell_angle_beta   110.97876019
_cell_angle_gamma   90.00000000
_symmetry_Int_Tables_number   1
_chemical_formula_structural   Sm(PPd)2
_chemical_formula_sum   'Sm1 P2 Pd2'
_cell_volume   85.38403797
_cell_formula_units_Z   1
loop_
 _symmetry_equiv_pos_site_id
 _symmetry_equiv_pos_as_xyz
  1  'x, y, z'
loop_
 _atom_site_type_symbol
 _atom_site_label
 _atom_site_symmetry_multiplicity
 _atom_site_fract_x
 _atom_site_fract_y
 _atom_site_fract_z
 _atom_site_occupancy
  Sm  Sm0  1  -0.00000000  -0.00000000  0.00000000  1
  P  P1  1  0.38795923  0.38795923  0.77591846  1
  P  P2  1  0.61204077  0.61204077  0.22408154  1
  Pd  Pd3  1  0.25000000  0.75000000  0.50000000  1
  Pd  Pd4  1  0.75000000  0.25000000  0.50000000  1
