# generated using pymatgen
data_Mg(SbO2)2
_symmetry_space_group_name_H-M   'P 1'
_cell_length_a   3.28920628
_cell_length_b   10.37445829
_cell_length_c   6.85273463
_cell_angle_alpha   71.31588842
_cell_angle_beta   76.11332923
_cell_angle_gamma   80.89808651
_symmetry_Int_Tables_number   1
_chemical_formula_structural   Mg(SbO2)2
_chemical_formula_sum   'Mg2 Sb4 O8'
_cell_volume   214.20070266
_cell_formula_units_Z   2
loop_
 _symmetry_equiv_pos_site_id
 _symmetry_equiv_pos_as_xyz
  1  'x, y, z'
loop_
 _atom_site_type_symbol
 _atom_site_label
 _atom_site_symmetry_multiplicity
 _atom_site_fract_x
 _atom_site_fract_y
 _atom_site_fract_z
 _atom_site_occupancy
  Mg  Mg0  1  0.25846003  0.23598053  0.25622416  1
  Mg  Mg1  1  0.74385533  0.74212106  0.77686107  1
  Sb  Sb2  1  0.62041553  0.09242038  0.67586045  1
  Sb  Sb3  1  0.11804099  0.57785778  0.19154074  1
  Sb  Sb4  1  0.88402491  0.40024380  0.84156974  1
  Sb  Sb5  1  0.38218572  0.88569390  0.35715413  1
  O  O6  1  0.89893248  0.75491262  0.45419155  1
  O  O7  1  0.40706502  0.26639183  0.92846936  1
  O  O8  1  0.59513202  0.71168957  0.10464034  1
  O  O9  1  0.10355932  0.22319039  0.57883140  1
  O  O10  1  0.23066563  0.88248179  0.66339398  1
  O  O11  1  0.73665519  0.38281470  0.15286495  1
  O  O12  1  0.77176951  0.09567153  0.36958438  1
  O  O13  1  0.26554833  0.59533012  0.88025573  1
