# generated using pymatgen
data_MgCrBiO5
_symmetry_space_group_name_H-M   'P 1'
_cell_length_a   5.27636107
_cell_length_b   10.68100018
_cell_length_c   15.34938850
_cell_angle_alpha   90.00000000
_cell_angle_beta   90.00000000
_cell_angle_gamma   90.00000000
_symmetry_Int_Tables_number   1
_chemical_formula_structural   MgCrBiO5
_chemical_formula_sum   'Mg8 Cr8 Bi8 O40'
_cell_volume   865.04262562
_cell_formula_units_Z   8
loop_
 _symmetry_equiv_pos_site_id
 _symmetry_equiv_pos_as_xyz
  1  'x, y, z'
loop_
 _atom_site_type_symbol
 _atom_site_label
 _atom_site_symmetry_multiplicity
 _atom_site_fract_x
 _atom_site_fract_y
 _atom_site_fract_z
 _atom_site_occupancy
  Mg  Mg0  1  0.50301272  0.35957819  0.45057124  1
  Mg  Mg1  1  0.00301272  0.14042181  0.45057124  1
  Mg  Mg2  1  0.00301272  0.64042181  0.04942976  1
  Mg  Mg3  1  0.99698728  0.35957819  0.95057024  1
  Mg  Mg4  1  0.49698728  0.14042181  0.95057024  1
  Mg  Mg5  1  0.99698728  0.85957819  0.54942976  1
  Mg  Mg6  1  0.49698728  0.64042181  0.54942976  1
  Mg  Mg7  1  0.50301272  0.85957819  0.04942976  1
  Cr  Cr8  1  0.97943653  0.39948738  0.59034727  1
  Cr  Cr9  1  0.52056347  0.89948738  0.40965273  1
  Cr  Cr10  1  0.02056347  0.60051262  0.40965273  1
  Cr  Cr11  1  0.47943653  0.10051262  0.59034727  1
  Cr  Cr12  1  0.02056347  0.10051262  0.09034727  1
  Cr  Cr13  1  0.97943653  0.89948738  0.90965273  1
  Cr  Cr14  1  0.52056347  0.39948738  0.09034727  1
  Cr  Cr15  1  0.47943653  0.60051262  0.90965273  1
  Bi  Bi16  1  0.97118723  0.85376710  0.22810090  1
  Bi  Bi17  1  0.02881277  0.14623290  0.77189910  1
  Bi  Bi18  1  0.52881277  0.35376710  0.77189910  1
  Bi  Bi19  1  0.02881277  0.64623290  0.72810090  1
  Bi  Bi20  1  0.47118723  0.14623290  0.27189910  1
  Bi  Bi21  1  0.47118723  0.64623290  0.22810090  1
  Bi  Bi22  1  0.52881277  0.85376710  0.72810090  1
  Bi  Bi23  1  0.97118723  0.35376710  0.27189910  1
  O  O24  1  0.93440533  0.33268384  0.69495347  1
  O  O25  1  0.30762636  0.03996073  0.05798313  1
  O  O26  1  0.19237364  0.53996073  0.94201687  1
  O  O27  1  0.27516339  0.77735255  0.14544296  1
  O  O28  1  0.22483661  0.27735255  0.85455704  1
  O  O29  1  0.93440533  0.83268384  0.80504653  1
  O  O30  1  0.22483661  0.77735255  0.64544296  1
  O  O31  1  0.56559467  0.83268384  0.30504653  1
  O  O32  1  0.30762636  0.53996073  0.44201687  1
  O  O33  1  0.06559467  0.66731616  0.30504653  1
  O  O34  1  0.56559467  0.33268384  0.19495347  1
  O  O35  1  0.64311088  0.19856446  0.52430582  1
  O  O36  1  0.80762636  0.96003927  0.44201687  1
  O  O37  1  0.72483661  0.72264745  0.64544296  1
  O  O38  1  0.18087354  0.02596298  0.88356811  1
  O  O39  1  0.80762636  0.46003927  0.05798313  1
  O  O40  1  0.06559467  0.16731616  0.19495347  1
  O  O41  1  0.77516339  0.22264745  0.35455704  1
  O  O42  1  0.14311088  0.80143554  0.97569418  1
  O  O43  1  0.19237364  0.03996073  0.55798313  1
  O  O44  1  0.35688912  0.80143554  0.47569418  1
  O  O45  1  0.81912646  0.97403702  0.11643189  1
  O  O46  1  0.72483661  0.22264745  0.85455704  1
  O  O47  1  0.68087354  0.97403702  0.61643189  1
  O  O48  1  0.35688912  0.30143554  0.02430582  1
  O  O49  1  0.14311088  0.30143554  0.52430582  1
  O  O50  1  0.69237364  0.46003927  0.55798313  1
  O  O51  1  0.69237364  0.96003927  0.94201687  1
  O  O52  1  0.68087354  0.47403702  0.88356811  1
  O  O53  1  0.85688912  0.69856446  0.47569418  1
  O  O54  1  0.85688912  0.19856446  0.02430582  1
  O  O55  1  0.64311088  0.69856446  0.97569418  1
  O  O56  1  0.81912646  0.47403702  0.38356811  1
  O  O57  1  0.77516339  0.72264745  0.14544296  1
  O  O58  1  0.27516339  0.27735255  0.35455704  1
  O  O59  1  0.18087354  0.52596298  0.61643189  1
  O  O60  1  0.31912646  0.52596298  0.11643189  1
  O  O61  1  0.43440533  0.16731616  0.69495347  1
  O  O62  1  0.31912646  0.02596298  0.38356811  1
  O  O63  1  0.43440533  0.66731616  0.80504653  1
