# generated using pymatgen
data_SbPbBrO2
_symmetry_space_group_name_H-M   'P 1'
_cell_length_a   5.56987874
_cell_length_b   5.75723132
_cell_length_c   7.07362658
_cell_angle_alpha   114.01341148
_cell_angle_beta   90.00000000
_cell_angle_gamma   90.00000000
_symmetry_Int_Tables_number   1
_chemical_formula_structural   SbPbBrO2
_chemical_formula_sum   'Sb2 Pb2 Br2 O4'
_cell_volume   207.19841884
_cell_formula_units_Z   2
loop_
 _symmetry_equiv_pos_site_id
 _symmetry_equiv_pos_as_xyz
  1  'x, y, z'
loop_
 _atom_site_type_symbol
 _atom_site_label
 _atom_site_symmetry_multiplicity
 _atom_site_fract_x
 _atom_site_fract_y
 _atom_site_fract_z
 _atom_site_occupancy
  Sb  Sb0  1  0.25000000  0.07537831  0.15075662  1
  Sb  Sb1  1  0.75000000  0.92462169  0.84924338  1
  Pb  Pb2  1  0.25000000  0.38772042  0.77544084  1
  Pb  Pb3  1  0.75000000  0.61227958  0.22455916  1
  Br  Br4  1  0.25000000  0.74489416  0.48978833  1
  Br  Br5  1  0.75000000  0.25510584  0.51021167  1
  O  O6  1  -0.00000000  0.22497520  -0.00000000  1
  O  O7  1  -0.00000000  0.77502480  -0.00000000  1
  O  O8  1  0.50000000  0.77502480  -0.00000000  1
  O  O9  1  0.50000000  0.22497520  -0.00000000  1
