# generated using pymatgen
data_Rb2MnF4
_symmetry_space_group_name_H-M   'P 1'
_cell_length_a   4.32195067
_cell_length_b   4.32195067
_cell_length_c   7.67668228
_cell_angle_alpha   106.34966633
_cell_angle_beta   106.34966633
_cell_angle_gamma   90.00000000
_symmetry_Int_Tables_number   1
_chemical_formula_structural   Rb2MnF4
_chemical_formula_sum   'Rb2 Mn1 F4'
_cell_volume   131.54206158
_cell_formula_units_Z   1
loop_
 _symmetry_equiv_pos_site_id
 _symmetry_equiv_pos_as_xyz
  1  'x, y, z'
loop_
 _atom_site_type_symbol
 _atom_site_label
 _atom_site_symmetry_multiplicity
 _atom_site_fract_x
 _atom_site_fract_y
 _atom_site_fract_z
 _atom_site_occupancy
  Rb  Rb0  1  0.35268115  0.35268115  0.70536129  1
  Rb  Rb1  1  0.64731885  0.64731885  0.29463871  1
  Mn  Mn2  1  -0.00000000  0.00000000  0.00000000  1
  F  F3  1  0.15308037  0.15308037  0.30615975  1
  F  F4  1  0.84691963  0.84691963  0.69384025  1
  F  F5  1  -0.00000000  0.50000000  -0.00000000  1
  F  F6  1  0.50000000  0.00000000  -0.00000000  1
