# generated using pymatgen
data_La(Sn3Ru2)2
_symmetry_space_group_name_H-M   'P 1'
_cell_length_a   6.98799502
_cell_length_b   6.98799502
_cell_length_c   6.98799502
_cell_angle_alpha   120.17289118
_cell_angle_beta   120.17289118
_cell_angle_gamma   89.70080363
_symmetry_Int_Tables_number   1
_chemical_formula_structural   La(Sn3Ru2)2
_chemical_formula_sum   'La1 Sn6 Ru4'
_cell_volume   240.65779919
_cell_formula_units_Z   1
loop_
 _symmetry_equiv_pos_site_id
 _symmetry_equiv_pos_as_xyz
  1  'x, y, z'
loop_
 _atom_site_type_symbol
 _atom_site_label
 _atom_site_symmetry_multiplicity
 _atom_site_fract_x
 _atom_site_fract_y
 _atom_site_fract_z
 _atom_site_occupancy
  La  La0  1  -0.00000000  -0.00000000  -0.00000000  1
  Sn  Sn1  1  0.47239004  0.11922513  0.00000000  1
  Sn  Sn2  1  0.11922513  0.47239004  0.00000000  1
  Sn  Sn3  1  0.88077487  0.88077487  0.35316491  1
  Sn  Sn4  1  0.52760996  0.52760996  0.64683509  1
  Sn  Sn5  1  -0.00000000  0.50000000  0.50000000  1
  Sn  Sn6  1  0.50000000  -0.00000000  0.50000000  1
  Ru  Ru7  1  0.40642706  0.75058749  -0.00000000  1
  Ru  Ru8  1  0.75058749  0.40642706  -0.00000000  1
  Ru  Ru9  1  0.24941251  0.24941251  0.65583957  1
  Ru  Ru10  1  0.59357294  0.59357294  0.34416043  1
