# generated using pymatgen
data_RbCrSe2
_symmetry_space_group_name_H-M   'P 1'
_cell_length_a   3.89019541
_cell_length_b   3.89019541
_cell_length_c   8.09868715
_cell_angle_alpha   76.10316364
_cell_angle_beta   76.10316364
_cell_angle_gamma   60.00001954
_symmetry_Int_Tables_number   1
_chemical_formula_structural   RbCrSe2
_chemical_formula_sum   'Rb1 Cr1 Se2'
_cell_volume   101.97877661
_cell_formula_units_Z   1
loop_
 _symmetry_equiv_pos_site_id
 _symmetry_equiv_pos_as_xyz
  1  'x, y, z'
loop_
 _atom_site_type_symbol
 _atom_site_label
 _atom_site_symmetry_multiplicity
 _atom_site_fract_x
 _atom_site_fract_y
 _atom_site_fract_z
 _atom_site_occupancy
  Rb  Rb0  1  0.83451372  0.83451372  0.49645885  1
  Cr  Cr1  1  0.00195847  0.00195847  0.99412458  1
  Se  Se2  1  0.61233731  0.61233731  0.16298808  1
  Se  Se3  1  0.39119050  0.39119050  0.82642849  1
