# generated using pymatgen
data_Dy7(TePt)2
_symmetry_space_group_name_H-M   'P 1'
_cell_length_a   3.95997144
_cell_length_b   9.43835872
_cell_length_c   9.43835872
_cell_angle_alpha   61.58673627
_cell_angle_beta   77.89049761
_cell_angle_gamma   77.89049761
_symmetry_Int_Tables_number   1
_chemical_formula_structural   Dy7(TePt)2
_chemical_formula_sum   'Dy7 Te2 Pt2'
_cell_volume   300.87582884
_cell_formula_units_Z   1
loop_
 _symmetry_equiv_pos_site_id
 _symmetry_equiv_pos_as_xyz
  1  'x, y, z'
loop_
 _atom_site_type_symbol
 _atom_site_label
 _atom_site_symmetry_multiplicity
 _atom_site_fract_x
 _atom_site_fract_y
 _atom_site_fract_z
 _atom_site_occupancy
  Dy  Dy0  1  0.12928558  0.45446996  0.28695889  1
  Dy  Dy1  1  0.87071442  0.71304111  0.54553004  1
  Dy  Dy2  1  0.31606822  0.06085300  0.30701055  1
  Dy  Dy3  1  0.68393178  0.69298945  0.93914700  1
  Dy  Dy4  1  0.35667937  0.37577224  0.91086901  1
  Dy  Dy5  1  0.64332063  0.08913099  0.62422776  1
  Dy  Dy6  1  0.00000000  0.99979966  0.00020034  1
  Te  Te7  1  0.50000000  0.73845201  0.26154799  1
  Te  Te8  1  0.00000000  0.33716578  0.66283422  1
  Pt  Pt9  1  0.23772186  0.83601103  0.68854525  1
  Pt  Pt10  1  0.76227814  0.31145475  0.16398897  1
