# generated using pymatgen
data_Ce3(SiNi)4
_symmetry_space_group_name_H-M   'P 1'
_cell_length_a   3.98134965
_cell_length_b   4.05061782
_cell_length_c   12.11718302
_cell_angle_alpha   99.62178239
_cell_angle_beta   99.45571753
_cell_angle_gamma   90.00000000
_symmetry_Int_Tables_number   1
_chemical_formula_structural   Ce3(SiNi)4
_chemical_formula_sum   'Ce3 Si4 Ni4'
_cell_volume   189.97043572
_cell_formula_units_Z   1
loop_
 _symmetry_equiv_pos_site_id
 _symmetry_equiv_pos_as_xyz
  1  'x, y, z'
loop_
 _atom_site_type_symbol
 _atom_site_label
 _atom_site_symmetry_multiplicity
 _atom_site_fract_x
 _atom_site_fract_y
 _atom_site_fract_z
 _atom_site_occupancy
  Ce  Ce0  1  0.85065454  0.35065454  0.70130908  1
  Ce  Ce1  1  0.14934546  0.64934546  0.29869092  1
  Ce  Ce2  1  0.00000000  -0.00000000  0.00000000  1
  Si  Si3  1  0.69753042  0.19753042  0.39506083  1
  Si  Si4  1  0.30246958  0.80246958  0.60493917  1
  Si  Si5  1  0.44919559  0.44919559  0.89839119  1
  Si  Si6  1  0.55080441  0.55080441  0.10160881  1
  Ni  Ni7  1  0.59740053  0.09740053  0.19480105  1
  Ni  Ni8  1  0.40259947  0.90259947  0.80519895  1
  Ni  Ni9  1  0.24955015  0.24955015  0.49910030  1
  Ni  Ni10  1  0.75044985  0.75044985  0.50089970  1
