# generated using pymatgen
data_CaCoBi2O7
_symmetry_space_group_name_H-M   'P 1'
_cell_length_a   7.45967180
_cell_length_b   11.45139010
_cell_length_c   14.92756017
_cell_angle_alpha   90.00000000
_cell_angle_beta   90.00000000
_cell_angle_gamma   103.75633935
_symmetry_Int_Tables_number   1
_chemical_formula_structural   CaCoBi2O7
_chemical_formula_sum   'Ca8 Co8 Bi16 O56'
_cell_volume   1238.58894170
_cell_formula_units_Z   8
loop_
 _symmetry_equiv_pos_site_id
 _symmetry_equiv_pos_as_xyz
  1  'x, y, z'
loop_
 _atom_site_type_symbol
 _atom_site_label
 _atom_site_symmetry_multiplicity
 _atom_site_fract_x
 _atom_site_fract_y
 _atom_site_fract_z
 _atom_site_occupancy
  Ca  Ca0  1  0.11972250  0.79279533  0.50930056  1
  Ca  Ca1  1  0.31674094  0.98544026  0.87556469  1
  Ca  Ca2  1  0.68325906  0.51455974  0.37556469  1
  Ca  Ca3  1  0.68325906  0.01455974  0.12443531  1
  Ca  Ca4  1  0.31674094  0.48544026  0.62443531  1
  Ca  Ca5  1  0.11972250  0.29279533  0.99069944  1
  Ca  Ca6  1  0.88027750  0.20720467  0.49069944  1
  Ca  Ca7  1  0.88027750  0.70720467  0.00930056  1
  Co  Co8  1  0.63677155  0.08828073  0.66833967  1
  Co  Co9  1  0.36322845  0.41171927  0.16833967  1
  Co  Co10  1  0.36322845  0.91171927  0.33166033  1
  Co  Co11  1  0.63677155  0.58828073  0.83166033  1
  Co  Co12  1  0.99205568  0.26862741  0.74173277  1
  Co  Co13  1  0.00794432  0.23137259  0.24173277  1
  Co  Co14  1  0.00794432  0.73137259  0.25826723  1
  Co  Co15  1  0.99205568  0.76862741  0.75826723  1
  Bi  Bi16  1  0.86090491  0.01833197  0.90096081  1
  Bi  Bi17  1  0.37881237  0.69444335  0.01594472  1
  Bi  Bi18  1  0.37881237  0.19444335  0.48405528  1
  Bi  Bi19  1  0.62118763  0.30555665  0.98405528  1
  Bi  Bi20  1  0.49923990  0.78907394  0.73525074  1
  Bi  Bi21  1  0.50076010  0.71092606  0.23525074  1
  Bi  Bi22  1  0.50076010  0.21092606  0.26474926  1
  Bi  Bi23  1  0.49923990  0.28907394  0.76474926  1
  Bi  Bi24  1  0.62118763  0.80555665  0.51594472  1
  Bi  Bi25  1  0.89853716  0.46044648  0.18098572  1
  Bi  Bi26  1  0.10146284  0.03955352  0.68098572  1
  Bi  Bi27  1  0.10146284  0.53955352  0.81901428  1
  Bi  Bi28  1  0.13909509  0.48166803  0.40096081  1
  Bi  Bi29  1  0.86090491  0.51833197  0.59903919  1
  Bi  Bi30  1  0.13909509  0.98166803  0.09903919  1
  Bi  Bi31  1  0.89853716  0.96044648  0.31901428  1
  O  O32  1  0.86495748  0.91068476  0.02128620  1
  O  O33  1  0.13504252  0.58931524  0.52128620  1
  O  O34  1  0.13504252  0.08931524  0.97871380  1
  O  O35  1  0.86495748  0.41068476  0.47871380  1
  O  O36  1  0.00900998  0.91739483  0.81400900  1
  O  O37  1  0.99099002  0.58260517  0.31400900  1
  O  O38  1  0.99099002  0.08260517  0.18599100  1
  O  O39  1  0.00900998  0.41739483  0.68599100  1
  O  O40  1  0.03839458  0.14074568  0.80351308  1
  O  O41  1  0.96160542  0.35925432  0.30351308  1
  O  O42  1  0.96160542  0.85925432  0.19648692  1
  O  O43  1  0.03839458  0.64074568  0.69648692  1
  O  O44  1  0.61769710  0.91837062  0.27371562  1
  O  O45  1  0.38230290  0.58162938  0.77371562  1
  O  O46  1  0.38230290  0.08162938  0.72628438  1
  O  O47  1  0.61769710  0.41837062  0.22628438  1
  O  O48  1  0.96757330  0.14566263  0.35074444  1
  O  O49  1  0.03242670  0.35433737  0.85074444  1
  O  O50  1  0.03242670  0.85433737  0.64925556  1
  O  O51  1  0.96757330  0.64566263  0.14925556  1
  O  O52  1  0.07082442  0.84210061  0.35906444  1
  O  O53  1  0.39864906  0.81023349  0.43231020  1
  O  O54  1  0.92917558  0.65789939  0.85906444  1
  O  O55  1  0.07082442  0.34210061  0.14093556  1
  O  O56  1  0.76782354  0.66304250  0.50581952  1
  O  O57  1  0.23217646  0.83695750  0.00581952  1
  O  O58  1  0.23217646  0.33695750  0.49418048  1
  O  O59  1  0.76782354  0.16304250  0.99418048  1
  O  O60  1  0.81531884  0.95344554  0.45982206  1
  O  O61  1  0.18468116  0.54655446  0.95982206  1
  O  O62  1  0.18468116  0.04655446  0.54017794  1
  O  O63  1  0.81531884  0.45344554  0.04017794  1
  O  O64  1  0.42832203  0.19928006  0.89155478  1
  O  O65  1  0.57167797  0.30071994  0.39155478  1
  O  O66  1  0.57167797  0.80071994  0.10844522  1
  O  O67  1  0.42832203  0.69928006  0.60844522  1
  O  O68  1  0.73429591  0.21251405  0.76185397  1
  O  O69  1  0.26570409  0.28748595  0.26185397  1
  O  O70  1  0.26570409  0.78748595  0.23814603  1
  O  O71  1  0.73429591  0.71251405  0.73814603  1
  O  O72  1  0.60065983  0.44075188  0.67001071  1
  O  O73  1  0.39934017  0.05924812  0.17001071  1
  O  O74  1  0.39934017  0.55924812  0.32998929  1
  O  O75  1  0.60065983  0.94075188  0.82998929  1
  O  O76  1  0.24656867  0.29824448  0.70260785  1
  O  O77  1  0.75343133  0.20175552  0.20260785  1
  O  O78  1  0.75343133  0.70175552  0.29739215  1
  O  O79  1  0.24656867  0.79824448  0.79739215  1
  O  O80  1  0.61683120  0.42441850  0.86738160  1
  O  O81  1  0.38316880  0.07558150  0.36738160  1
  O  O82  1  0.38316880  0.57558150  0.13261840  1
  O  O83  1  0.61683120  0.92441850  0.63261840  1
  O  O84  1  0.39864906  0.31023349  0.06768980  1
  O  O85  1  0.60135094  0.18976651  0.56768980  1
  O  O86  1  0.60135094  0.68976651  0.93231020  1
  O  O87  1  0.92917558  0.15789939  0.64093556  1
