# generated using pymatgen
data_NdAlGe
_symmetry_space_group_name_H-M   'P 1'
_cell_length_a   4.27474731
_cell_length_b   4.27474731
_cell_length_c   7.97195373
_cell_angle_alpha   105.55192637
_cell_angle_beta   105.55192637
_cell_angle_gamma   90.00000000
_symmetry_Int_Tables_number   1
_chemical_formula_structural   NdAlGe
_chemical_formula_sum   'Nd2 Al2 Ge2'
_cell_volume   134.79738911
_cell_formula_units_Z   2
loop_
 _symmetry_equiv_pos_site_id
 _symmetry_equiv_pos_as_xyz
  1  'x, y, z'
loop_
 _atom_site_type_symbol
 _atom_site_label
 _atom_site_symmetry_multiplicity
 _atom_site_fract_x
 _atom_site_fract_y
 _atom_site_fract_z
 _atom_site_occupancy
  Nd  Nd0  1  0.58153823  0.58153823  0.16307646  1
  Nd  Nd1  1  0.83153823  0.33153823  0.66307646  1
  Al  Al2  1  0.16587056  0.16587056  0.33174113  1
  Al  Al3  1  0.41587056  0.91587056  0.83174113  1
  Ge  Ge4  1  0.99959121  0.99959121  0.99918241  1
  Ge  Ge5  1  0.24959121  0.74959121  0.49918241  1
