# generated using pymatgen
data_Ca2Mn3O8
_symmetry_space_group_name_H-M   'P 1'
_cell_length_a   5.98283145
_cell_length_b   5.98283109
_cell_length_c   10.54223947
_cell_angle_alpha   90.00000000
_cell_angle_beta   90.00000000
_cell_angle_gamma   119.99999822
_symmetry_Int_Tables_number   1
_chemical_formula_structural   Ca2Mn3O8
_chemical_formula_sum   'Ca4 Mn6 O16'
_cell_volume   326.79622121
_cell_formula_units_Z   2
loop_
 _symmetry_equiv_pos_site_id
 _symmetry_equiv_pos_as_xyz
  1  'x, y, z'
loop_
 _atom_site_type_symbol
 _atom_site_label
 _atom_site_symmetry_multiplicity
 _atom_site_fract_x
 _atom_site_fract_y
 _atom_site_fract_z
 _atom_site_occupancy
  Ca  Ca0  1  0.66666700  0.33333400  0.02666067  1
  Ca  Ca1  1  0.33333300  0.66666600  0.52666167  1
  Ca  Ca2  1  0.66666700  0.33333400  0.43067693  1
  Ca  Ca3  1  0.33333300  0.66666600  0.93067793  1
  Mn  Mn4  1  0.67118641  0.83559321  0.24587034  1
  Mn  Mn5  1  0.83559421  0.16440779  0.74587034  1
  Mn  Mn6  1  0.16440779  0.32881459  0.24587034  1
  Mn  Mn7  1  0.83559221  0.67118641  0.74587034  1
  Mn  Mn8  1  0.32881459  0.16440779  0.74587034  1
  Mn  Mn9  1  0.16440779  0.83559321  0.24587034  1
  O  O10  1  0.84560794  0.15439306  0.15515109  1
  O  O11  1  0.69121487  0.84560794  0.65515009  1
  O  O12  1  0.15439306  0.30878613  0.65515009  1
  O  O13  1  0.84560694  0.69121487  0.15515109  1
  O  O14  1  0.30878513  0.15439306  0.15515109  1
  O  O15  1  0.15439306  0.84560794  0.65515009  1
  O  O16  1  0.52211704  0.47788196  0.84752577  1
  O  O17  1  0.04423507  0.52211704  0.34752477  1
  O  O18  1  0.47788296  0.95576593  0.34752477  1
  O  O19  1  0.52211704  0.04423507  0.84752577  1
  O  O20  1  0.00000000  -0.00000000  0.34142910  1
  O  O21  1  0.00000000  -0.00000000  0.84142910  1
  O  O22  1  0.33333300  0.66666600  0.14909470  1
  O  O23  1  0.95576393  0.47788196  0.84752577  1
  O  O24  1  0.47788196  0.52211704  0.34752477  1
  O  O25  1  0.66666700  0.33333400  0.64909470  1
