# generated using pymatgen
data_Zr3Ga5
_symmetry_space_group_name_H-M   'P 1'
_cell_length_a   5.71475098
_cell_length_b   5.71475098
_cell_length_c   9.10288588
_cell_angle_alpha   90.00000000
_cell_angle_beta   90.00000000
_cell_angle_gamma   102.47497440
_symmetry_Int_Tables_number   1
_chemical_formula_structural   Zr3Ga5
_chemical_formula_sum   'Zr6 Ga10'
_cell_volume   290.26671836
_cell_formula_units_Z   2
loop_
 _symmetry_equiv_pos_site_id
 _symmetry_equiv_pos_as_xyz
  1  'x, y, z'
loop_
 _atom_site_type_symbol
 _atom_site_label
 _atom_site_symmetry_multiplicity
 _atom_site_fract_x
 _atom_site_fract_y
 _atom_site_fract_z
 _atom_site_occupancy
  Zr  Zr0  1  0.20547208  0.79452792  0.00000000  1
  Zr  Zr1  1  0.79452792  0.20547208  -0.00000000  1
  Zr  Zr2  1  0.79452792  0.20547208  0.50000000  1
  Zr  Zr3  1  0.20547208  0.79452792  0.50000000  1
  Zr  Zr4  1  0.63690947  0.63690947  0.25000000  1
  Zr  Zr5  1  0.36309053  0.36309053  0.75000000  1
  Ga  Ga6  1  0.49784395  0.07719483  0.25000000  1
  Ga  Ga7  1  0.50215605  0.92280517  0.75000000  1
  Ga  Ga8  1  0.07719483  0.49784395  0.25000000  1
  Ga  Ga9  1  0.92280517  0.50215605  0.75000000  1
  Ga  Ga10  1  0.01685268  0.01685268  0.25000000  1
  Ga  Ga11  1  0.98314732  0.98314732  0.75000000  1
  Ga  Ga12  1  0.31614283  0.31614283  0.05042663  1
  Ga  Ga13  1  0.68385717  0.68385717  0.94957337  1
  Ga  Ga14  1  0.68385717  0.68385717  0.55042663  1
  Ga  Ga15  1  0.31614283  0.31614283  0.44957337  1
