# generated using pymatgen
data_Gd2Ni2Sn
_symmetry_space_group_name_H-M   'P 1'
_cell_length_a   4.29476094
_cell_length_b   5.49669823
_cell_length_c   5.49669823
_cell_angle_alpha   62.71490585
_cell_angle_beta   67.00396513
_cell_angle_gamma   67.00396513
_symmetry_Int_Tables_number   1
_chemical_formula_structural   Gd2Ni2Sn
_chemical_formula_sum   'Gd2 Ni2 Sn1'
_cell_volume   102.54691562
_cell_formula_units_Z   1
loop_
 _symmetry_equiv_pos_site_id
 _symmetry_equiv_pos_as_xyz
  1  'x, y, z'
loop_
 _atom_site_type_symbol
 _atom_site_label
 _atom_site_symmetry_multiplicity
 _atom_site_fract_x
 _atom_site_fract_y
 _atom_site_fract_z
 _atom_site_occupancy
  Gd  Gd0  1  0.20371631  0.29628369  0.29628369  1
  Gd  Gd1  1  0.79628369  0.70371631  0.70371631  1
  Ni  Ni2  1  0.50000000  0.28938994  0.71061006  1
  Ni  Ni3  1  0.50000000  0.71061006  0.28938994  1
  Sn  Sn4  1  0.00000000  -0.00000000  -0.00000000  1
