# generated using pymatgen
data_Zr6FeSe2
_symmetry_space_group_name_H-M   'P 1'
_cell_length_a   3.50965345
_cell_length_b   12.93083674
_cell_length_c   16.04220793
_cell_angle_alpha   90.00000000
_cell_angle_beta   90.00000000
_cell_angle_gamma   90.00000000
_symmetry_Int_Tables_number   1
_chemical_formula_structural   Zr6FeSe2
_chemical_formula_sum   'Zr24 Fe4 Se8'
_cell_volume   728.03960459
_cell_formula_units_Z   4
loop_
 _symmetry_equiv_pos_site_id
 _symmetry_equiv_pos_as_xyz
  1  'x, y, z'
loop_
 _atom_site_type_symbol
 _atom_site_label
 _atom_site_symmetry_multiplicity
 _atom_site_fract_x
 _atom_site_fract_y
 _atom_site_fract_z
 _atom_site_occupancy
  Zr  Zr0  1  -0.00000000  0.33338970  0.48743126  1
  Zr  Zr1  1  0.00000000  0.66661030  0.51256874  1
  Zr  Zr2  1  0.50000000  0.16661030  0.98743126  1
  Zr  Zr3  1  0.50000000  0.83338970  0.01256874  1
  Zr  Zr4  1  0.00000000  0.09109090  0.57886156  1
  Zr  Zr5  1  0.00000000  0.90890910  0.42113844  1
  Zr  Zr6  1  0.50000000  0.40890910  0.07886156  1
  Zr  Zr7  1  0.50000000  0.59109090  0.92113844  1
  Zr  Zr8  1  0.00000000  0.69960975  0.30250448  1
  Zr  Zr9  1  -0.00000000  0.30039025  0.69749552  1
  Zr  Zr10  1  0.50000000  0.80039025  0.80250448  1
  Zr  Zr11  1  0.50000000  0.19960975  0.19749552  1
  Zr  Zr12  1  -0.00000000  0.02737904  0.10478350  1
  Zr  Zr13  1  -0.00000000  0.97262096  0.89521650  1
  Zr  Zr14  1  0.50000000  0.47262096  0.60478350  1
  Zr  Zr15  1  0.50000000  0.52737904  0.39521650  1
  Zr  Zr16  1  -0.00000000  0.61856429  0.07916837  1
  Zr  Zr17  1  0.00000000  0.38143571  0.92083163  1
  Zr  Zr18  1  0.50000000  0.88143571  0.57916837  1
  Zr  Zr19  1  0.50000000  0.11856429  0.42083163  1
  Zr  Zr20  1  -0.00000000  0.41365165  0.24517298  1
  Zr  Zr21  1  0.00000000  0.58634835  0.75482702  1
  Zr  Zr22  1  0.50000000  0.08634835  0.74517298  1
  Zr  Zr23  1  0.50000000  0.91365165  0.25482702  1
  Fe  Fe24  1  0.00000000  0.25816024  0.08738464  1
  Fe  Fe25  1  -0.00000000  0.74183976  0.91261536  1
  Fe  Fe26  1  0.50000000  0.24183976  0.58738464  1
  Fe  Fe27  1  0.50000000  0.75816024  0.41261536  1
  Se  Se28  1  0.00000000  0.81310335  0.15197367  1
  Se  Se29  1  -0.00000000  0.18689665  0.84802633  1
  Se  Se30  1  0.50000000  0.68689665  0.65197367  1
  Se  Se31  1  0.50000000  0.31310335  0.34802633  1
  Se  Se32  1  -0.00000000  0.07056313  0.29048164  1
  Se  Se33  1  0.00000000  0.92943687  0.70951836  1
  Se  Se34  1  0.50000000  0.42943687  0.79048164  1
  Se  Se35  1  0.50000000  0.57056313  0.20951836  1
