# generated using pymatgen
data_Zr54Os17
_symmetry_space_group_name_H-M   'P 1'
_cell_length_a   12.45814171
_cell_length_b   12.45814171
_cell_length_c   12.45814171
_cell_angle_alpha   107.18539994
_cell_angle_beta   110.10163611
_cell_angle_gamma   111.15233731
_symmetry_Int_Tables_number   1
_chemical_formula_structural   Zr54Os17
_chemical_formula_sum   'Zr54 Os17'
_cell_volume   1486.56412291
_cell_formula_units_Z   1
loop_
 _symmetry_equiv_pos_site_id
 _symmetry_equiv_pos_as_xyz
  1  'x, y, z'
loop_
 _atom_site_type_symbol
 _atom_site_label
 _atom_site_symmetry_multiplicity
 _atom_site_fract_x
 _atom_site_fract_y
 _atom_site_fract_z
 _atom_site_occupancy
  Zr  Zr0  1  0.57883243  0.51226066  0.70792956  1
  Zr  Zr1  1  0.42116757  0.48773934  0.29207044  1
  Zr  Zr2  1  0.42116757  0.12909714  0.93342823  1
  Zr  Zr3  1  0.19566890  0.48773934  0.06657177  1
  Zr  Zr4  1  0.57883243  0.87090286  0.06657177  1
  Zr  Zr5  1  0.80433110  0.51226066  0.93342823  1
  Zr  Zr6  1  0.80433110  0.87090286  0.29207044  1
  Zr  Zr7  1  0.19566890  0.12909714  0.70792956  1
  Zr  Zr8  1  0.71190846  0.81990408  0.89200437  1
  Zr  Zr9  1  0.28809154  0.18009592  0.10799563  1
  Zr  Zr10  1  0.07210029  0.18009592  0.89200437  1
  Zr  Zr11  1  0.92789971  0.81990408  0.10799563  1
  Zr  Zr12  1  0.89016991  0.72020741  0.83003749  1
  Zr  Zr13  1  0.10983009  0.27979259  0.16996251  1
  Zr  Zr14  1  0.10983009  0.93986758  0.83003749  1
  Zr  Zr15  1  0.89016991  0.06013242  0.16996251  1
  Zr  Zr16  1  0.81322076  0.89846093  0.71168169  1
  Zr  Zr17  1  0.18677924  0.10153907  0.28831831  1
  Zr  Zr18  1  0.18677924  0.89846093  0.08524017  1
  Zr  Zr19  1  0.81322076  0.10153907  0.91475983  1
  Zr  Zr20  1  0.00000000  0.64426872  0.64426872  1
  Zr  Zr21  1  0.00000000  0.35573128  0.35573128  1
  Zr  Zr22  1  0.60030531  0.26538022  0.66507491  1
  Zr  Zr23  1  0.39969469  0.73461978  0.33492509  1
  Zr  Zr24  1  0.39969469  0.06476960  0.66507491  1
  Zr  Zr25  1  0.60030531  0.93523040  0.33492509  1
  Zr  Zr26  1  0.60881466  0.00000000  0.60881466  1
  Zr  Zr27  1  0.39118534  0.00000000  0.39118534  1
  Zr  Zr28  1  0.60960354  0.60960354  -0.00000000  1
  Zr  Zr29  1  0.39039646  0.39039646  -0.00000000  1
  Zr  Zr30  1  0.49270465  0.70102662  0.57635604  1
  Zr  Zr31  1  0.50729535  0.29897338  0.42364396  1
  Zr  Zr32  1  0.50729535  0.08365139  0.20832197  1
  Zr  Zr33  1  0.87532942  0.29897338  0.79167803  1
  Zr  Zr34  1  0.49270465  0.91634861  0.79167803  1
  Zr  Zr35  1  0.12467058  0.70102662  0.20832197  1
  Zr  Zr36  1  0.12467058  0.91634861  0.42364396  1
  Zr  Zr37  1  0.87532942  0.08365139  0.57635604  1
  Zr  Zr38  1  0.70004895  0.59635465  0.53179687  1
  Zr  Zr39  1  0.29995105  0.40364535  0.46820313  1
  Zr  Zr40  1  0.29995105  0.83174791  0.89630570  1
  Zr  Zr41  1  0.93544222  0.40364535  0.10369430  1
  Zr  Zr42  1  0.70004895  0.16825209  0.10369430  1
  Zr  Zr43  1  0.06455778  0.59635465  0.89630570  1
  Zr  Zr44  1  0.06455778  0.16825209  0.46820313  1
  Zr  Zr45  1  0.93544222  0.83174791  0.53179687  1
  Zr  Zr46  1  0.68020680  0.59450062  0.27470742  1
  Zr  Zr47  1  0.31979320  0.40549938  0.72529258  1
  Zr  Zr48  1  0.31979320  0.59450062  0.91429381  1
  Zr  Zr49  1  0.68020680  0.40549938  0.08570619  1
  Zr  Zr50  1  0.23470714  0.62607918  0.60862797  1
  Zr  Zr51  1  0.76529286  0.37392082  0.39137203  1
  Zr  Zr52  1  0.98254879  0.37392082  0.60862797  1
  Zr  Zr53  1  0.01745121  0.62607918  0.39137203  1
  Os  Os54  1  0.66736425  0.78279427  0.45015853  1
  Os  Os55  1  0.33263575  0.21720573  0.54984147  1
  Os  Os56  1  0.33263575  0.78279427  0.11543002  1
  Os  Os57  1  0.66736425  0.21720573  0.88456998  1
  Os  Os58  1  0.50000000  0.33500303  0.83500303  1
  Os  Os59  1  0.50000000  0.66499697  0.16499697  1
  Os  Os60  1  0.45966560  0.67286927  0.78679633  1
  Os  Os61  1  0.54033440  0.32713073  0.21320367  1
  Os  Os62  1  0.11392706  0.32713073  0.78679633  1
  Os  Os63  1  0.88607294  0.67286927  0.21320367  1
  Os  Os64  1  0.79808126  0.46084841  0.66276715  1
  Os  Os65  1  0.20191874  0.53915159  0.33723285  1
  Os  Os66  1  0.20191874  0.86468589  0.66276715  1
  Os  Os67  1  0.79808126  0.13531411  0.33723285  1
  Os  Os68  1  0.00000000  0.00000000  -0.00000000  1
  Os  Os69  1  0.30760185  0.80760185  0.50000000  1
  Os  Os70  1  0.69239815  0.19239815  0.50000000  1
