# generated using pymatgen
data_Ca3Fe4(WO4)6
_symmetry_space_group_name_H-M   'P 1'
_cell_length_a   7.36493721
_cell_length_b   8.73102369
_cell_length_c   10.59044625
_cell_angle_alpha   105.03885666
_cell_angle_beta   106.04622987
_cell_angle_gamma   103.56810525
_symmetry_Int_Tables_number   1
_chemical_formula_structural   Ca3Fe4(WO4)6
_chemical_formula_sum   'Ca3 Fe4 W6 O24'
_cell_volume   596.63693251
_cell_formula_units_Z   1
loop_
 _symmetry_equiv_pos_site_id
 _symmetry_equiv_pos_as_xyz
  1  'x, y, z'
loop_
 _atom_site_type_symbol
 _atom_site_label
 _atom_site_symmetry_multiplicity
 _atom_site_fract_x
 _atom_site_fract_y
 _atom_site_fract_z
 _atom_site_occupancy
  Ca  Ca0  1  0.00000000  0.50000000  0.50000000  1
  Ca  Ca1  1  0.29164986  0.29915118  0.79319900  1
  Ca  Ca2  1  0.70835014  0.70084882  0.20680100  1
  Fe  Fe3  1  0.37622797  0.96036168  0.60090757  1
  Fe  Fe4  1  0.62377203  0.03963832  0.39909243  1
  Fe  Fe5  1  0.04527256  0.21580775  0.01738689  1
  Fe  Fe6  1  0.95472744  0.78419225  0.98261311  1
  W  W7  1  0.78174238  0.33231566  0.72978600  1
  W  W8  1  0.21825762  0.66768434  0.27021400  1
  W  W9  1  0.89393028  0.91326072  0.67372185  1
  W  W10  1  0.39195241  0.74111160  0.86682789  1
  W  W11  1  0.10606972  0.08673928  0.32627815  1
  W  W12  1  0.60804759  0.25888840  0.13317211  1
  O  O13  1  0.85612692  0.69695202  0.58548818  1
  O  O14  1  0.14387308  0.30304798  0.41451182  1
  O  O15  1  0.24616898  0.53093840  0.73453290  1
  O  O16  1  0.75383102  0.46906160  0.26546710  1
  O  O17  1  0.78666652  0.28260218  0.54416290  1
  O  O18  1  0.21333348  0.71739782  0.45583710  1
  O  O19  1  0.67568166  0.96595029  0.58728502  1
  O  O20  1  0.32431834  0.03404971  0.41271498  1
  O  O21  1  0.62106924  0.73293861  0.98795889  1
  O  O22  1  0.37893076  0.26706139  0.01204111  1
  O  O23  1  0.48513875  0.77943892  0.29171953  1
  O  O24  1  0.51486125  0.22056108  0.70828047  1
  O  O25  1  0.12167701  0.02441015  0.65298552  1
  O  O26  1  0.07039061  0.05693137  0.14257170  1
  O  O27  1  0.92960939  0.94306863  0.85742830  1
  O  O28  1  0.55965878  0.12058407  0.22760849  1
  O  O29  1  0.44034122  0.87941593  0.77239151  1
  O  O30  1  0.17282972  0.45075801  0.15894619  1
  O  O31  1  0.82717028  0.54924199  0.84105381  1
  O  O32  1  0.99211567  0.26489815  0.82647694  1
  O  O33  1  0.00788433  0.73510185  0.17352306  1
  O  O34  1  0.23951726  0.79928592  0.96379292  1
  O  O35  1  0.76048274  0.20071408  0.03620708  1
  O  O36  1  0.87832199  0.97558985  0.34701448  1
