# generated using pymatgen
data_Yb4MgCu
_symmetry_space_group_name_H-M   'P 1'
_cell_length_a   10.13371000
_cell_length_b   10.13371000
_cell_length_c   10.13371000
_cell_angle_alpha   60.00000000
_cell_angle_beta   60.00000000
_cell_angle_gamma   60.00000000
_symmetry_Int_Tables_number   1
_chemical_formula_structural   Yb4MgCu
_chemical_formula_sum   'Yb16 Mg4 Cu4'
_cell_volume   735.85190336
_cell_formula_units_Z   4
loop_
 _symmetry_equiv_pos_site_id
 _symmetry_equiv_pos_as_xyz
  1  'x, y, z'
loop_
 _atom_site_type_symbol
 _atom_site_label
 _atom_site_symmetry_multiplicity
 _atom_site_fract_x
 _atom_site_fract_y
 _atom_site_fract_z
 _atom_site_occupancy
  Yb  Yb0  1  0.65331495  0.65331495  0.65331495  1
  Yb  Yb1  1  0.04005515  0.65331495  0.65331495  1
  Yb  Yb2  1  0.65331495  0.04005515  0.65331495  1
  Yb  Yb3  1  0.65331495  0.65331495  0.04005515  1
  Yb  Yb4  1  0.80932234  0.80932234  0.19067766  1
  Yb  Yb5  1  0.19067766  0.19067766  0.80932234  1
  Yb  Yb6  1  0.80932234  0.19067766  0.80932234  1
  Yb  Yb7  1  0.19067766  0.80932234  0.19067766  1
  Yb  Yb8  1  0.19067766  0.80932234  0.80932234  1
  Yb  Yb9  1  0.80932234  0.19067766  0.19067766  1
  Yb  Yb10  1  0.44051018  0.44051018  0.05948982  1
  Yb  Yb11  1  0.05948982  0.05948982  0.44051018  1
  Yb  Yb12  1  0.44051018  0.05948982  0.44051018  1
  Yb  Yb13  1  0.05948982  0.44051018  0.05948982  1
  Yb  Yb14  1  0.05948982  0.44051018  0.44051018  1
  Yb  Yb15  1  0.44051018  0.05948982  0.05948982  1
  Mg  Mg16  1  0.42098453  0.42098453  0.42098453  1
  Mg  Mg17  1  0.73704641  0.42098453  0.42098453  1
  Mg  Mg18  1  0.42098453  0.73704641  0.42098453  1
  Mg  Mg19  1  0.42098453  0.42098453  0.73704641  1
  Cu  Cu20  1  0.85855572  0.85855572  0.85855572  1
  Cu  Cu21  1  0.42433285  0.85855572  0.85855572  1
  Cu  Cu22  1  0.85855572  0.42433285  0.85855572  1
  Cu  Cu23  1  0.85855572  0.85855572  0.42433285  1
