# generated using pymatgen
data_Yb3H2Pb
_symmetry_space_group_name_H-M   'P 1'
_cell_length_a   5.31308881
_cell_length_b   7.17891579
_cell_length_c   7.17891579
_cell_angle_alpha   104.29431930
_cell_angle_beta   90.00000000
_cell_angle_gamma   90.00000000
_symmetry_Int_Tables_number   1
_chemical_formula_structural   Yb3H2Pb
_chemical_formula_sum   'Yb6 H4 Pb2'
_cell_volume   265.34236432
_cell_formula_units_Z   2
loop_
 _symmetry_equiv_pos_site_id
 _symmetry_equiv_pos_as_xyz
  1  'x, y, z'
loop_
 _atom_site_type_symbol
 _atom_site_label
 _atom_site_symmetry_multiplicity
 _atom_site_fract_x
 _atom_site_fract_y
 _atom_site_fract_z
 _atom_site_occupancy
  Yb  Yb0  1  0.75000000  0.89125725  0.10874275  1
  Yb  Yb1  1  0.25000000  0.10874275  0.89125725  1
  Yb  Yb2  1  0.75000000  0.40792457  0.18526967  1
  Yb  Yb3  1  0.25000000  0.59207543  0.81473033  1
  Yb  Yb4  1  0.75000000  0.81473033  0.59207543  1
  Yb  Yb5  1  0.25000000  0.18526967  0.40792457  1
  H  H6  1  -0.00000000  0.84916373  0.84916373  1
  H  H7  1  -0.00000000  0.15083627  0.15083627  1
  H  H8  1  0.50000000  0.15083627  0.15083627  1
  H  H9  1  0.50000000  0.84916373  0.84916373  1
  Pb  Pb10  1  0.75000000  0.30767794  0.69232206  1
  Pb  Pb11  1  0.25000000  0.69232206  0.30767794  1
