# generated using pymatgen
data_Yb2ReC2
_symmetry_space_group_name_H-M   'P 1'
_cell_length_a   5.16647323
_cell_length_b   6.71507386
_cell_length_c   10.02502722
_cell_angle_alpha   90.00000000
_cell_angle_beta   90.00000000
_cell_angle_gamma   90.00000000
_symmetry_Int_Tables_number   1
_chemical_formula_structural   Yb2ReC2
_chemical_formula_sum   'Yb8 Re4 C8'
_cell_volume   347.80076894
_cell_formula_units_Z   4
loop_
 _symmetry_equiv_pos_site_id
 _symmetry_equiv_pos_as_xyz
  1  'x, y, z'
loop_
 _atom_site_type_symbol
 _atom_site_label
 _atom_site_symmetry_multiplicity
 _atom_site_fract_x
 _atom_site_fract_y
 _atom_site_fract_z
 _atom_site_occupancy
  Yb  Yb0  1  0.75000000  0.80626819  0.95603303  1
  Yb  Yb1  1  0.25000000  0.19373181  0.04396697  1
  Yb  Yb2  1  0.25000000  0.69373181  0.45603303  1
  Yb  Yb3  1  0.75000000  0.30626819  0.54396697  1
  Yb  Yb4  1  0.75000000  0.96956184  0.27662572  1
  Yb  Yb5  1  0.25000000  0.03043816  0.72337428  1
  Yb  Yb6  1  0.25000000  0.53043816  0.77662572  1
  Yb  Yb7  1  0.75000000  0.46956184  0.22337428  1
  Re  Re8  1  0.75000000  0.75549226  0.64894586  1
  Re  Re9  1  0.25000000  0.24450774  0.35105414  1
  Re  Re10  1  0.25000000  0.74450774  0.14894586  1
  Re  Re11  1  0.75000000  0.25549226  0.85105414  1
  C  C12  1  0.75000000  0.02279606  0.73390904  1
  C  C13  1  0.25000000  0.97720394  0.26609096  1
  C  C14  1  0.25000000  0.47720394  0.23390904  1
  C  C15  1  0.75000000  0.52279606  0.76609096  1
  C  C16  1  0.75000000  0.69709915  0.46792050  1
  C  C17  1  0.25000000  0.30290085  0.53207950  1
  C  C18  1  0.25000000  0.80290085  0.96792050  1
  C  C19  1  0.75000000  0.19709915  0.03207950  1
