# generated using pymatgen
data_Yb3Ni19B10
_symmetry_space_group_name_H-M   'P 1'
_cell_length_a   5.71273359
_cell_length_b   7.85192561
_cell_length_c   7.85192561
_cell_angle_alpha   67.42707690
_cell_angle_beta   88.67659715
_cell_angle_gamma   88.67659715
_symmetry_Int_Tables_number   1
_chemical_formula_structural   Yb3Ni19B10
_chemical_formula_sum   'Yb3 Ni19 B10'
_cell_volume   325.09840415
_cell_formula_units_Z   1
loop_
 _symmetry_equiv_pos_site_id
 _symmetry_equiv_pos_as_xyz
  1  'x, y, z'
loop_
 _atom_site_type_symbol
 _atom_site_label
 _atom_site_symmetry_multiplicity
 _atom_site_fract_x
 _atom_site_fract_y
 _atom_site_fract_z
 _atom_site_occupancy
  Yb  Yb0  1  0.60892873  0.62472504  0.62472504  1
  Yb  Yb1  1  0.39107127  0.37527496  0.37527496  1
  Yb  Yb2  1  0.00000000  0.00000000  -0.00000000  1
  Ni  Ni3  1  0.12402625  0.62212522  0.62212522  1
  Ni  Ni4  1  0.87597375  0.37787478  0.37787478  1
  Ni  Ni5  1  0.70487584  0.83564900  0.83564900  1
  Ni  Ni6  1  0.29512416  0.16435100  0.16435100  1
  Ni  Ni7  1  0.26906050  0.81894281  0.81894281  1
  Ni  Ni8  1  0.73093950  0.18105719  0.18105719  1
  Ni  Ni9  1  0.50000000  0.00000000  -0.00000000  1
  Ni  Ni10  1  0.07663005  0.12320094  0.62181023  1
  Ni  Ni11  1  0.92336995  0.87679906  0.37818977  1
  Ni  Ni12  1  0.92336995  0.37818977  0.87679906  1
  Ni  Ni13  1  0.07663005  0.62181023  0.12320094  1
  Ni  Ni14  1  0.29999846  0.77289302  0.28648084  1
  Ni  Ni15  1  0.70000154  0.22710698  0.71351916  1
  Ni  Ni16  1  0.70000154  0.71351916  0.22710698  1
  Ni  Ni17  1  0.29999846  0.28648084  0.77289302  1
  Ni  Ni18  1  0.30197076  0.95455355  0.48292160  1
  Ni  Ni19  1  0.69802924  0.04544645  0.51707840  1
  Ni  Ni20  1  0.69802924  0.51707840  0.04544645  1
  Ni  Ni21  1  0.30197076  0.48292160  0.95455355  1
  B  B22  1  0.43062329  0.06449469  0.70081896  1
  B  B23  1  0.56937671  0.93550531  0.29918104  1
  B  B24  1  0.56937671  0.29918104  0.93550531  1
  B  B25  1  0.43062329  0.70081896  0.06449469  1
  B  B26  1  0.02572219  0.14084435  0.35005139  1
  B  B27  1  0.97427781  0.85915565  0.64994861  1
  B  B28  1  0.97427781  0.64994861  0.85915565  1
  B  B29  1  0.02572219  0.35005139  0.14084435  1
  B  B30  1  0.00000000  0.38446158  0.61553842  1
  B  B31  1  0.00000000  0.61553842  0.38446158  1
