# generated using pymatgen
data_Zr9Re4O3
_symmetry_space_group_name_H-M   'P 1'
_cell_length_a   8.67775635
_cell_length_b   8.55737257
_cell_length_c   8.55737257
_cell_angle_alpha   119.99999469
_cell_angle_beta   90.00000000
_cell_angle_gamma   90.00000000
_symmetry_Int_Tables_number   1
_chemical_formula_structural   Zr9Re4O3
_chemical_formula_sum   'Zr18 Re8 O6'
_cell_volume   550.32467864
_cell_formula_units_Z   2
loop_
 _symmetry_equiv_pos_site_id
 _symmetry_equiv_pos_as_xyz
  1  'x, y, z'
loop_
 _atom_site_type_symbol
 _atom_site_label
 _atom_site_symmetry_multiplicity
 _atom_site_fract_x
 _atom_site_fract_y
 _atom_site_fract_z
 _atom_site_occupancy
  Zr  Zr0  1  0.75000000  0.54702792  0.45297208  1
  Zr  Zr1  1  0.25000000  0.45297208  0.54702792  1
  Zr  Zr2  1  0.75000000  0.90594416  0.45297208  1
  Zr  Zr3  1  0.25000000  0.09405584  0.54702792  1
  Zr  Zr4  1  0.75000000  0.54702792  0.09405584  1
  Zr  Zr5  1  0.25000000  0.45297208  0.90594416  1
  Zr  Zr6  1  0.43840147  0.79798134  0.20201866  1
  Zr  Zr7  1  0.56159853  0.20201866  0.79798134  1
  Zr  Zr8  1  0.43840147  0.40403733  0.20201866  1
  Zr  Zr9  1  0.93840147  0.20201866  0.79798134  1
  Zr  Zr10  1  0.56159853  0.59596267  0.79798134  1
  Zr  Zr11  1  0.06159853  0.79798134  0.20201866  1
  Zr  Zr12  1  0.43840147  0.79798134  0.59596267  1
  Zr  Zr13  1  0.93840147  0.59596267  0.79798134  1
  Zr  Zr14  1  0.56159853  0.20201866  0.40403733  1
  Zr  Zr15  1  0.06159853  0.40403733  0.20201866  1
  Zr  Zr16  1  0.93840147  0.20201866  0.40403733  1
  Zr  Zr17  1  0.06159853  0.79798134  0.59596267  1
  Re  Re18  1  0.75000000  0.89229846  0.10770154  1
  Re  Re19  1  0.25000000  0.10770154  0.89229846  1
  Re  Re20  1  0.75000000  0.21540308  0.10770154  1
  Re  Re21  1  0.25000000  0.78459692  0.89229846  1
  Re  Re22  1  0.75000000  0.89229846  0.78459692  1
  Re  Re23  1  0.25000000  0.10770154  0.21540308  1
  Re  Re24  1  0.00000000  0.00000000  -0.00000000  1
  Re  Re25  1  0.50000000  0.00000000  -0.00000000  1
  O  O26  1  -0.00000000  0.50000000  0.50000000  1
  O  O27  1  0.00000000  0.00000000  0.50000000  1
  O  O28  1  0.50000000  0.50000000  0.50000000  1
  O  O29  1  0.00000000  0.50000000  -0.00000000  1
  O  O30  1  0.50000000  0.00000000  0.50000000  1
  O  O31  1  0.50000000  0.50000000  -0.00000000  1
