# generated using pymatgen
data_CuH9C4(NO2)3
_symmetry_space_group_name_H-M   'P 1'
_cell_length_a   8.97321793
_cell_length_b   9.24935164
_cell_length_c   11.47831332
_cell_angle_alpha   90.00000000
_cell_angle_beta   90.00000000
_cell_angle_gamma   90.00000000
_symmetry_Int_Tables_number   1
_chemical_formula_structural   CuH9C4(NO2)3
_chemical_formula_sum   'Cu4 H36 C16 N12 O24'
_cell_volume   952.65923433
_cell_formula_units_Z   4
loop_
 _symmetry_equiv_pos_site_id
 _symmetry_equiv_pos_as_xyz
  1  'x, y, z'
loop_
 _atom_site_type_symbol
 _atom_site_label
 _atom_site_symmetry_multiplicity
 _atom_site_fract_x
 _atom_site_fract_y
 _atom_site_fract_z
 _atom_site_occupancy
  Cu  Cu0  1  0.49753702  0.50136103  0.49848500  1
  Cu  Cu1  1  0.50246298  0.49863897  0.99848500  1
  Cu  Cu2  1  0.00246298  0.00136103  0.99848500  1
  Cu  Cu3  1  0.99753702  0.99863897  0.49848500  1
  H  H4  1  0.19083971  0.66484471  0.46261518  1
  H  H5  1  0.80916029  0.33515529  0.96261518  1
  H  H6  1  0.30916029  0.16484471  0.96261518  1
  H  H7  1  0.69083971  0.83515529  0.46261518  1
  H  H8  1  0.50876242  0.57713048  0.74768885  1
  H  H9  1  0.49123758  0.42286952  0.24768885  1
  H  H10  1  0.99123758  0.07713048  0.24768885  1
  H  H11  1  0.00876242  0.92286952  0.74768885  1
  H  H12  1  0.63195999  0.19355051  0.51942304  1
  H  H13  1  0.36804001  0.80644949  0.01942304  1
  H  H14  1  0.86804001  0.69355051  0.01942304  1
  H  H15  1  0.13195999  0.30644949  0.51942304  1
  H  H16  1  0.58363035  0.80232249  0.80174222  1
  H  H17  1  0.41636965  0.19767751  0.30174222  1
  H  H18  1  0.91636965  0.30232249  0.30174222  1
  H  H19  1  0.08363035  0.69767751  0.80174222  1
  H  H20  1  0.45202760  0.79833199  0.68604905  1
  H  H21  1  0.54797240  0.20166801  0.18604905  1
  H  H22  1  0.04797240  0.29833199  0.18604905  1
  H  H23  1  0.95202760  0.70166801  0.68604905  1
  H  H24  1  0.67280480  0.02288848  0.86735844  1
  H  H25  1  0.32719520  0.97711152  0.36735844  1
  H  H26  1  0.82719520  0.52288848  0.36735844  1
  H  H27  1  0.17280480  0.47711152  0.86735844  1
  H  H28  1  0.58130926  0.18441273  0.82467270  1
  H  H29  1  0.41869074  0.81558727  0.32467270  1
  H  H30  1  0.91869074  0.68441273  0.32467270  1
  H  H31  1  0.08130926  0.31558727  0.82467270  1
  H  H32  1  0.33984867  0.00840649  0.62614612  1
  H  H33  1  0.66015133  0.99159351  0.12614612  1
  H  H34  1  0.16015133  0.50840649  0.12614612  1
  H  H35  1  0.83984867  0.49159351  0.62614612  1
  H  H36  1  0.41228709  0.17848291  0.67211061  1
  H  H37  1  0.58771291  0.82151709  0.17211061  1
  H  H38  1  0.08771291  0.67848291  0.17211061  1
  H  H39  1  0.91228709  0.32151709  0.67211061  1
  C  C40  1  0.26064475  0.72039763  0.52879077  1
  C  C41  1  0.73935525  0.27960237  0.02879077  1
  C  C42  1  0.23935525  0.22039763  0.02879077  1
  C  C43  1  0.76064475  0.77960237  0.52879077  1
  C  C44  1  0.50650396  0.45846088  0.74757523  1
  C  C45  1  0.49349604  0.54153912  0.24757523  1
  C  C46  1  0.99349604  0.95846088  0.24757523  1
  C  C47  1  0.00650396  0.04153912  0.74757523  1
  C  C48  1  0.70433753  0.25706283  0.46022757  1
  C  C49  1  0.29566247  0.74293717  0.96022757  1
  C  C50  1  0.79566247  0.75706283  0.96022757  1
  C  C51  1  0.20433753  0.24293717  0.46022757  1
  C  C52  1  0.50668719  0.99968913  0.74631711  1
  C  C53  1  0.49331281  0.00031087  0.24631711  1
  C  C54  1  0.99331281  0.49968913  0.24631711  1
  C  C55  1  0.00668719  0.50031087  0.74631711  1
  N  N56  1  0.51546732  0.85568620  0.74372485  1
  N  N57  1  0.48453268  0.14431380  0.24372485  1
  N  N58  1  0.98453268  0.35568620  0.24372485  1
  N  N59  1  0.01546732  0.64431380  0.74372485  1
  N  N60  1  0.59516238  0.07511493  0.81784698  1
  N  N61  1  0.40483762  0.92488507  0.31784698  1
  N  N62  1  0.90483762  0.57511493  0.31784698  1
  N  N63  1  0.09516238  0.42488507  0.81784698  1
  N  N64  1  0.40942710  0.06849608  0.67727271  1
  N  N65  1  0.59057290  0.93150392  0.17727271  1
  N  N66  1  0.09057290  0.56849608  0.17727271  1
  N  N67  1  0.90942710  0.43150392  0.67727271  1
  O  O68  1  0.37685064  0.65346982  0.56708134  1
  O  O69  1  0.62314936  0.34653018  0.06708134  1
  O  O70  1  0.12314936  0.15346982  0.06708134  1
  O  O71  1  0.87685064  0.84653018  0.56708134  1
  O  O72  1  0.22446999  0.84354368  0.56381755  1
  O  O73  1  0.77553001  0.15645632  0.06381755  1
  O  O74  1  0.27553001  0.34354368  0.06381755  1
  O  O75  1  0.72446999  0.65645632  0.56381755  1
  O  O76  1  0.49857345  0.39112322  0.65110907  1
  O  O77  1  0.50142655  0.60887678  0.15110907  1
  O  O78  1  0.00142655  0.89112322  0.15110907  1
  O  O79  1  0.99857345  0.10887678  0.65110907  1
  O  O80  1  0.51189172  0.39075985  0.84403059  1
  O  O81  1  0.48810828  0.60924015  0.34403059  1
  O  O82  1  0.98810828  0.89075985  0.34403059  1
  O  O83  1  0.01189172  0.10924015  0.84403059  1
  O  O84  1  0.66482126  0.38813340  0.43700018  1
  O  O85  1  0.33517874  0.61186660  0.93700018  1
  O  O86  1  0.83517874  0.88813340  0.93700018  1
  O  O87  1  0.16482126  0.11186660  0.43700018  1
  O  O88  1  0.82024318  0.20067786  0.41951485  1
  O  O89  1  0.17975682  0.79932214  0.91951485  1
  O  O90  1  0.67975682  0.70067786  0.91951485  1
  O  O91  1  0.32024318  0.29932214  0.41951485  1
