# generated using pymatgen
data_Tm5Ni2Sb
_symmetry_space_group_name_H-M   'P 1'
_cell_length_a   7.44091962
_cell_length_b   7.44091962
_cell_length_c   8.52763924
_cell_angle_alpha   115.86692977
_cell_angle_beta   115.86692977
_cell_angle_gamma   90.00000000
_symmetry_Int_Tables_number   1
_chemical_formula_structural   Tm5Ni2Sb
_chemical_formula_sum   'Tm10 Ni4 Sb2'
_cell_volume   371.56765237
_cell_formula_units_Z   2
loop_
 _symmetry_equiv_pos_site_id
 _symmetry_equiv_pos_as_xyz
  1  'x, y, z'
loop_
 _atom_site_type_symbol
 _atom_site_label
 _atom_site_symmetry_multiplicity
 _atom_site_fract_x
 _atom_site_fract_y
 _atom_site_fract_z
 _atom_site_occupancy
  Tm  Tm0  1  -0.00000000  0.00000000  0.00000000  1
  Tm  Tm1  1  0.50000000  0.50000000  -0.00000000  1
  Tm  Tm2  1  0.29456023  0.79456023  0.27283604  1
  Tm  Tm3  1  0.70543977  0.20543977  0.72716396  1
  Tm  Tm4  1  0.97827581  0.47827581  0.27283604  1
  Tm  Tm5  1  0.47827581  0.29456023  0.27283604  1
  Tm  Tm6  1  0.20543977  0.02172419  0.72716396  1
  Tm  Tm7  1  0.02172419  0.52172419  0.72716396  1
  Tm  Tm8  1  0.52172419  0.70543977  0.72716396  1
  Tm  Tm9  1  0.79456023  0.97827581  0.27283604  1
  Ni  Ni10  1  0.63099410  0.13099410  -0.00000000  1
  Ni  Ni11  1  0.36900590  0.86900590  0.00000000  1
  Ni  Ni12  1  0.86900590  0.63099410  -0.00000000  1
  Ni  Ni13  1  0.13099410  0.36900590  0.00000000  1
  Sb  Sb14  1  0.25000000  0.25000000  0.50000000  1
  Sb  Sb15  1  0.75000000  0.75000000  0.50000000  1
