# generated using pymatgen
data_Y12InNi6
_symmetry_space_group_name_H-M   'P 1'
_cell_length_a   8.45025746
_cell_length_b   8.45025746
_cell_length_c   8.45025746
_cell_angle_alpha   109.47122063
_cell_angle_beta   109.47122063
_cell_angle_gamma   109.47122063
_symmetry_Int_Tables_number   1
_chemical_formula_structural   Y12InNi6
_chemical_formula_sum   'Y12 In1 Ni6'
_cell_volume   464.50236847
_cell_formula_units_Z   1
loop_
 _symmetry_equiv_pos_site_id
 _symmetry_equiv_pos_as_xyz
  1  'x, y, z'
loop_
 _atom_site_type_symbol
 _atom_site_label
 _atom_site_symmetry_multiplicity
 _atom_site_fract_x
 _atom_site_fract_y
 _atom_site_fract_z
 _atom_site_occupancy
  Y  Y0  1  0.81245284  0.69655137  0.50900420  1
  Y  Y1  1  0.18754716  0.30344863  0.49099580  1
  Y  Y2  1  0.18754716  0.69655137  0.88409853  1
  Y  Y3  1  0.81245284  0.30344863  0.11590147  1
  Y  Y4  1  0.69655137  0.50900420  0.81245284  1
  Y  Y5  1  0.30344863  0.49099580  0.18754716  1
  Y  Y6  1  0.69655137  0.88409853  0.18754716  1
  Y  Y7  1  0.30344863  0.11590147  0.81245284  1
  Y  Y8  1  0.50900420  0.81245284  0.69655137  1
  Y  Y9  1  0.49099580  0.18754716  0.30344863  1
  Y  Y10  1  0.11590147  0.81245284  0.30344863  1
  Y  Y11  1  0.88409853  0.18754716  0.69655137  1
  In  In12  1  -0.00000000  -0.00000000  -0.00000000  1
  Ni  Ni13  1  0.87791111  0.37791111  0.50000000  1
  Ni  Ni14  1  0.12208889  0.62208889  0.50000000  1
  Ni  Ni15  1  0.37791111  0.50000000  0.87791111  1
  Ni  Ni16  1  0.62208889  0.50000000  0.12208889  1
  Ni  Ni17  1  0.50000000  0.87791111  0.37791111  1
  Ni  Ni18  1  0.50000000  0.12208889  0.62208889  1
