# generated using pymatgen
data_Y6Ti4Al43
_symmetry_space_group_name_H-M   'P 1'
_cell_length_a   11.10800660
_cell_length_b   11.10800660
_cell_length_c   17.81060010
_cell_angle_alpha   90.00000000
_cell_angle_beta   90.00000000
_cell_angle_gamma   120.00000249
_symmetry_Int_Tables_number   1
_chemical_formula_structural   Y6Ti4Al43
_chemical_formula_sum   'Y12 Ti8 Al86'
_cell_volume   1903.18686388
_cell_formula_units_Z   2
loop_
 _symmetry_equiv_pos_site_id
 _symmetry_equiv_pos_as_xyz
  1  'x, y, z'
loop_
 _atom_site_type_symbol
 _atom_site_label
 _atom_site_symmetry_multiplicity
 _atom_site_fract_x
 _atom_site_fract_y
 _atom_site_fract_z
 _atom_site_occupancy
  Y  Y0  1  0.46936775  0.46936775  0.90345196  1
  Y  Y1  1  0.53063225  0.53063225  0.09654804  1
  Y  Y2  1  1.00000000  0.53063225  0.90345196  1
  Y  Y3  1  0.53063225  0.53063225  0.40345196  1
  Y  Y4  1  1.00000000  0.53063225  0.59654804  1
  Y  Y5  1  0.00000000  0.46936775  0.09654804  1
  Y  Y6  1  0.46936775  0.46936775  0.59654804  1
  Y  Y7  1  0.00000000  0.46936775  0.40345196  1
  Y  Y8  1  0.53063225  1.00000000  0.90345196  1
  Y  Y9  1  0.46936775  0.00000000  0.09654804  1
  Y  Y10  1  0.46936775  0.00000000  0.40345196  1
  Y  Y11  1  0.53063225  1.00000000  0.59654804  1
  Ti  Ti12  1  0.00000000  0.00000000  -0.00000000  1
  Ti  Ti13  1  0.00000000  0.00000000  0.50000000  1
  Ti  Ti14  1  0.27195752  0.27195752  0.75000000  1
  Ti  Ti15  1  0.72804248  0.72804248  0.25000000  1
  Ti  Ti16  1  1.00000000  0.72804248  0.75000000  1
  Ti  Ti17  1  0.00000000  0.27195752  0.25000000  1
  Ti  Ti18  1  0.72804248  1.00000000  0.75000000  1
  Ti  Ti19  1  0.27195752  0.00000000  0.25000000  1
  Al  Al20  1  0.85004711  0.44748756  0.75000000  1
  Al  Al21  1  0.14995289  0.55251244  0.25000000  1
  Al  Al22  1  0.59744045  0.14995289  0.75000000  1
  Al  Al23  1  0.40255955  0.55251244  0.75000000  1
  Al  Al24  1  0.40255955  0.85004711  0.25000000  1
  Al  Al25  1  0.59744045  0.44748756  0.25000000  1
  Al  Al26  1  0.55251244  0.40255955  0.75000000  1
  Al  Al27  1  0.44748756  0.85004711  0.75000000  1
  Al  Al28  1  0.44748756  0.59744045  0.25000000  1
  Al  Al29  1  0.55251244  0.14995289  0.25000000  1
  Al  Al30  1  0.14995289  0.59744045  0.75000000  1
  Al  Al31  1  0.85004711  0.40255955  0.25000000  1
  Al  Al32  1  0.84282401  0.84282401  0.38410026  1
  Al  Al33  1  0.15717599  0.15717599  0.61589974  1
  Al  Al34  1  1.00000000  0.15717599  0.38410026  1
  Al  Al35  1  0.15717599  0.15717599  0.88410026  1
  Al  Al36  1  1.00000000  0.15717599  0.11589974  1
  Al  Al37  1  0.00000000  0.84282401  0.61589974  1
  Al  Al38  1  0.84282401  0.84282401  0.11589974  1
  Al  Al39  1  0.00000000  0.84282401  0.88410026  1
  Al  Al40  1  0.15717599  1.00000000  0.38410026  1
  Al  Al41  1  0.84282401  0.00000000  0.61589974  1
  Al  Al42  1  0.84282401  0.00000000  0.88410026  1
  Al  Al43  1  0.15717599  1.00000000  0.11589974  1
  Al  Al44  1  0.75262469  0.24737531  -0.00000000  1
  Al  Al45  1  0.24737531  0.75262469  -0.00000000  1
  Al  Al46  1  0.49475062  0.24737531  -0.00000000  1
  Al  Al47  1  0.24737531  0.75262469  0.50000000  1
  Al  Al48  1  0.50524938  0.75262469  0.50000000  1
  Al  Al49  1  0.50524938  0.75262469  -0.00000000  1
  Al  Al50  1  0.75262469  0.24737531  0.50000000  1
  Al  Al51  1  0.49475062  0.24737531  0.50000000  1
  Al  Al52  1  0.75262469  0.50524938  -0.00000000  1
  Al  Al53  1  0.24737531  0.49475062  -0.00000000  1
  Al  Al54  1  0.24737531  0.49475062  0.50000000  1
  Al  Al55  1  0.75262469  0.50524938  0.50000000  1
  Al  Al56  1  0.85356886  0.85356886  0.75000000  1
  Al  Al57  1  0.14643114  0.14643114  0.25000000  1
  Al  Al58  1  1.00000000  0.14643114  0.75000000  1
  Al  Al59  1  0.00000000  0.85356886  0.25000000  1
  Al  Al60  1  0.14643114  1.00000000  0.75000000  1
  Al  Al61  1  0.85356886  0.00000000  0.25000000  1
  Al  Al62  1  0.66666700  0.33333300  0.87378871  1
  Al  Al63  1  0.33333300  0.66666700  0.12621129  1
  Al  Al64  1  0.33333300  0.66666700  0.37378871  1
  Al  Al65  1  0.33333300  0.66666700  0.62621129  1
  Al  Al66  1  0.66666700  0.33333300  0.62621129  1
  Al  Al67  1  0.66666700  0.33333300  0.37378871  1
  Al  Al68  1  0.66666700  0.33333300  0.12621129  1
  Al  Al69  1  0.33333300  0.66666700  0.87378871  1
  Al  Al70  1  0.74616203  0.74616203  0.97076500  1
  Al  Al71  1  0.25383797  0.25383797  0.02923500  1
  Al  Al72  1  1.00000000  0.25383797  0.97076500  1
  Al  Al73  1  0.25383797  0.25383797  0.47076500  1
  Al  Al74  1  1.00000000  0.25383797  0.52923500  1
  Al  Al75  1  0.00000000  0.74616203  0.02923500  1
  Al  Al76  1  0.74616203  0.74616203  0.52923500  1
  Al  Al77  1  0.00000000  0.74616203  0.47076500  1
  Al  Al78  1  0.25383797  1.00000000  0.97076500  1
  Al  Al79  1  0.74616203  0.00000000  0.02923500  1
  Al  Al80  1  0.74616203  0.00000000  0.47076500  1
  Al  Al81  1  0.25383797  1.00000000  0.52923500  1
  Al  Al82  1  0.84184566  0.23500196  0.83515555  1
  Al  Al83  1  0.15815434  0.76499804  0.16484445  1
  Al  Al84  1  0.39315630  0.15815434  0.83515555  1
  Al  Al85  1  0.15815434  0.76499804  0.33515555  1
  Al  Al86  1  0.60684370  0.76499804  0.66484445  1
  Al  Al87  1  0.60684370  0.84184566  0.16484445  1
  Al  Al88  1  0.84184566  0.23500196  0.66484445  1
  Al  Al89  1  0.39315630  0.23500196  0.33515555  1
  Al  Al90  1  0.76499804  0.60684370  0.83515555  1
  Al  Al91  1  0.60684370  0.84184566  0.33515555  1
  Al  Al92  1  0.23500196  0.84184566  0.66484445  1
  Al  Al93  1  0.23500196  0.39315630  0.16484445  1
  Al  Al94  1  0.39315630  0.15815434  0.66484445  1
  Al  Al95  1  0.76499804  0.15815434  0.33515555  1
  Al  Al96  1  0.39315630  0.23500196  0.16484445  1
  Al  Al97  1  0.60684370  0.76499804  0.83515555  1
  Al  Al98  1  0.23500196  0.39315630  0.33515555  1
  Al  Al99  1  0.76499804  0.15815434  0.16484445  1
  Al  Al100  1  0.76499804  0.60684370  0.66484445  1
  Al  Al101  1  0.23500196  0.84184566  0.83515555  1
  Al  Al102  1  0.15815434  0.39315630  0.66484445  1
  Al  Al103  1  0.84184566  0.60684370  0.33515555  1
  Al  Al104  1  0.84184566  0.60684370  0.16484445  1
  Al  Al105  1  0.15815434  0.39315630  0.83515555  1
