# generated using pymatgen
data_Tm3(SbPd2)4
_symmetry_space_group_name_H-M   'P 1'
_cell_length_a   9.33992152
_cell_length_b   9.33992152
_cell_length_c   9.33992152
_cell_angle_alpha   60.00000000
_cell_angle_beta   60.00000000
_cell_angle_gamma   60.00000000
_symmetry_Int_Tables_number   1
_chemical_formula_structural   Tm3(SbPd2)4
_chemical_formula_sum   'Tm6 Sb8 Pd16'
_cell_volume   576.12229592
_cell_formula_units_Z   2
loop_
 _symmetry_equiv_pos_site_id
 _symmetry_equiv_pos_as_xyz
  1  'x, y, z'
loop_
 _atom_site_type_symbol
 _atom_site_label
 _atom_site_symmetry_multiplicity
 _atom_site_fract_x
 _atom_site_fract_y
 _atom_site_fract_z
 _atom_site_occupancy
  Tm  Tm0  1  0.72454595  0.72454595  0.27545405  1
  Tm  Tm1  1  0.27545405  0.27545405  0.72454595  1
  Tm  Tm2  1  0.72454595  0.27545405  0.72454595  1
  Tm  Tm3  1  0.27545405  0.72454595  0.27545405  1
  Tm  Tm4  1  0.27545405  0.72454595  0.72454595  1
  Tm  Tm5  1  0.72454595  0.27545405  0.27545405  1
  Sb  Sb6  1  0.00000000  -0.00000000  -0.00000000  1
  Sb  Sb7  1  0.00000000  -0.00000000  0.50000000  1
  Sb  Sb8  1  0.50000000  0.50000000  -0.00000000  1
  Sb  Sb9  1  0.00000000  0.50000000  -0.00000000  1
  Sb  Sb10  1  0.50000000  -0.00000000  0.50000000  1
  Sb  Sb11  1  0.50000000  -0.00000000  -0.00000000  1
  Sb  Sb12  1  0.00000000  0.50000000  0.50000000  1
  Sb  Sb13  1  0.50000000  0.50000000  0.50000000  1
  Pd  Pd14  1  0.88142934  0.88142934  0.88142934  1
  Pd  Pd15  1  0.11857066  0.11857066  0.11857066  1
  Pd  Pd16  1  0.35571197  0.88142934  0.88142934  1
  Pd  Pd17  1  0.88142934  0.35571197  0.88142934  1
  Pd  Pd18  1  0.64428803  0.11857066  0.11857066  1
  Pd  Pd19  1  0.11857066  0.64428803  0.11857066  1
  Pd  Pd20  1  0.88142934  0.88142934  0.35571197  1
  Pd  Pd21  1  0.11857066  0.11857066  0.64428803  1
  Pd  Pd22  1  0.66631919  0.66631919  0.66631919  1
  Pd  Pd23  1  0.33368081  0.33368081  0.33368081  1
  Pd  Pd24  1  0.00104242  0.66631919  0.66631919  1
  Pd  Pd25  1  0.66631919  0.00104242  0.66631919  1
  Pd  Pd26  1  0.99895758  0.33368081  0.33368081  1
  Pd  Pd27  1  0.33368081  0.99895758  0.33368081  1
  Pd  Pd28  1  0.66631919  0.66631919  0.00104242  1
  Pd  Pd29  1  0.33368081  0.33368081  0.99895758  1
