# generated using pymatgen
data_Yb6Al43V4
_symmetry_space_group_name_H-M   'P 1'
_cell_length_a   11.00813354
_cell_length_b   11.00813354
_cell_length_c   17.73695189
_cell_angle_alpha   90.00000000
_cell_angle_beta   90.00000000
_cell_angle_gamma   119.99999891
_symmetry_Int_Tables_number   1
_chemical_formula_structural   Yb6Al43V4
_chemical_formula_sum   'Yb12 Al86 V8'
_cell_volume   1861.38840002
_cell_formula_units_Z   2
loop_
 _symmetry_equiv_pos_site_id
 _symmetry_equiv_pos_as_xyz
  1  'x, y, z'
loop_
 _atom_site_type_symbol
 _atom_site_label
 _atom_site_symmetry_multiplicity
 _atom_site_fract_x
 _atom_site_fract_y
 _atom_site_fract_z
 _atom_site_occupancy
  Yb  Yb0  1  0.46902689  0.46902689  0.90573782  1
  Yb  Yb1  1  0.53097311  0.53097311  0.09426218  1
  Yb  Yb2  1  -0.00000000  0.53097311  0.90573782  1
  Yb  Yb3  1  0.53097311  0.53097311  0.40573782  1
  Yb  Yb4  1  -0.00000000  0.53097311  0.59426218  1
  Yb  Yb5  1  0.00000000  0.46902689  0.09426218  1
  Yb  Yb6  1  0.46902689  0.46902689  0.59426218  1
  Yb  Yb7  1  0.00000000  0.46902689  0.40573782  1
  Yb  Yb8  1  0.53097311  -0.00000000  0.90573782  1
  Yb  Yb9  1  0.46902689  0.00000000  0.09426218  1
  Yb  Yb10  1  0.46902689  0.00000000  0.40573782  1
  Yb  Yb11  1  0.53097311  -0.00000000  0.59426218  1
  Al  Al12  1  0.84337689  0.84337689  0.38483790  1
  Al  Al13  1  0.15662311  0.15662311  0.61516210  1
  Al  Al14  1  1.00000000  0.15662311  0.38483790  1
  Al  Al15  1  0.15662311  0.15662311  0.88483790  1
  Al  Al16  1  1.00000000  0.15662311  0.11516210  1
  Al  Al17  1  0.00000000  0.84337689  0.61516210  1
  Al  Al18  1  0.84337689  0.84337689  0.11516210  1
  Al  Al19  1  0.00000000  0.84337689  0.88483790  1
  Al  Al20  1  0.15662311  1.00000000  0.38483790  1
  Al  Al21  1  0.84337689  0.00000000  0.61516210  1
  Al  Al22  1  0.84337689  0.00000000  0.88483790  1
  Al  Al23  1  0.15662311  1.00000000  0.11516210  1
  Al  Al24  1  0.84205011  0.23371141  0.83455137  1
  Al  Al25  1  0.15794989  0.76628859  0.16544863  1
  Al  Al26  1  0.39166130  0.15794989  0.83455137  1
  Al  Al27  1  0.15794989  0.76628859  0.33455137  1
  Al  Al28  1  0.60833870  0.76628859  0.66544863  1
  Al  Al29  1  0.60833870  0.84205011  0.16544863  1
  Al  Al30  1  0.84205011  0.23371141  0.66544863  1
  Al  Al31  1  0.39166130  0.23371141  0.33455137  1
  Al  Al32  1  0.76628859  0.60833870  0.83455137  1
  Al  Al33  1  0.60833870  0.84205011  0.33455137  1
  Al  Al34  1  0.23371141  0.84205011  0.66544863  1
  Al  Al35  1  0.23371141  0.39166130  0.16544863  1
  Al  Al36  1  0.39166130  0.15794989  0.66544863  1
  Al  Al37  1  0.76628859  0.15794989  0.33455137  1
  Al  Al38  1  0.39166130  0.23371141  0.16544863  1
  Al  Al39  1  0.60833870  0.76628859  0.83455137  1
  Al  Al40  1  0.23371141  0.39166130  0.33455137  1
  Al  Al41  1  0.76628859  0.15794989  0.16544863  1
  Al  Al42  1  0.76628859  0.60833870  0.66544863  1
  Al  Al43  1  0.23371141  0.84205011  0.83455137  1
  Al  Al44  1  0.15794989  0.39166130  0.66544863  1
  Al  Al45  1  0.84205011  0.60833870  0.33455137  1
  Al  Al46  1  0.84205011  0.60833870  0.16544863  1
  Al  Al47  1  0.15794989  0.39166130  0.83455137  1
  Al  Al48  1  0.75310650  0.24689350  0.00000000  1
  Al  Al49  1  0.24689350  0.75310650  -0.00000000  1
  Al  Al50  1  0.49378700  0.24689350  0.00000000  1
  Al  Al51  1  0.24689350  0.75310650  0.50000000  1
  Al  Al52  1  0.50621300  0.75310650  0.50000000  1
  Al  Al53  1  0.50621300  0.75310650  -0.00000000  1
  Al  Al54  1  0.75310650  0.24689350  0.50000000  1
  Al  Al55  1  0.49378700  0.24689350  0.50000000  1
  Al  Al56  1  0.75310650  0.50621300  -0.00000000  1
  Al  Al57  1  0.24689350  0.49378700  0.00000000  1
  Al  Al58  1  0.24689350  0.49378700  0.50000000  1
  Al  Al59  1  0.75310650  0.50621300  0.50000000  1
  Al  Al60  1  0.66666700  0.33333300  0.87328970  1
  Al  Al61  1  0.33333300  0.66666700  0.12671030  1
  Al  Al62  1  0.33333300  0.66666700  0.37328970  1
  Al  Al63  1  0.33333300  0.66666700  0.62671030  1
  Al  Al64  1  0.66666700  0.33333300  0.62671030  1
  Al  Al65  1  0.66666700  0.33333300  0.37328970  1
  Al  Al66  1  0.66666700  0.33333300  0.12671030  1
  Al  Al67  1  0.33333300  0.66666700  0.87328970  1
  Al  Al68  1  0.85382344  0.85382344  0.75000000  1
  Al  Al69  1  0.14617656  0.14617656  0.25000000  1
  Al  Al70  1  0.00000000  0.14617656  0.75000000  1
  Al  Al71  1  -0.00000000  0.85382344  0.25000000  1
  Al  Al72  1  0.14617656  0.00000000  0.75000000  1
  Al  Al73  1  0.85382344  -0.00000000  0.25000000  1
  Al  Al74  1  0.85449778  0.45351994  0.75000000  1
  Al  Al75  1  0.14550222  0.54648006  0.25000000  1
  Al  Al76  1  0.59902215  0.14550222  0.75000000  1
  Al  Al77  1  0.40097785  0.54648006  0.75000000  1
  Al  Al78  1  0.40097785  0.85449778  0.25000000  1
  Al  Al79  1  0.59902215  0.45351994  0.25000000  1
  Al  Al80  1  0.54648006  0.40097785  0.75000000  1
  Al  Al81  1  0.45351994  0.85449778  0.75000000  1
  Al  Al82  1  0.45351994  0.59902215  0.25000000  1
  Al  Al83  1  0.54648006  0.14550222  0.25000000  1
  Al  Al84  1  0.14550222  0.59902215  0.75000000  1
  Al  Al85  1  0.85449778  0.40097785  0.25000000  1
  Al  Al86  1  0.74941672  0.74941672  0.96882397  1
  Al  Al87  1  0.25058328  0.25058328  0.03117603  1
  Al  Al88  1  1.00000000  0.25058328  0.96882397  1
  Al  Al89  1  0.25058328  0.25058328  0.46882397  1
  Al  Al90  1  1.00000000  0.25058328  0.53117603  1
  Al  Al91  1  0.00000000  0.74941672  0.03117603  1
  Al  Al92  1  0.74941672  0.74941672  0.53117603  1
  Al  Al93  1  0.00000000  0.74941672  0.46882397  1
  Al  Al94  1  0.25058328  1.00000000  0.96882397  1
  Al  Al95  1  0.74941672  0.00000000  0.03117603  1
  Al  Al96  1  0.74941672  0.00000000  0.46882397  1
  Al  Al97  1  0.25058328  1.00000000  0.53117603  1
  V  V98  1  0.26633807  0.26633807  0.75000000  1
  V  V99  1  0.73366193  0.73366193  0.25000000  1
  V  V100  1  -0.00000000  0.73366193  0.75000000  1
  V  V101  1  0.00000000  0.26633807  0.25000000  1
  V  V102  1  0.73366193  -0.00000000  0.75000000  1
  V  V103  1  0.26633807  0.00000000  0.25000000  1
  V  V104  1  -0.00000000  0.00000000  -0.00000000  1
  V  V105  1  -0.00000000  0.00000000  0.50000000  1
