# generated using pymatgen
data_UMnC2
_symmetry_space_group_name_H-M   'P 1'
_cell_length_a   3.18713540
_cell_length_b   5.41577761
_cell_length_c   10.59157894
_cell_angle_alpha   90.00000000
_cell_angle_beta   90.00000000
_cell_angle_gamma   90.00000000
_symmetry_Int_Tables_number   1
_chemical_formula_structural   UMnC2
_chemical_formula_sum   'U4 Mn4 C8'
_cell_volume   182.81930095
_cell_formula_units_Z   4
loop_
 _symmetry_equiv_pos_site_id
 _symmetry_equiv_pos_as_xyz
  1  'x, y, z'
loop_
 _atom_site_type_symbol
 _atom_site_label
 _atom_site_symmetry_multiplicity
 _atom_site_fract_x
 _atom_site_fract_y
 _atom_site_fract_z
 _atom_site_occupancy
  U  U0  1  0.75000000  0.91733565  0.64144177  1
  U  U1  1  0.25000000  0.08266435  0.35855823  1
  U  U2  1  0.25000000  0.58266435  0.14144177  1
  U  U3  1  0.75000000  0.41733565  0.85855823  1
  Mn  Mn4  1  0.75000000  0.58156211  0.40260307  1
  Mn  Mn5  1  0.25000000  0.41843789  0.59739693  1
  Mn  Mn6  1  0.25000000  0.91843789  0.90260307  1
  Mn  Mn7  1  0.75000000  0.08156211  0.09739693  1
  C  C8  1  0.75000000  0.83907210  0.25334305  1
  C  C9  1  0.25000000  0.16092790  0.74665695  1
  C  C10  1  0.25000000  0.66092790  0.75334305  1
  C  C11  1  0.75000000  0.33907210  0.24665695  1
  C  C12  1  0.75000000  0.77857301  0.98830717  1
  C  C13  1  0.25000000  0.22142699  0.01169283  1
  C  C14  1  0.25000000  0.72142699  0.48830717  1
  C  C15  1  0.75000000  0.27857301  0.51169283  1
