# generated using pymatgen
data_ZnCu3(NiO3)4
_symmetry_space_group_name_H-M   'P 1'
_cell_length_a   6.27179101
_cell_length_b   6.27210423
_cell_length_c   6.27282338
_cell_angle_alpha   109.45106270
_cell_angle_beta   109.46343807
_cell_angle_gamma   109.49770944
_symmetry_Int_Tables_number   1
_chemical_formula_structural   ZnCu3(NiO3)4
_chemical_formula_sum   'Zn1 Cu3 Ni4 O12'
_cell_volume   189.95631540
_cell_formula_units_Z   1
loop_
 _symmetry_equiv_pos_site_id
 _symmetry_equiv_pos_as_xyz
  1  'x, y, z'
loop_
 _atom_site_type_symbol
 _atom_site_label
 _atom_site_symmetry_multiplicity
 _atom_site_fract_x
 _atom_site_fract_y
 _atom_site_fract_z
 _atom_site_occupancy
  Zn  Zn0  1  0.00003669  0.00002726  0.00009163  1
  Cu  Cu1  1  0.50001631  0.50001317  0.00000573  1
  Cu  Cu2  1  0.00001317  0.49990178  0.49990973  1
  Cu  Cu3  1  0.49989329  0.00000572  0.49990261  1
  Ni  Ni4  1  0.00000056  -0.00001792  0.49999639  1
  Ni  Ni5  1  -0.00001552  0.49998902  0.00000557  1
  Ni  Ni6  1  0.50001173  0.49999177  0.50000468  1
  Ni  Ni7  1  0.50001805  0.00001394  0.00000770  1
  O  O8  1  0.83071155  0.30771563  0.13832990  1
  O  O9  1  0.16911995  0.69232660  0.86154995  1
  O  O10  1  0.83072125  0.69228416  0.52294384  1
  O  O11  1  0.30749644  0.47693010  0.16931374  1
  O  O12  1  0.47716089  0.16945466  0.30758417  1
  O  O13  1  0.13814037  0.83059682  0.30764987  1
  O  O14  1  0.69244173  0.86178771  0.16924587  1
  O  O15  1  0.52290164  0.83060262  0.69240795  1
  O  O16  1  0.16944225  0.30772424  0.47724419  1
  O  O17  1  0.69253189  0.52313524  0.83073875  1
  O  O18  1  0.86178418  0.16933030  0.69233635  1
  O  O19  1  0.30757257  0.13818718  0.83073140  1
