# generated using pymatgen
data_U3TaSb5
_symmetry_space_group_name_H-M   'P 1'
_cell_length_a   6.06516008
_cell_length_b   9.17450649
_cell_length_c   9.17450649
_cell_angle_alpha   119.99999621
_cell_angle_beta   90.00000000
_cell_angle_gamma   90.00000000
_symmetry_Int_Tables_number   1
_chemical_formula_structural   U3TaSb5
_chemical_formula_sum   'U6 Ta2 Sb10'
_cell_volume   442.11814687
_cell_formula_units_Z   2
loop_
 _symmetry_equiv_pos_site_id
 _symmetry_equiv_pos_as_xyz
  1  'x, y, z'
loop_
 _atom_site_type_symbol
 _atom_site_label
 _atom_site_symmetry_multiplicity
 _atom_site_fract_x
 _atom_site_fract_y
 _atom_site_fract_z
 _atom_site_occupancy
  U  U0  1  0.75000000  0.38337322  0.38337322  1
  U  U1  1  0.25000000  0.61662678  0.61662678  1
  U  U2  1  0.75000000  1.00000000  0.61662678  1
  U  U3  1  0.25000000  0.00000000  0.38337322  1
  U  U4  1  0.75000000  0.61662678  1.00000000  1
  U  U5  1  0.25000000  0.38337322  0.00000000  1
  Ta  Ta6  1  0.00000000  0.00000000  -0.00000000  1
  Ta  Ta7  1  0.50000000  0.00000000  -0.00000000  1
  Sb  Sb8  1  0.75000000  0.73290101  0.73290101  1
  Sb  Sb9  1  0.25000000  0.26709899  0.26709899  1
  Sb  Sb10  1  0.75000000  0.00000000  0.26709899  1
  Sb  Sb11  1  0.25000000  1.00000000  0.73290101  1
  Sb  Sb12  1  0.75000000  0.26709899  0.00000000  1
  Sb  Sb13  1  0.25000000  0.73290101  1.00000000  1
  Sb  Sb14  1  -0.00000000  0.66666700  0.33333300  1
  Sb  Sb15  1  0.00000000  0.33333300  0.66666700  1
  Sb  Sb16  1  0.50000000  0.33333300  0.66666700  1
  Sb  Sb17  1  0.50000000  0.66666700  0.33333300  1
