# generated using pymatgen
data_Tm2B6Rh
_symmetry_space_group_name_H-M   'P 1'
_cell_length_a   3.62247252
_cell_length_b   9.11686740
_cell_length_c   11.43741253
_cell_angle_alpha   90.00000000
_cell_angle_beta   90.00000000
_cell_angle_gamma   90.00000000
_symmetry_Int_Tables_number   1
_chemical_formula_structural   Tm2B6Rh
_chemical_formula_sum   'Tm8 B24 Rh4'
_cell_volume   377.72742984
_cell_formula_units_Z   4
loop_
 _symmetry_equiv_pos_site_id
 _symmetry_equiv_pos_as_xyz
  1  'x, y, z'
loop_
 _atom_site_type_symbol
 _atom_site_label
 _atom_site_symmetry_multiplicity
 _atom_site_fract_x
 _atom_site_fract_y
 _atom_site_fract_z
 _atom_site_occupancy
  Tm  Tm0  1  0.50000000  0.32205580  0.41325969  1
  Tm  Tm1  1  0.50000000  0.67794420  0.58674031  1
  Tm  Tm2  1  0.50000000  0.17794420  0.91325969  1
  Tm  Tm3  1  0.50000000  0.82205580  0.08674031  1
  Tm  Tm4  1  0.50000000  0.44484209  0.12594007  1
  Tm  Tm5  1  0.50000000  0.55515791  0.87405993  1
  Tm  Tm6  1  0.50000000  0.05515791  0.62594007  1
  Tm  Tm7  1  0.50000000  0.94484209  0.37405993  1
  B  B8  1  -0.00000000  0.10989558  0.46988942  1
  B  B9  1  -0.00000000  0.89010442  0.53011058  1
  B  B10  1  -0.00000000  0.39010442  0.96988942  1
  B  B11  1  0.00000000  0.60989558  0.03011058  1
  B  B12  1  0.00000000  0.13351208  0.31603534  1
  B  B13  1  0.00000000  0.86648792  0.68396466  1
  B  B14  1  0.00000000  0.36648792  0.81603534  1
  B  B15  1  0.00000000  0.63351208  0.18396466  1
  B  B16  1  0.00000000  0.05329758  0.06581502  1
  B  B17  1  -0.00000000  0.94670242  0.93418498  1
  B  B18  1  -0.00000000  0.44670242  0.56581502  1
  B  B19  1  0.00000000  0.55329758  0.43418498  1
  B  B20  1  0.00000000  0.48280980  0.28771777  1
  B  B21  1  -0.00000000  0.51719020  0.71228223  1
  B  B22  1  -0.00000000  0.01719020  0.78771777  1
  B  B23  1  0.00000000  0.98280980  0.21228223  1
  B  B24  1  -0.00000000  0.25062985  0.07918552  1
  B  B25  1  0.00000000  0.74937015  0.92081448  1
  B  B26  1  0.00000000  0.24937015  0.57918552  1
  B  B27  1  -0.00000000  0.75062985  0.42081448  1
  B  B28  1  0.00000000  0.29508009  0.23507288  1
  B  B29  1  0.00000000  0.70491991  0.76492712  1
  B  B30  1  0.00000000  0.20491991  0.73507288  1
  B  B31  1  0.00000000  0.79508009  0.26492712  1
  Rh  Rh32  1  0.50000000  0.13994335  0.17858365  1
  Rh  Rh33  1  0.50000000  0.86005665  0.82141635  1
  Rh  Rh34  1  0.50000000  0.36005665  0.67858365  1
  Rh  Rh35  1  0.50000000  0.63994335  0.32141635  1
