# generated using pymatgen
data_Tm12In2Fe3
_symmetry_space_group_name_H-M   'P 1'
_cell_length_a   8.26012531
_cell_length_b   8.26012531
_cell_length_c   8.26012531
_cell_angle_alpha   108.47416238
_cell_angle_beta   111.48428675
_cell_angle_gamma   108.47416238
_symmetry_Int_Tables_number   1
_chemical_formula_structural   Tm12In2Fe3
_chemical_formula_sum   'Tm12 In2 Fe3'
_cell_volume   433.44517065
_cell_formula_units_Z   1
loop_
 _symmetry_equiv_pos_site_id
 _symmetry_equiv_pos_as_xyz
  1  'x, y, z'
loop_
 _atom_site_type_symbol
 _atom_site_label
 _atom_site_symmetry_multiplicity
 _atom_site_fract_x
 _atom_site_fract_y
 _atom_site_fract_z
 _atom_site_occupancy
  Tm  Tm0  1  0.19096417  0.23600060  0.42696476  1
  Tm  Tm1  1  0.80903583  0.76399940  0.57303524  1
  Tm  Tm2  1  0.19096417  0.76399940  0.95496357  1
  Tm  Tm3  1  0.95496357  0.76399940  0.19096417  1
  Tm  Tm4  1  0.80903583  0.23600060  0.04503643  1
  Tm  Tm5  1  0.04503643  0.23600060  0.80903583  1
  Tm  Tm6  1  0.42696476  0.23600060  0.19096417  1
  Tm  Tm7  1  0.57303524  0.76399940  0.80903583  1
  Tm  Tm8  1  0.30707825  0.61415650  0.30707825  1
  Tm  Tm9  1  0.69292175  0.38584350  0.69292175  1
  Tm  Tm10  1  0.69292175  0.00000000  0.30707825  1
  Tm  Tm11  1  0.30707825  -0.00000000  0.69292175  1
  In  In12  1  0.00000000  0.50000000  0.50000000  1
  In  In13  1  0.50000000  0.50000000  -0.00000000  1
  Fe  Fe14  1  0.38457863  0.00000000  0.38457863  1
  Fe  Fe15  1  0.61542137  -0.00000000  0.61542137  1
  Fe  Fe16  1  0.00000000  -0.00000000  -0.00000000  1
