# generated using pymatgen
data_Tm4CdPt
_symmetry_space_group_name_H-M   'P 1'
_cell_length_a   9.53850483
_cell_length_b   9.53850483
_cell_length_c   9.53850483
_cell_angle_alpha   60.00000000
_cell_angle_beta   60.00000000
_cell_angle_gamma   60.00000000
_symmetry_Int_Tables_number   1
_chemical_formula_structural   Tm4CdPt
_chemical_formula_sum   'Tm16 Cd4 Pt4'
_cell_volume   613.65731352
_cell_formula_units_Z   4
loop_
 _symmetry_equiv_pos_site_id
 _symmetry_equiv_pos_as_xyz
  1  'x, y, z'
loop_
 _atom_site_type_symbol
 _atom_site_label
 _atom_site_symmetry_multiplicity
 _atom_site_fract_x
 _atom_site_fract_y
 _atom_site_fract_z
 _atom_site_occupancy
  Tm  Tm0  1  0.64723329  0.64723329  0.64723329  1
  Tm  Tm1  1  0.05830013  0.64723329  0.64723329  1
  Tm  Tm2  1  0.64723329  0.05830013  0.64723329  1
  Tm  Tm3  1  0.64723329  0.64723329  0.05830013  1
  Tm  Tm4  1  0.81121409  0.81121409  0.18878591  1
  Tm  Tm5  1  0.18878591  0.18878591  0.81121409  1
  Tm  Tm6  1  0.81121409  0.18878591  0.81121409  1
  Tm  Tm7  1  0.18878591  0.81121409  0.18878591  1
  Tm  Tm8  1  0.18878591  0.81121409  0.81121409  1
  Tm  Tm9  1  0.81121409  0.18878591  0.18878591  1
  Tm  Tm10  1  0.43464770  0.43464770  0.06535230  1
  Tm  Tm11  1  0.06535230  0.06535230  0.43464770  1
  Tm  Tm12  1  0.43464770  0.06535230  0.43464770  1
  Tm  Tm13  1  0.06535230  0.43464770  0.06535230  1
  Tm  Tm14  1  0.06535230  0.43464770  0.43464770  1
  Tm  Tm15  1  0.43464770  0.06535230  0.06535230  1
  Cd  Cd16  1  0.41757612  0.41757612  0.41757612  1
  Cd  Cd17  1  0.74727164  0.41757612  0.41757612  1
  Cd  Cd18  1  0.41757612  0.74727164  0.41757612  1
  Cd  Cd19  1  0.41757612  0.41757612  0.74727164  1
  Pt  Pt20  1  0.85651418  0.85651418  0.85651418  1
  Pt  Pt21  1  0.43045746  0.85651418  0.85651418  1
  Pt  Pt22  1  0.85651418  0.43045746  0.85651418  1
  Pt  Pt23  1  0.85651418  0.85651418  0.43045746  1
