# generated using pymatgen
data_ZnGe2WO6
_symmetry_space_group_name_H-M   'P 1'
_cell_length_a   5.53595919
_cell_length_b   8.75955962
_cell_length_c   12.57236962
_cell_angle_alpha   90.00000000
_cell_angle_beta   102.22881943
_cell_angle_gamma   90.00000000
_symmetry_Int_Tables_number   1
_chemical_formula_structural   ZnGe2WO6
_chemical_formula_sum   'Zn4 Ge8 W4 O24'
_cell_volume   595.83279389
_cell_formula_units_Z   4
loop_
 _symmetry_equiv_pos_site_id
 _symmetry_equiv_pos_as_xyz
  1  'x, y, z'
loop_
 _atom_site_type_symbol
 _atom_site_label
 _atom_site_symmetry_multiplicity
 _atom_site_fract_x
 _atom_site_fract_y
 _atom_site_fract_z
 _atom_site_occupancy
  Zn  Zn0  1  0.44719154  0.44973545  0.22286462  1
  Zn  Zn1  1  0.05280846  0.94973545  0.77713538  1
  Zn  Zn2  1  0.55280846  0.55026455  0.77713538  1
  Zn  Zn3  1  0.94719154  0.05026455  0.22286462  1
  Ge  Ge4  1  0.85153802  0.36589578  0.08453719  1
  Ge  Ge5  1  0.64846198  0.86589578  0.91546281  1
  Ge  Ge6  1  0.14846198  0.63410422  0.91546281  1
  Ge  Ge7  1  0.35153802  0.13410422  0.08453719  1
  Ge  Ge8  1  0.21434786  0.33964072  0.46136337  1
  Ge  Ge9  1  0.28565214  0.83964072  0.53863663  1
  Ge  Ge10  1  0.78565214  0.66035928  0.53863663  1
  Ge  Ge11  1  0.71434786  0.16035928  0.46136337  1
  W  W12  1  0.98186012  0.65751515  0.29741849  1
  W  W13  1  0.51813988  0.15751515  0.70258151  1
  W  W14  1  0.01813988  0.34248485  0.70258151  1
  W  W15  1  0.48186012  0.84248485  0.29741849  1
  O  O16  1  0.46618224  0.28467668  0.40050044  1
  O  O17  1  0.03381776  0.78467668  0.59949956  1
  O  O18  1  0.53381776  0.71532332  0.59949956  1
  O  O19  1  0.96618224  0.21532332  0.40050044  1
  O  O20  1  0.19623959  0.30676713  0.14911336  1
  O  O21  1  0.30376141  0.80676713  0.85088764  1
  O  O22  1  0.80376141  0.69323287  0.85088764  1
  O  O23  1  0.69623859  0.19323287  0.14911336  1
  O  O24  1  0.66412257  0.97273855  0.42056806  1
  O  O25  1  0.83587743  0.47273855  0.57943194  1
  O  O26  1  0.33587743  0.02726145  0.57943194  1
  O  O27  1  0.16412257  0.52726145  0.42056806  1
  O  O28  1  0.28360660  0.00595351  0.20143032  1
  O  O29  1  0.21639340  0.50595351  0.79856968  1
  O  O30  1  0.71639340  0.99404649  0.79856968  1
  O  O31  1  0.78360660  0.49404649  0.20143032  1
  O  O32  1  0.70906826  0.34487294  0.77330735  1
  O  O33  1  0.79093174  0.84487294  0.22669265  1
  O  O34  1  0.29093174  0.65512706  0.22669265  1
  O  O35  1  0.20906826  0.15512706  0.77330735  1
  O  O36  1  0.29708557  0.33073682  0.60568565  1
  O  O37  1  0.20291443  0.83073682  0.39431435  1
  O  O38  1  0.70291443  0.66926318  0.39431435  1
  O  O39  1  0.79708557  0.16926318  0.60568565  1
