# generated using pymatgen
data_Tm(IO3)3
_symmetry_space_group_name_H-M   'P 1'
_cell_length_a   7.14422652
_cell_length_b   8.58217393
_cell_length_c   13.50291177
_cell_angle_alpha   90.00000000
_cell_angle_beta   100.68088382
_cell_angle_gamma   90.00000000
_symmetry_Int_Tables_number   1
_chemical_formula_structural   Tm(IO3)3
_chemical_formula_sum   'Tm4 I12 O36'
_cell_volume   813.56026171
_cell_formula_units_Z   4
loop_
 _symmetry_equiv_pos_site_id
 _symmetry_equiv_pos_as_xyz
  1  'x, y, z'
loop_
 _atom_site_type_symbol
 _atom_site_label
 _atom_site_symmetry_multiplicity
 _atom_site_fract_x
 _atom_site_fract_y
 _atom_site_fract_z
 _atom_site_occupancy
  Tm  Tm0  1  0.17271050  0.24582478  0.14504147  1
  Tm  Tm1  1  0.82728950  0.75417522  0.85495853  1
  Tm  Tm2  1  0.82728950  0.74582478  0.35495853  1
  Tm  Tm3  1  0.17271050  0.25417522  0.64504147  1
  I  I4  1  0.16510231  0.70671948  0.11018664  1
  I  I5  1  0.83489769  0.29328052  0.88981336  1
  I  I6  1  0.83489769  0.20671948  0.38981336  1
  I  I7  1  0.16510231  0.79328052  0.61018664  1
  I  I8  1  0.26826229  0.48042947  0.39030634  1
  I  I9  1  0.73173771  0.51957053  0.60969366  1
  I  I10  1  0.73173771  0.98042947  0.10969366  1
  I  I11  1  0.26826229  0.01957053  0.89030634  1
  I  I12  1  0.66803459  0.45786114  0.14336793  1
  I  I13  1  0.33196541  0.54213886  0.85663207  1
  I  I14  1  0.33196541  0.95786114  0.35663207  1
  I  I15  1  0.66803459  0.04213886  0.64336793  1
  O  O16  1  0.16050504  0.52472746  0.18070913  1
  O  O17  1  0.83949496  0.47527254  0.81929087  1
  O  O18  1  0.83949496  0.02472746  0.31929087  1
  O  O19  1  0.16050504  0.97527254  0.68070913  1
  O  O20  1  0.14256901  0.81140108  0.32321127  1
  O  O21  1  0.85743099  0.18859892  0.67678873  1
  O  O22  1  0.85743099  0.31140108  0.17678873  1
  O  O23  1  0.14256901  0.68859892  0.82321127  1
  O  O24  1  0.03702700  0.17021817  0.49194081  1
  O  O25  1  0.96297300  0.82978183  0.50805919  1
  O  O26  1  0.96297300  0.67021817  0.00805919  1
  O  O27  1  0.03702700  0.32978183  0.99194081  1
  O  O28  1  0.46827218  0.32490742  0.13780957  1
  O  O29  1  0.53172782  0.67509258  0.86219043  1
  O  O30  1  0.53172782  0.82490742  0.36219043  1
  O  O31  1  0.46827218  0.17509258  0.63780957  1
  O  O32  1  0.22943696  0.29258694  0.32227315  1
  O  O33  1  0.77056304  0.70741306  0.67772685  1
  O  O34  1  0.77056304  0.79258694  0.17772685  1
  O  O35  1  0.22943696  0.20741306  0.82227315  1
  O  O36  1  0.33597231  0.03561468  0.23040245  1
  O  O37  1  0.66402769  0.96438532  0.76959755  1
  O  O38  1  0.66402769  0.53561468  0.26959755  1
  O  O39  1  0.33597231  0.46438532  0.73040245  1
  O  O40  1  0.36349722  0.66775184  0.04560858  1
  O  O41  1  0.63650278  0.33224816  0.95439142  1
  O  O42  1  0.63650278  0.16775184  0.45439142  1
  O  O43  1  0.36349722  0.83224816  0.54560858  1
  O  O44  1  0.01851688  0.53306825  0.38612576  1
  O  O45  1  0.98148312  0.46693175  0.61387424  1
  O  O46  1  0.98148312  0.03306825  0.11387424  1
  O  O47  1  0.01851688  0.96693175  0.88612576  1
  O  O48  1  0.31977906  0.08057748  0.02179711  1
  O  O49  1  0.68022094  0.91942252  0.97820289  1
  O  O50  1  0.68022094  0.58057748  0.47820289  1
  O  O51  1  0.31977906  0.41942252  0.52179711  1
