# generated using pymatgen
data_Ti5SiSb2
_symmetry_space_group_name_H-M   'P 1'
_cell_length_a   5.10521285
_cell_length_b   7.82009374
_cell_length_c   7.82009374
_cell_angle_alpha   83.88366245
_cell_angle_beta   70.94859722
_cell_angle_gamma   70.94859722
_symmetry_Int_Tables_number   1
_chemical_formula_structural   Ti5SiSb2
_chemical_formula_sum   'Ti10 Si2 Sb4'
_cell_volume   278.93897006
_cell_formula_units_Z   2
loop_
 _symmetry_equiv_pos_site_id
 _symmetry_equiv_pos_as_xyz
  1  'x, y, z'
loop_
 _atom_site_type_symbol
 _atom_site_label
 _atom_site_symmetry_multiplicity
 _atom_site_fract_x
 _atom_site_fract_y
 _atom_site_fract_z
 _atom_site_occupancy
  Ti  Ti0  1  0.25000000  0.50000000  0.50000000  1
  Ti  Ti1  1  0.75000000  0.50000000  0.50000000  1
  Ti  Ti2  1  0.07250858  0.13587577  0.71910707  1
  Ti  Ti3  1  0.92749142  0.86412423  0.28089293  1
  Ti  Ti4  1  0.79161565  0.28089293  0.13587577  1
  Ti  Ti5  1  0.42749142  0.28089293  0.86412423  1
  Ti  Ti6  1  0.20838435  0.71910707  0.86412423  1
  Ti  Ti7  1  0.57250858  0.71910707  0.13587577  1
  Ti  Ti8  1  0.70838435  0.86412423  0.71910707  1
  Ti  Ti9  1  0.29161565  0.13587577  0.28089293  1
  Si  Si10  1  0.25000000  0.00000000  0.00000000  1
  Si  Si11  1  0.75000000  0.00000000  0.00000000  1
  Sb  Sb12  1  0.16429531  0.50000000  0.17140938  1
  Sb  Sb13  1  0.83570469  0.50000000  0.82859062  1
  Sb  Sb14  1  0.33570469  0.82859062  0.50000000  1
  Sb  Sb15  1  0.66429531  0.17140938  0.50000000  1
