# generated using pymatgen
data_Tm5(In2Pt)2
_symmetry_space_group_name_H-M   'P 1'
_cell_length_a   3.56736896
_cell_length_b   8.11147789
_cell_length_c   18.11457911
_cell_angle_alpha   90.00000000
_cell_angle_beta   90.00000000
_cell_angle_gamma   90.00000000
_symmetry_Int_Tables_number   1
_chemical_formula_structural   Tm5(In2Pt)2
_chemical_formula_sum   'Tm10 In8 Pt4'
_cell_volume   524.17495382
_cell_formula_units_Z   2
loop_
 _symmetry_equiv_pos_site_id
 _symmetry_equiv_pos_as_xyz
  1  'x, y, z'
loop_
 _atom_site_type_symbol
 _atom_site_label
 _atom_site_symmetry_multiplicity
 _atom_site_fract_x
 _atom_site_fract_y
 _atom_site_fract_z
 _atom_site_occupancy
  Tm  Tm0  1  0.00000000  0.11715288  0.41456029  1
  Tm  Tm1  1  -0.00000000  0.88284712  0.58543971  1
  Tm  Tm2  1  -0.00000000  0.38284712  0.91456029  1
  Tm  Tm3  1  0.00000000  0.61715288  0.08543971  1
  Tm  Tm4  1  0.00000000  0.24334732  0.22028942  1
  Tm  Tm5  1  0.00000000  0.75665268  0.77971058  1
  Tm  Tm6  1  -0.00000000  0.25665268  0.72028942  1
  Tm  Tm7  1  -0.00000000  0.74334732  0.27971058  1
  Tm  Tm8  1  -0.00000000  0.00000000  0.00000000  1
  Tm  Tm9  1  -0.00000000  0.50000000  0.50000000  1
  In  In10  1  0.50000000  0.42400726  0.35119565  1
  In  In11  1  0.50000000  0.57599274  0.64880435  1
  In  In12  1  0.50000000  0.07599274  0.85119565  1
  In  In13  1  0.50000000  0.92400726  0.14880435  1
  In  In14  1  0.50000000  0.29190721  0.06621155  1
  In  In15  1  0.50000000  0.70809279  0.93378845  1
  In  In16  1  0.50000000  0.20809279  0.56621155  1
  In  In17  1  0.50000000  0.79190721  0.43378845  1
  Pt  Pt18  1  0.50000000  0.02522446  0.30334243  1
  Pt  Pt19  1  0.50000000  0.97477554  0.69665757  1
  Pt  Pt20  1  0.50000000  0.47477554  0.80334243  1
  Pt  Pt21  1  0.50000000  0.52522446  0.19665757  1
