# generated using pymatgen
data_Tb2Be2GeO7
_symmetry_space_group_name_H-M   'P 1'
_cell_length_a   4.83284210
_cell_length_b   7.46647399
_cell_length_c   7.46647399
_cell_angle_alpha   90.00000000
_cell_angle_beta   90.00000000
_cell_angle_gamma   90.00000000
_symmetry_Int_Tables_number   1
_chemical_formula_structural   Tb2Be2GeO7
_chemical_formula_sum   'Tb4 Be4 Ge2 O14'
_cell_volume   269.42241152
_cell_formula_units_Z   2
loop_
 _symmetry_equiv_pos_site_id
 _symmetry_equiv_pos_as_xyz
  1  'x, y, z'
loop_
 _atom_site_type_symbol
 _atom_site_label
 _atom_site_symmetry_multiplicity
 _atom_site_fract_x
 _atom_site_fract_y
 _atom_site_fract_z
 _atom_site_occupancy
  Tb  Tb0  1  0.50538445  0.15902799  0.65902799  1
  Tb  Tb1  1  0.50538445  0.84097201  0.34097201  1
  Tb  Tb2  1  0.49461555  0.65902799  0.84097201  1
  Tb  Tb3  1  0.49461555  0.34097201  0.15902799  1
  Be  Be4  1  0.95117869  0.63425352  0.13425352  1
  Be  Be5  1  0.95117869  0.36574648  0.86574648  1
  Be  Be6  1  0.04882131  0.13425352  0.36574648  1
  Be  Be7  1  0.04882131  0.86574648  0.63425352  1
  Ge  Ge8  1  0.00000000  -0.00000000  0.00000000  1
  Ge  Ge9  1  0.00000000  0.50000000  0.50000000  1
  O  O10  1  0.18830404  -0.00000000  0.50000000  1
  O  O11  1  0.81169596  0.50000000  0.00000000  1
  O  O12  1  0.27924185  0.64203192  0.14203192  1
  O  O13  1  0.27924185  0.35796808  0.85796808  1
  O  O14  1  0.72075815  0.14203192  0.35796808  1
  O  O15  1  0.72075815  0.85796808  0.64203192  1
  O  O16  1  0.21654077  0.07938979  0.17206845  1
  O  O17  1  0.21654077  0.92061021  0.82793155  1
  O  O18  1  0.78345923  0.17206845  0.92061021  1
  O  O19  1  0.78345923  0.42061021  0.67206845  1
  O  O20  1  0.78345923  0.82793155  0.07938979  1
  O  O21  1  0.78345923  0.57938979  0.32793155  1
  O  O22  1  0.21654077  0.32793155  0.42061021  1
  O  O23  1  0.21654077  0.67206845  0.57938979  1
