# generated using pymatgen
data_TaVP
_symmetry_space_group_name_H-M   'P 1'
_cell_length_a   3.40832571
_cell_length_b   6.39951174
_cell_length_c   7.70189146
_cell_angle_alpha   90.00000000
_cell_angle_beta   90.00000000
_cell_angle_gamma   90.00000000
_symmetry_Int_Tables_number   1
_chemical_formula_structural   TaVP
_chemical_formula_sum   'Ta4 V4 P4'
_cell_volume   167.99073285
_cell_formula_units_Z   4
loop_
 _symmetry_equiv_pos_site_id
 _symmetry_equiv_pos_as_xyz
  1  'x, y, z'
loop_
 _atom_site_type_symbol
 _atom_site_label
 _atom_site_symmetry_multiplicity
 _atom_site_fract_x
 _atom_site_fract_y
 _atom_site_fract_z
 _atom_site_occupancy
  Ta  Ta0  1  0.75000000  0.96381066  0.33147659  1
  Ta  Ta1  1  0.25000000  0.03618934  0.66852341  1
  Ta  Ta2  1  0.25000000  0.53618934  0.83147659  1
  Ta  Ta3  1  0.75000000  0.46381066  0.16852341  1
  V  V4  1  0.75000000  0.86051117  0.94151265  1
  V  V5  1  0.25000000  0.13948883  0.05848735  1
  V  V6  1  0.25000000  0.63948883  0.44151265  1
  V  V7  1  0.75000000  0.36051117  0.55848735  1
  P  P8  1  0.75000000  0.73648839  0.63992796  1
  P  P9  1  0.25000000  0.26351161  0.36007204  1
  P  P10  1  0.25000000  0.76351161  0.13992796  1
  P  P11  1  0.75000000  0.23648839  0.86007204  1
