# generated using pymatgen
data_Tl2Mo3P3O17
_symmetry_space_group_name_H-M   'P 1'
_cell_length_a   9.65593214
_cell_length_b   10.98302217
_cell_length_c   15.69661698
_cell_angle_alpha   109.31309684
_cell_angle_beta   90.00000000
_cell_angle_gamma   90.00000000
_symmetry_Int_Tables_number   1
_chemical_formula_structural   Tl2Mo3P3O17
_chemical_formula_sum   'Tl8 Mo12 P12 O68'
_cell_volume   1570.96952375
_cell_formula_units_Z   4
loop_
 _symmetry_equiv_pos_site_id
 _symmetry_equiv_pos_as_xyz
  1  'x, y, z'
loop_
 _atom_site_type_symbol
 _atom_site_label
 _atom_site_symmetry_multiplicity
 _atom_site_fract_x
 _atom_site_fract_y
 _atom_site_fract_z
 _atom_site_occupancy
  Tl  Tl0  1  0.62544509  0.67277739  0.49197885  1
  Tl  Tl1  1  0.37455491  0.32722261  0.50802115  1
  Tl  Tl2  1  0.12544509  0.82722261  0.00802115  1
  Tl  Tl3  1  0.87455491  0.17277739  0.99197885  1
  Tl  Tl4  1  0.12856335  0.38952724  0.79089258  1
  Tl  Tl5  1  0.87143665  0.61047276  0.20910742  1
  Tl  Tl6  1  0.62856335  0.11047276  0.70910742  1
  Tl  Tl7  1  0.37143665  0.88952724  0.29089258  1
  Mo  Mo8  1  0.88370495  0.80247999  0.75676837  1
  Mo  Mo9  1  0.11629505  0.19752001  0.24323163  1
  Mo  Mo10  1  0.38370495  0.69752001  0.74323163  1
  Mo  Mo11  1  0.61629505  0.30247999  0.25676837  1
  Mo  Mo12  1  0.38141292  0.18469989  0.93627176  1
  Mo  Mo13  1  0.61858708  0.81530011  0.06372824  1
  Mo  Mo14  1  0.88141292  0.31530011  0.56372824  1
  Mo  Mo15  1  0.11858708  0.68469989  0.43627176  1
  Mo  Mo16  1  0.24624255  0.01766617  0.59611913  1
  Mo  Mo17  1  0.75375745  0.98233383  0.40388087  1
  Mo  Mo18  1  0.74624255  0.48233383  0.90388087  1
  Mo  Mo19  1  0.25375745  0.51766617  0.09611913  1
  P  P20  1  0.17723312  0.96040618  0.79776069  1
  P  P21  1  0.82276688  0.03959382  0.20223931  1
  P  P22  1  0.67723312  0.53959382  0.70223931  1
  P  P23  1  0.32276688  0.46040618  0.29776069  1
  P  P24  1  0.40332404  0.59872355  0.93028999  1
  P  P25  1  0.59667596  0.40127645  0.06971001  1
  P  P26  1  0.90332404  0.90127645  0.56971001  1
  P  P27  1  0.09667596  0.09872355  0.43028999  1
  P  P28  1  0.60110217  0.92252951  0.87897819  1
  P  P29  1  0.39889783  0.07747049  0.12102181  1
  P  P30  1  0.10110217  0.57747049  0.62102181  1
  P  P31  1  0.89889783  0.42252951  0.37897819  1
  O  O32  1  0.02911420  0.70882222  0.66497001  1
  O  O33  1  0.97088580  0.29117778  0.33502999  1
  O  O34  1  0.52911420  0.79117778  0.83502999  1
  O  O35  1  0.47088580  0.20882222  0.16497001  1
  O  O36  1  0.56121119  0.26646467  0.99852450  1
  O  O37  1  0.43878881  0.73353533  0.00147550  1
  O  O38  1  0.06121119  0.23353533  0.50147550  1
  O  O39  1  0.93878881  0.76646467  0.49852450  1
  O  O40  1  0.23887360  0.98050191  0.71290831  1
  O  O41  1  0.76112640  0.01949809  0.28709169  1
  O  O42  1  0.73887360  0.51949809  0.78709169  1
  O  O43  1  0.26112640  0.48050191  0.21290831  1
  O  O44  1  0.41931526  0.97484008  0.57518169  1
  O  O45  1  0.58068474  0.02515992  0.42481831  1
  O  O46  1  0.91931526  0.52515992  0.92481831  1
  O  O47  1  0.08068474  0.47484008  0.07518169  1
  O  O48  1  0.25464154  0.18521795  0.64647523  1
  O  O49  1  0.74535846  0.81478205  0.35352477  1
  O  O50  1  0.75464154  0.31478205  0.85352477  1
  O  O51  1  0.24535846  0.68521795  0.14647523  1
  O  O52  1  0.21262433  0.07678199  0.88324110  1
  O  O53  1  0.78737567  0.92321801  0.11675890  1
  O  O54  1  0.71262433  0.42321801  0.61675890  1
  O  O55  1  0.28737567  0.57678199  0.38324110  1
  O  O56  1  0.32754829  0.61847320  0.84976421  1
  O  O57  1  0.67245171  0.38152680  0.15023579  1
  O  O58  1  0.82754829  0.88152680  0.65023579  1
  O  O59  1  0.17245171  0.11847320  0.34976421  1
  O  O60  1  0.01701534  0.95865604  0.79731628  1
  O  O61  1  0.98298466  0.04134396  0.20268372  1
  O  O62  1  0.51701534  0.54134396  0.70268372  1
  O  O63  1  0.48298466  0.45865604  0.29731628  1
  O  O64  1  0.39006967  0.24471609  0.84762580  1
  O  O65  1  0.60993033  0.75528391  0.15237420  1
  O  O66  1  0.89006967  0.25528391  0.65237420  1
  O  O67  1  0.10993033  0.74471609  0.34762580  1
  O  O68  1  0.29112564  0.53308000  0.97300382  1
  O  O69  1  0.70887436  0.46692000  0.02699618  1
  O  O70  1  0.79112564  0.96692000  0.52699618  1
  O  O71  1  0.20887436  0.03308000  0.47300382  1
  O  O72  1  0.13994784  0.56087265  0.52363624  1
  O  O73  1  0.86005216  0.43912735  0.47636376  1
  O  O74  1  0.63994784  0.93912735  0.97636376  1
  O  O75  1  0.36005216  0.06087265  0.02363624  1
  O  O76  1  0.50926822  0.03339504  0.86897490  1
  O  O77  1  0.49073178  0.96660496  0.13102510  1
  O  O78  1  0.00926822  0.46660496  0.63102510  1
  O  O79  1  0.99073178  0.53339504  0.36897490  1
  O  O80  1  0.21277660  0.80637396  0.51857767  1
  O  O81  1  0.78722340  0.19362604  0.48142233  1
  O  O82  1  0.71277660  0.69362604  0.98142233  1
  O  O83  1  0.28722340  0.30637396  0.01857767  1
  O  O84  1  0.23690883  0.83541283  0.80760519  1
  O  O85  1  0.76309117  0.16458717  0.19239481  1
  O  O86  1  0.73690883  0.66458717  0.69239481  1
  O  O87  1  0.26309117  0.33541283  0.30760519  1
  O  O88  1  0.73452057  0.93102000  0.82462274  1
  O  O89  1  0.26547943  0.06898000  0.17537726  1
  O  O90  1  0.23452057  0.56898000  0.67537726  1
  O  O91  1  0.76547943  0.43102000  0.32462274  1
  O  O92  1  0.43171908  0.75262041  0.65730759  1
  O  O93  1  0.56828092  0.24737959  0.34269241  1
  O  O94  1  0.93171908  0.74737959  0.84269241  1
  O  O95  1  0.06828092  0.25262041  0.15730759  1
  O  O96  1  0.03042165  0.98858663  0.59710906  1
  O  O97  1  0.96957835  0.01141337  0.40289094  1
  O  O98  1  0.53042165  0.51141337  0.90289094  1
  O  O99  1  0.46957835  0.48858663  0.09710906  1
