# generated using pymatgen
data_Tb2Sc3Si4
_symmetry_space_group_name_H-M   'P 1'
_cell_length_a   7.11602588
_cell_length_b   7.40373384
_cell_length_c   14.04139033
_cell_angle_alpha   90.00000000
_cell_angle_beta   90.00000000
_cell_angle_gamma   90.00000000
_symmetry_Int_Tables_number   1
_chemical_formula_structural   Tb2Sc3Si4
_chemical_formula_sum   'Tb8 Sc12 Si16'
_cell_volume   739.77291882
_cell_formula_units_Z   4
loop_
 _symmetry_equiv_pos_site_id
 _symmetry_equiv_pos_as_xyz
  1  'x, y, z'
loop_
 _atom_site_type_symbol
 _atom_site_label
 _atom_site_symmetry_multiplicity
 _atom_site_fract_x
 _atom_site_fract_y
 _atom_site_fract_z
 _atom_site_occupancy
  Tb  Tb0  1  0.98801944  0.82588250  0.40268105  1
  Tb  Tb1  1  0.01198056  0.17411750  0.59731895  1
  Tb  Tb2  1  0.51198056  0.32588250  0.59731895  1
  Tb  Tb3  1  0.01198056  0.17411750  0.90268105  1
  Tb  Tb4  1  0.48801944  0.67411750  0.40268105  1
  Tb  Tb5  1  0.98801944  0.82588250  0.09731895  1
  Tb  Tb6  1  0.48801944  0.67411750  0.09731895  1
  Tb  Tb7  1  0.51198056  0.32588250  0.90268105  1
  Sc  Sc8  1  0.83918827  0.49744003  0.75000000  1
  Sc  Sc9  1  0.16081173  0.50255997  0.25000000  1
  Sc  Sc10  1  0.66081173  0.99744003  0.25000000  1
  Sc  Sc11  1  0.33918827  0.00255997  0.75000000  1
  Sc  Sc12  1  0.67005434  0.82350360  0.87512125  1
  Sc  Sc13  1  0.32994566  0.17649640  0.12487875  1
  Sc  Sc14  1  0.82994566  0.32350360  0.12487875  1
  Sc  Sc15  1  0.32994566  0.17649640  0.37512125  1
  Sc  Sc16  1  0.17005434  0.67649640  0.87512125  1
  Sc  Sc17  1  0.67005434  0.82350360  0.62487875  1
  Sc  Sc18  1  0.17005434  0.67649640  0.62487875  1
  Sc  Sc19  1  0.82994566  0.32350360  0.37512125  1
  Si  Si20  1  0.96665630  0.87986888  0.75000000  1
  Si  Si21  1  0.03334370  0.12013112  0.25000000  1
  Si  Si22  1  0.53334370  0.37986888  0.25000000  1
  Si  Si23  1  0.46665630  0.62013112  0.75000000  1
  Si  Si24  1  0.71392554  0.12413795  0.75000000  1
  Si  Si25  1  0.28607446  0.87586205  0.25000000  1
  Si  Si26  1  0.78607446  0.62413795  0.25000000  1
  Si  Si27  1  0.21392554  0.37586205  0.75000000  1
  Si  Si28  1  0.84340432  0.53576555  0.96057642  1
  Si  Si29  1  0.15659568  0.46423445  0.03942358  1
  Si  Si30  1  0.65659568  0.03576555  0.03942358  1
  Si  Si31  1  0.15659568  0.46423445  0.46057642  1
  Si  Si32  1  0.34340432  0.96423445  0.96057642  1
  Si  Si33  1  0.84340432  0.53576555  0.53942358  1
  Si  Si34  1  0.34340432  0.96423445  0.53942358  1
  Si  Si35  1  0.65659568  0.03576555  0.46057642  1
