# generated using pymatgen
data_TiAgPO5
_symmetry_space_group_name_H-M   'P 1'
_cell_length_a   6.33605608
_cell_length_b   12.67693289
_cell_length_c   10.70456842
_cell_angle_alpha   90.00000000
_cell_angle_beta   90.00000000
_cell_angle_gamma   90.00000000
_symmetry_Int_Tables_number   1
_chemical_formula_structural   TiAgPO5
_chemical_formula_sum   'Ti8 Ag8 P8 O40'
_cell_volume   859.80975106
_cell_formula_units_Z   8
loop_
 _symmetry_equiv_pos_site_id
 _symmetry_equiv_pos_as_xyz
  1  'x, y, z'
loop_
 _atom_site_type_symbol
 _atom_site_label
 _atom_site_symmetry_multiplicity
 _atom_site_fract_x
 _atom_site_fract_y
 _atom_site_fract_z
 _atom_site_occupancy
  Ti  Ti0  1  0.70604626  0.72367788  0.76313031  1
  Ti  Ti1  1  0.29395374  0.27632212  0.26313031  1
  Ti  Ti2  1  0.79395374  0.22367788  0.76313031  1
  Ti  Ti3  1  0.20604626  0.77632212  0.26313031  1
  Ti  Ti4  1  0.46752322  0.87076224  0.99725359  1
  Ti  Ti5  1  0.53247678  0.12923776  0.49725359  1
  Ti  Ti6  1  0.03247678  0.37076224  0.99725359  1
  Ti  Ti7  1  0.96752322  0.62923776  0.49725359  1
  Ag  Ag8  1  0.75535919  0.88764000  0.39251497  1
  Ag  Ag9  1  0.24464081  0.11236000  0.89251497  1
  Ag  Ag10  1  0.74464081  0.38764000  0.39251497  1
  Ag  Ag11  1  0.25535919  0.61236000  0.89251497  1
  Ag  Ag12  1  0.18666805  0.85140161  0.70381627  1
  Ag  Ag13  1  0.81333195  0.14859839  0.20381627  1
  Ag  Ag14  1  0.31333195  0.35140161  0.70381627  1
  Ag  Ag15  1  0.68666805  0.64859839  0.20381627  1
  P  P16  1  0.65496713  0.97855595  0.72737280  1
  P  P17  1  0.34503287  0.02144405  0.22737280  1
  P  P18  1  0.84503287  0.47855595  0.72737280  1
  P  P19  1  0.15496713  0.52144405  0.22737280  1
  P  P20  1  0.96337489  0.81657326  0.99503742  1
  P  P21  1  0.03662511  0.18342674  0.49503742  1
  P  P22  1  0.53662511  0.31657326  0.99503742  1
  P  P23  1  0.46337489  0.68342674  0.49503742  1
  O  O24  1  0.78931041  0.87648113  0.73166000  1
  O  O25  1  0.21068959  0.12351887  0.23166000  1
  O  O26  1  0.71068959  0.37648113  0.73166000  1
  O  O27  1  0.28931041  0.62351887  0.23166000  1
  O  O28  1  0.77242446  0.89159465  0.00108116  1
  O  O29  1  0.22757554  0.10840535  0.50108116  1
  O  O30  1  0.72757554  0.39159465  0.00108116  1
  O  O31  1  0.27242446  0.60840535  0.50108116  1
  O  O32  1  0.92784874  0.72703443  0.89736777  1
  O  O33  1  0.07215126  0.27296557  0.39736777  1
  O  O34  1  0.57215126  0.22703443  0.89736777  1
  O  O35  1  0.42784874  0.77296557  0.39736777  1
  O  O36  1  0.49415433  0.73593530  0.62474392  1
  O  O37  1  0.50584567  0.26406470  0.12474392  1
  O  O38  1  0.00584567  0.23593530  0.62474392  1
  O  O39  1  0.99415433  0.76406470  0.12474392  1
  O  O40  1  0.92682070  0.49265155  0.59115556  1
  O  O41  1  0.07317930  0.50734845  0.09115556  1
  O  O42  1  0.57317930  0.99265155  0.59115556  1
  O  O43  1  0.42682070  0.00734845  0.09115556  1
  O  O44  1  0.69681896  0.57124666  0.76541140  1
  O  O45  1  0.30318104  0.42875334  0.26541140  1
  O  O46  1  0.80318104  0.07124666  0.76541140  1
  O  O47  1  0.19681896  0.92875334  0.26541140  1
  O  O48  1  0.94122236  0.70698107  0.63178622  1
  O  O49  1  0.05877764  0.29301893  0.13178622  1
  O  O50  1  0.55877764  0.20698107  0.63178622  1
  O  O51  1  0.44122236  0.79301893  0.13178622  1
  O  O52  1  0.46481098  0.97077747  0.81896980  1
  O  O53  1  0.53518902  0.02922253  0.31896980  1
  O  O54  1  0.03518902  0.47077747  0.81896980  1
  O  O55  1  0.96481098  0.52922253  0.31896980  1
  O  O56  1  0.49769372  0.75198973  0.87727055  1
  O  O57  1  0.50230628  0.24801027  0.37727055  1
  O  O58  1  0.00230628  0.25198973  0.87727055  1
  O  O59  1  0.99769372  0.74801027  0.37727055  1
  O  O60  1  0.65896681  0.61933747  0.45532825  1
  O  O61  1  0.34103319  0.38066253  0.95532825  1
  O  O62  1  0.84103319  0.11933747  0.45532825  1
  O  O63  1  0.15896681  0.88066253  0.95532825  1
