# generated using pymatgen
data_U6Ta4Al43
_symmetry_space_group_name_H-M   'P 1'
_cell_length_a   11.13942136
_cell_length_b   11.13942136
_cell_length_c   17.55578767
_cell_angle_alpha   90.00000000
_cell_angle_beta   90.00000000
_cell_angle_gamma   119.99999985
_symmetry_Int_Tables_number   1
_chemical_formula_structural   U6Ta4Al43
_chemical_formula_sum   'U12 Ta8 Al86'
_cell_volume   1886.58429734
_cell_formula_units_Z   2
loop_
 _symmetry_equiv_pos_site_id
 _symmetry_equiv_pos_as_xyz
  1  'x, y, z'
loop_
 _atom_site_type_symbol
 _atom_site_label
 _atom_site_symmetry_multiplicity
 _atom_site_fract_x
 _atom_site_fract_y
 _atom_site_fract_z
 _atom_site_occupancy
  U  U0  1  0.47320696  0.47320696  0.90952005  1
  U  U1  1  0.52679304  0.52679304  0.09047995  1
  U  U2  1  0.00000000  0.52679304  0.90952005  1
  U  U3  1  0.52679304  0.52679304  0.40952005  1
  U  U4  1  0.00000000  0.52679304  0.59047995  1
  U  U5  1  1.00000000  0.47320696  0.09047995  1
  U  U6  1  0.47320696  0.47320696  0.59047995  1
  U  U7  1  1.00000000  0.47320696  0.40952005  1
  U  U8  1  0.52679304  0.00000000  0.90952005  1
  U  U9  1  0.47320696  1.00000000  0.09047995  1
  U  U10  1  0.47320696  1.00000000  0.40952005  1
  U  U11  1  0.52679304  0.00000000  0.59047995  1
  Ta  Ta12  1  0.00000000  0.00000000  0.00000000  1
  Ta  Ta13  1  0.00000000  0.00000000  0.50000000  1
  Ta  Ta14  1  0.27569280  0.27569280  0.75000000  1
  Ta  Ta15  1  0.72430720  0.72430720  0.25000000  1
  Ta  Ta16  1  0.00000000  0.72430720  0.75000000  1
  Ta  Ta17  1  1.00000000  0.27569280  0.25000000  1
  Ta  Ta18  1  0.72430720  0.00000000  0.75000000  1
  Ta  Ta19  1  0.27569280  1.00000000  0.25000000  1
  Al  Al20  1  0.85157168  0.44455865  0.75000000  1
  Al  Al21  1  0.14842832  0.55544135  0.25000000  1
  Al  Al22  1  0.59298697  0.14842832  0.75000000  1
  Al  Al23  1  0.40701303  0.55544135  0.75000000  1
  Al  Al24  1  0.40701303  0.85157168  0.25000000  1
  Al  Al25  1  0.59298697  0.44455865  0.25000000  1
  Al  Al26  1  0.55544135  0.40701303  0.75000000  1
  Al  Al27  1  0.44455865  0.85157168  0.75000000  1
  Al  Al28  1  0.44455865  0.59298697  0.25000000  1
  Al  Al29  1  0.55544135  0.14842832  0.25000000  1
  Al  Al30  1  0.14842832  0.59298697  0.75000000  1
  Al  Al31  1  0.85157168  0.40701303  0.25000000  1
  Al  Al32  1  0.83925971  0.83925971  0.38509422  1
  Al  Al33  1  0.16074029  0.16074029  0.61490578  1
  Al  Al34  1  1.00000000  0.16074029  0.38509422  1
  Al  Al35  1  0.16074029  0.16074029  0.88509422  1
  Al  Al36  1  1.00000000  0.16074029  0.11490578  1
  Al  Al37  1  0.00000000  0.83925971  0.61490578  1
  Al  Al38  1  0.83925971  0.83925971  0.11490578  1
  Al  Al39  1  0.00000000  0.83925971  0.88509422  1
  Al  Al40  1  0.16074029  1.00000000  0.38509422  1
  Al  Al41  1  0.83925971  0.00000000  0.61490578  1
  Al  Al42  1  0.83925971  0.00000000  0.88509422  1
  Al  Al43  1  0.16074029  1.00000000  0.11490578  1
  Al  Al44  1  0.75294449  0.24705551  0.00000000  1
  Al  Al45  1  0.24705551  0.75294449  0.00000000  1
  Al  Al46  1  0.49411101  0.24705551  0.00000000  1
  Al  Al47  1  0.24705551  0.75294449  0.50000000  1
  Al  Al48  1  0.50588899  0.75294449  0.50000000  1
  Al  Al49  1  0.50588899  0.75294449  0.00000000  1
  Al  Al50  1  0.75294449  0.24705551  0.50000000  1
  Al  Al51  1  0.49411101  0.24705551  0.50000000  1
  Al  Al52  1  0.75294449  0.50588899  0.00000000  1
  Al  Al53  1  0.24705551  0.49411101  0.00000000  1
  Al  Al54  1  0.24705551  0.49411101  0.50000000  1
  Al  Al55  1  0.75294449  0.50588899  0.50000000  1
  Al  Al56  1  0.85366203  0.85366203  0.75000000  1
  Al  Al57  1  0.14633797  0.14633797  0.25000000  1
  Al  Al58  1  0.00000000  0.14633797  0.75000000  1
  Al  Al59  1  1.00000000  0.85366203  0.25000000  1
  Al  Al60  1  0.14633797  0.00000000  0.75000000  1
  Al  Al61  1  0.85366203  1.00000000  0.25000000  1
  Al  Al62  1  0.66666700  0.33333300  0.87321801  1
  Al  Al63  1  0.33333300  0.66666700  0.12678199  1
  Al  Al64  1  0.33333300  0.66666700  0.37321801  1
  Al  Al65  1  0.33333300  0.66666700  0.62678199  1
  Al  Al66  1  0.66666700  0.33333300  0.62678199  1
  Al  Al67  1  0.66666700  0.33333300  0.37321801  1
  Al  Al68  1  0.66666700  0.33333300  0.12678199  1
  Al  Al69  1  0.33333300  0.66666700  0.87321801  1
  Al  Al70  1  0.74304002  0.74304002  0.97051043  1
  Al  Al71  1  0.25695998  0.25695998  0.02948957  1
  Al  Al72  1  1.00000000  0.25695998  0.97051043  1
  Al  Al73  1  0.25695998  0.25695998  0.47051043  1
  Al  Al74  1  1.00000000  0.25695998  0.52948957  1
  Al  Al75  1  0.00000000  0.74304002  0.02948957  1
  Al  Al76  1  0.74304002  0.74304002  0.52948957  1
  Al  Al77  1  0.00000000  0.74304002  0.47051043  1
  Al  Al78  1  0.25695998  1.00000000  0.97051043  1
  Al  Al79  1  0.74304002  0.00000000  0.02948957  1
  Al  Al80  1  0.74304002  0.00000000  0.47051043  1
  Al  Al81  1  0.25695998  1.00000000  0.52948957  1
  Al  Al82  1  0.84251618  0.23787783  0.83691913  1
  Al  Al83  1  0.15748382  0.76212217  0.16308087  1
  Al  Al84  1  0.39536165  0.15748382  0.83691913  1
  Al  Al85  1  0.15748382  0.76212217  0.33691913  1
  Al  Al86  1  0.60463835  0.76212217  0.66308087  1
  Al  Al87  1  0.60463835  0.84251618  0.16308087  1
  Al  Al88  1  0.84251618  0.23787783  0.66308087  1
  Al  Al89  1  0.39536165  0.23787783  0.33691913  1
  Al  Al90  1  0.76212217  0.60463835  0.83691913  1
  Al  Al91  1  0.60463835  0.84251618  0.33691913  1
  Al  Al92  1  0.23787783  0.84251618  0.66308087  1
  Al  Al93  1  0.23787783  0.39536165  0.16308087  1
  Al  Al94  1  0.39536165  0.15748382  0.66308087  1
  Al  Al95  1  0.76212217  0.15748382  0.33691913  1
  Al  Al96  1  0.39536165  0.23787783  0.16308087  1
  Al  Al97  1  0.60463835  0.76212217  0.83691913  1
  Al  Al98  1  0.23787783  0.39536165  0.33691913  1
  Al  Al99  1  0.76212217  0.15748382  0.16308087  1
  Al  Al100  1  0.76212217  0.60463835  0.66308087  1
  Al  Al101  1  0.23787783  0.84251618  0.83691913  1
  Al  Al102  1  0.15748382  0.39536165  0.66308087  1
  Al  Al103  1  0.84251618  0.60463835  0.33691913  1
  Al  Al104  1  0.84251618  0.60463835  0.16308087  1
  Al  Al105  1  0.15748382  0.39536165  0.83691913  1
