# generated using pymatgen
data_TiZnAg(PO4)3
_symmetry_space_group_name_H-M   'P 1'
_cell_length_a   8.59075023
_cell_length_b   8.59074995
_cell_length_c   8.59075028
_cell_angle_alpha   61.76150957
_cell_angle_beta   61.76151482
_cell_angle_gamma   61.76151961
_symmetry_Int_Tables_number   1
_chemical_formula_structural   TiZnAg(PO4)3
_chemical_formula_sum   'Ti2 Zn2 Ag2 P6 O24'
_cell_volume   466.00392444
_cell_formula_units_Z   2
loop_
 _symmetry_equiv_pos_site_id
 _symmetry_equiv_pos_as_xyz
  1  'x, y, z'
loop_
 _atom_site_type_symbol
 _atom_site_label
 _atom_site_symmetry_multiplicity
 _atom_site_fract_x
 _atom_site_fract_y
 _atom_site_fract_z
 _atom_site_occupancy
  Ti  Ti0  1  0.14556807  0.14556807  0.14556807  1
  Ti  Ti1  1  0.64556807  0.64556807  0.64556807  1
  Zn  Zn2  1  0.99580203  0.99580203  0.99580203  1
  Zn  Zn3  1  0.49580203  0.49580203  0.49580203  1
  Ag  Ag4  1  0.35053397  0.35053397  0.35053397  1
  Ag  Ag5  1  0.85053397  0.85053397  0.85053397  1
  P  P6  1  0.04771361  0.44548089  0.75602801  1
  P  P7  1  0.44548089  0.75602801  0.04771361  1
  P  P8  1  0.75602801  0.04771361  0.44548089  1
  P  P9  1  0.25602801  0.94548089  0.54771361  1
  P  P10  1  0.54771361  0.25602801  0.94548089  1
  P  P11  1  0.94548089  0.54771361  0.25602801  1
  O  O12  1  0.09121739  0.53109389  0.31968606  1
  O  O13  1  0.31968606  0.09121739  0.53109389  1
  O  O14  1  0.05129041  0.25381437  0.91702039  1
  O  O15  1  0.53109389  0.31968606  0.09121739  1
  O  O16  1  0.03109389  0.59121739  0.81968606  1
  O  O17  1  0.24043913  0.42698074  0.60064627  1
  O  O18  1  0.25381437  0.91702039  0.05129041  1
  O  O19  1  0.42698074  0.60064627  0.24043913  1
  O  O20  1  0.19264114  0.00597758  0.37806204  1
  O  O21  1  0.60064626  0.24043913  0.42698074  1
  O  O22  1  0.10064627  0.92698074  0.74043913  1
  O  O23  1  0.37806204  0.19264114  0.00597758  1
  O  O24  1  0.59121739  0.81968606  0.03109389  1
  O  O25  1  0.91702039  0.05129041  0.25381437  1
  O  O26  1  0.41702039  0.75381437  0.55129041  1
  O  O27  1  0.81968606  0.03109389  0.59121739  1
  O  O28  1  0.55129041  0.41702039  0.75381437  1
  O  O29  1  0.74043913  0.10064627  0.92698074  1
  O  O30  1  0.75381437  0.55129041  0.41702039  1
  O  O31  1  0.00597758  0.37806204  0.19264114  1
  O  O32  1  0.50597758  0.69264114  0.87806204  1
  O  O33  1  0.92698074  0.74043913  0.10064627  1
  O  O34  1  0.69264114  0.87806204  0.50597758  1
  O  O35  1  0.87806204  0.50597758  0.69264114  1
