# generated using pymatgen
data_TbB7Mo3
_symmetry_space_group_name_H-M   'P 1'
_cell_length_a   3.11291720
_cell_length_b   11.02829370
_cell_length_c   12.93606185
_cell_angle_alpha   90.00000000
_cell_angle_beta   90.00000000
_cell_angle_gamma   90.00000000
_symmetry_Int_Tables_number   1
_chemical_formula_structural   TbB7Mo3
_chemical_formula_sum   'Tb4 B28 Mo12'
_cell_volume   444.09713964
_cell_formula_units_Z   4
loop_
 _symmetry_equiv_pos_site_id
 _symmetry_equiv_pos_as_xyz
  1  'x, y, z'
loop_
 _atom_site_type_symbol
 _atom_site_label
 _atom_site_symmetry_multiplicity
 _atom_site_fract_x
 _atom_site_fract_y
 _atom_site_fract_z
 _atom_site_occupancy
  Tb  Tb0  1  0.75000000  0.55097839  0.30816139  1
  Tb  Tb1  1  0.25000000  0.44902161  0.69183861  1
  Tb  Tb2  1  0.25000000  0.94902161  0.80816139  1
  Tb  Tb3  1  0.75000000  0.05097839  0.19183861  1
  B  B4  1  0.75000000  0.75073068  0.17346339  1
  B  B5  1  0.25000000  0.24926932  0.82653661  1
  B  B6  1  0.25000000  0.74926932  0.67346339  1
  B  B7  1  0.75000000  0.25073068  0.32653661  1
  B  B8  1  0.75000000  0.93208989  0.38402098  1
  B  B9  1  0.25000000  0.06791011  0.61597902  1
  B  B10  1  0.25000000  0.56791011  0.88402098  1
  B  B11  1  0.75000000  0.43208989  0.11597902  1
  B  B12  1  0.75000000  0.98954757  0.63717565  1
  B  B13  1  0.25000000  0.01045243  0.36282435  1
  B  B14  1  0.25000000  0.51045243  0.13717565  1
  B  B15  1  0.75000000  0.48954757  0.86282435  1
  B  B16  1  0.75000000  0.76976982  0.41817731  1
  B  B17  1  0.25000000  0.23023018  0.58182269  1
  B  B18  1  0.25000000  0.73023018  0.91817731  1
  B  B19  1  0.75000000  0.26976982  0.08182269  1
  B  B20  1  0.75000000  0.96261991  0.98216950  1
  B  B21  1  0.25000000  0.03738009  0.01783050  1
  B  B22  1  0.25000000  0.53738009  0.48216950  1
  B  B23  1  0.75000000  0.46261991  0.51783050  1
  B  B24  1  0.75000000  0.81282960  0.93358468  1
  B  B25  1  0.25000000  0.18717040  0.06641532  1
  B  B26  1  0.25000000  0.68717040  0.43358468  1
  B  B27  1  0.75000000  0.31282960  0.56641532  1
  B  B28  1  0.75000000  0.83368027  0.66689488  1
  B  B29  1  0.25000000  0.16631973  0.33310512  1
  B  B30  1  0.25000000  0.66631973  0.16689488  1
  B  B31  1  0.75000000  0.33368027  0.83310512  1
  Mo  Mo32  1  0.75000000  0.11773195  0.47305132  1
  Mo  Mo33  1  0.25000000  0.88226805  0.52694868  1
  Mo  Mo34  1  0.25000000  0.38226805  0.97305132  1
  Mo  Mo35  1  0.75000000  0.61773195  0.02694868  1
  Mo  Mo36  1  0.75000000  0.65977996  0.56367818  1
  Mo  Mo37  1  0.25000000  0.34022004  0.43632182  1
  Mo  Mo38  1  0.25000000  0.84022004  0.06367818  1
  Mo  Mo39  1  0.75000000  0.15977996  0.93632182  1
  Mo  Mo40  1  0.75000000  0.68485662  0.79835361  1
  Mo  Mo41  1  0.25000000  0.31514338  0.20164639  1
  Mo  Mo42  1  0.25000000  0.81514338  0.29835361  1
  Mo  Mo43  1  0.75000000  0.18485662  0.70164639  1
