# generated using pymatgen
data_Tb3PO7
_symmetry_space_group_name_H-M   'P 1'
_cell_length_a   9.04415267
_cell_length_b   9.04415267
_cell_length_c   12.03490756
_cell_angle_alpha   77.25644049
_cell_angle_beta   77.25644049
_cell_angle_gamma   90.58744061
_symmetry_Int_Tables_number   1
_chemical_formula_structural   Tb3PO7
_chemical_formula_sum   'Tb18 P6 O42'
_cell_volume   934.71769247
_cell_formula_units_Z   6
loop_
 _symmetry_equiv_pos_site_id
 _symmetry_equiv_pos_as_xyz
  1  'x, y, z'
loop_
 _atom_site_type_symbol
 _atom_site_label
 _atom_site_symmetry_multiplicity
 _atom_site_fract_x
 _atom_site_fract_y
 _atom_site_fract_z
 _atom_site_occupancy
  Tb  Tb0  1  0.67493914  0.98731622  0.91448988  1
  Tb  Tb1  1  0.98731622  0.67493914  0.91448988  1
  Tb  Tb2  1  0.31363468  0.70659053  0.68609103  1
  Tb  Tb3  1  0.70659053  0.31363468  0.68609103  1
  Tb  Tb4  1  0.32917459  0.67903180  0.99663517  1
  Tb  Tb5  1  0.67903180  0.32917459  0.99663517  1
  Tb  Tb6  1  0.34876884  0.03342824  0.79791974  1
  Tb  Tb7  1  0.03342824  0.34876884  0.79791974  1
  Tb  Tb8  1  0.33584525  0.98275620  0.13250702  1
  Tb  Tb9  1  0.98275620  0.33584525  0.13250702  1
  Tb  Tb10  1  0.68425951  0.03721007  0.23870347  1
  Tb  Tb11  1  0.03721007  0.68425951  0.23870347  1
  Tb  Tb12  1  0.67067951  0.98717543  0.57384124  1
  Tb  Tb13  1  0.98717543  0.67067951  0.57384124  1
  Tb  Tb14  1  0.34156385  0.69150838  0.37486598  1
  Tb  Tb15  1  0.69150838  0.34156385  0.37486598  1
  Tb  Tb16  1  0.34463120  0.03319936  0.45663206  1
  Tb  Tb17  1  0.03319936  0.34463120  0.45663206  1
  P  P18  1  0.34286528  0.34286528  0.95197485  1
  P  P19  1  0.01396388  0.01396388  0.36583306  1
  P  P20  1  0.67913441  0.67913441  0.41881468  1
  P  P21  1  0.67399133  0.67399133  0.79773768  1
  P  P22  1  0.00510042  0.00510042  0.00414689  1
  P  P23  1  0.34951409  0.34951409  0.57427226  1
  O  O24  1  0.61465179  0.06514795  0.74144658  1
  O  O25  1  0.06514795  0.61465179  0.74144658  1
  O  O26  1  0.57920902  0.57920902  0.36706551  1
  O  O27  1  0.30775795  0.30775795  0.46496628  1
  O  O28  1  0.50676373  0.70451237  0.79531432  1
  O  O29  1  0.70451237  0.50676373  0.79531432  1
  O  O30  1  0.30112459  0.71956354  0.18525639  1
  O  O31  1  0.71956354  0.30112459  0.18525639  1
  O  O32  1  0.44121350  0.44121350  0.00641079  1
  O  O33  1  0.57296383  0.77184451  0.49368326  1
  O  O34  1  0.77184451  0.57296383  0.49368326  1
  O  O35  1  0.91255893  0.91255893  0.47833720  1
  O  O36  1  0.40302528  0.95664620  0.62993633  1
  O  O37  1  0.95664620  0.40302528  0.62993633  1
  O  O38  1  0.78633130  0.78633130  0.30877848  1
  O  O39  1  0.10591678  0.10591678  0.89150890  1
  O  O40  1  0.21889233  0.79658338  0.84957642  1
  O  O41  1  0.79658338  0.21889233  0.84957642  1
  O  O42  1  0.58709614  0.08429331  0.07439477  1
  O  O43  1  0.08429331  0.58709614  0.07439477  1
  O  O44  1  0.70922624  0.70922624  0.91124890  1
  O  O45  1  0.43307858  0.93558334  0.29738248  1
  O  O46  1  0.93558334  0.43307858  0.29738248  1
  O  O47  1  0.12378120  0.12378120  0.39911054  1
  O  O48  1  0.24675100  0.24675100  0.68608902  1
  O  O49  1  0.78138531  0.78138531  0.69065204  1
  O  O50  1  0.89498767  0.89498767  0.97161619  1
  O  O51  1  0.23405610  0.23405610  0.05982697  1
  O  O52  1  0.45101643  0.25215276  0.87666275  1
  O  O53  1  0.25215276  0.45101643  0.87666275  1
  O  O54  1  0.51774170  0.31999729  0.57287039  1
  O  O55  1  0.31999729  0.51774170  0.57287039  1
  O  O56  1  0.42721460  0.91548159  0.96314078  1
  O  O57  1  0.91548159  0.42721460  0.96314078  1
  O  O58  1  0.59277659  0.10618104  0.40773253  1
  O  O59  1  0.10618104  0.59277659  0.40773253  1
  O  O60  1  0.22217170  0.80192329  0.52215705  1
  O  O61  1  0.80192329  0.22217170  0.52215705  1
  O  O62  1  0.11301919  0.91476571  0.29395993  1
  O  O63  1  0.91476571  0.11301919  0.29395993  1
  O  O64  1  0.10528505  0.90604498  0.07540532  1
  O  O65  1  0.90604498  0.10528505  0.07540532  1
