# generated using pymatgen
data_SrHfS3
_symmetry_space_group_name_H-M   'P 1'
_cell_length_a   6.78380922
_cell_length_b   7.11407120
_cell_length_c   9.77817324
_cell_angle_alpha   90.00000000
_cell_angle_beta   90.00000000
_cell_angle_gamma   90.00000000
_symmetry_Int_Tables_number   1
_chemical_formula_structural   SrHfS3
_chemical_formula_sum   'Sr4 Hf4 S12'
_cell_volume   471.89954723
_cell_formula_units_Z   4
loop_
 _symmetry_equiv_pos_site_id
 _symmetry_equiv_pos_as_xyz
  1  'x, y, z'
loop_
 _atom_site_type_symbol
 _atom_site_label
 _atom_site_symmetry_multiplicity
 _atom_site_fract_x
 _atom_site_fract_y
 _atom_site_fract_z
 _atom_site_occupancy
  Sr  Sr0  1  0.02255419  0.42639720  0.25000000  1
  Sr  Sr1  1  0.97744581  0.57360280  0.75000000  1
  Sr  Sr2  1  0.52255419  0.07360280  0.75000000  1
  Sr  Sr3  1  0.47744581  0.92639720  0.25000000  1
  Hf  Hf4  1  0.00000000  -0.00000000  0.00000000  1
  Hf  Hf5  1  0.50000000  0.50000000  0.00000000  1
  Hf  Hf6  1  0.00000000  -0.00000000  0.50000000  1
  Hf  Hf7  1  0.50000000  0.50000000  0.50000000  1
  S  S8  1  0.30218544  0.20128757  0.04804750  1
  S  S9  1  0.69781456  0.79871243  0.95195250  1
  S  S10  1  0.80218544  0.29871243  0.95195250  1
  S  S11  1  0.69781456  0.79871243  0.54804750  1
  S  S12  1  0.19781456  0.70128757  0.04804750  1
  S  S13  1  0.30218544  0.20128757  0.45195250  1
  S  S14  1  0.19781456  0.70128757  0.45195250  1
  S  S15  1  0.80218544  0.29871243  0.54804750  1
  S  S16  1  0.59337862  0.52007289  0.25000000  1
  S  S17  1  0.40662138  0.47992711  0.75000000  1
  S  S18  1  0.09337862  0.97992711  0.75000000  1
  S  S19  1  0.90662138  0.02007289  0.25000000  1
