# generated using pymatgen
data_TaTiZn(PO4)3
_symmetry_space_group_name_H-M   'P 1'
_cell_length_a   9.34432215
_cell_length_b   9.34432216
_cell_length_c   9.34432209
_cell_angle_alpha   54.24760772
_cell_angle_beta   54.24760976
_cell_angle_gamma   54.24761108
_symmetry_Int_Tables_number   1
_chemical_formula_structural   TaTiZn(PO4)3
_chemical_formula_sum   'Ta2 Ti2 Zn2 P6 O24'
_cell_volume   499.49031090
_cell_formula_units_Z   2
loop_
 _symmetry_equiv_pos_site_id
 _symmetry_equiv_pos_as_xyz
  1  'x, y, z'
loop_
 _atom_site_type_symbol
 _atom_site_label
 _atom_site_symmetry_multiplicity
 _atom_site_fract_x
 _atom_site_fract_y
 _atom_site_fract_z
 _atom_site_occupancy
  Ta  Ta0  1  0.35087107  0.35087107  0.35087107  1
  Ta  Ta1  1  0.85087107  0.85087107  0.85087107  1
  Ti  Ti2  1  0.15088452  0.15088452  0.15088452  1
  Ti  Ti3  1  0.65088452  0.65088452  0.65088452  1
  Zn  Zn4  1  0.00300968  0.00300968  0.00300968  1
  Zn  Zn5  1  0.50300968  0.50300968  0.50300968  1
  P  P6  1  0.02800080  0.46196089  0.75781919  1
  P  P7  1  0.46196089  0.75781919  0.02800080  1
  P  P8  1  0.75781919  0.02800080  0.46196089  1
  P  P9  1  0.25781919  0.96196089  0.52800080  1
  P  P10  1  0.52800080  0.25781919  0.96196089  1
  P  P11  1  0.96196089  0.52800080  0.25781919  1
  O  O12  1  0.14279889  0.50744810  0.25242185  1
  O  O13  1  0.25242185  0.14279889  0.50744810  1
  O  O14  1  0.07230311  0.29656309  0.93311858  1
  O  O15  1  0.50744810  0.25242185  0.14279889  1
  O  O16  1  0.00744810  0.64279889  0.75242185  1
  O  O17  1  0.19479457  0.42778024  0.57231886  1
  O  O18  1  0.29656309  0.93311858  0.07230311  1
  O  O19  1  0.42778024  0.57231886  0.19479457  1
  O  O20  1  0.25965997  0.98905112  0.34919548  1
  O  O21  1  0.57231886  0.19479457  0.42778024  1
  O  O22  1  0.07231886  0.92778024  0.69479457  1
  O  O23  1  0.34919548  0.25965997  0.98905112  1
  O  O24  1  0.64279889  0.75242185  0.00744810  1
  O  O25  1  0.93311858  0.07230311  0.29656309  1
  O  O26  1  0.43311858  0.79656309  0.57230311  1
  O  O27  1  0.75242185  0.00744810  0.64279889  1
  O  O28  1  0.57230311  0.43311858  0.79656309  1
  O  O29  1  0.69479457  0.07231886  0.92778024  1
  O  O30  1  0.79656309  0.57230311  0.43311858  1
  O  O31  1  0.98905112  0.34919548  0.25965997  1
  O  O32  1  0.48905112  0.75965997  0.84919548  1
  O  O33  1  0.92778024  0.69479457  0.07231886  1
  O  O34  1  0.75965997  0.84919548  0.48905112  1
  O  O35  1  0.84919548  0.48905112  0.75965997  1
