# generated using pymatgen
data_SmGaGe2O7
_symmetry_space_group_name_H-M   'P 1'
_cell_length_a   6.64122208
_cell_length_b   7.32837274
_cell_length_c   11.56162233
_cell_angle_alpha   96.39435844
_cell_angle_beta   90.00000000
_cell_angle_gamma   90.00000000
_symmetry_Int_Tables_number   1
_chemical_formula_structural   SmGaGe2O7
_chemical_formula_sum   'Sm4 Ga4 Ge8 O28'
_cell_volume   559.19605604
_cell_formula_units_Z   4
loop_
 _symmetry_equiv_pos_site_id
 _symmetry_equiv_pos_as_xyz
  1  'x, y, z'
loop_
 _atom_site_type_symbol
 _atom_site_label
 _atom_site_symmetry_multiplicity
 _atom_site_fract_x
 _atom_site_fract_y
 _atom_site_fract_z
 _atom_site_occupancy
  Sm  Sm0  1  0.64530045  0.73213017  0.47345029  1
  Sm  Sm1  1  0.35469955  0.26786983  0.52654971  1
  Sm  Sm2  1  0.14530045  0.76786983  0.02654971  1
  Sm  Sm3  1  0.85469955  0.23213017  0.97345029  1
  Ga  Ga4  1  0.60028359  0.01711285  0.73099785  1
  Ga  Ga5  1  0.39971641  0.98288715  0.26900215  1
  Ga  Ga6  1  0.10028359  0.48288715  0.76900215  1
  Ga  Ga7  1  0.89971641  0.51711285  0.23099785  1
  Ge  Ge8  1  0.34090449  0.24031023  0.95426090  1
  Ge  Ge9  1  0.65909551  0.75968977  0.04573910  1
  Ge  Ge10  1  0.84090449  0.25968977  0.54573910  1
  Ge  Ge11  1  0.15909551  0.74031023  0.45426090  1
  Ge  Ge12  1  0.08856794  0.91876986  0.71883030  1
  Ge  Ge13  1  0.91143206  0.08123014  0.28116970  1
  Ge  Ge14  1  0.58856794  0.58123014  0.78116970  1
  Ge  Ge15  1  0.41143206  0.41876986  0.21883030  1
  O  O16  1  0.62681366  0.76174551  0.69297559  1
  O  O17  1  0.37318634  0.23825449  0.30702441  1
  O  O18  1  0.12681366  0.73825449  0.80702441  1
  O  O19  1  0.87318634  0.26174551  0.19297559  1
  O  O20  1  0.17414923  0.06853224  0.97801502  1
  O  O21  1  0.82585077  0.93146776  0.02198498  1
  O  O22  1  0.67414923  0.43146776  0.52198498  1
  O  O23  1  0.32585077  0.56853224  0.47801502  1
  O  O24  1  0.39068009  0.44200714  0.71963311  1
  O  O25  1  0.60931991  0.55799286  0.28036689  1
  O  O26  1  0.89068009  0.05799286  0.78036689  1
  O  O27  1  0.10931991  0.94200714  0.21963311  1
  O  O28  1  0.00004677  0.82486306  0.57469734  1
  O  O29  1  -0.00004677  0.17513694  0.42530266  1
  O  O30  1  0.50004677  0.67513694  0.92530266  1
  O  O31  1  0.49995323  0.32486306  0.07469734  1
  O  O32  1  0.55410362  0.16638192  0.87073841  1
  O  O33  1  0.44589638  0.83361808  0.12926159  1
  O  O34  1  0.05410362  0.33361808  0.62926159  1
  O  O35  1  0.94589638  0.66638192  0.37073841  1
  O  O36  1  0.15873516  0.40857036  0.92090807  1
  O  O37  1  0.84126484  0.59142964  0.07909193  1
  O  O38  1  0.65873516  0.09142964  0.57909193  1
  O  O39  1  0.34126484  0.90857036  0.42090807  1
  O  O40  1  0.31210915  0.03117909  0.68462406  1
  O  O41  1  0.68789085  0.96882091  0.31537594  1
  O  O42  1  0.81210915  0.46882091  0.81537594  1
  O  O43  1  0.18789085  0.53117909  0.18462406  1
