# generated using pymatgen
data_SrCoF5
_symmetry_space_group_name_H-M   'P 1'
_cell_length_a   7.06136172
_cell_length_b   7.35619541
_cell_length_c   14.92272676
_cell_angle_alpha   90.00000000
_cell_angle_beta   94.52930200
_cell_angle_gamma   90.00000000
_symmetry_Int_Tables_number   1
_chemical_formula_structural   SrCoF5
_chemical_formula_sum   'Sr8 Co8 F40'
_cell_volume   772.73665425
_cell_formula_units_Z   8
loop_
 _symmetry_equiv_pos_site_id
 _symmetry_equiv_pos_as_xyz
  1  'x, y, z'
loop_
 _atom_site_type_symbol
 _atom_site_label
 _atom_site_symmetry_multiplicity
 _atom_site_fract_x
 _atom_site_fract_y
 _atom_site_fract_z
 _atom_site_occupancy
  Sr  Sr0  1  0.00307531  0.65456538  0.13549008  1
  Sr  Sr1  1  0.99692469  0.34543462  0.86450992  1
  Sr  Sr2  1  0.99692469  0.15456538  0.36450992  1
  Sr  Sr3  1  0.00307531  0.84543462  0.63549008  1
  Sr  Sr4  1  0.69025541  0.15770746  0.08602493  1
  Sr  Sr5  1  0.30974459  0.84229254  0.91397507  1
  Sr  Sr6  1  0.30974459  0.65770746  0.41397507  1
  Sr  Sr7  1  0.69025541  0.34229254  0.58602493  1
  Co  Co8  1  0.49352704  0.12157596  0.33725654  1
  Co  Co9  1  0.50647296  0.87842404  0.66274346  1
  Co  Co10  1  0.50647296  0.62157596  0.16274346  1
  Co  Co11  1  0.49352704  0.37842404  0.83725654  1
  Co  Co12  1  0.19144547  0.18404663  0.12641937  1
  Co  Co13  1  0.80855453  0.81595337  0.87358063  1
  Co  Co14  1  0.80855453  0.68404663  0.37358063  1
  Co  Co15  1  0.19144547  0.31595337  0.62641937  1
  F  F16  1  0.32040462  0.69578423  0.06757164  1
  F  F17  1  0.67959538  0.30421577  0.93242836  1
  F  F18  1  0.67959538  0.19578423  0.43242836  1
  F  F19  1  0.32040462  0.80421577  0.56757164  1
  F  F20  1  0.34436169  0.08298976  0.04097598  1
  F  F21  1  0.65563831  0.91701024  0.95902402  1
  F  F22  1  0.65563831  0.58298976  0.45902402  1
  F  F23  1  0.34436169  0.41701024  0.54097598  1
  F  F24  1  0.00259106  0.50861374  0.61003518  1
  F  F25  1  0.99740894  0.49138626  0.38996482  1
  F  F26  1  0.99740894  0.00861374  0.88996482  1
  F  F27  1  0.00259106  0.99138626  0.11003518  1
  F  F28  1  0.03257234  0.30368462  0.20659405  1
  F  F29  1  0.96742766  0.69631538  0.79340595  1
  F  F30  1  0.96742766  0.80368462  0.29340595  1
  F  F31  1  0.03257234  0.19631538  0.70659405  1
  F  F32  1  0.31454321  0.05260485  0.22816614  1
  F  F33  1  0.68545679  0.94739515  0.77183386  1
  F  F34  1  0.68545679  0.55260485  0.27183386  1
  F  F35  1  0.31454321  0.44739515  0.72816614  1
  F  F36  1  0.04272419  0.31996792  0.03441854  1
  F  F37  1  0.95727581  0.68003208  0.96558146  1
  F  F38  1  0.95727581  0.81996792  0.46558146  1
  F  F39  1  0.04272419  0.18003208  0.53441854  1
  F  F40  1  0.34288789  0.32958520  0.35086851  1
  F  F41  1  0.65711211  0.67041480  0.64913149  1
  F  F42  1  0.65711211  0.82958520  0.14913149  1
  F  F43  1  0.34288789  0.17041480  0.85086851  1
  F  F44  1  0.68363596  0.16126499  0.25946638  1
  F  F45  1  0.31636404  0.83873501  0.74053362  1
  F  F46  1  0.31636404  0.66126499  0.24053362  1
  F  F47  1  0.68363596  0.33873501  0.75946638  1
  F  F48  1  0.69518697  0.50117171  0.09841551  1
  F  F49  1  0.30481303  0.49882829  0.90158449  1
  F  F50  1  0.30481303  0.00117171  0.40158449  1
  F  F51  1  0.69518697  0.99882829  0.59841551  1
  F  F52  1  0.39394101  0.36601291  0.14674128  1
  F  F53  1  0.60605899  0.63398709  0.85325872  1
  F  F54  1  0.60605899  0.86601291  0.35325872  1
  F  F55  1  0.39394101  0.13398709  0.64674128  1
