# generated using pymatgen
data_SmCrGeO5
_symmetry_space_group_name_H-M   'P 1'
_cell_length_a   5.84069795
_cell_length_b   7.51602953
_cell_length_c   8.58035185
_cell_angle_alpha   90.00000000
_cell_angle_beta   90.00000000
_cell_angle_gamma   90.00000000
_symmetry_Int_Tables_number   1
_chemical_formula_structural   SmCrGeO5
_chemical_formula_sum   'Sm4 Cr4 Ge4 O20'
_cell_volume   376.66764975
_cell_formula_units_Z   4
loop_
 _symmetry_equiv_pos_site_id
 _symmetry_equiv_pos_as_xyz
  1  'x, y, z'
loop_
 _atom_site_type_symbol
 _atom_site_label
 _atom_site_symmetry_multiplicity
 _atom_site_fract_x
 _atom_site_fract_y
 _atom_site_fract_z
 _atom_site_occupancy
  Sm  Sm0  1  0.50000000  0.35934174  0.32591734  1
  Sm  Sm1  1  0.50000000  0.64065826  0.67408266  1
  Sm  Sm2  1  0.50000000  0.14065826  0.82591734  1
  Sm  Sm3  1  0.50000000  0.85934174  0.17408266  1
  Cr  Cr4  1  0.24816888  -0.00000000  0.50000000  1
  Cr  Cr5  1  0.75183112  -0.00000000  0.50000000  1
  Cr  Cr6  1  0.75183112  0.50000000  0.00000000  1
  Cr  Cr7  1  0.24816888  0.50000000  0.00000000  1
  Ge  Ge8  1  -0.00000000  0.11640247  0.14352423  1
  Ge  Ge9  1  0.00000000  0.88359753  0.85647577  1
  Ge  Ge10  1  -0.00000000  0.38359753  0.64352423  1
  Ge  Ge11  1  0.00000000  0.61640247  0.35647577  1
  O  O12  1  0.24588568  0.10724631  0.28192521  1
  O  O13  1  0.75411432  0.89275369  0.71807479  1
  O  O14  1  0.24588568  0.89275369  0.71807479  1
  O  O15  1  0.75411432  0.39275369  0.78192521  1
  O  O16  1  0.75411432  0.10724631  0.28192521  1
  O  O17  1  0.24588568  0.60724631  0.21807479  1
  O  O18  1  0.75411432  0.60724631  0.21807479  1
  O  O19  1  0.24588568  0.39275369  0.78192521  1
  O  O20  1  0.00000000  0.34060433  0.07862526  1
  O  O21  1  0.00000000  0.65939567  0.92137474  1
  O  O22  1  -0.00000000  0.15939567  0.57862526  1
  O  O23  1  -0.00000000  0.84060433  0.42137474  1
  O  O24  1  0.50000000  0.33406412  0.05427975  1
  O  O25  1  0.50000000  0.66593588  0.94572025  1
  O  O26  1  0.50000000  0.16593588  0.55427975  1
  O  O27  1  0.50000000  0.83406412  0.44572025  1
  O  O28  1  0.20886311  -0.00000000  0.00000000  1
  O  O29  1  0.79113689  -0.00000000  0.00000000  1
  O  O30  1  0.79113689  0.50000000  0.50000000  1
  O  O31  1  0.20886311  0.50000000  0.50000000  1
