# generated using pymatgen
data_SmGePd
_symmetry_space_group_name_H-M   'P 1'
_cell_length_a   4.48867221
_cell_length_b   21.54993157
_cell_length_c   7.64886445
_cell_angle_alpha   90.00000000
_cell_angle_beta   90.00000000
_cell_angle_gamma   90.00000000
_symmetry_Int_Tables_number   1
_chemical_formula_structural   SmGePd
_chemical_formula_sum   'Sm12 Ge12 Pd12'
_cell_volume   739.87908668
_cell_formula_units_Z   12
loop_
 _symmetry_equiv_pos_site_id
 _symmetry_equiv_pos_as_xyz
  1  'x, y, z'
loop_
 _atom_site_type_symbol
 _atom_site_label
 _atom_site_symmetry_multiplicity
 _atom_site_fract_x
 _atom_site_fract_y
 _atom_site_fract_z
 _atom_site_occupancy
  Sm  Sm0  1  0.75000000  0.66682689  0.29087178  1
  Sm  Sm1  1  0.25000000  0.33317311  0.70912822  1
  Sm  Sm2  1  0.25000000  0.83317311  0.79087178  1
  Sm  Sm3  1  0.75000000  0.16682689  0.20912822  1
  Sm  Sm4  1  0.75000000  0.83397472  0.21122589  1
  Sm  Sm5  1  0.25000000  0.16602528  0.78877411  1
  Sm  Sm6  1  0.25000000  0.66602528  0.71122589  1
  Sm  Sm7  1  0.75000000  0.33397472  0.28877411  1
  Sm  Sm8  1  0.75000000  0.99883826  0.28455978  1
  Sm  Sm9  1  0.25000000  0.00116174  0.71544022  1
  Sm  Sm10  1  0.25000000  0.50116174  0.78455978  1
  Sm  Sm11  1  0.75000000  0.49883826  0.21544022  1
  Ge  Ge12  1  0.75000000  0.92882624  0.91249639  1
  Ge  Ge13  1  0.25000000  0.07117376  0.08750361  1
  Ge  Ge14  1  0.25000000  0.57117376  0.41249639  1
  Ge  Ge15  1  0.75000000  0.42882624  0.58750361  1
  Ge  Ge16  1  0.75000000  0.73039763  0.91675083  1
  Ge  Ge17  1  0.25000000  0.26960237  0.08324917  1
  Ge  Ge18  1  0.25000000  0.76960237  0.41675083  1
  Ge  Ge19  1  0.75000000  0.23039763  0.58324917  1
  Ge  Ge20  1  0.75000000  0.60207895  0.91180483  1
  Ge  Ge21  1  0.25000000  0.39792105  0.08819517  1
  Ge  Ge22  1  0.25000000  0.89792105  0.41180483  1
  Ge  Ge23  1  0.75000000  0.10207895  0.58819517  1
  Pd  Pd24  1  0.75000000  0.76260107  0.58423865  1
  Pd  Pd25  1  0.25000000  0.23739893  0.41576135  1
  Pd  Pd26  1  0.25000000  0.73739893  0.08423865  1
  Pd  Pd27  1  0.75000000  0.26260107  0.91576135  1
  Pd  Pd28  1  0.75000000  0.56514738  0.58283203  1
  Pd  Pd29  1  0.25000000  0.43485262  0.41716797  1
  Pd  Pd30  1  0.25000000  0.93485262  0.08283203  1
  Pd  Pd31  1  0.75000000  0.06514738  0.91716797  1
  Pd  Pd32  1  0.75000000  0.90648345  0.58049036  1
  Pd  Pd33  1  0.25000000  0.09351655  0.41950964  1
  Pd  Pd34  1  0.25000000  0.59351655  0.08049036  1
  Pd  Pd35  1  0.75000000  0.40648345  0.91950964  1
