# generated using pymatgen
data_Tb(ClO4)3
_symmetry_space_group_name_H-M   'P 1'
_cell_length_a   5.70442590
_cell_length_b   9.44575737
_cell_length_c   9.44575737
_cell_angle_alpha   120.00000511
_cell_angle_beta   90.00000000
_cell_angle_gamma   90.00000000
_symmetry_Int_Tables_number   1
_chemical_formula_structural   Tb(ClO4)3
_chemical_formula_sum   'Tb2 Cl6 O24'
_cell_volume   440.77415744
_cell_formula_units_Z   2
loop_
 _symmetry_equiv_pos_site_id
 _symmetry_equiv_pos_as_xyz
  1  'x, y, z'
loop_
 _atom_site_type_symbol
 _atom_site_label
 _atom_site_symmetry_multiplicity
 _atom_site_fract_x
 _atom_site_fract_y
 _atom_site_fract_z
 _atom_site_occupancy
  Tb  Tb0  1  0.75000000  0.33333300  0.66666700  1
  Tb  Tb1  1  0.25000000  0.66666700  0.33333300  1
  Cl  Cl2  1  0.75000000  0.90923699  0.29775526  1
  Cl  Cl3  1  0.25000000  0.09076301  0.70224474  1
  Cl  Cl4  1  0.75000000  0.38851828  0.09076301  1
  Cl  Cl5  1  0.25000000  0.61148172  0.90923699  1
  Cl  Cl6  1  0.75000000  0.70224474  0.61148172  1
  Cl  Cl7  1  0.25000000  0.29775526  0.38851828  1
  O  O8  1  0.95689380  0.85511392  0.35094600  1
  O  O9  1  0.04310620  0.14488608  0.64905400  1
  O  O10  1  0.95689380  0.49583208  0.14488608  1
  O  O11  1  0.45689380  0.14488608  0.64905400  1
  O  O12  1  0.04310620  0.50416792  0.85511392  1
  O  O13  1  0.54310620  0.85511392  0.35094600  1
  O  O14  1  0.95689380  0.64905400  0.50416792  1
  O  O15  1  0.45689380  0.50416792  0.85511392  1
  O  O16  1  0.04310620  0.35094600  0.49583208  1
  O  O17  1  0.54310620  0.49583208  0.14488608  1
  O  O18  1  0.45689380  0.35094600  0.49583208  1
  O  O19  1  0.54310620  0.64905400  0.50416792  1
  O  O20  1  0.75000000  0.84709237  0.12587066  1
  O  O21  1  0.25000000  0.15290763  0.87412934  1
  O  O22  1  0.75000000  0.27877830  0.15290763  1
  O  O23  1  0.25000000  0.72122170  0.84709237  1
  O  O24  1  0.75000000  0.87412934  0.72122170  1
  O  O25  1  0.25000000  0.12587066  0.27877830  1
  O  O26  1  0.75000000  0.61472884  0.70226587  1
  O  O27  1  0.25000000  0.38527116  0.29773413  1
  O  O28  1  0.75000000  0.08753703  0.38527116  1
  O  O29  1  0.25000000  0.91246297  0.61472884  1
  O  O30  1  0.75000000  0.29773413  0.91246297  1
  O  O31  1  0.25000000  0.70226587  0.08753703  1
