# generated using pymatgen
data_Sr2ScNbO6
_symmetry_space_group_name_H-M   'P 1'
_cell_length_a   5.76486487
_cell_length_b   5.76668442
_cell_length_c   8.13865657
_cell_angle_alpha   89.92385536
_cell_angle_beta   90.00000000
_cell_angle_gamma   90.00000000
_symmetry_Int_Tables_number   1
_chemical_formula_structural   Sr2ScNbO6
_chemical_formula_sum   'Sr4 Sc2 Nb2 O12'
_cell_volume   270.56253294
_cell_formula_units_Z   2
loop_
 _symmetry_equiv_pos_site_id
 _symmetry_equiv_pos_as_xyz
  1  'x, y, z'
loop_
 _atom_site_type_symbol
 _atom_site_label
 _atom_site_symmetry_multiplicity
 _atom_site_fract_x
 _atom_site_fract_y
 _atom_site_fract_z
 _atom_site_occupancy
  Sr  Sr0  1  0.51599457  0.99667895  0.74975965  1
  Sr  Sr1  1  0.48400543  0.00332105  0.25024035  1
  Sr  Sr2  1  0.01599457  0.50332105  0.75024035  1
  Sr  Sr3  1  0.98400543  0.49667895  0.24975965  1
  Sc  Sc4  1  -0.00000000  -0.00000000  0.00000000  1
  Sc  Sc5  1  0.50000000  0.50000000  0.50000000  1
  Nb  Nb6  1  -0.00000000  -0.00000000  0.50000000  1
  Nb  Nb7  1  0.50000000  0.50000000  0.00000000  1
  O  O8  1  0.28028372  0.76860510  0.96910764  1
  O  O9  1  0.71971628  0.23139490  0.03089236  1
  O  O10  1  0.78028372  0.73139490  0.53089236  1
  O  O11  1  0.21971628  0.26860510  0.46910764  1
  O  O12  1  0.99108579  0.05974109  0.74401822  1
  O  O13  1  0.00891421  0.94025891  0.25598178  1
  O  O14  1  0.49108579  0.44025891  0.75598178  1
  O  O15  1  0.50891421  0.55974109  0.24401822  1
  O  O16  1  0.76951165  0.71902656  0.96850534  1
  O  O17  1  0.23048835  0.28097344  0.03149466  1
  O  O18  1  0.26951165  0.78097344  0.53149466  1
  O  O19  1  0.73048835  0.21902656  0.46850534  1
