# generated using pymatgen
data_Sr2HoBiO6
_symmetry_space_group_name_H-M   'P 1'
_cell_length_a   5.92669908
_cell_length_b   6.10160979
_cell_length_c   8.47261571
_cell_angle_alpha   90.00000000
_cell_angle_beta   89.98117674
_cell_angle_gamma   90.00000000
_symmetry_Int_Tables_number   1
_chemical_formula_structural   Sr2HoBiO6
_chemical_formula_sum   'Sr4 Ho2 Bi2 O12'
_cell_volume   306.39014546
_cell_formula_units_Z   2
loop_
 _symmetry_equiv_pos_site_id
 _symmetry_equiv_pos_as_xyz
  1  'x, y, z'
loop_
 _atom_site_type_symbol
 _atom_site_label
 _atom_site_symmetry_multiplicity
 _atom_site_fract_x
 _atom_site_fract_y
 _atom_site_fract_z
 _atom_site_occupancy
  Sr  Sr0  1  0.01288289  0.45217521  0.25231788  1
  Sr  Sr1  1  0.98711711  0.54782479  0.74768212  1
  Sr  Sr2  1  0.48711711  0.95217521  0.24768212  1
  Sr  Sr3  1  0.51288289  0.04782479  0.75231788  1
  Ho  Ho4  1  -0.00000000  -0.00000000  0.50000000  1
  Ho  Ho5  1  0.50000000  0.50000000  0.00000000  1
  Bi  Bi6  1  -0.00000000  -0.00000000  0.00000000  1
  Bi  Bi7  1  0.50000000  0.50000000  0.50000000  1
  O  O8  1  0.90503880  0.03775438  0.24371465  1
  O  O9  1  0.09496120  0.96224562  0.75628535  1
  O  O10  1  0.59496120  0.53775438  0.25628535  1
  O  O11  1  0.40503880  0.46224562  0.74371465  1
  O  O12  1  0.19804022  0.71279122  0.05370453  1
  O  O13  1  0.80195978  0.28720878  0.94629547  1
  O  O14  1  0.30195978  0.21279122  0.44629547  1
  O  O15  1  0.69804022  0.78720878  0.55370453  1
  O  O16  1  0.29146150  0.19987521  0.04653494  1
  O  O17  1  0.70853850  0.80012479  0.95346506  1
  O  O18  1  0.20853850  0.69987521  0.45346506  1
  O  O19  1  0.79146150  0.30012479  0.54653494  1
