# generated using pymatgen
data_Sr3Ga2Cl2O5
_symmetry_space_group_name_H-M   'P 1'
_cell_length_a   9.66967317
_cell_length_b   9.66755174
_cell_length_c   9.67897058
_cell_angle_alpha   90.00000000
_cell_angle_beta   90.05775367
_cell_angle_gamma   90.00000000
_symmetry_Int_Tables_number   1
_chemical_formula_structural   Sr3Ga2Cl2O5
_chemical_formula_sum   'Sr12 Ga8 Cl8 O20'
_cell_volume   904.80970357
_cell_formula_units_Z   4
loop_
 _symmetry_equiv_pos_site_id
 _symmetry_equiv_pos_as_xyz
  1  'x, y, z'
loop_
 _atom_site_type_symbol
 _atom_site_label
 _atom_site_symmetry_multiplicity
 _atom_site_fract_x
 _atom_site_fract_y
 _atom_site_fract_z
 _atom_site_occupancy
  Sr  Sr0  1  0.58373586  0.49834678  0.00147882  1
  Sr  Sr1  1  0.41626414  0.99834678  0.99852118  1
  Sr  Sr2  1  0.08342080  0.06490345  0.49815685  1
  Sr  Sr3  1  0.91657920  0.56490345  0.50184315  1
  Sr  Sr4  1  0.00370189  0.30336395  0.83288339  1
  Sr  Sr5  1  0.99629811  0.80336395  0.16711661  1
  Sr  Sr6  1  0.72846340  0.11627079  0.26715208  1
  Sr  Sr7  1  0.27153660  0.61627079  0.73284792  1
  Sr  Sr8  1  0.50361751  0.26125695  0.66733719  1
  Sr  Sr9  1  0.49638249  0.76125695  0.33266281  1
  Sr  Sr10  1  0.22839056  0.44788755  0.23284293  1
  Sr  Sr11  1  0.77160944  0.94788755  0.76715707  1
  Ga  Ga12  1  0.89715888  0.44019579  0.14466707  1
  Ga  Ga13  1  0.10284112  0.94019579  0.85533293  1
  Ga  Ga14  1  0.09444963  0.13800621  0.15661614  1
  Ga  Ga15  1  0.90555037  0.63800621  0.84338386  1
  Ga  Ga16  1  0.39695892  0.12421842  0.35554070  1
  Ga  Ga17  1  0.60304108  0.62421842  0.64445930  1
  Ga  Ga18  1  0.59429825  0.42687128  0.34247513  1
  Ga  Ga19  1  0.40570175  0.92687128  0.65752487  1
  Cl  Cl20  1  0.28447006  0.69622813  0.05113324  1
  Cl  Cl21  1  0.71552994  0.19622813  0.94886676  1
  Cl  Cl22  1  0.17112515  0.75551285  0.43655091  1
  Cl  Cl23  1  0.82887485  0.25551285  0.56344909  1
  Cl  Cl24  1  0.32744050  0.30970444  0.93404771  1
  Cl  Cl25  1  0.67255950  0.80970444  0.06595229  1
  Cl  Cl26  1  0.21386832  0.36908279  0.54958744  1
  Cl  Cl27  1  0.78613168  0.86908279  0.45041256  1
  O  O28  1  0.33899537  0.05104210  0.52594003  1
  O  O29  1  0.66100463  0.55104210  0.47405997  1
  O  O30  1  0.00924180  0.06039281  0.74291681  1
  O  O31  1  0.99075820  0.56039281  0.25708319  1
  O  O32  1  0.49145046  0.00474513  0.24318456  1
  O  O33  1  0.50854954  0.50474513  0.75681544  1
  O  O34  1  0.16043789  0.01326988  0.02598789  1
  O  O35  1  0.83956211  0.51326988  0.97401211  1
  O  O36  1  0.02943466  0.54117019  0.73754429  1
  O  O37  1  0.97056534  0.04117019  0.26245571  1
  O  O38  1  0.23654461  0.19461733  0.27713947  1
  O  O39  1  0.76345539  0.69461733  0.72286053  1
  O  O40  1  0.73584417  0.37005251  0.22188486  1
  O  O41  1  0.26415583  0.87005251  0.77811514  1
  O  O42  1  0.53005102  0.25720108  0.41038350  1
  O  O43  1  0.46994898  0.75720108  0.58961650  1
  O  O44  1  0.03114153  0.30815338  0.08943843  1
  O  O45  1  0.96885847  0.80815338  0.91056157  1
  O  O46  1  0.47089249  0.52390622  0.23645822  1
  O  O47  1  0.52910751  0.02390622  0.76354178  1
