# generated using pymatgen
data_RbWCl6
_symmetry_space_group_name_H-M   'P 1'
_cell_length_a   6.42454685
_cell_length_b   6.89327222
_cell_length_c   12.38665792
_cell_angle_alpha   100.62012540
_cell_angle_beta   90.00000000
_cell_angle_gamma   117.77503530
_symmetry_Int_Tables_number   1
_chemical_formula_structural   RbWCl6
_chemical_formula_sum   'Rb2 W2 Cl12'
_cell_volume   474.70905449
_cell_formula_units_Z   2
loop_
 _symmetry_equiv_pos_site_id
 _symmetry_equiv_pos_as_xyz
  1  'x, y, z'
loop_
 _atom_site_type_symbol
 _atom_site_label
 _atom_site_symmetry_multiplicity
 _atom_site_fract_x
 _atom_site_fract_y
 _atom_site_fract_z
 _atom_site_occupancy
  Rb  Rb0  1  0.88112198  1.00000000  0.75000000  1
  Rb  Rb1  1  0.11887802  0.00000000  0.25000000  1
  W  W2  1  0.50000000  0.50000000  0.00000000  1
  W  W3  1  0.00000000  0.50000000  0.50000000  1
  Cl  Cl4  1  0.46289886  0.16160197  0.89653821  1
  Cl  Cl5  1  0.53710114  0.83839803  0.10346179  1
  Cl  Cl6  1  0.30129689  0.83839803  0.60346179  1
  Cl  Cl7  1  0.69870311  0.16160197  0.39653821  1
  Cl  Cl8  1  0.37052717  0.57158867  0.84142771  1
  Cl  Cl9  1  0.62947283  0.42841133  0.15857229  1
  Cl  Cl10  1  0.79893850  0.42841133  0.65857229  1
  Cl  Cl11  1  0.20106150  0.57158867  0.34142771  1
  Cl  Cl12  1  0.79506150  0.68860872  0.45966308  1
  Cl  Cl13  1  0.20493850  0.31139128  0.54033692  1
  Cl  Cl14  1  0.10645278  0.31139128  0.04033692  1
  Cl  Cl15  1  0.89354722  0.68860872  0.95966308  1
