# generated using pymatgen
data_Sr2B5BrO9
_symmetry_space_group_name_H-M   'P 1'
_cell_length_a   6.53190700
_cell_length_b   11.61048428
_cell_length_c   11.70426251
_cell_angle_alpha   90.00000000
_cell_angle_beta   90.00000000
_cell_angle_gamma   90.00000000
_symmetry_Int_Tables_number   1
_chemical_formula_structural   Sr2B5BrO9
_chemical_formula_sum   'Sr8 B20 Br4 O36'
_cell_volume   887.63492425
_cell_formula_units_Z   4
loop_
 _symmetry_equiv_pos_site_id
 _symmetry_equiv_pos_as_xyz
  1  'x, y, z'
loop_
 _atom_site_type_symbol
 _atom_site_label
 _atom_site_symmetry_multiplicity
 _atom_site_fract_x
 _atom_site_fract_y
 _atom_site_fract_z
 _atom_site_occupancy
  Sr  Sr0  1  0.14970792  0.03916888  0.74955183  1
  Sr  Sr1  1  0.14970792  0.96083112  0.25044817  1
  Sr  Sr2  1  0.64970792  0.53916888  0.75044817  1
  Sr  Sr3  1  0.64970792  0.46083112  0.24955183  1
  Sr  Sr4  1  0.31431966  0.25793160  0.46795338  1
  Sr  Sr5  1  0.31431966  0.74206840  0.53204662  1
  Sr  Sr6  1  0.81431966  0.75793160  0.03204662  1
  Sr  Sr7  1  0.81431966  0.24206840  0.96795338  1
  B  B8  1  0.31498598  0.71786645  0.19475166  1
  B  B9  1  0.31498598  0.28213355  0.80524834  1
  B  B10  1  0.81498598  0.21786645  0.30524834  1
  B  B11  1  0.81498598  0.78213355  0.69475166  1
  B  B12  1  0.35177534  0.24990968  0.02776569  1
  B  B13  1  0.35177534  0.75009032  0.97223431  1
  B  B14  1  0.85177534  0.74990968  0.47223431  1
  B  B15  1  0.85177534  0.25009032  0.52776569  1
  B  B16  1  0.18804264  0.51480543  0.23492556  1
  B  B17  1  0.18804264  0.48519457  0.76507444  1
  B  B18  1  0.68804264  0.01480543  0.26507444  1
  B  B19  1  0.68804264  0.98519457  0.73492556  1
  B  B20  1  0.45995909  0.18079422  0.22381415  1
  B  B21  1  0.45995909  0.81920578  0.77618585  1
  B  B22  1  0.95995909  0.68079422  0.27618585  1
  B  B23  1  0.95995909  0.31920578  0.72381415  1
  B  B24  1  0.13316235  0.29055827  0.19512575  1
  B  B25  1  0.13316235  0.70944173  0.80487425  1
  B  B26  1  0.63316235  0.79055827  0.30487425  1
  B  B27  1  0.63316235  0.20944173  0.69512575  1
  Br  Br28  1  0.00015822  -0.00000000  -0.00000000  1
  Br  Br29  1  0.50015822  0.50000000  0.50000000  1
  Br  Br30  1  0.23582913  -0.00000000  0.50000000  1
  Br  Br31  1  0.73582913  0.50000000  -0.00000000  1
  O  O32  1  0.50507751  0.21706167  0.10383226  1
  O  O33  1  0.50507751  0.78293833  0.89616774  1
  O  O34  1  0.00507751  0.71706167  0.39616774  1
  O  O35  1  0.00507751  0.28293833  0.60383226  1
  O  O36  1  0.41058061  0.75325756  0.08459080  1
  O  O37  1  0.41058061  0.24674244  0.91540920  1
  O  O38  1  0.91058061  0.25325756  0.41540920  1
  O  O39  1  0.91058061  0.74674244  0.58459080  1
  O  O40  1  0.34484745  0.59148336  0.21189400  1
  O  O41  1  0.34484745  0.40851664  0.78810600  1
  O  O42  1  0.84484745  0.09148336  0.28810600  1
  O  O43  1  0.84484745  0.90851664  0.71189400  1
  O  O44  1  0.59245834  0.24483114  0.30517635  1
  O  O45  1  0.59245834  0.75516886  0.69482365  1
  O  O46  1  0.09245834  0.74483114  0.19482365  1
  O  O47  1  0.09245834  0.25516886  0.80517635  1
  O  O48  1  0.41291572  0.21293241  0.71411680  1
  O  O49  1  0.41291572  0.78706759  0.28588320  1
  O  O50  1  0.91291572  0.71293241  0.78588320  1
  O  O51  1  0.91291572  0.28706759  0.21411680  1
  O  O52  1  0.49725889  0.05379827  0.23459851  1
  O  O53  1  0.49725889  0.94620173  0.76540149  1
  O  O54  1  0.99725889  0.55379827  0.26540149  1
  O  O55  1  0.99725889  0.44620173  0.73459851  1
  O  O56  1  0.24396280  0.19610861  0.25234815  1
  O  O57  1  0.24396280  0.80389139  0.74765185  1
  O  O58  1  0.74396280  0.69610861  0.24765185  1
  O  O59  1  0.74396280  0.30389139  0.75234815  1
  O  O60  1  0.16191127  0.28265524  0.06679070  1
  O  O61  1  0.16191127  0.71734476  0.93320930  1
  O  O62  1  0.66191127  0.78265524  0.43320930  1
  O  O63  1  0.66191127  0.21734476  0.56679070  1
  O  O64  1  0.23979077  0.39996060  0.23386455  1
  O  O65  1  0.23979077  0.60003940  0.76613545  1
  O  O66  1  0.73979077  0.89996060  0.26613545  1
  O  O67  1  0.73979077  0.10003940  0.73386455  1
