# generated using pymatgen
data_Sm4MgIr
_symmetry_space_group_name_H-M   'P 1'
_cell_length_a   9.92293992
_cell_length_b   9.92293992
_cell_length_c   9.92293992
_cell_angle_alpha   60.00000000
_cell_angle_beta   60.00000000
_cell_angle_gamma   60.00000000
_symmetry_Int_Tables_number   1
_chemical_formula_structural   Sm4MgIr
_chemical_formula_sum   'Sm16 Mg4 Ir4'
_cell_volume   690.88551647
_cell_formula_units_Z   4
loop_
 _symmetry_equiv_pos_site_id
 _symmetry_equiv_pos_as_xyz
  1  'x, y, z'
loop_
 _atom_site_type_symbol
 _atom_site_label
 _atom_site_symmetry_multiplicity
 _atom_site_fract_x
 _atom_site_fract_y
 _atom_site_fract_z
 _atom_site_occupancy
  Sm  Sm0  1  0.65389489  0.65389489  0.65389489  1
  Sm  Sm1  1  0.03831532  0.65389489  0.65389489  1
  Sm  Sm2  1  0.65389489  0.03831532  0.65389489  1
  Sm  Sm3  1  0.65389489  0.65389489  0.03831532  1
  Sm  Sm4  1  0.81231959  0.81231959  0.18768041  1
  Sm  Sm5  1  0.18768041  0.18768041  0.81231959  1
  Sm  Sm6  1  0.81231959  0.18768041  0.81231959  1
  Sm  Sm7  1  0.18768041  0.81231959  0.18768041  1
  Sm  Sm8  1  0.18768041  0.81231959  0.81231959  1
  Sm  Sm9  1  0.81231959  0.18768041  0.18768041  1
  Sm  Sm10  1  0.43649344  0.43649344  0.06350656  1
  Sm  Sm11  1  0.06350656  0.06350656  0.43649344  1
  Sm  Sm12  1  0.43649344  0.06350656  0.43649344  1
  Sm  Sm13  1  0.06350656  0.43649344  0.06350656  1
  Sm  Sm14  1  0.06350656  0.43649344  0.43649344  1
  Sm  Sm15  1  0.43649344  0.06350656  0.06350656  1
  Mg  Mg16  1  0.42140461  0.42140461  0.42140461  1
  Mg  Mg17  1  0.73578616  0.42140461  0.42140461  1
  Mg  Mg18  1  0.42140461  0.73578616  0.42140461  1
  Mg  Mg19  1  0.42140461  0.42140461  0.73578616  1
  Ir  Ir20  1  0.85876595  0.85876595  0.85876595  1
  Ir  Ir21  1  0.42370214  0.85876595  0.85876595  1
  Ir  Ir22  1  0.85876595  0.42370214  0.85876595  1
  Ir  Ir23  1  0.85876595  0.85876595  0.42370214  1
