# generated using pymatgen
data_Sc2GeB2Ir5
_symmetry_space_group_name_H-M   'P 1'
_cell_length_a   3.17039605
_cell_length_b   9.28116853
_cell_length_c   9.28116853
_cell_angle_alpha   90.00000000
_cell_angle_beta   90.00000000
_cell_angle_gamma   90.00000000
_symmetry_Int_Tables_number   1
_chemical_formula_structural   Sc2GeB2Ir5
_chemical_formula_sum   'Sc4 Ge2 B4 Ir10'
_cell_volume   273.09819881
_cell_formula_units_Z   2
loop_
 _symmetry_equiv_pos_site_id
 _symmetry_equiv_pos_as_xyz
  1  'x, y, z'
loop_
 _atom_site_type_symbol
 _atom_site_label
 _atom_site_symmetry_multiplicity
 _atom_site_fract_x
 _atom_site_fract_y
 _atom_site_fract_z
 _atom_site_occupancy
  Sc  Sc0  1  -0.00000000  0.17491103  0.67491103  1
  Sc  Sc1  1  0.00000000  0.82508897  0.32508897  1
  Sc  Sc2  1  0.00000000  0.32508897  0.17491103  1
  Sc  Sc3  1  -0.00000000  0.67491103  0.82508897  1
  Ge  Ge4  1  0.00000000  0.00000000  -0.00000000  1
  Ge  Ge5  1  0.00000000  0.50000000  0.50000000  1
  B  B6  1  -0.00000000  0.62464631  0.12464631  1
  B  B7  1  0.00000000  0.37535369  0.87535369  1
  B  B8  1  0.00000000  0.87535369  0.62464631  1
  B  B9  1  -0.00000000  0.12464631  0.37535369  1
  Ir  Ir10  1  0.50000000  0.07189772  0.21534303  1
  Ir  Ir11  1  0.50000000  0.92810228  0.78465697  1
  Ir  Ir12  1  0.50000000  0.78465697  0.07189772  1
  Ir  Ir13  1  0.50000000  0.42810228  0.71534303  1
  Ir  Ir14  1  0.50000000  0.21534303  0.92810228  1
  Ir  Ir15  1  0.50000000  0.57189772  0.28465697  1
  Ir  Ir16  1  0.50000000  0.71534303  0.57189772  1
  Ir  Ir17  1  0.50000000  0.28465697  0.42810228  1
  Ir  Ir18  1  0.50000000  0.00000000  0.50000000  1
  Ir  Ir19  1  0.50000000  0.50000000  -0.00000000  1
