# generated using pymatgen
data_Sm6Al43V4
_symmetry_space_group_name_H-M   'P 1'
_cell_length_a   11.05007291
_cell_length_b   11.05007291
_cell_length_c   17.76720997
_cell_angle_alpha   90.00000000
_cell_angle_beta   90.00000000
_cell_angle_gamma   119.99999817
_symmetry_Int_Tables_number   1
_chemical_formula_structural   Sm6Al43V4
_chemical_formula_sum   'Sm12 Al86 V8'
_cell_volume   1878.79831500
_cell_formula_units_Z   2
loop_
 _symmetry_equiv_pos_site_id
 _symmetry_equiv_pos_as_xyz
  1  'x, y, z'
loop_
 _atom_site_type_symbol
 _atom_site_label
 _atom_site_symmetry_multiplicity
 _atom_site_fract_x
 _atom_site_fract_y
 _atom_site_fract_z
 _atom_site_occupancy
  Sm  Sm0  1  0.47081795  0.47081795  0.90436679  1
  Sm  Sm1  1  0.52918205  0.52918205  0.09563321  1
  Sm  Sm2  1  0.00000000  0.52918205  0.90436679  1
  Sm  Sm3  1  0.52918205  0.52918205  0.40436679  1
  Sm  Sm4  1  0.00000000  0.52918205  0.59563321  1
  Sm  Sm5  1  1.00000000  0.47081795  0.09563321  1
  Sm  Sm6  1  0.47081795  0.47081795  0.59563321  1
  Sm  Sm7  1  1.00000000  0.47081795  0.40436679  1
  Sm  Sm8  1  0.52918205  0.00000000  0.90436679  1
  Sm  Sm9  1  0.47081795  1.00000000  0.09563321  1
  Sm  Sm10  1  0.47081795  1.00000000  0.40436679  1
  Sm  Sm11  1  0.52918205  0.00000000  0.59563321  1
  Al  Al12  1  0.85405790  0.45167012  0.75000000  1
  Al  Al13  1  0.14594210  0.54832988  0.25000000  1
  Al  Al14  1  0.59761222  0.14594210  0.75000000  1
  Al  Al15  1  0.40238778  0.54832988  0.75000000  1
  Al  Al16  1  0.40238778  0.85405790  0.25000000  1
  Al  Al17  1  0.59761222  0.45167012  0.25000000  1
  Al  Al18  1  0.54832988  0.40238778  0.75000000  1
  Al  Al19  1  0.45167012  0.85405790  0.75000000  1
  Al  Al20  1  0.45167012  0.59761222  0.25000000  1
  Al  Al21  1  0.54832988  0.14594210  0.25000000  1
  Al  Al22  1  0.14594210  0.59761222  0.75000000  1
  Al  Al23  1  0.85405790  0.40238778  0.25000000  1
  Al  Al24  1  0.84459928  0.84459928  0.38419516  1
  Al  Al25  1  0.15540072  0.15540072  0.61580484  1
  Al  Al26  1  0.00000000  0.15540072  0.38419516  1
  Al  Al27  1  0.15540072  0.15540072  0.88419516  1
  Al  Al28  1  0.00000000  0.15540072  0.11580484  1
  Al  Al29  1  1.00000000  0.84459928  0.61580484  1
  Al  Al30  1  0.84459928  0.84459928  0.11580484  1
  Al  Al31  1  1.00000000  0.84459928  0.88419516  1
  Al  Al32  1  0.15540072  0.00000000  0.38419516  1
  Al  Al33  1  0.84459928  1.00000000  0.61580484  1
  Al  Al34  1  0.84459928  1.00000000  0.88419516  1
  Al  Al35  1  0.15540072  0.00000000  0.11580484  1
  Al  Al36  1  0.75294446  0.24705554  -0.00000000  1
  Al  Al37  1  0.24705554  0.75294446  -0.00000000  1
  Al  Al38  1  0.49411108  0.24705554  -0.00000000  1
  Al  Al39  1  0.24705554  0.75294446  0.50000000  1
  Al  Al40  1  0.50588892  0.75294446  0.50000000  1
  Al  Al41  1  0.50588892  0.75294446  -0.00000000  1
  Al  Al42  1  0.75294446  0.24705554  0.50000000  1
  Al  Al43  1  0.49411108  0.24705554  0.50000000  1
  Al  Al44  1  0.75294446  0.50588892  -0.00000000  1
  Al  Al45  1  0.24705554  0.49411108  -0.00000000  1
  Al  Al46  1  0.24705554  0.49411108  0.50000000  1
  Al  Al47  1  0.75294446  0.50588892  0.50000000  1
  Al  Al48  1  0.85519243  0.85519243  0.75000000  1
  Al  Al49  1  0.14480757  0.14480757  0.25000000  1
  Al  Al50  1  0.00000000  0.14480757  0.75000000  1
  Al  Al51  1  1.00000000  0.85519243  0.25000000  1
  Al  Al52  1  0.14480757  0.00000000  0.75000000  1
  Al  Al53  1  0.85519243  1.00000000  0.25000000  1
  Al  Al54  1  0.66666700  0.33333300  0.87209501  1
  Al  Al55  1  0.33333300  0.66666700  0.12790499  1
  Al  Al56  1  0.33333300  0.66666700  0.37209501  1
  Al  Al57  1  0.33333300  0.66666700  0.62790499  1
  Al  Al58  1  0.66666700  0.33333300  0.62790499  1
  Al  Al59  1  0.66666700  0.33333300  0.37209501  1
  Al  Al60  1  0.66666700  0.33333300  0.12790499  1
  Al  Al61  1  0.33333300  0.66666700  0.87209501  1
  Al  Al62  1  0.74888542  0.74888542  0.97028036  1
  Al  Al63  1  0.25111458  0.25111458  0.02971964  1
  Al  Al64  1  0.00000000  0.25111458  0.97028036  1
  Al  Al65  1  0.25111458  0.25111458  0.47028036  1
  Al  Al66  1  0.00000000  0.25111458  0.52971964  1
  Al  Al67  1  1.00000000  0.74888542  0.02971964  1
  Al  Al68  1  0.74888542  0.74888542  0.52971964  1
  Al  Al69  1  1.00000000  0.74888542  0.47028036  1
  Al  Al70  1  0.25111458  0.00000000  0.97028036  1
  Al  Al71  1  0.74888542  1.00000000  0.02971964  1
  Al  Al72  1  0.74888542  1.00000000  0.47028036  1
  Al  Al73  1  0.25111458  0.00000000  0.52971964  1
  Al  Al74  1  0.84245877  0.23367510  0.83345774  1
  Al  Al75  1  0.15754123  0.76632490  0.16654226  1
  Al  Al76  1  0.39121633  0.15754123  0.83345774  1
  Al  Al77  1  0.15754123  0.76632490  0.33345774  1
  Al  Al78  1  0.60878367  0.76632490  0.66654226  1
  Al  Al79  1  0.60878367  0.84245877  0.16654226  1
  Al  Al80  1  0.84245877  0.23367510  0.66654226  1
  Al  Al81  1  0.39121633  0.23367510  0.33345774  1
  Al  Al82  1  0.76632490  0.60878367  0.83345774  1
  Al  Al83  1  0.60878367  0.84245877  0.33345774  1
  Al  Al84  1  0.23367510  0.84245877  0.66654226  1
  Al  Al85  1  0.23367510  0.39121633  0.16654226  1
  Al  Al86  1  0.39121633  0.15754123  0.66654226  1
  Al  Al87  1  0.76632490  0.15754123  0.33345774  1
  Al  Al88  1  0.39121633  0.23367510  0.16654226  1
  Al  Al89  1  0.60878367  0.76632490  0.83345774  1
  Al  Al90  1  0.23367510  0.39121633  0.33345774  1
  Al  Al91  1  0.76632490  0.15754123  0.16654226  1
  Al  Al92  1  0.76632490  0.60878367  0.66654226  1
  Al  Al93  1  0.23367510  0.84245877  0.83345774  1
  Al  Al94  1  0.15754123  0.39121633  0.66654226  1
  Al  Al95  1  0.84245877  0.60878367  0.33345774  1
  Al  Al96  1  0.84245877  0.60878367  0.16654226  1
  Al  Al97  1  0.15754123  0.39121633  0.83345774  1
  V  V98  1  0.00000000  0.00000000  -0.00000000  1
  V  V99  1  0.00000000  0.00000000  0.50000000  1
  V  V100  1  0.26813620  0.26813620  0.75000000  1
  V  V101  1  0.73186380  0.73186380  0.25000000  1
  V  V102  1  1.00000000  0.73186380  0.75000000  1
  V  V103  1  0.00000000  0.26813620  0.25000000  1
  V  V104  1  0.73186380  1.00000000  0.75000000  1
  V  V105  1  0.26813620  0.00000000  0.25000000  1
