# generated using pymatgen
data_MgCuBiO5
_symmetry_space_group_name_H-M   'P 1'
_cell_length_a   5.39152433
_cell_length_b   8.51647256
_cell_length_c   10.30540859
_cell_angle_alpha   90.00000000
_cell_angle_beta   90.00000000
_cell_angle_gamma   108.44943622
_symmetry_Int_Tables_number   1
_chemical_formula_structural   MgCuBiO5
_chemical_formula_sum   'Mg4 Cu4 Bi4 O20'
_cell_volume   448.87061086
_cell_formula_units_Z   4
loop_
 _symmetry_equiv_pos_site_id
 _symmetry_equiv_pos_as_xyz
  1  'x, y, z'
loop_
 _atom_site_type_symbol
 _atom_site_label
 _atom_site_symmetry_multiplicity
 _atom_site_fract_x
 _atom_site_fract_y
 _atom_site_fract_z
 _atom_site_occupancy
  Mg  Mg0  1  0.64500672  0.15626584  0.89996422  1
  Mg  Mg1  1  0.35499328  0.84373416  0.10003578  1
  Mg  Mg2  1  0.85499328  0.34373416  0.39996422  1
  Mg  Mg3  1  0.14500672  0.65626584  0.60003578  1
  Cu  Cu4  1  0.86963538  0.92962184  0.61975368  1
  Cu  Cu5  1  0.13036462  0.07037816  0.38024632  1
  Cu  Cu6  1  0.63036462  0.57037816  0.11975368  1
  Cu  Cu7  1  0.36963538  0.42962184  0.88024632  1
  Bi  Bi8  1  0.12124175  0.16685303  0.09388452  1
  Bi  Bi9  1  0.87875825  0.83314697  0.90611548  1
  Bi  Bi10  1  0.62124175  0.66685303  0.40611548  1
  Bi  Bi11  1  0.37875825  0.33314697  0.59388452  1
  O  O12  1  0.50154416  0.35084711  0.02834712  1
  O  O13  1  0.99938317  0.31100630  0.96360671  1
  O  O14  1  0.52035237  0.72447439  0.21989300  1
  O  O15  1  0.76185718  0.50960914  0.53659312  1
  O  O16  1  0.73874853  0.50575194  0.27454971  1
  O  O17  1  0.23874853  0.00575194  0.22545029  1
  O  O18  1  0.49938317  0.81100630  0.53639329  1
  O  O19  1  0.50061683  0.18899370  0.46360671  1
  O  O20  1  0.23814282  0.49039086  0.46340688  1
  O  O21  1  0.99845584  0.14915289  0.52834712  1
  O  O22  1  0.26125147  0.49424806  0.72545029  1
  O  O23  1  0.49845584  0.64915289  0.97165288  1
  O  O24  1  0.00154416  0.85084711  0.47165288  1
  O  O25  1  0.76125147  0.99424806  0.77454971  1
  O  O26  1  0.73814282  0.99039086  0.03659312  1
  O  O27  1  0.26185718  0.00960914  0.96340688  1
  O  O28  1  0.47964763  0.27552561  0.78010700  1
  O  O29  1  0.00061683  0.68899370  0.03639329  1
  O  O30  1  0.97964763  0.77552561  0.71989300  1
  O  O31  1  0.02035237  0.22447439  0.28010700  1
