# generated using pymatgen
data_Sm2(Al3Ir)3
_symmetry_space_group_name_H-M   'P 1'
_cell_length_a   7.58637375
_cell_length_b   7.66291017
_cell_length_c   9.54155070
_cell_angle_alpha   90.00000000
_cell_angle_beta   90.00000000
_cell_angle_gamma   120.33429963
_symmetry_Int_Tables_number   1
_chemical_formula_structural   Sm2(Al3Ir)3
_chemical_formula_sum   'Sm4 Al18 Ir6'
_cell_volume   478.74550507
_cell_formula_units_Z   2
loop_
 _symmetry_equiv_pos_site_id
 _symmetry_equiv_pos_as_xyz
  1  'x, y, z'
loop_
 _atom_site_type_symbol
 _atom_site_label
 _atom_site_symmetry_multiplicity
 _atom_site_fract_x
 _atom_site_fract_y
 _atom_site_fract_z
 _atom_site_occupancy
  Sm  Sm0  1  0.67486920  0.66974562  0.25000000  1
  Sm  Sm1  1  0.32513080  0.33025438  0.75000000  1
  Sm  Sm2  1  0.32513080  0.99487643  0.25000000  1
  Sm  Sm3  1  0.67486920  0.00512357  0.75000000  1
  Al  Al4  1  1.00000000  0.12949268  0.25000000  1
  Al  Al5  1  0.00000000  0.87050732  0.75000000  1
  Al  Al6  1  0.33213308  0.33505902  0.07279436  1
  Al  Al7  1  0.66786692  0.66494098  0.92720564  1
  Al  Al8  1  0.66786692  0.66494098  0.57279436  1
  Al  Al9  1  0.66786692  0.00292594  0.42720564  1
  Al  Al10  1  0.33213308  0.33505902  0.42720564  1
  Al  Al11  1  0.33213308  0.99707406  0.57279436  1
  Al  Al12  1  0.33213308  0.99707406  0.92720564  1
  Al  Al13  1  0.66786692  0.00292594  0.07279436  1
  Al  Al14  1  -0.00000000  0.33428620  0.55043023  1
  Al  Al15  1  0.00000000  0.66571380  0.44956977  1
  Al  Al16  1  0.00000000  0.66571380  0.05043023  1
  Al  Al17  1  -0.00000000  0.33428620  0.94956977  1
  Al  Al18  1  0.20678429  0.54501486  0.25000000  1
  Al  Al19  1  0.79321571  0.45498514  0.75000000  1
  Al  Al20  1  0.79321571  0.33823057  0.25000000  1
  Al  Al21  1  0.20678429  0.66176943  0.75000000  1
  Ir  Ir22  1  0.65764275  0.32882138  -0.00000000  1
  Ir  Ir23  1  0.34235725  0.67117862  -0.00000000  1
  Ir  Ir24  1  0.34235725  0.67117862  0.50000000  1
  Ir  Ir25  1  0.65764275  0.32882138  0.50000000  1
  Ir  Ir26  1  -0.00000000  -0.00000000  0.00000000  1
  Ir  Ir27  1  -0.00000000  -0.00000000  0.50000000  1
