# generated using pymatgen
data_ScBi3(MoO6)2
_symmetry_space_group_name_H-M   'P 1'
_cell_length_a   5.38536708
_cell_length_b   10.41490642
_cell_length_c   10.41490642
_cell_angle_alpha   68.71095620
_cell_angle_beta   77.98471109
_cell_angle_gamma   77.98471109
_symmetry_Int_Tables_number   1
_chemical_formula_structural   ScBi3(MoO6)2
_chemical_formula_sum   'Sc2 Bi6 Mo4 O24'
_cell_volume   526.70141649
_cell_formula_units_Z   2
loop_
 _symmetry_equiv_pos_site_id
 _symmetry_equiv_pos_as_xyz
  1  'x, y, z'
loop_
 _atom_site_type_symbol
 _atom_site_label
 _atom_site_symmetry_multiplicity
 _atom_site_fract_x
 _atom_site_fract_y
 _atom_site_fract_z
 _atom_site_occupancy
  Sc  Sc0  1  0.25000000  0.90967441  0.09032559  1
  Sc  Sc1  1  0.75000000  0.09032559  0.90967441  1
  Bi  Bi2  1  0.43077195  0.96301274  0.72842428  1
  Bi  Bi3  1  0.56922805  0.03698726  0.27157572  1
  Bi  Bi4  1  0.06922805  0.27157572  0.03698726  1
  Bi  Bi5  1  0.93077195  0.72842428  0.96301274  1
  Bi  Bi6  1  0.25000000  0.33681582  0.66318418  1
  Bi  Bi7  1  0.75000000  0.66318418  0.33681582  1
  Mo  Mo8  1  0.07267907  0.79742813  0.53997189  1
  Mo  Mo9  1  0.92732093  0.20257187  0.46002811  1
  Mo  Mo10  1  0.42732093  0.46002811  0.20257187  1
  Mo  Mo11  1  0.57267907  0.53997189  0.79742813  1
  O  O12  1  0.27880362  0.63825191  0.55076365  1
  O  O13  1  0.72119638  0.36174809  0.44923635  1
  O  O14  1  0.22119638  0.44923635  0.36174809  1
  O  O15  1  0.77880362  0.55076365  0.63825191  1
  O  O16  1  0.08356274  0.94161534  0.89492921  1
  O  O17  1  0.91643726  0.05838466  0.10507079  1
  O  O18  1  0.41643726  0.10507079  0.05838466  1
  O  O19  1  0.58356274  0.89492921  0.94161534  1
  O  O20  1  0.12033364  0.16643727  0.60180062  1
  O  O21  1  0.87966636  0.83356273  0.39819938  1
  O  O22  1  0.37966636  0.39819938  0.83356273  1
  O  O23  1  0.62033364  0.60180062  0.16643727  1
  O  O24  1  0.13290593  0.20756748  0.29752798  1
  O  O25  1  0.86709407  0.79243252  0.70247202  1
  O  O26  1  0.36709407  0.70247202  0.79243252  1
  O  O27  1  0.63290593  0.29752798  0.20756748  1
  O  O28  1  0.53060690  0.15502217  0.74624839  1
  O  O29  1  0.46939310  0.84497783  0.25375161  1
  O  O30  1  0.96939310  0.25375161  0.84497783  1
  O  O31  1  0.03060690  0.74624839  0.15502217  1
  O  O32  1  0.26882630  0.92928143  0.50361388  1
  O  O33  1  0.73117370  0.07071857  0.49638612  1
  O  O34  1  0.23117370  0.49638612  0.07071857  1
  O  O35  1  0.76882630  0.50361388  0.92928143  1
