# generated using pymatgen
data_PrMgMn2O6
_symmetry_space_group_name_H-M   'P 1'
_cell_length_a   5.30300946
_cell_length_b   5.47095447
_cell_length_c   7.65307260
_cell_angle_alpha   90.00316847
_cell_angle_beta   90.00015951
_cell_angle_gamma   90.00467011
_symmetry_Int_Tables_number   1
_chemical_formula_structural   PrMgMn2O6
_chemical_formula_sum   'Pr2 Mg2 Mn4 O12'
_cell_volume   222.03494625
_cell_formula_units_Z   2
loop_
 _symmetry_equiv_pos_site_id
 _symmetry_equiv_pos_as_xyz
  1  'x, y, z'
loop_
 _atom_site_type_symbol
 _atom_site_label
 _atom_site_symmetry_multiplicity
 _atom_site_fract_x
 _atom_site_fract_y
 _atom_site_fract_z
 _atom_site_occupancy
  Pr  Pr0  1  0.01043516  0.95736126  0.74998477  1
  Pr  Pr1  1  0.51051913  0.54272035  0.24999892  1
  Mg  Mg2  1  0.47677940  0.44040941  0.74998934  1
  Mg  Mg3  1  0.97675763  0.05952353  0.24994494  1
  Mn  Mn4  1  0.99986552  0.49778488  0.99858215  1
  Mn  Mn5  1  0.99994895  0.49790422  0.50138389  1
  Mn  Mn6  1  0.49993678  0.00220098  0.49860297  1
  Mn  Mn7  1  0.49987198  0.00215151  0.00141240  1
  O  O8  1  0.07786320  0.45365980  0.24998940  1
  O  O9  1  0.22311680  0.22426873  0.94670874  1
  O  O10  1  0.22323820  0.22437879  0.55339635  1
  O  O11  1  0.30699098  0.69629844  0.55737907  1
  O  O12  1  0.30694259  0.69622606  0.94263616  1
  O  O13  1  0.37473956  0.97869986  0.25003909  1
  O  O14  1  0.57777570  0.04632572  0.75000339  1
  O  O15  1  0.72318445  0.27564896  0.05335422  1
  O  O16  1  0.72321825  0.27574929  0.44665482  1
  O  O17  1  0.80693574  0.80365713  0.05733230  1
  O  O18  1  0.80701559  0.80375472  0.44262765  1
  O  O19  1  0.87486040  0.52127636  0.74998043  1
