# generated using pymatgen
data_Sm5(In2Pt)2
_symmetry_space_group_name_H-M   'P 1'
_cell_length_a   3.75754229
_cell_length_b   8.25543234
_cell_length_c   18.56218299
_cell_angle_alpha   90.00000000
_cell_angle_beta   90.00000000
_cell_angle_gamma   90.00000000
_symmetry_Int_Tables_number   1
_chemical_formula_structural   Sm5(In2Pt)2
_chemical_formula_sum   'Sm10 In8 Pt4'
_cell_volume   575.80144340
_cell_formula_units_Z   2
loop_
 _symmetry_equiv_pos_site_id
 _symmetry_equiv_pos_as_xyz
  1  'x, y, z'
loop_
 _atom_site_type_symbol
 _atom_site_label
 _atom_site_symmetry_multiplicity
 _atom_site_fract_x
 _atom_site_fract_y
 _atom_site_fract_z
 _atom_site_occupancy
  Sm  Sm0  1  -0.00000000  0.11580864  0.41496090  1
  Sm  Sm1  1  -0.00000000  0.88419136  0.58503910  1
  Sm  Sm2  1  -0.00000000  0.38419136  0.91496090  1
  Sm  Sm3  1  -0.00000000  0.61580864  0.08503910  1
  Sm  Sm4  1  -0.00000000  0.24272415  0.21879533  1
  Sm  Sm5  1  -0.00000000  0.75727585  0.78120467  1
  Sm  Sm6  1  -0.00000000  0.25727585  0.71879533  1
  Sm  Sm7  1  -0.00000000  0.74272415  0.28120467  1
  Sm  Sm8  1  -0.00000000  0.00000000  -0.00000000  1
  Sm  Sm9  1  -0.00000000  0.50000000  0.50000000  1
  In  In10  1  0.50000000  0.42651839  0.35077312  1
  In  In11  1  0.50000000  0.57348161  0.64922688  1
  In  In12  1  0.50000000  0.07348161  0.85077312  1
  In  In13  1  0.50000000  0.92651839  0.14922688  1
  In  In14  1  0.50000000  0.29141541  0.06773001  1
  In  In15  1  0.50000000  0.70858459  0.93226999  1
  In  In16  1  0.50000000  0.20858459  0.56773001  1
  In  In17  1  0.50000000  0.79141541  0.43226999  1
  Pt  Pt18  1  0.50000000  0.02434739  0.30240717  1
  Pt  Pt19  1  0.50000000  0.97565261  0.69759283  1
  Pt  Pt20  1  0.50000000  0.47565261  0.80240717  1
  Pt  Pt21  1  0.50000000  0.52434739  0.19759283  1
