# generated using pymatgen
data_RbY2Cl7
_symmetry_space_group_name_H-M   'P 1'
_cell_length_a   7.02743436
_cell_length_b   13.58093722
_cell_length_c   12.73376998
_cell_angle_alpha   90.00000000
_cell_angle_beta   90.00000000
_cell_angle_gamma   90.00000000
_symmetry_Int_Tables_number   1
_chemical_formula_structural   RbY2Cl7
_chemical_formula_sum   'Rb4 Y8 Cl28'
_cell_volume   1215.30011775
_cell_formula_units_Z   4
loop_
 _symmetry_equiv_pos_site_id
 _symmetry_equiv_pos_as_xyz
  1  'x, y, z'
loop_
 _atom_site_type_symbol
 _atom_site_label
 _atom_site_symmetry_multiplicity
 _atom_site_fract_x
 _atom_site_fract_y
 _atom_site_fract_z
 _atom_site_occupancy
  Rb  Rb0  1  0.75000000  0.95897494  0.19587655  1
  Rb  Rb1  1  0.25000000  0.04102506  0.80412345  1
  Rb  Rb2  1  0.25000000  0.54102506  0.69587655  1
  Rb  Rb3  1  0.75000000  0.45897494  0.30412345  1
  Y  Y4  1  0.75000000  0.76292186  0.53986786  1
  Y  Y5  1  0.25000000  0.23707814  0.46013214  1
  Y  Y6  1  0.25000000  0.73707814  0.03986786  1
  Y  Y7  1  0.75000000  0.26292186  0.96013214  1
  Y  Y8  1  0.75000000  0.75039954  0.84296573  1
  Y  Y9  1  0.25000000  0.24960046  0.15703427  1
  Y  Y10  1  0.25000000  0.74960046  0.34296573  1
  Y  Y11  1  0.75000000  0.25039954  0.65703427  1
  Cl  Cl12  1  0.98979590  0.82410579  0.69328655  1
  Cl  Cl13  1  0.01020410  0.17589421  0.30671345  1
  Cl  Cl14  1  0.01020410  0.67589421  0.19328655  1
  Cl  Cl15  1  0.48979590  0.17589421  0.30671345  1
  Cl  Cl16  1  0.98979590  0.32410579  0.80671345  1
  Cl  Cl17  1  0.51020410  0.82410579  0.69328655  1
  Cl  Cl18  1  0.51020410  0.32410579  0.80671345  1
  Cl  Cl19  1  0.48979590  0.67589421  0.19328655  1
  Cl  Cl20  1  0.98862939  0.87641752  0.42201079  1
  Cl  Cl21  1  0.01137061  0.12358248  0.57798921  1
  Cl  Cl22  1  0.01137061  0.62358248  0.92201079  1
  Cl  Cl23  1  0.48862939  0.12358248  0.57798921  1
  Cl  Cl24  1  0.98862939  0.37641752  0.07798921  1
  Cl  Cl25  1  0.51137061  0.87641752  0.42201079  1
  Cl  Cl26  1  0.51137061  0.37641752  0.07798921  1
  Cl  Cl27  1  0.48862939  0.62358248  0.92201079  1
  Cl  Cl28  1  0.99101243  0.86589963  0.96028448  1
  Cl  Cl29  1  0.00898757  0.13410037  0.03971552  1
  Cl  Cl30  1  0.00898757  0.63410037  0.46028448  1
  Cl  Cl31  1  0.49101243  0.13410037  0.03971552  1
  Cl  Cl32  1  0.99101243  0.36589963  0.53971552  1
  Cl  Cl33  1  0.50898757  0.86589963  0.96028448  1
  Cl  Cl34  1  0.50898757  0.36589963  0.53971552  1
  Cl  Cl35  1  0.49101243  0.63410037  0.46028448  1
  Cl  Cl36  1  0.75000000  0.61053387  0.68832792  1
  Cl  Cl37  1  0.25000000  0.38946613  0.31167208  1
  Cl  Cl38  1  0.25000000  0.88946613  0.18832792  1
  Cl  Cl39  1  0.75000000  0.11053387  0.81167208  1
