# generated using pymatgen
data_Sm(AlBr4)3
_symmetry_space_group_name_H-M   'P 1'
_cell_length_a   10.70405066
_cell_length_b   10.70405066
_cell_length_c   18.95051957
_cell_angle_alpha   90.00000000
_cell_angle_beta   90.00000000
_cell_angle_gamma   119.99999456
_symmetry_Int_Tables_number   1
_chemical_formula_structural   Sm(AlBr4)3
_chemical_formula_sum   'Sm3 Al9 Br36'
_cell_volume   1880.39067474
_cell_formula_units_Z   3
loop_
 _symmetry_equiv_pos_site_id
 _symmetry_equiv_pos_as_xyz
  1  'x, y, z'
loop_
 _atom_site_type_symbol
 _atom_site_label
 _atom_site_symmetry_multiplicity
 _atom_site_fract_x
 _atom_site_fract_y
 _atom_site_fract_z
 _atom_site_occupancy
  Sm  Sm0  1  0.27226923  0.27226923  0.16666700  1
  Sm  Sm1  1  1.00000000  0.72773077  0.83333300  1
  Sm  Sm2  1  0.72773077  1.00000000  0.50000000  1
  Al  Al3  1  0.69696489  0.32777410  0.77976796  1
  Al  Al4  1  0.63080921  0.30303511  0.44643496  1
  Al  Al5  1  0.36919079  0.67222590  0.22023204  1
  Al  Al6  1  0.67222590  0.36919079  0.11310096  1
  Al  Al7  1  0.32777410  0.69696489  0.55356504  1
  Al  Al8  1  0.30303511  0.63080921  0.88689904  1
  Al  Al9  1  0.89991232  0.89991232  0.66666700  1
  Al  Al10  1  1.00000000  0.10008768  0.33333300  1
  Al  Al11  1  0.10008768  1.00000000  -0.00000000  1
  Br  Br12  1  0.92210107  0.12060244  0.63412052  1
  Br  Br13  1  0.19850137  0.07789893  0.30078752  1
  Br  Br14  1  0.80149863  0.87939756  0.36587948  1
  Br  Br15  1  0.87939756  0.80149863  0.96745352  1
  Br  Br16  1  0.12060244  0.92210107  0.69921248  1
  Br  Br17  1  0.07789893  0.19850137  0.03254648  1
  Br  Br18  1  0.91762655  0.50476658  0.72353611  1
  Br  Br19  1  0.58714003  0.08237345  0.39020311  1
  Br  Br20  1  0.41285997  0.49523342  0.27646389  1
  Br  Br21  1  0.49523342  0.41285997  0.05686911  1
  Br  Br22  1  0.50476658  0.91762655  0.60979689  1
  Br  Br23  1  0.08237345  0.58714003  0.94313089  1
  Br  Br24  1  0.49679450  0.77270074  0.95577795  1
  Br  Br25  1  0.27590624  0.50320550  0.62244495  1
  Br  Br26  1  0.72409376  0.22729926  0.04422205  1
  Br  Br27  1  0.22729926  0.72409376  0.28911095  1
  Br  Br28  1  0.77270074  0.49679450  0.37755505  1
  Br  Br29  1  0.50320550  0.27590624  0.71088905  1
  Br  Br30  1  0.76461407  0.28684692  0.54345093  1
  Br  Br31  1  0.52223285  0.23538593  0.21011793  1
  Br  Br32  1  0.47776715  0.71315308  0.45654907  1
  Br  Br33  1  0.71315308  0.47776715  0.87678393  1
  Br  Br34  1  0.28684692  0.76461407  0.78988207  1
  Br  Br35  1  0.23538593  0.52223285  0.12321607  1
  Br  Br36  1  0.76841566  0.79314837  0.76950544  1
  Br  Br37  1  0.02473271  0.23158434  0.43617244  1
  Br  Br38  1  0.97526729  0.20685163  0.23049456  1
  Br  Br39  1  0.20685163  0.97526729  0.10283844  1
  Br  Br40  1  0.79314837  0.76841566  0.56382756  1
  Br  Br41  1  0.23158434  0.02473271  0.89716156  1
  Br  Br42  1  0.71655379  0.13624138  0.81694375  1
  Br  Br43  1  0.41968759  0.28344621  0.48361075  1
  Br  Br44  1  0.58031241  0.86375862  0.18305625  1
  Br  Br45  1  0.86375862  0.58031241  0.15027675  1
  Br  Br46  1  0.13624138  0.71655379  0.51638925  1
  Br  Br47  1  0.28344621  0.41968759  0.84972325  1
