# generated using pymatgen
data_Sm6Ti4Al43
_symmetry_space_group_name_H-M   'P 1'
_cell_length_a   11.16502837
_cell_length_b   11.16502837
_cell_length_c   17.97226459
_cell_angle_alpha   90.00000000
_cell_angle_beta   90.00000000
_cell_angle_gamma   120.00000279
_symmetry_Int_Tables_number   1
_chemical_formula_structural   Sm6Ti4Al43
_chemical_formula_sum   'Sm12 Ti8 Al86'
_cell_volume   1940.22941823
_cell_formula_units_Z   2
loop_
 _symmetry_equiv_pos_site_id
 _symmetry_equiv_pos_as_xyz
  1  'x, y, z'
loop_
 _atom_site_type_symbol
 _atom_site_label
 _atom_site_symmetry_multiplicity
 _atom_site_fract_x
 _atom_site_fract_y
 _atom_site_fract_z
 _atom_site_occupancy
  Sm  Sm0  1  0.46995742  0.46995742  0.90366113  1
  Sm  Sm1  1  0.53004258  0.53004258  0.09633887  1
  Sm  Sm2  1  1.00000000  0.53004258  0.90366113  1
  Sm  Sm3  1  0.53004258  0.53004258  0.40366113  1
  Sm  Sm4  1  1.00000000  0.53004258  0.59633887  1
  Sm  Sm5  1  0.00000000  0.46995742  0.09633887  1
  Sm  Sm6  1  0.46995742  0.46995742  0.59633887  1
  Sm  Sm7  1  0.00000000  0.46995742  0.40366113  1
  Sm  Sm8  1  0.53004258  1.00000000  0.90366113  1
  Sm  Sm9  1  0.46995742  0.00000000  0.09633887  1
  Sm  Sm10  1  0.46995742  0.00000000  0.40366113  1
  Sm  Sm11  1  0.53004258  1.00000000  0.59633887  1
  Ti  Ti12  1  0.00000000  0.00000000  0.00000000  1
  Ti  Ti13  1  0.00000000  0.00000000  0.50000000  1
  Ti  Ti14  1  0.27206567  0.27206567  0.75000000  1
  Ti  Ti15  1  0.72793433  0.72793433  0.25000000  1
  Ti  Ti16  1  1.00000000  0.72793433  0.75000000  1
  Ti  Ti17  1  0.00000000  0.27206567  0.25000000  1
  Ti  Ti18  1  0.72793433  1.00000000  0.75000000  1
  Ti  Ti19  1  0.27206567  0.00000000  0.25000000  1
  Al  Al20  1  0.84981723  0.44758581  0.75000000  1
  Al  Al21  1  0.15018277  0.55241419  0.25000000  1
  Al  Al22  1  0.59776859  0.15018277  0.75000000  1
  Al  Al23  1  0.40223141  0.55241419  0.75000000  1
  Al  Al24  1  0.40223141  0.84981723  0.25000000  1
  Al  Al25  1  0.59776859  0.44758581  0.25000000  1
  Al  Al26  1  0.55241419  0.40223141  0.75000000  1
  Al  Al27  1  0.44758581  0.84981723  0.75000000  1
  Al  Al28  1  0.44758581  0.59776859  0.25000000  1
  Al  Al29  1  0.55241419  0.15018277  0.25000000  1
  Al  Al30  1  0.15018277  0.59776859  0.75000000  1
  Al  Al31  1  0.84981723  0.40223141  0.25000000  1
  Al  Al32  1  0.84351656  0.84351656  0.38388307  1
  Al  Al33  1  0.15648344  0.15648344  0.61611693  1
  Al  Al34  1  1.00000000  0.15648344  0.38388307  1
  Al  Al35  1  0.15648344  0.15648344  0.88388307  1
  Al  Al36  1  1.00000000  0.15648344  0.11611693  1
  Al  Al37  1  0.00000000  0.84351656  0.61611693  1
  Al  Al38  1  0.84351656  0.84351656  0.11611693  1
  Al  Al39  1  0.00000000  0.84351656  0.88388307  1
  Al  Al40  1  0.15648344  1.00000000  0.38388307  1
  Al  Al41  1  0.84351656  0.00000000  0.61611693  1
  Al  Al42  1  0.84351656  0.00000000  0.88388307  1
  Al  Al43  1  0.15648344  1.00000000  0.11611693  1
  Al  Al44  1  0.75274885  0.24725115  0.00000000  1
  Al  Al45  1  0.24725115  0.75274885  0.00000000  1
  Al  Al46  1  0.49450229  0.24725115  0.00000000  1
  Al  Al47  1  0.24725115  0.75274885  0.50000000  1
  Al  Al48  1  0.50549771  0.75274885  0.50000000  1
  Al  Al49  1  0.50549771  0.75274885  0.00000000  1
  Al  Al50  1  0.75274885  0.24725115  0.50000000  1
  Al  Al51  1  0.49450229  0.24725115  0.50000000  1
  Al  Al52  1  0.75274885  0.50549771  0.00000000  1
  Al  Al53  1  0.24725115  0.49450229  0.00000000  1
  Al  Al54  1  0.24725115  0.49450229  0.50000000  1
  Al  Al55  1  0.75274885  0.50549771  0.50000000  1
  Al  Al56  1  0.85396703  0.85396703  0.75000000  1
  Al  Al57  1  0.14603297  0.14603297  0.25000000  1
  Al  Al58  1  1.00000000  0.14603297  0.75000000  1
  Al  Al59  1  0.00000000  0.85396703  0.25000000  1
  Al  Al60  1  0.14603297  1.00000000  0.75000000  1
  Al  Al61  1  0.85396703  0.00000000  0.25000000  1
  Al  Al62  1  0.66666700  0.33333300  0.87344169  1
  Al  Al63  1  0.33333300  0.66666700  0.12655831  1
  Al  Al64  1  0.33333300  0.66666700  0.37344169  1
  Al  Al65  1  0.33333300  0.66666700  0.62655831  1
  Al  Al66  1  0.66666700  0.33333300  0.62655831  1
  Al  Al67  1  0.66666700  0.33333300  0.37344169  1
  Al  Al68  1  0.66666700  0.33333300  0.12655831  1
  Al  Al69  1  0.33333300  0.66666700  0.87344169  1
  Al  Al70  1  0.74772338  0.74772338  0.97064858  1
  Al  Al71  1  0.25227662  0.25227662  0.02935142  1
  Al  Al72  1  1.00000000  0.25227662  0.97064858  1
  Al  Al73  1  0.25227662  0.25227662  0.47064858  1
  Al  Al74  1  1.00000000  0.25227662  0.52935142  1
  Al  Al75  1  0.00000000  0.74772338  0.02935142  1
  Al  Al76  1  0.74772338  0.74772338  0.52935142  1
  Al  Al77  1  0.00000000  0.74772338  0.47064858  1
  Al  Al78  1  0.25227662  1.00000000  0.97064858  1
  Al  Al79  1  0.74772338  0.00000000  0.02935142  1
  Al  Al80  1  0.74772338  0.00000000  0.47064858  1
  Al  Al81  1  0.25227662  1.00000000  0.52935142  1
  Al  Al82  1  0.84205182  0.23443843  0.83451059  1
  Al  Al83  1  0.15794818  0.76556157  0.16548941  1
  Al  Al84  1  0.39238661  0.15794818  0.83451059  1
  Al  Al85  1  0.15794818  0.76556157  0.33451059  1
  Al  Al86  1  0.60761339  0.76556157  0.66548941  1
  Al  Al87  1  0.60761339  0.84205182  0.16548941  1
  Al  Al88  1  0.84205182  0.23443843  0.66548941  1
  Al  Al89  1  0.39238661  0.23443843  0.33451059  1
  Al  Al90  1  0.76556157  0.60761339  0.83451059  1
  Al  Al91  1  0.60761339  0.84205182  0.33451059  1
  Al  Al92  1  0.23443843  0.84205182  0.66548941  1
  Al  Al93  1  0.23443843  0.39238661  0.16548941  1
  Al  Al94  1  0.39238661  0.15794818  0.66548941  1
  Al  Al95  1  0.76556157  0.15794818  0.33451059  1
  Al  Al96  1  0.39238661  0.23443843  0.16548941  1
  Al  Al97  1  0.60761339  0.76556157  0.83451059  1
  Al  Al98  1  0.23443843  0.39238661  0.33451059  1
  Al  Al99  1  0.76556157  0.15794818  0.16548941  1
  Al  Al100  1  0.76556157  0.60761339  0.66548941  1
  Al  Al101  1  0.23443843  0.84205182  0.83451059  1
  Al  Al102  1  0.15794818  0.39238661  0.66548941  1
  Al  Al103  1  0.84205182  0.60761339  0.33451059  1
  Al  Al104  1  0.84205182  0.60761339  0.16548941  1
  Al  Al105  1  0.15794818  0.39238661  0.83451059  1
