# generated using pymatgen
data_RbGaAgF6
_symmetry_space_group_name_H-M   'P 1'
_cell_length_a   7.25865745
_cell_length_b   7.66434206
_cell_length_c   10.60061785
_cell_angle_alpha   90.00000000
_cell_angle_beta   90.00000000
_cell_angle_gamma   90.00000000
_symmetry_Int_Tables_number   1
_chemical_formula_structural   RbGaAgF6
_chemical_formula_sum   'Rb4 Ga4 Ag4 F24'
_cell_volume   589.74240883
_cell_formula_units_Z   4
loop_
 _symmetry_equiv_pos_site_id
 _symmetry_equiv_pos_as_xyz
  1  'x, y, z'
loop_
 _atom_site_type_symbol
 _atom_site_label
 _atom_site_symmetry_multiplicity
 _atom_site_fract_x
 _atom_site_fract_y
 _atom_site_fract_z
 _atom_site_occupancy
  Rb  Rb0  1  0.01628462  0.25000000  0.63398910  1
  Rb  Rb1  1  0.98371538  0.75000000  0.36601090  1
  Rb  Rb2  1  0.48371538  0.75000000  0.13398910  1
  Rb  Rb3  1  0.51628462  0.25000000  0.86601090  1
  Ga  Ga4  1  -0.00000000  0.00000000  0.00000000  1
  Ga  Ga5  1  0.50000000  -0.00000000  0.50000000  1
  Ga  Ga6  1  -0.00000000  0.50000000  0.00000000  1
  Ga  Ga7  1  0.50000000  0.50000000  0.50000000  1
  Ag  Ag8  1  0.21189761  0.25000000  0.25167702  1
  Ag  Ag9  1  0.78810239  0.75000000  0.74832298  1
  Ag  Ag10  1  0.28810239  0.75000000  0.75167702  1
  Ag  Ag11  1  0.71189761  0.25000000  0.24832298  1
  F  F12  1  0.28152028  0.03469424  0.40559735  1
  F  F13  1  0.71847972  0.96530576  0.59440265  1
  F  F14  1  0.21847972  0.96530576  0.90559735  1
  F  F15  1  0.71847972  0.53469424  0.59440265  1
  F  F16  1  0.78152028  0.03469424  0.09440265  1
  F  F17  1  0.28152028  0.46530576  0.40559735  1
  F  F18  1  0.78152028  0.46530576  0.09440265  1
  F  F19  1  0.21847972  0.53469424  0.90559735  1
  F  F20  1  0.55214860  0.25000000  0.50456261  1
  F  F21  1  0.44785140  0.75000000  0.49543739  1
  F  F22  1  0.94785140  0.75000000  0.00456261  1
  F  F23  1  0.05214860  0.25000000  0.99543739  1
  F  F24  1  0.14066743  0.51729891  0.15291403  1
  F  F25  1  0.85933257  0.48270109  0.84708597  1
  F  F26  1  0.35933257  0.48270109  0.65291403  1
  F  F27  1  0.85933257  0.01729891  0.84708597  1
  F  F28  1  0.64066743  0.51729891  0.34708597  1
  F  F29  1  0.14066743  0.98270109  0.15291403  1
  F  F30  1  0.64066743  0.98270109  0.34708597  1
  F  F31  1  0.35933257  0.01729891  0.65291403  1
  F  F32  1  0.45992409  0.25000000  0.15088317  1
  F  F33  1  0.54007591  0.75000000  0.84911683  1
  F  F34  1  0.04007591  0.75000000  0.65088317  1
  F  F35  1  0.95992409  0.25000000  0.34911683  1
