# generated using pymatgen
data_Sm7Al7Co6
_symmetry_space_group_name_H-M   'P 1'
_cell_length_a   4.16497542
_cell_length_b   13.63692516
_cell_length_c   13.63692516
_cell_angle_alpha   90.00000000
_cell_angle_beta   90.00000000
_cell_angle_gamma   90.00000000
_symmetry_Int_Tables_number   1
_chemical_formula_structural   Sm7Al7Co6
_chemical_formula_sum   'Sm14 Al14 Co12'
_cell_volume   774.54268533
_cell_formula_units_Z   2
loop_
 _symmetry_equiv_pos_site_id
 _symmetry_equiv_pos_as_xyz
  1  'x, y, z'
loop_
 _atom_site_type_symbol
 _atom_site_label
 _atom_site_symmetry_multiplicity
 _atom_site_fract_x
 _atom_site_fract_y
 _atom_site_fract_z
 _atom_site_occupancy
  Sm  Sm0  1  0.50000000  0.63144516  0.13144516  1
  Sm  Sm1  1  0.50000000  0.36855484  0.86855484  1
  Sm  Sm2  1  0.50000000  0.86855484  0.63144516  1
  Sm  Sm3  1  0.50000000  0.13144516  0.36855484  1
  Sm  Sm4  1  0.00000000  0.26240687  0.04640374  1
  Sm  Sm5  1  -0.00000000  0.73759313  0.95359626  1
  Sm  Sm6  1  -0.00000000  0.95359626  0.26240687  1
  Sm  Sm7  1  -0.00000000  0.23759313  0.54640374  1
  Sm  Sm8  1  0.00000000  0.04640374  0.73759313  1
  Sm  Sm9  1  0.00000000  0.76240687  0.45359626  1
  Sm  Sm10  1  0.00000000  0.54640374  0.76240687  1
  Sm  Sm11  1  -0.00000000  0.45359626  0.23759313  1
  Sm  Sm12  1  -0.00000000  0.00000000  0.00000000  1
  Sm  Sm13  1  -0.00000000  0.50000000  0.50000000  1
  Al  Al14  1  0.50000000  0.21282109  0.71282109  1
  Al  Al15  1  0.50000000  0.78717891  0.28717891  1
  Al  Al16  1  0.50000000  0.28717891  0.21282109  1
  Al  Al17  1  0.50000000  0.71282109  0.78717891  1
  Al  Al18  1  -0.00000000  0.00000000  0.50000000  1
  Al  Al19  1  -0.00000000  0.50000000  0.00000000  1
  Al  Al20  1  0.50000000  0.09706385  0.13847327  1
  Al  Al21  1  0.50000000  0.90293615  0.86152673  1
  Al  Al22  1  0.50000000  0.86152673  0.09706385  1
  Al  Al23  1  0.50000000  0.40293615  0.63847327  1
  Al  Al24  1  0.50000000  0.13847327  0.90293615  1
  Al  Al25  1  0.50000000  0.59706385  0.36152673  1
  Al  Al26  1  0.50000000  0.63847327  0.59706385  1
  Al  Al27  1  0.50000000  0.36152673  0.40293615  1
  Co  Co28  1  0.50000000  0.07429168  0.57429168  1
  Co  Co29  1  0.50000000  0.92570832  0.42570832  1
  Co  Co30  1  0.50000000  0.42570832  0.07429168  1
  Co  Co31  1  0.50000000  0.57429168  0.92570832  1
  Co  Co32  1  0.00000000  0.16379083  0.21256144  1
  Co  Co33  1  -0.00000000  0.83620917  0.78743856  1
  Co  Co34  1  -0.00000000  0.78743856  0.16379083  1
  Co  Co35  1  -0.00000000  0.33620917  0.71256144  1
  Co  Co36  1  0.00000000  0.21256144  0.83620917  1
  Co  Co37  1  0.00000000  0.66379083  0.28743856  1
  Co  Co38  1  0.00000000  0.71256144  0.66379083  1
  Co  Co39  1  -0.00000000  0.28743856  0.33620917  1
