# generated using pymatgen
data_RbSbCl6
_symmetry_space_group_name_H-M   'P 1'
_cell_length_a   6.63843187
_cell_length_b   7.08021567
_cell_length_c   12.67804464
_cell_angle_alpha   100.50230555
_cell_angle_beta   90.00000000
_cell_angle_gamma   117.95652928
_symmetry_Int_Tables_number   1
_chemical_formula_structural   RbSbCl6
_chemical_formula_sum   'Rb2 Sb2 Cl12'
_cell_volume   515.02087609
_cell_formula_units_Z   2
loop_
 _symmetry_equiv_pos_site_id
 _symmetry_equiv_pos_as_xyz
  1  'x, y, z'
loop_
 _atom_site_type_symbol
 _atom_site_label
 _atom_site_symmetry_multiplicity
 _atom_site_fract_x
 _atom_site_fract_y
 _atom_site_fract_z
 _atom_site_occupancy
  Rb  Rb0  1  0.88387061  0.00000000  0.75000000  1
  Rb  Rb1  1  0.11612939  0.00000000  0.25000000  1
  Sb  Sb2  1  0.50000000  0.50000000  -0.00000000  1
  Sb  Sb3  1  0.00000000  0.50000000  0.50000000  1
  Cl  Cl4  1  0.45833751  0.15996803  0.89445830  1
  Cl  Cl5  1  0.54166249  0.84003197  0.10554170  1
  Cl  Cl6  1  0.29836948  0.84003197  0.60554170  1
  Cl  Cl7  1  0.70163052  0.15996803  0.39445830  1
  Cl  Cl8  1  0.37150276  0.57067019  0.84037320  1
  Cl  Cl9  1  0.62849724  0.42932981  0.15962680  1
  Cl  Cl10  1  0.80083257  0.42932981  0.65962680  1
  Cl  Cl11  1  0.19916743  0.57067019  0.34037320  1
  Cl  Cl12  1  0.79955327  0.69244751  0.46033697  1
  Cl  Cl13  1  0.20044673  0.30755249  0.53966303  1
  Cl  Cl14  1  0.10710576  0.30755249  0.03966303  1
  Cl  Cl15  1  0.89289424  0.69244751  0.96033697  1
