# generated using pymatgen
data_RbNa3Fe7(PO4)6
_symmetry_space_group_name_H-M   'P 1'
_cell_length_a   8.54277442
_cell_length_b   8.54277442
_cell_length_c   15.64276393
_cell_angle_alpha   102.27423324
_cell_angle_beta   103.58998326
_cell_angle_gamma   100.39669449
_symmetry_Int_Tables_number   1
_chemical_formula_structural   RbNa3Fe7(PO4)6
_chemical_formula_sum   'Rb2 Na6 Fe14 P12 O48'
_cell_volume   1051.87588677
_cell_formula_units_Z   2
loop_
 _symmetry_equiv_pos_site_id
 _symmetry_equiv_pos_as_xyz
  1  'x, y, z'
loop_
 _atom_site_type_symbol
 _atom_site_label
 _atom_site_symmetry_multiplicity
 _atom_site_fract_x
 _atom_site_fract_y
 _atom_site_fract_z
 _atom_site_occupancy
  Rb  Rb0  1  0.50356394  0.25356394  0.25000000  1
  Rb  Rb1  1  0.49643606  0.74643606  0.75000000  1
  Na  Na2  1  0.73952046  0.75886525  0.02003673  1
  Na  Na3  1  0.26047954  0.24113475  0.97996327  1
  Na  Na4  1  0.23882852  0.71948373  0.47996327  1
  Na  Na5  1  0.76117148  0.28051627  0.52003673  1
  Na  Na6  1  0.00000000  0.00000000  0.50000000  1
  Na  Na7  1  0.00000000  0.50000000  0.00000000  1
  Fe  Fe8  1  0.86759651  0.61759651  0.25000000  1
  Fe  Fe9  1  0.13240349  0.38240349  0.75000000  1
  Fe  Fe10  1  0.04867197  0.30649566  0.35643542  1
  Fe  Fe11  1  0.95132803  0.69350434  0.64356458  1
  Fe  Fe12  1  0.45006024  0.69223655  0.14356458  1
  Fe  Fe13  1  0.54993976  0.30776345  0.85643542  1
  Fe  Fe14  1  0.16495136  0.91495136  0.25000000  1
  Fe  Fe15  1  0.83504864  0.08504864  0.75000000  1
  Fe  Fe16  1  0.50000000  0.00000000  0.00000000  1
  Fe  Fe17  1  0.50000000  0.50000000  0.50000000  1
  Fe  Fe18  1  0.40244460  0.14520364  0.62544553  1
  Fe  Fe19  1  0.59755540  0.85479636  0.37455447  1
  Fe  Fe20  1  0.01975811  0.77699907  0.87455447  1
  Fe  Fe21  1  0.98024189  0.22300093  0.12544553  1
  P  P22  1  0.78962403  0.97973624  0.23037196  1
  P  P23  1  0.21037597  0.02026376  0.76962804  1
  P  P24  1  0.24936429  0.55925208  0.26962804  1
  P  P25  1  0.75063571  0.44074792  0.73037196  1
  P  P26  1  0.33453333  0.09241017  0.42835777  1
  P  P27  1  0.66546667  0.90758983  0.57164223  1
  P  P28  1  0.16405240  0.90617556  0.07164223  1
  P  P29  1  0.83594760  0.09382444  0.92835777  1
  P  P30  1  0.66554509  0.41115061  0.07889428  1
  P  P31  1  0.33445491  0.58884939  0.92110572  1
  P  P32  1  0.83225633  0.58665081  0.42110572  1
  P  P33  1  0.16774367  0.41334919  0.57889428  1
  O  O34  1  0.63193916  0.91071200  0.14591943  1
  O  O35  1  0.36806084  0.08928800  0.85408057  1
  O  O36  1  0.26479257  0.48601972  0.35408057  1
  O  O37  1  0.73520743  0.51398028  0.64591943  1
  O  O38  1  0.32856933  0.53894728  0.00983179  1
  O  O39  1  0.67143067  0.46105272  0.99016821  1
  O  O40  1  0.02911549  0.31873754  0.49016821  1
  O  O41  1  0.97088451  0.68126246  0.50983179  1
  O  O42  1  0.58722966  0.00949559  0.63777647  1
  O  O43  1  0.41277034  0.99050441  0.36222353  1
  O  O44  1  0.87171912  0.94945319  0.86222353  1
  O  O45  1  0.12828088  0.05054681  0.13777647  1
  O  O46  1  0.62661590  0.54847492  0.14900304  1
  O  O47  1  0.37338410  0.45152508  0.85099696  1
  O  O48  1  0.89947188  0.47761285  0.35099696  1
  O  O49  1  0.10052812  0.52238715  0.64900304  1
  O  O50  1  0.53608113  0.24650728  0.06012208  1
  O  O51  1  0.46391887  0.75349272  0.93987792  1
  O  O52  1  0.68638521  0.47595905  0.43987792  1
  O  O53  1  0.31361479  0.52404095  0.56012208  1
  O  O54  1  0.89077825  0.15124207  0.22845727  1
  O  O55  1  0.10922175  0.84875793  0.77154273  1
  O  O56  1  0.42278479  0.66232098  0.27154273  1
  O  O57  1  0.57721521  0.33767902  0.72845727  1
  O  O58  1  0.90387972  0.85452932  0.22347031  1
  O  O59  1  0.09612028  0.14547068  0.77652969  1
  O  O60  1  0.13105902  0.68040942  0.27652969  1
  O  O61  1  0.86894098  0.31959058  0.72347031  1
  O  O62  1  0.26288168  0.99300366  0.48852519  1
  O  O63  1  0.73711832  0.00699634  0.51147481  1
  O  O64  1  0.00447847  0.77435649  0.01147481  1
  O  O65  1  0.99552153  0.22564351  0.98852519  1
  O  O66  1  0.74422619  0.01134520  0.32073286  1
  O  O67  1  0.25577381  0.98865480  0.67926714  1
  O  O68  1  0.19061234  0.42349333  0.17926714  1
  O  O69  1  0.80938766  0.57650667  0.82073286  1
  O  O70  1  0.25314441  0.96688166  0.00470017  1
  O  O71  1  0.74685559  0.03311834  0.99529983  1
  O  O72  1  0.46218149  0.24844425  0.49529983  1
  O  O73  1  0.53781851  0.75155575  0.50470017  1
  O  O74  1  0.19118849  0.13173364  0.35984829  1
  O  O75  1  0.80881151  0.86826636  0.64015171  1
  O  O76  1  0.27188536  0.83134020  0.14015171  1
  O  O77  1  0.72811464  0.16865980  0.85984829  1
  O  O78  1  0.77735760  0.71341145  0.36903867  1
  O  O79  1  0.22264240  0.28658855  0.63096133  1
  O  O80  1  0.84437277  0.40831892  0.13096133  1
  O  O81  1  0.15562723  0.59168108  0.86903867  1
