# generated using pymatgen
data_RbMo3Cl7
_symmetry_space_group_name_H-M   'P 1'
_cell_length_a   9.52035046
_cell_length_b   12.48731379
_cell_length_c   12.48731379
_cell_angle_alpha   74.67140979
_cell_angle_beta   69.77161711
_cell_angle_gamma   69.77161711
_symmetry_Int_Tables_number   1
_chemical_formula_structural   RbMo3Cl7
_chemical_formula_sum   'Rb4 Mo12 Cl28'
_cell_volume   1289.25922251
_cell_formula_units_Z   4
loop_
 _symmetry_equiv_pos_site_id
 _symmetry_equiv_pos_as_xyz
  1  'x, y, z'
loop_
 _atom_site_type_symbol
 _atom_site_label
 _atom_site_symmetry_multiplicity
 _atom_site_fract_x
 _atom_site_fract_y
 _atom_site_fract_z
 _atom_site_occupancy
  Rb  Rb0  1  0.25000000  0.06836840  0.93163160  1
  Rb  Rb1  1  0.75000000  0.93163160  0.06836840  1
  Rb  Rb2  1  0.00000000  0.50000000  0.50000000  1
  Rb  Rb3  1  0.50000000  0.50000000  0.50000000  1
  Mo  Mo4  1  0.13708011  0.01305825  0.56927848  1
  Mo  Mo5  1  0.86291989  0.98694175  0.43072152  1
  Mo  Mo6  1  0.36291989  0.43072152  0.98694175  1
  Mo  Mo7  1  0.63708011  0.56927848  0.01305825  1
  Mo  Mo8  1  0.15909135  0.98208650  0.36268144  1
  Mo  Mo9  1  0.84090865  0.01791350  0.63731856  1
  Mo  Mo10  1  0.34090865  0.63731856  0.01791350  1
  Mo  Mo11  1  0.65909135  0.36268144  0.98208650  1
  Mo  Mo12  1  0.05454989  0.84140951  0.54782310  1
  Mo  Mo13  1  0.94545011  0.15859049  0.45217690  1
  Mo  Mo14  1  0.44545011  0.45217690  0.15859049  1
  Mo  Mo15  1  0.55454989  0.54782310  0.84140951  1
  Cl  Cl16  1  0.22785646  0.14558904  0.39074469  1
  Cl  Cl17  1  0.77214354  0.85441096  0.60925531  1
  Cl  Cl18  1  0.27214354  0.60925531  0.85441096  1
  Cl  Cl19  1  0.72785646  0.39074469  0.14558904  1
  Cl  Cl20  1  0.13265392  0.62790343  0.61424145  1
  Cl  Cl21  1  0.86734608  0.37209657  0.38575855  1
  Cl  Cl22  1  0.36734608  0.38575855  0.37209657  1
  Cl  Cl23  1  0.63265392  0.61424145  0.62790343  1
  Cl  Cl24  1  0.33278260  0.84435161  0.47990472  1
  Cl  Cl25  1  0.66721740  0.15564839  0.52009528  1
  Cl  Cl26  1  0.16721740  0.52009528  0.15564839  1
  Cl  Cl27  1  0.83278260  0.47990472  0.84435161  1
  Cl  Cl28  1  0.07151450  0.81885418  0.35081237  1
  Cl  Cl29  1  0.92848550  0.18114582  0.64918763  1
  Cl  Cl30  1  0.42848550  0.64918763  0.18114582  1
  Cl  Cl31  1  0.57151450  0.35081237  0.81885418  1
  Cl  Cl32  1  0.03001946  0.87869766  0.74094847  1
  Cl  Cl33  1  0.96998054  0.12130234  0.25905153  1
  Cl  Cl34  1  0.46998054  0.25905153  0.12130234  1
  Cl  Cl35  1  0.53001946  0.74094847  0.87869766  1
  Cl  Cl36  1  0.31588860  0.03006515  0.66065989  1
  Cl  Cl37  1  0.68411140  0.96993485  0.33934011  1
  Cl  Cl38  1  0.18411140  0.33934011  0.96993485  1
  Cl  Cl39  1  0.81588860  0.66065989  0.03006515  1
  Cl  Cl40  1  0.63265039  0.03916916  0.82207349  1
  Cl  Cl41  1  0.36734961  0.96083084  0.17792651  1
  Cl  Cl42  1  0.86734961  0.17792651  0.96083084  1
  Cl  Cl43  1  0.13265039  0.82207349  0.03916916  1
