# generated using pymatgen
data_RbEr2Cl7
_symmetry_space_group_name_H-M   'P 1'
_cell_length_a   6.94828050
_cell_length_b   13.26466044
_cell_length_c   12.61534304
_cell_angle_alpha   90.00000000
_cell_angle_beta   90.00000000
_cell_angle_gamma   90.00000000
_symmetry_Int_Tables_number   1
_chemical_formula_structural   RbEr2Cl7
_chemical_formula_sum   'Rb4 Er8 Cl28'
_cell_volume   1162.71304212
_cell_formula_units_Z   4
loop_
 _symmetry_equiv_pos_site_id
 _symmetry_equiv_pos_as_xyz
  1  'x, y, z'
loop_
 _atom_site_type_symbol
 _atom_site_label
 _atom_site_symmetry_multiplicity
 _atom_site_fract_x
 _atom_site_fract_y
 _atom_site_fract_z
 _atom_site_occupancy
  Rb  Rb0  1  0.75000000  0.95775246  0.19536515  1
  Rb  Rb1  1  0.25000000  0.04224754  0.80463485  1
  Rb  Rb2  1  0.25000000  0.54224754  0.69536515  1
  Rb  Rb3  1  0.75000000  0.45775246  0.30463485  1
  Er  Er4  1  0.75000000  0.76343539  0.54010051  1
  Er  Er5  1  0.25000000  0.23656461  0.45989949  1
  Er  Er6  1  0.25000000  0.73656461  0.04010051  1
  Er  Er7  1  0.75000000  0.26343539  0.95989949  1
  Er  Er8  1  0.75000000  0.74999933  0.84228310  1
  Er  Er9  1  0.25000000  0.25000067  0.15771690  1
  Er  Er10  1  0.25000000  0.75000067  0.34228310  1
  Er  Er11  1  0.75000000  0.24999933  0.65771690  1
  Cl  Cl12  1  0.98908486  0.82510820  0.69329747  1
  Cl  Cl13  1  0.01091514  0.17489180  0.30670253  1
  Cl  Cl14  1  0.01091514  0.67489180  0.19329747  1
  Cl  Cl15  1  0.48908486  0.17489180  0.30670253  1
  Cl  Cl16  1  0.98908486  0.32510820  0.80670253  1
  Cl  Cl17  1  0.51091514  0.82510820  0.69329747  1
  Cl  Cl18  1  0.51091514  0.32510820  0.80670253  1
  Cl  Cl19  1  0.48908486  0.67489180  0.19329747  1
  Cl  Cl20  1  0.99035244  0.87868211  0.42256678  1
  Cl  Cl21  1  0.00964756  0.12131789  0.57743322  1
  Cl  Cl22  1  0.00964756  0.62131789  0.92256678  1
  Cl  Cl23  1  0.49035244  0.12131789  0.57743322  1
  Cl  Cl24  1  0.99035244  0.37868211  0.07743322  1
  Cl  Cl25  1  0.50964756  0.87868211  0.42256678  1
  Cl  Cl26  1  0.50964756  0.37868211  0.07743322  1
  Cl  Cl27  1  0.49035244  0.62131789  0.92256678  1
  Cl  Cl28  1  0.99006719  0.86697245  0.96040234  1
  Cl  Cl29  1  0.00993281  0.13302755  0.03959766  1
  Cl  Cl30  1  0.00993281  0.63302755  0.46040234  1
  Cl  Cl31  1  0.49006719  0.13302755  0.03959766  1
  Cl  Cl32  1  0.99006719  0.36697245  0.53959766  1
  Cl  Cl33  1  0.50993281  0.86697245  0.96040234  1
  Cl  Cl34  1  0.50993281  0.36697245  0.53959766  1
  Cl  Cl35  1  0.49006719  0.63302755  0.46040234  1
  Cl  Cl36  1  0.75000000  0.60764418  0.68816567  1
  Cl  Cl37  1  0.25000000  0.39235582  0.31183433  1
  Cl  Cl38  1  0.25000000  0.89235582  0.18816567  1
  Cl  Cl39  1  0.75000000  0.10764418  0.81183433  1
