# generated using pymatgen
data_Rb2Mo(OF2)2
_symmetry_space_group_name_H-M   'P 1'
_cell_length_a   6.16323708
_cell_length_b   7.20446595
_cell_length_c   7.96043440
_cell_angle_alpha   90.00000000
_cell_angle_beta   112.77522187
_cell_angle_gamma   90.00000000
_symmetry_Int_Tables_number   1
_chemical_formula_structural   Rb2Mo(OF2)2
_chemical_formula_sum   'Rb4 Mo2 O4 F8'
_cell_volume   325.90632814
_cell_formula_units_Z   2
loop_
 _symmetry_equiv_pos_site_id
 _symmetry_equiv_pos_as_xyz
  1  'x, y, z'
loop_
 _atom_site_type_symbol
 _atom_site_label
 _atom_site_symmetry_multiplicity
 _atom_site_fract_x
 _atom_site_fract_y
 _atom_site_fract_z
 _atom_site_occupancy
  Rb  Rb0  1  0.55260874  0.25000000  0.11128184  1
  Rb  Rb1  1  0.44132690  0.75000000  0.88871816  1
  Rb  Rb2  1  0.22075544  0.25000000  0.46957854  1
  Rb  Rb3  1  0.75117690  0.75000000  0.53042146  1
  Mo  Mo4  1  0.88896035  0.25000000  0.77325024  1
  Mo  Mo5  1  0.11571011  0.75000000  0.22674976  1
  O  O6  1  0.30130342  0.93769815  0.23417654  1
  O  O7  1  0.06712688  0.06230185  0.76582346  1
  O  O8  1  0.06712688  0.43769815  0.76582346  1
  O  O9  1  0.30130342  0.56230185  0.23417654  1
  F  F10  1  0.97407007  0.25000000  0.03435213  1
  F  F11  1  0.93971795  0.75000000  0.96564787  1
  F  F12  1  0.61714254  0.07079654  0.75945806  1
  F  F13  1  0.85768447  0.92920346  0.24054194  1
  F  F14  1  0.85768447  0.57079654  0.24054194  1
  F  F15  1  0.61714254  0.42920346  0.75945806  1
  F  F16  1  0.71469769  0.25000000  0.50323645  1
  F  F17  1  0.21146124  0.75000000  0.49676355  1
