# generated using pymatgen
data_Ba2Bi2F11
_symmetry_space_group_name_H-M   'P 1'
_cell_length_a   7.88716573
_cell_length_b   7.88716610
_cell_length_c   15.39732093
_cell_angle_alpha   90.00000000
_cell_angle_beta   90.00000000
_cell_angle_gamma   119.99999839
_symmetry_Int_Tables_number   1
_chemical_formula_structural   Ba2Bi2F11
_chemical_formula_sum   'Ba6 Bi6 F33'
_cell_volume   829.50260537
_cell_formula_units_Z   3
loop_
 _symmetry_equiv_pos_site_id
 _symmetry_equiv_pos_as_xyz
  1  'x, y, z'
loop_
 _atom_site_type_symbol
 _atom_site_label
 _atom_site_symmetry_multiplicity
 _atom_site_fract_x
 _atom_site_fract_y
 _atom_site_fract_z
 _atom_site_occupancy
  Ba  Ba0  1  0.51962485  0.15682627  0.65140350  1
  Ba  Ba1  1  0.13501247  0.41032120  0.81571053  1
  Ba  Ba2  1  0.63720242  0.48037515  0.98473650  1
  Ba  Ba3  1  0.58967880  0.72469127  0.48237653  1
  Ba  Ba4  1  0.27530873  0.86498753  0.14904353  1
  Ba  Ba5  1  0.84317373  0.36279758  0.31806950  1
  Bi  Bi6  1  0.52830861  0.97048778  0.89558123  1
  Bi  Bi7  1  0.84729369  0.80269131  0.72885169  1
  Bi  Bi8  1  0.19730869  0.04460237  0.39551769  1
  Bi  Bi9  1  0.44218016  0.47169139  0.22891423  1
  Bi  Bi10  1  0.95539763  0.15270631  0.06218469  1
  Bi  Bi11  1  0.02951222  0.55781984  0.56224723  1
  F  F12  1  0.64991517  0.07214176  0.04332730  1
  F  F13  1  0.44211680  0.67145298  0.93783867  1
  F  F14  1  0.42222759  0.35008483  0.37666030  1
  F  F15  1  0.17914591  0.47725678  0.46671641  1
  F  F16  1  0.56284330  0.27172261  0.18738803  1
  F  F17  1  0.94279880  0.59770597  0.19258726  1
  F  F18  1  0.52274322  0.70188913  0.13338341  1
  F  F19  1  0.40229403  0.34509383  0.85925426  1
  F  F20  1  0.70887931  0.43715670  0.52072203  1
  F  F21  1  0.27551019  0.30753840  0.08653484  1
  F  F22  1  0.29811087  0.82085409  0.80005041  1
  F  F23  1  0.92785824  0.57777241  0.70999430  1
  F  F24  1  0.32599115  0.00289975  0.97914235  1
  F  F25  1  0.00551793  0.43438524  0.01373340  1
  F  F26  1  0.67690959  0.67400885  0.31247535  1
  F  F27  1  0.32854702  0.77066482  0.60450467  1
  F  F28  1  0.90904728  0.08817914  0.92190544  1
  F  F29  1  0.03202821  0.72448981  0.41986784  1
  F  F30  1  0.92964247  0.05732922  0.40300930  1
  F  F31  1  0.99710025  0.32309041  0.64580835  1
  F  F32  1  0.12768675  0.07035753  0.73634330  1
  F  F33  1  0.56561476  0.57113169  0.68040040  1
  F  F34  1  0.42886831  0.99448207  0.34706640  1
  F  F35  1  0.17913186  0.09095272  0.25523844  1
  F  F36  1  0.69246160  0.96797179  0.75320184  1
  F  F37  1  0.72827639  0.29112069  0.85405603  1
  F  F38  1  0.22933518  0.55788320  0.27117167  1
  F  F39  1  0.84281714  0.72369263  0.86233606  1
  F  F40  1  0.88087549  0.15718286  0.19566906  1
  F  F41  1  0.94267078  0.87231325  0.06967630  1
  F  F42  1  0.65490617  0.05720120  0.52592026  1
  F  F43  1  0.91182086  0.82086814  0.58857144  1
  F  F44  1  0.27630737  0.11912451  0.52900206  1
