# generated using pymatgen
data_Pr3(Al3Os)4
_symmetry_space_group_name_H-M   'P 1'
_cell_length_a   8.92415883
_cell_length_b   8.92415883
_cell_length_c   9.70242641
_cell_angle_alpha   90.00000000
_cell_angle_beta   90.00000000
_cell_angle_gamma   119.99999307
_symmetry_Int_Tables_number   1
_chemical_formula_structural   Pr3(Al3Os)4
_chemical_formula_sum   'Pr6 Al24 Os8'
_cell_volume   669.18408123
_cell_formula_units_Z   2
loop_
 _symmetry_equiv_pos_site_id
 _symmetry_equiv_pos_as_xyz
  1  'x, y, z'
loop_
 _atom_site_type_symbol
 _atom_site_label
 _atom_site_symmetry_multiplicity
 _atom_site_fract_x
 _atom_site_fract_y
 _atom_site_fract_z
 _atom_site_occupancy
  Pr  Pr0  1  0.80746907  0.19253093  0.75000000  1
  Pr  Pr1  1  0.19253093  0.80746907  0.25000000  1
  Pr  Pr2  1  0.38506185  0.19253093  0.75000000  1
  Pr  Pr3  1  0.61493815  0.80746907  0.25000000  1
  Pr  Pr4  1  0.80746907  0.61493815  0.75000000  1
  Pr  Pr5  1  0.19253093  0.38506185  0.25000000  1
  Al  Al6  1  0.66666700  0.33333300  0.98933007  1
  Al  Al7  1  0.33333300  0.66666700  0.01066993  1
  Al  Al8  1  0.33333300  0.66666700  0.48933007  1
  Al  Al9  1  0.66666700  0.33333300  0.51066993  1
  Al  Al10  1  0.83736429  0.16263571  0.42511045  1
  Al  Al11  1  0.16263571  0.83736429  0.57488955  1
  Al  Al12  1  0.32527142  0.16263571  0.42511045  1
  Al  Al13  1  0.16263571  0.83736429  0.92511045  1
  Al  Al14  1  0.67472858  0.83736429  0.57488955  1
  Al  Al15  1  0.83736429  0.16263571  0.07488955  1
  Al  Al16  1  0.83736429  0.67472858  0.42511045  1
  Al  Al17  1  0.67472858  0.83736429  0.92511045  1
  Al  Al18  1  0.16263571  0.32527142  0.57488955  1
  Al  Al19  1  0.32527142  0.16263571  0.07488955  1
  Al  Al20  1  0.16263571  0.32527142  0.92511045  1
  Al  Al21  1  0.83736429  0.67472858  0.07488955  1
  Al  Al22  1  0.43750898  0.56249102  0.75000000  1
  Al  Al23  1  0.56249102  0.43750898  0.25000000  1
  Al  Al24  1  0.12498205  0.56249102  0.75000000  1
  Al  Al25  1  0.87501795  0.43750898  0.25000000  1
  Al  Al26  1  0.43750898  0.87501795  0.75000000  1
  Al  Al27  1  0.56249102  0.12498205  0.25000000  1
  Al  Al28  1  0.00000000  0.00000000  0.75000000  1
  Al  Al29  1  0.00000000  0.00000000  0.25000000  1
  Os  Os30  1  0.50000000  0.50000000  0.00000000  1
  Os  Os31  1  0.00000000  0.50000000  0.00000000  1
  Os  Os32  1  0.50000000  0.50000000  0.50000000  1
  Os  Os33  1  0.50000000  0.00000000  0.00000000  1
  Os  Os34  1  0.00000000  0.50000000  0.50000000  1
  Os  Os35  1  0.50000000  0.00000000  0.50000000  1
  Os  Os36  1  0.00000000  0.00000000  0.00000000  1
  Os  Os37  1  0.00000000  0.00000000  0.50000000  1
