# generated using pymatgen
data_Sb3Cl11F4
_symmetry_space_group_name_H-M   'P 1'
_cell_length_a   9.83681089
_cell_length_b   13.04869877
_cell_length_c   17.15252636
_cell_angle_alpha   90.00000000
_cell_angle_beta   90.00000000
_cell_angle_gamma   103.00614258
_symmetry_Int_Tables_number   1
_chemical_formula_structural   Sb3Cl11F4
_chemical_formula_sum   'Sb12 Cl44 F16'
_cell_volume   2145.17538189
_cell_formula_units_Z   4
loop_
 _symmetry_equiv_pos_site_id
 _symmetry_equiv_pos_as_xyz
  1  'x, y, z'
loop_
 _atom_site_type_symbol
 _atom_site_label
 _atom_site_symmetry_multiplicity
 _atom_site_fract_x
 _atom_site_fract_y
 _atom_site_fract_z
 _atom_site_occupancy
  Sb  Sb0  1  0.00218828  0.73024953  0.07305794  1
  Sb  Sb1  1  0.99781172  0.26975047  0.92694206  1
  Sb  Sb2  1  0.49781172  0.76975047  0.57305794  1
  Sb  Sb3  1  0.50218828  0.23024953  0.42694206  1
  Sb  Sb4  1  0.99673262  0.79845234  0.31206578  1
  Sb  Sb5  1  0.00326738  0.20154766  0.68793422  1
  Sb  Sb6  1  0.50326738  0.70154766  0.81206578  1
  Sb  Sb7  1  0.49673262  0.29845234  0.18793422  1
  Sb  Sb8  1  0.80957301  0.62674314  0.66637543  1
  Sb  Sb9  1  0.19042699  0.37325686  0.33362457  1
  Sb  Sb10  1  0.69042699  0.87325686  0.16637543  1
  Sb  Sb11  1  0.30957301  0.12674314  0.83362457  1
  Cl  Cl12  1  0.95274994  0.88159365  0.42620116  1
  Cl  Cl13  1  0.04725006  0.11840635  0.57379884  1
  Cl  Cl14  1  0.54725006  0.61840635  0.92620116  1
  Cl  Cl15  1  0.45274994  0.38159365  0.07379884  1
  Cl  Cl16  1  0.20171434  0.75037726  0.34754962  1
  Cl  Cl17  1  0.79828566  0.24962274  0.65245038  1
  Cl  Cl18  1  0.29828566  0.74962274  0.84754962  1
  Cl  Cl19  1  0.70171434  0.25037726  0.15245038  1
  Cl  Cl20  1  0.13374990  0.90299446  0.07355810  1
  Cl  Cl21  1  0.86625010  0.09700554  0.92644190  1
  Cl  Cl22  1  0.36625010  0.59700554  0.57355810  1
  Cl  Cl23  1  0.63374990  0.40299446  0.42644190  1
  Cl  Cl24  1  0.55266747  0.76894557  0.44100986  1
  Cl  Cl25  1  0.44733253  0.23105443  0.55899014  1
  Cl  Cl26  1  0.94733253  0.73105443  0.94100986  1
  Cl  Cl27  1  0.05266747  0.26894557  0.05899014  1
  Cl  Cl28  1  0.84323527  0.57171438  0.09769635  1
  Cl  Cl29  1  0.15676473  0.42828562  0.90230365  1
  Cl  Cl30  1  0.65676473  0.92828562  0.59769635  1
  Cl  Cl31  1  0.34323527  0.07171438  0.40230365  1
  Cl  Cl32  1  0.56504190  0.94502883  0.25877337  1
  Cl  Cl33  1  0.43495810  0.05497117  0.74122663  1
  Cl  Cl34  1  0.93495810  0.55497117  0.75877337  1
  Cl  Cl35  1  0.06504190  0.44502883  0.24122663  1
  Cl  Cl36  1  0.63482700  0.47398864  0.65323927  1
  Cl  Cl37  1  0.36517300  0.52601136  0.34676073  1
  Cl  Cl38  1  0.86517300  0.02601136  0.15323927  1
  Cl  Cl39  1  0.13482700  0.97398864  0.84676073  1
  Cl  Cl40  1  0.19637680  0.65595518  0.07136336  1
  Cl  Cl41  1  0.80362320  0.34404482  0.92863664  1
  Cl  Cl42  1  0.30362320  0.84404482  0.57136336  1
  Cl  Cl43  1  0.69637680  0.15595518  0.42863664  1
  Cl  Cl44  1  0.84626394  0.63554062  0.33396025  1
  Cl  Cl45  1  0.15373606  0.36445938  0.66603975  1
  Cl  Cl46  1  0.65373606  0.86445938  0.83396025  1
  Cl  Cl47  1  0.34626394  0.13554062  0.16603975  1
  Cl  Cl48  1  0.93178667  0.79951148  0.68717155  1
  Cl  Cl49  1  0.06821333  0.20048852  0.31282845  1
  Cl  Cl50  1  0.56821333  0.70048852  0.18717155  1
  Cl  Cl51  1  0.43178667  0.29951148  0.81282845  1
  Cl  Cl52  1  0.57299448  0.89852072  0.05267228  1
  Cl  Cl53  1  0.42700552  0.10147928  0.94732772  1
  Cl  Cl54  1  0.92700552  0.60147928  0.55267228  1
  Cl  Cl55  1  0.07299448  0.39852072  0.44732772  1
  F  F56  1  0.82892170  0.80051039  0.09957481  1
  F  F57  1  0.17107830  0.19948961  0.90042519  1
  F  F58  1  0.67107830  0.69948961  0.59957481  1
  F  F59  1  0.32892170  0.30051039  0.40042519  1
  F  F60  1  0.09419968  0.92739004  0.26700574  1
  F  F61  1  0.90580032  0.07260996  0.73299426  1
  F  F62  1  0.40580032  0.57260996  0.76700574  1
  F  F63  1  0.59419968  0.42739004  0.23299426  1
  F  F64  1  0.67654785  0.66132026  0.75989982  1
  F  F65  1  0.32345215  0.33867974  0.24010018  1
  F  F66  1  0.82345215  0.83867974  0.25989982  1
  F  F67  1  0.17654785  0.16132026  0.74010018  1
  F  F68  1  0.01777398  0.74027382  0.19848629  1
  F  F69  1  0.98222602  0.25972618  0.80151371  1
  F  F70  1  0.48222602  0.75972618  0.69848629  1
  F  F71  1  0.51777398  0.24027382  0.30151371  1
