# generated using pymatgen
data_Pr2Sn3
_symmetry_space_group_name_H-M   'P 1'
_cell_length_a   6.49637497
_cell_length_b   8.60936201
_cell_length_c   11.29080802
_cell_angle_alpha   107.36433501
_cell_angle_beta   96.80116191
_cell_angle_gamma   100.24188486
_symmetry_Int_Tables_number   1
_chemical_formula_structural   Pr2Sn3
_chemical_formula_sum   'Pr8 Sn12'
_cell_volume   583.13748394
_cell_formula_units_Z   4
loop_
 _symmetry_equiv_pos_site_id
 _symmetry_equiv_pos_as_xyz
  1  'x, y, z'
loop_
 _atom_site_type_symbol
 _atom_site_label
 _atom_site_symmetry_multiplicity
 _atom_site_fract_x
 _atom_site_fract_y
 _atom_site_fract_z
 _atom_site_occupancy
  Pr  Pr0  1  0.33176507  0.03226282  0.74452904  1
  Pr  Pr1  1  0.66823493  0.96773718  0.25547096  1
  Pr  Pr2  1  0.95796172  0.25134898  0.05635814  1
  Pr  Pr3  1  0.04203828  0.74865102  0.94364186  1
  Pr  Pr4  1  0.55748854  0.43017167  0.33610497  1
  Pr  Pr5  1  0.44251146  0.56982833  0.66389503  1
  Pr  Pr6  1  0.12556720  0.75385950  0.38409017  1
  Pr  Pr7  1  0.87443280  0.24614050  0.61590983  1
  Sn  Sn8  1  0.04859738  0.35325961  0.37904566  1
  Sn  Sn9  1  0.95140262  0.64674039  0.62095434  1
  Sn  Sn10  1  0.35615847  0.16563025  0.49853801  1
  Sn  Sn11  1  0.64384153  0.83436975  0.50146199  1
  Sn  Sn12  1  0.43726165  0.16884878  0.05114064  1
  Sn  Sn13  1  0.56273835  0.83115122  0.94885936  1
  Sn  Sn14  1  0.32374647  0.60196380  0.13894542  1
  Sn  Sn15  1  0.67625353  0.39803620  0.86105458  1
  Sn  Sn16  1  0.22241014  0.40589410  0.86441439  1
  Sn  Sn17  1  0.77758986  0.59410590  0.13558561  1
  Sn  Sn18  1  0.17735825  0.03734240  0.22316345  1
  Sn  Sn19  1  0.82264175  0.96265760  0.77683655  1
