# generated using pymatgen
data_Rb2Hg3(GeS4)2
_symmetry_space_group_name_H-M   'P 1'
_cell_length_a   6.52644731
_cell_length_b   10.16372672
_cell_length_c   13.47110352
_cell_angle_alpha   97.85133168
_cell_angle_beta   90.00000000
_cell_angle_gamma   90.00000000
_symmetry_Int_Tables_number   1
_chemical_formula_structural   Rb2Hg3(GeS4)2
_chemical_formula_sum   'Rb4 Hg6 Ge4 S16'
_cell_volume   885.20253158
_cell_formula_units_Z   2
loop_
 _symmetry_equiv_pos_site_id
 _symmetry_equiv_pos_as_xyz
  1  'x, y, z'
loop_
 _atom_site_type_symbol
 _atom_site_label
 _atom_site_symmetry_multiplicity
 _atom_site_fract_x
 _atom_site_fract_y
 _atom_site_fract_z
 _atom_site_occupancy
  Rb  Rb0  1  0.66373546  0.22020245  0.80738770  1
  Rb  Rb1  1  0.33626454  0.77979755  0.19261230  1
  Rb  Rb2  1  0.16373546  0.77979755  0.69261230  1
  Rb  Rb3  1  0.83626454  0.22020245  0.30738770  1
  Hg  Hg4  1  0.70585273  0.50205564  0.61779343  1
  Hg  Hg5  1  0.29414727  0.49794436  0.38220657  1
  Hg  Hg6  1  0.20585273  0.49794436  0.88220657  1
  Hg  Hg7  1  0.79414727  0.50205564  0.11779343  1
  Hg  Hg8  1  -0.00000000  0.00000000  0.00000000  1
  Hg  Hg9  1  0.50000000  0.00000000  0.50000000  1
  Ge  Ge10  1  0.68399156  0.71746234  0.92493901  1
  Ge  Ge11  1  0.31600844  0.28253766  0.07506099  1
  Ge  Ge12  1  0.18399156  0.28253766  0.57506099  1
  Ge  Ge13  1  0.81600844  0.71746234  0.42493901  1
  S  S14  1  0.34006346  0.72674554  0.92606921  1
  S  S15  1  0.65993654  0.27325446  0.07393079  1
  S  S16  1  0.84006346  0.27325446  0.57393079  1
  S  S17  1  0.15993654  0.72674554  0.42606921  1
  S  S18  1  0.80705122  0.54196318  0.82863329  1
  S  S19  1  0.19294878  0.45803682  0.17136671  1
  S  S20  1  0.30705122  0.45803682  0.67136671  1
  S  S21  1  0.69294878  0.54196318  0.32863329  1
  S  S22  1  0.78306292  0.90890268  0.86602340  1
  S  S23  1  0.21693708  0.09109732  0.13397660  1
  S  S24  1  0.28306292  0.09109732  0.63397660  1
  S  S25  1  0.71693708  0.90890268  0.36602340  1
  S  S26  1  0.69542974  0.73587912  0.58283446  1
  S  S27  1  0.30457026  0.26412088  0.41716554  1
  S  S28  1  0.19542974  0.26412088  0.91716554  1
  S  S29  1  0.80457026  0.73587912  0.08283446  1
