# generated using pymatgen
data_RbDy(MoO4)2
_symmetry_space_group_name_H-M   'P 1'
_cell_length_a   5.14203424
_cell_length_b   8.17782469
_cell_length_c   18.85072282
_cell_angle_alpha   90.00000000
_cell_angle_beta   90.00000000
_cell_angle_gamma   90.00000000
_symmetry_Int_Tables_number   1
_chemical_formula_structural   RbDy(MoO4)2
_chemical_formula_sum   'Rb4 Dy4 Mo8 O32'
_cell_volume   792.68523360
_cell_formula_units_Z   4
loop_
 _symmetry_equiv_pos_site_id
 _symmetry_equiv_pos_as_xyz
  1  'x, y, z'
loop_
 _atom_site_type_symbol
 _atom_site_label
 _atom_site_symmetry_multiplicity
 _atom_site_fract_x
 _atom_site_fract_y
 _atom_site_fract_z
 _atom_site_occupancy
  Rb  Rb0  1  -0.00000000  0.75000000  0.23028373  1
  Rb  Rb1  1  0.00000000  0.25000000  0.76971627  1
  Rb  Rb2  1  0.50000000  0.25000000  0.26971627  1
  Rb  Rb3  1  0.50000000  0.75000000  0.73028373  1
  Dy  Dy4  1  0.00000000  0.75000000  0.99369828  1
  Dy  Dy5  1  0.00000000  0.25000000  0.00630172  1
  Dy  Dy6  1  0.50000000  0.25000000  0.50630172  1
  Dy  Dy7  1  0.50000000  0.75000000  0.49369828  1
  Mo  Mo8  1  0.97742767  0.98433418  0.59942625  1
  Mo  Mo9  1  0.02257233  0.01566582  0.40057375  1
  Mo  Mo10  1  0.52257233  0.48433418  0.90057375  1
  Mo  Mo11  1  0.02257233  0.51566582  0.59942625  1
  Mo  Mo12  1  0.47742767  0.51566582  0.09942625  1
  Mo  Mo13  1  0.97742767  0.48433418  0.40057375  1
  Mo  Mo14  1  0.47742767  0.01566582  0.90057375  1
  Mo  Mo15  1  0.52257233  0.98433418  0.09942625  1
  O  O16  1  0.90165980  0.52557342  0.68610799  1
  O  O17  1  0.09834020  0.47442658  0.31389201  1
  O  O18  1  0.59834020  0.02557342  0.81389201  1
  O  O19  1  0.09834020  0.97442658  0.68610799  1
  O  O20  1  0.40165980  0.97442658  0.18610799  1
  O  O21  1  0.90165980  0.02557342  0.31389201  1
  O  O22  1  0.40165980  0.47442658  0.81389201  1
  O  O23  1  0.59834020  0.52557342  0.18610799  1
  O  O24  1  0.73218452  0.66101157  0.90256274  1
  O  O25  1  0.26781548  0.33898843  0.09743726  1
  O  O26  1  0.76781548  0.16101157  0.59743726  1
  O  O27  1  0.26781548  0.83898843  0.90256274  1
  O  O28  1  0.23218452  0.83898843  0.40256274  1
  O  O29  1  0.73218452  0.16101157  0.09743726  1
  O  O30  1  0.23218452  0.33898843  0.59743726  1
  O  O31  1  0.76781548  0.66101157  0.40256274  1
  O  O32  1  0.75332266  0.99542682  0.96456352  1
  O  O33  1  0.24667734  0.00457318  0.03543648  1
  O  O34  1  0.74667734  0.49542682  0.53543648  1
  O  O35  1  0.24667734  0.50457318  0.96456352  1
  O  O36  1  0.25332266  0.50457318  0.46456352  1
  O  O37  1  0.75332266  0.49542682  0.03543648  1
  O  O38  1  0.25332266  0.00457318  0.53543648  1
  O  O39  1  0.74667734  0.99542682  0.46456352  1
  O  O40  1  0.75778994  0.81080779  0.58966167  1
  O  O41  1  0.24221006  0.18919221  0.41033833  1
  O  O42  1  0.74221006  0.31080779  0.91033833  1
  O  O43  1  0.24221006  0.68919221  0.58966167  1
  O  O44  1  0.25778994  0.68919221  0.08966167  1
  O  O45  1  0.75778994  0.31080779  0.41033833  1
  O  O46  1  0.25778994  0.18919221  0.91033833  1
  O  O47  1  0.74221006  0.81080779  0.08966167  1
