# generated using pymatgen
data_NpTl2F6
_symmetry_space_group_name_H-M   'P 1'
_cell_length_a   7.07394123
_cell_length_b   7.12085252
_cell_length_c   7.52813462
_cell_angle_alpha   90.00000000
_cell_angle_beta   90.00000000
_cell_angle_gamma   119.78230743
_symmetry_Int_Tables_number   1
_chemical_formula_structural   NpTl2F6
_chemical_formula_sum   'Np2 Tl4 F12'
_cell_volume   329.12429961
_cell_formula_units_Z   2
loop_
 _symmetry_equiv_pos_site_id
 _symmetry_equiv_pos_as_xyz
  1  'x, y, z'
loop_
 _atom_site_type_symbol
 _atom_site_label
 _atom_site_symmetry_multiplicity
 _atom_site_fract_x
 _atom_site_fract_y
 _atom_site_fract_z
 _atom_site_occupancy
  Np  Np0  1  0.55463690  0.10927380  0.25000000  1
  Np  Np1  1  0.44536310  0.89072620  0.75000000  1
  Tl  Tl2  1  0.15509619  0.31019238  0.99787568  1
  Tl  Tl3  1  0.84490381  0.68980762  0.00212432  1
  Tl  Tl4  1  0.84490381  0.68980762  0.49787568  1
  Tl  Tl5  1  0.15509619  0.31019238  0.50212432  1
  F  F6  1  0.51019911  0.40341365  0.25000000  1
  F  F7  1  0.48980089  0.59658635  0.75000000  1
  F  F8  1  0.89321454  0.40341365  0.25000000  1
  F  F9  1  0.10678546  0.59658635  0.75000000  1
  F  F10  1  0.39952606  0.79905213  0.04247469  1
  F  F11  1  0.60047394  0.20094787  0.95752531  1
  F  F12  1  0.60047394  0.20094787  0.54247469  1
  F  F13  1  0.39952606  0.79905213  0.45752531  1
  F  F14  1  0.20101944  0.98288232  0.25000000  1
  F  F15  1  0.79898056  0.01711768  0.75000000  1
  F  F16  1  0.78186288  0.98288232  0.25000000  1
  F  F17  1  0.21813712  0.01711768  0.75000000  1
