# generated using pymatgen
data_PrAlGe2O7
_symmetry_space_group_name_H-M   'P 1'
_cell_length_a   6.60907305
_cell_length_b   7.33969630
_cell_length_c   11.55225396
_cell_angle_alpha   96.78712624
_cell_angle_beta   90.00000000
_cell_angle_gamma   90.00000000
_symmetry_Int_Tables_number   1
_chemical_formula_structural   PrAlGe2O7
_chemical_formula_sum   'Pr4 Al4 Ge8 O28'
_cell_volume   556.45642049
_cell_formula_units_Z   4
loop_
 _symmetry_equiv_pos_site_id
 _symmetry_equiv_pos_as_xyz
  1  'x, y, z'
loop_
 _atom_site_type_symbol
 _atom_site_label
 _atom_site_symmetry_multiplicity
 _atom_site_fract_x
 _atom_site_fract_y
 _atom_site_fract_z
 _atom_site_occupancy
  Pr  Pr0  1  0.64767775  0.73638956  0.47411548  1
  Pr  Pr1  1  0.35232225  0.26361044  0.52588452  1
  Pr  Pr2  1  0.14767775  0.76361044  0.02588452  1
  Pr  Pr3  1  0.85232225  0.23638956  0.97411548  1
  Al  Al4  1  0.60261520  0.01722429  0.73021059  1
  Al  Al5  1  0.39738480  0.98277571  0.26978941  1
  Al  Al6  1  0.10261520  0.48277571  0.76978941  1
  Al  Al7  1  0.89738480  0.51722429  0.23021059  1
  Ge  Ge8  1  0.34248615  0.24121343  0.95078978  1
  Ge  Ge9  1  0.65751385  0.75878657  0.04921022  1
  Ge  Ge10  1  0.84248615  0.25878657  0.54921022  1
  Ge  Ge11  1  0.15751385  0.74121343  0.45078978  1
  Ge  Ge12  1  0.08999587  0.91656889  0.71962926  1
  Ge  Ge13  1  0.91000413  0.08343111  0.28037074  1
  Ge  Ge14  1  0.58999587  0.58343111  0.78037074  1
  Ge  Ge15  1  0.41000413  0.41656889  0.21962926  1
  O  O16  1  0.62529089  0.77111990  0.69889546  1
  O  O17  1  0.37470911  0.22888010  0.30110454  1
  O  O18  1  0.12529089  0.72888010  0.80110454  1
  O  O19  1  0.87470911  0.27111990  0.19889546  1
  O  O20  1  0.17664070  0.06963367  0.97676039  1
  O  O21  1  0.82335930  0.93036633  0.02323961  1
  O  O22  1  0.67664070  0.43036633  0.52323961  1
  O  O23  1  0.32335930  0.56963367  0.47676039  1
  O  O24  1  0.38451072  0.44745381  0.72273328  1
  O  O25  1  0.61548928  0.55254619  0.27726672  1
  O  O26  1  0.88451072  0.05254619  0.77726672  1
  O  O27  1  0.11548928  0.94745381  0.22273328  1
  O  O28  1  0.00187185  0.82624897  0.57305306  1
  O  O29  1  0.99812815  0.17375103  0.42694694  1
  O  O30  1  0.50187185  0.67375103  0.92694694  1
  O  O31  1  0.49812815  0.32624897  0.07305306  1
  O  O32  1  0.55077474  0.16094435  0.86450375  1
  O  O33  1  0.44922526  0.83905565  0.13549625  1
  O  O34  1  0.05077474  0.33905565  0.63549625  1
  O  O35  1  0.94922526  0.66094435  0.36450375  1
  O  O36  1  0.16113472  0.40912781  0.91393786  1
  O  O37  1  0.83886528  0.59087219  0.08606214  1
  O  O38  1  0.66113472  0.09087219  0.58606214  1
  O  O39  1  0.33886528  0.90912781  0.41393786  1
  O  O40  1  0.31820765  0.02639365  0.68725506  1
  O  O41  1  0.68179235  0.97360635  0.31274494  1
  O  O42  1  0.81820765  0.47360635  0.81274494  1
  O  O43  1  0.18179235  0.52639365  0.18725506  1
