# generated using pymatgen
data_Rb2SmBr5
_symmetry_space_group_name_H-M   'P 1'
_cell_length_a   8.81130957
_cell_length_b   9.31215996
_cell_length_c   14.15664549
_cell_angle_alpha   90.00000000
_cell_angle_beta   90.00000000
_cell_angle_gamma   90.00000000
_symmetry_Int_Tables_number   1
_chemical_formula_structural   Rb2SmBr5
_chemical_formula_sum   'Rb8 Sm4 Br20'
_cell_volume   1161.58566495
_cell_formula_units_Z   4
loop_
 _symmetry_equiv_pos_site_id
 _symmetry_equiv_pos_as_xyz
  1  'x, y, z'
loop_
 _atom_site_type_symbol
 _atom_site_label
 _atom_site_symmetry_multiplicity
 _atom_site_fract_x
 _atom_site_fract_y
 _atom_site_fract_z
 _atom_site_occupancy
  Rb  Rb0  1  0.55415382  0.49560594  0.67247062  1
  Rb  Rb1  1  0.44584618  0.50439406  0.32752938  1
  Rb  Rb2  1  0.05415382  0.50439406  0.82752938  1
  Rb  Rb3  1  0.44584618  0.99560594  0.32752938  1
  Rb  Rb4  1  0.94584618  0.49560594  0.17247062  1
  Rb  Rb5  1  0.55415382  0.00439406  0.67247062  1
  Rb  Rb6  1  0.94584618  0.00439406  0.17247062  1
  Rb  Rb7  1  0.05415382  0.99560594  0.82752938  1
  Sm  Sm8  1  0.57355059  0.75000000  0.99599983  1
  Sm  Sm9  1  0.42644941  0.25000000  0.00400017  1
  Sm  Sm10  1  0.07355059  0.25000000  0.50400017  1
  Sm  Sm11  1  0.92644941  0.75000000  0.49599983  1
  Br  Br12  1  0.38278310  0.75000000  0.82836616  1
  Br  Br13  1  0.61721690  0.25000000  0.17163384  1
  Br  Br14  1  0.88278310  0.25000000  0.67163384  1
  Br  Br15  1  0.11721690  0.75000000  0.32836616  1
  Br  Br16  1  0.65988488  0.45708789  0.92804753  1
  Br  Br17  1  0.34011512  0.54291211  0.07195247  1
  Br  Br18  1  0.15988488  0.54291211  0.57195247  1
  Br  Br19  1  0.34011512  0.95708789  0.07195247  1
  Br  Br20  1  0.84011512  0.45708789  0.42804753  1
  Br  Br21  1  0.65988488  0.04291211  0.92804753  1
  Br  Br22  1  0.84011512  0.04291211  0.42804753  1
  Br  Br23  1  0.15988488  0.95708789  0.57195247  1
  Br  Br24  1  0.90782169  0.75000000  0.98881307  1
  Br  Br25  1  0.09217831  0.25000000  0.01118693  1
  Br  Br26  1  0.40782169  0.25000000  0.51118693  1
  Br  Br27  1  0.59217831  0.75000000  0.48881307  1
  Br  Br28  1  0.84431970  0.75000000  0.69559803  1
  Br  Br29  1  0.15568030  0.25000000  0.30440197  1
  Br  Br30  1  0.34431970  0.25000000  0.80440197  1
  Br  Br31  1  0.65568030  0.75000000  0.19559803  1
