# generated using pymatgen
data_RbCu(PO3)3
_symmetry_space_group_name_H-M   'P 1'
_cell_length_a   5.37688996
_cell_length_b   11.54229361
_cell_length_c   13.30162843
_cell_angle_alpha   90.00000000
_cell_angle_beta   99.97897295
_cell_angle_gamma   90.00000000
_symmetry_Int_Tables_number   1
_chemical_formula_structural   RbCu(PO3)3
_chemical_formula_sum   'Rb4 Cu4 P12 O36'
_cell_volume   813.03194632
_cell_formula_units_Z   4
loop_
 _symmetry_equiv_pos_site_id
 _symmetry_equiv_pos_as_xyz
  1  'x, y, z'
loop_
 _atom_site_type_symbol
 _atom_site_label
 _atom_site_symmetry_multiplicity
 _atom_site_fract_x
 _atom_site_fract_y
 _atom_site_fract_z
 _atom_site_occupancy
  Rb  Rb0  1  0.06254331  0.81958964  0.25351590  1
  Rb  Rb1  1  0.93745669  0.18041036  0.74648410  1
  Rb  Rb2  1  0.93745669  0.31958964  0.24648410  1
  Rb  Rb3  1  0.06254331  0.68041036  0.75351590  1
  Cu  Cu4  1  -0.00000000  0.00000000  0.50000000  1
  Cu  Cu5  1  -0.00000000  0.50000000  -0.00000000  1
  Cu  Cu6  1  -0.00000000  0.00000000  -0.00000000  1
  Cu  Cu7  1  -0.00000000  0.50000000  0.50000000  1
  P  P8  1  0.48399474  0.08870472  0.37055317  1
  P  P9  1  0.51600526  0.91129528  0.62944683  1
  P  P10  1  0.51600526  0.58870472  0.12944683  1
  P  P11  1  0.48399474  0.41129528  0.87055317  1
  P  P12  1  0.51369080  0.07602169  0.14924342  1
  P  P13  1  0.48630920  0.92397831  0.85075658  1
  P  P14  1  0.48630920  0.57602169  0.35075658  1
  P  P15  1  0.51369080  0.42397831  0.64924342  1
  P  P16  1  0.25331933  0.24741005  0.50867878  1
  P  P17  1  0.74668067  0.75258995  0.49132122  1
  P  P18  1  0.74668067  0.74741005  0.99132122  1
  P  P19  1  0.25331933  0.25258995  0.00867878  1
  O  O20  1  0.32576799  0.98839093  0.39071521  1
  O  O21  1  0.67423201  0.01160907  0.60928479  1
  O  O22  1  0.67423201  0.48839093  0.10928479  1
  O  O23  1  0.32576799  0.51160907  0.89071521  1
  O  O24  1  0.23228522  0.58960380  0.10033827  1
  O  O25  1  0.76771478  0.41039620  0.89966173  1
  O  O26  1  0.76771478  0.08960380  0.39966173  1
  O  O27  1  0.23228522  0.91039620  0.60033827  1
  O  O28  1  0.21567653  0.54356364  0.32908767  1
  O  O29  1  0.78432347  0.45643636  0.67091233  1
  O  O30  1  0.78432347  0.04356364  0.17091233  1
  O  O31  1  0.21567653  0.95643636  0.82908767  1
  O  O32  1  0.06196543  0.33942465  0.46958205  1
  O  O33  1  0.93803457  0.66057535  0.53041795  1
  O  O34  1  0.93803457  0.83942465  0.03041795  1
  O  O35  1  0.06196543  0.16057535  0.96958205  1
  O  O36  1  0.48875744  0.19689030  0.08436731  1
  O  O37  1  0.51124256  0.80310970  0.91563269  1
  O  O38  1  0.51124256  0.69689030  0.41563269  1
  O  O39  1  0.48875744  0.30310970  0.58436731  1
  O  O40  1  0.16096290  0.35466686  0.06246096  1
  O  O41  1  0.83903710  0.64533314  0.93753904  1
  O  O42  1  0.83903710  0.85466686  0.43753904  1
  O  O43  1  0.16096290  0.14533314  0.56246096  1
  O  O44  1  0.41956032  0.12724231  0.25105758  1
  O  O45  1  0.58043968  0.87275769  0.74894242  1
  O  O46  1  0.58043968  0.62724231  0.24894242  1
  O  O47  1  0.41956032  0.37275769  0.75105758  1
  O  O48  1  0.37831449  0.20908909  0.41328768  1
  O  O49  1  0.62168551  0.79091091  0.58671232  1
  O  O50  1  0.62168551  0.70908909  0.08671232  1
  O  O51  1  0.37831449  0.29091091  0.91328768  1
  O  O52  1  0.32087255  0.51150409  0.59926743  1
  O  O53  1  0.67912745  0.48849591  0.40073257  1
  O  O54  1  0.67912745  0.01150409  0.90073257  1
  O  O55  1  0.32087255  0.98849591  0.09926743  1
