# generated using pymatgen
data_PrZn(FeO3)2
_symmetry_space_group_name_H-M   'P 1'
_cell_length_a   5.32575184
_cell_length_b   5.48107298
_cell_length_c   7.73348753
_cell_angle_alpha   89.99558106
_cell_angle_beta   89.99663746
_cell_angle_gamma   90.00208069
_symmetry_Int_Tables_number   1
_chemical_formula_structural   PrZn(FeO3)2
_chemical_formula_sum   'Pr2 Zn2 Fe4 O12'
_cell_volume   225.74695335
_cell_formula_units_Z   2
loop_
 _symmetry_equiv_pos_site_id
 _symmetry_equiv_pos_as_xyz
  1  'x, y, z'
loop_
 _atom_site_type_symbol
 _atom_site_label
 _atom_site_symmetry_multiplicity
 _atom_site_fract_x
 _atom_site_fract_y
 _atom_site_fract_z
 _atom_site_occupancy
  Pr  Pr0  1  0.01113045  0.95861060  0.74998484  1
  Pr  Pr1  1  0.51113999  0.54138303  0.25002414  1
  Zn  Zn2  1  0.48587277  0.47199056  0.75003394  1
  Zn  Zn3  1  0.98586595  0.02796926  0.24996996  1
  Fe  Fe4  1  -0.00002031  0.49401448  0.99985857  1
  Fe  Fe5  1  0.00000765  0.49401583  0.50014395  1
  Fe  Fe6  1  0.50000824  0.00601566  0.49985191  1
  Fe  Fe7  1  0.49998662  0.00604988  0.00013293  1
  O  O8  1  0.07906368  0.46072117  0.24999700  1
  O  O9  1  0.22026492  0.22191381  0.94693772  1
  O  O10  1  0.22035096  0.22196917  0.55299343  1
  O  O11  1  0.30753896  0.69586341  0.55867668  1
  O  O12  1  0.30743589  0.69586704  0.94132032  1
  O  O13  1  0.36840511  0.97678685  0.25003051  1
  O  O14  1  0.57906219  0.03927980  0.75000680  1
  O  O15  1  0.72029516  0.27802739  0.05301577  1
  O  O16  1  0.72030811  0.27803608  0.44698410  1
  O  O17  1  0.80746248  0.80414016  0.05867351  1
  O  O18  1  0.80742089  0.80413900  0.44132364  1
  O  O19  1  0.86839529  0.52320884  0.75004128  1
