# generated using pymatgen
data_Rb2FeH2Br5O
_symmetry_space_group_name_H-M   'P 1'
_cell_length_a   7.63370743
_cell_length_b   10.49647752
_cell_length_c   14.75867044
_cell_angle_alpha   90.00000000
_cell_angle_beta   90.00000000
_cell_angle_gamma   90.00000000
_symmetry_Int_Tables_number   1
_chemical_formula_structural   Rb2FeH2Br5O
_chemical_formula_sum   'Rb8 Fe4 H8 Br20 O4'
_cell_volume   1182.56855357
_cell_formula_units_Z   4
loop_
 _symmetry_equiv_pos_site_id
 _symmetry_equiv_pos_as_xyz
  1  'x, y, z'
loop_
 _atom_site_type_symbol
 _atom_site_label
 _atom_site_symmetry_multiplicity
 _atom_site_fract_x
 _atom_site_fract_y
 _atom_site_fract_z
 _atom_site_occupancy
  Rb  Rb0  1  0.65588588  0.99830147  0.64385670  1
  Rb  Rb1  1  0.34411412  0.00169853  0.35614330  1
  Rb  Rb2  1  0.15588588  0.00169853  0.85614330  1
  Rb  Rb3  1  0.34411412  0.49830147  0.35614330  1
  Rb  Rb4  1  0.84411412  0.99830147  0.14385670  1
  Rb  Rb5  1  0.65588588  0.50169853  0.64385670  1
  Rb  Rb6  1  0.84411412  0.50169853  0.14385670  1
  Rb  Rb7  1  0.15588588  0.49830147  0.85614330  1
  Fe  Fe8  1  0.69427591  0.75000000  0.88691004  1
  Fe  Fe9  1  0.30572409  0.25000000  0.11308996  1
  Fe  Fe10  1  0.19427591  0.25000000  0.61308996  1
  Fe  Fe11  1  0.80572409  0.75000000  0.38691004  1
  H  H12  1  0.53390598  0.32628341  0.97280147  1
  H  H13  1  0.46609402  0.67371659  0.02719853  1
  H  H14  1  0.03390598  0.67371659  0.52719853  1
  H  H15  1  0.46609402  0.82628341  0.02719853  1
  H  H16  1  0.96609402  0.32628341  0.47280147  1
  H  H17  1  0.53390598  0.17371659  0.97280147  1
  H  H18  1  0.96609402  0.17371659  0.47280147  1
  H  H19  1  0.03390598  0.82628341  0.52719853  1
  Br  Br20  1  0.43092227  0.75000000  0.77973797  1
  Br  Br21  1  0.56907773  0.25000000  0.22026203  1
  Br  Br22  1  0.93092227  0.25000000  0.72026203  1
  Br  Br23  1  0.06907773  0.75000000  0.27973797  1
  Br  Br24  1  0.68133808  0.99513056  0.89749256  1
  Br  Br25  1  0.31866192  0.00486944  0.10250744  1
  Br  Br26  1  0.18133808  0.00486944  0.60250744  1
  Br  Br27  1  0.31866192  0.49513056  0.10250744  1
  Br  Br28  1  0.81866192  0.99513056  0.39749256  1
  Br  Br29  1  0.68133808  0.50486944  0.89749256  1
  Br  Br30  1  0.81866192  0.50486944  0.39749256  1
  Br  Br31  1  0.18133808  0.49513056  0.60250744  1
  Br  Br32  1  0.89954360  0.75000000  0.75149196  1
  Br  Br33  1  0.10045640  0.25000000  0.24850804  1
  Br  Br34  1  0.39954360  0.25000000  0.74850804  1
  Br  Br35  1  0.60045640  0.75000000  0.25149196  1
  Br  Br36  1  0.96460230  0.75000000  0.99311008  1
  Br  Br37  1  0.03539770  0.25000000  0.00688992  1
  Br  Br38  1  0.46460230  0.25000000  0.50688992  1
  Br  Br39  1  0.53539770  0.75000000  0.49311008  1
  O  O40  1  0.52528541  0.75000000  0.00265421  1
  O  O41  1  0.47471459  0.25000000  0.99734579  1
  O  O42  1  0.02528541  0.25000000  0.49734579  1
  O  O43  1  0.97471459  0.75000000  0.50265421  1
