# generated using pymatgen
data_Rb2Th(NO3)6
_symmetry_space_group_name_H-M   'P 1'
_cell_length_a   6.96161233
_cell_length_b   8.40797287
_cell_length_c   13.15148576
_cell_angle_alpha   91.99849781
_cell_angle_beta   90.00000000
_cell_angle_gamma   90.00000000
_symmetry_Int_Tables_number   1
_chemical_formula_structural   Rb2Th(NO3)6
_chemical_formula_sum   'Rb4 Th2 N12 O36'
_cell_volume   769.32830681
_cell_formula_units_Z   2
loop_
 _symmetry_equiv_pos_site_id
 _symmetry_equiv_pos_as_xyz
  1  'x, y, z'
loop_
 _atom_site_type_symbol
 _atom_site_label
 _atom_site_symmetry_multiplicity
 _atom_site_fract_x
 _atom_site_fract_y
 _atom_site_fract_z
 _atom_site_occupancy
  Rb  Rb0  1  0.26822782  0.46475787  0.83933562  1
  Rb  Rb1  1  0.73177218  0.53524213  0.16066438  1
  Rb  Rb2  1  0.76822782  0.03524213  0.66066438  1
  Rb  Rb3  1  0.23177218  0.96475787  0.33933562  1
  Th  Th4  1  0.00000000  0.00000000  0.00000000  1
  Th  Th5  1  0.50000000  0.50000000  0.50000000  1
  N  N6  1  0.26450354  0.03507136  0.81689534  1
  N  N7  1  0.73549646  0.96492864  0.18310466  1
  N  N8  1  0.76450354  0.46492864  0.68310466  1
  N  N9  1  0.23549646  0.53507136  0.31689534  1
  N  N10  1  0.75065932  0.28267075  0.94599762  1
  N  N11  1  0.24934068  0.71732925  0.05400238  1
  N  N12  1  0.25065932  0.21732925  0.55400238  1
  N  N13  1  0.74934068  0.78267075  0.44599762  1
  N  N14  1  0.22064098  0.72309215  0.61241009  1
  N  N15  1  0.77935902  0.27690785  0.38758991  1
  N  N16  1  0.72064098  0.77690785  0.88758991  1
  N  N17  1  0.27935902  0.22309215  0.11241009  1
  O  O18  1  0.20695754  0.69233816  0.51622375  1
  O  O19  1  0.79304246  0.30766184  0.48377625  1
  O  O20  1  0.70695754  0.80766184  0.98377625  1
  O  O21  1  0.29304246  0.19233816  0.01622375  1
  O  O22  1  0.38292755  0.06305682  0.75041410  1
  O  O23  1  0.61707245  0.93694318  0.24958590  1
  O  O24  1  0.88292755  0.43694318  0.74958590  1
  O  O25  1  0.11707245  0.56305682  0.25041410  1
  O  O26  1  0.11112754  0.12158230  0.82928899  1
  O  O27  1  0.88887246  0.87841770  0.17071101  1
  O  O28  1  0.61112754  0.37841770  0.67071101  1
  O  O29  1  0.38887246  0.62158230  0.32928899  1
  O  O30  1  0.13893999  0.10542979  0.56296380  1
  O  O31  1  0.86106001  0.89457021  0.43703620  1
  O  O32  1  0.63893999  0.39457021  0.93703620  1
  O  O33  1  0.36106001  0.60542979  0.06296380  1
  O  O34  1  0.86499797  0.84338330  0.84361803  1
  O  O35  1  0.13500203  0.15661670  0.15638197  1
  O  O36  1  0.36499797  0.65661670  0.65638197  1
  O  O37  1  0.63500203  0.34338330  0.34361803  1
  O  O38  1  0.59286108  0.79889631  0.49877420  1
  O  O39  1  0.40713892  0.20110369  0.50122580  1
  O  O40  1  0.09286108  0.70110369  0.00122580  1
  O  O41  1  0.90713892  0.29889631  0.99877420  1
  O  O42  1  0.28354546  0.92263751  0.87885306  1
  O  O43  1  0.71645454  0.07736249  0.12114694  1
  O  O44  1  0.78354546  0.57736249  0.62114694  1
  O  O45  1  0.21645454  0.42263751  0.37885306  1
  O  O46  1  0.10632213  0.80781896  0.65998180  1
  O  O47  1  0.89367787  0.19218104  0.34001820  1
  O  O48  1  0.60632213  0.69218104  0.84001820  1
  O  O49  1  0.39367787  0.30781896  0.15998180  1
  O  O50  1  0.72130038  0.14371077  0.90607750  1
  O  O51  1  0.27869962  0.85628923  0.09392250  1
  O  O52  1  0.22130038  0.35628923  0.59392250  1
  O  O53  1  0.77869962  0.64371077  0.40607750  1
