# generated using pymatgen
data_Rb2NdCl5
_symmetry_space_group_name_H-M   'P 1'
_cell_length_a   8.36068612
_cell_length_b   8.92034152
_cell_length_c   13.62581614
_cell_angle_alpha   90.00000000
_cell_angle_beta   90.00000000
_cell_angle_gamma   90.00000000
_symmetry_Int_Tables_number   1
_chemical_formula_structural   Rb2NdCl5
_chemical_formula_sum   'Rb8 Nd4 Cl20'
_cell_volume   1016.21575949
_cell_formula_units_Z   4
loop_
 _symmetry_equiv_pos_site_id
 _symmetry_equiv_pos_as_xyz
  1  'x, y, z'
loop_
 _atom_site_type_symbol
 _atom_site_label
 _atom_site_symmetry_multiplicity
 _atom_site_fract_x
 _atom_site_fract_y
 _atom_site_fract_z
 _atom_site_occupancy
  Rb  Rb0  1  0.96570769  0.00013310  0.67420943  1
  Rb  Rb1  1  0.03429231  0.99986690  0.32579057  1
  Rb  Rb2  1  0.46570769  0.99986690  0.82579057  1
  Rb  Rb3  1  0.03429231  0.50013310  0.32579057  1
  Rb  Rb4  1  0.53429231  0.00013310  0.17420943  1
  Rb  Rb5  1  0.96570769  0.49986690  0.67420943  1
  Rb  Rb6  1  0.53429231  0.49986690  0.17420943  1
  Rb  Rb7  1  0.46570769  0.50013310  0.82579057  1
  Nd  Nd8  1  0.92896367  0.75000000  0.99709175  1
  Nd  Nd9  1  0.07103633  0.25000000  0.00290825  1
  Nd  Nd10  1  0.42896367  0.25000000  0.50290825  1
  Nd  Nd11  1  0.57103633  0.75000000  0.49709175  1
  Cl  Cl12  1  0.66717570  0.75000000  0.69416519  1
  Cl  Cl13  1  0.33282430  0.25000000  0.30583481  1
  Cl  Cl14  1  0.16717570  0.25000000  0.80583481  1
  Cl  Cl15  1  0.83282430  0.75000000  0.19416519  1
  Cl  Cl16  1  0.13424371  0.75000000  0.83672684  1
  Cl  Cl17  1  0.86575629  0.25000000  0.16327316  1
  Cl  Cl18  1  0.63424371  0.25000000  0.66327316  1
  Cl  Cl19  1  0.36575629  0.75000000  0.33672684  1
  Cl  Cl20  1  0.59412278  0.75000000  0.98764468  1
  Cl  Cl21  1  0.40587722  0.25000000  0.01235532  1
  Cl  Cl22  1  0.09412278  0.25000000  0.51235532  1
  Cl  Cl23  1  0.90587722  0.75000000  0.48764468  1
  Cl  Cl24  1  0.84841833  0.46084170  0.92018782  1
  Cl  Cl25  1  0.15158167  0.53915830  0.07981218  1
  Cl  Cl26  1  0.34841833  0.53915830  0.57981218  1
  Cl  Cl27  1  0.15158167  0.96084170  0.07981218  1
  Cl  Cl28  1  0.65158167  0.46084170  0.42018782  1
  Cl  Cl29  1  0.84841833  0.03915830  0.92018782  1
  Cl  Cl30  1  0.65158167  0.03915830  0.42018782  1
  Cl  Cl31  1  0.34841833  0.96084170  0.57981218  1
