# generated using pymatgen
data_Pr2Ni12P5
_symmetry_space_group_name_H-M   'P 1'
_cell_length_a   3.67970951
_cell_length_b   10.87307502
_cell_length_c   13.14972537
_cell_angle_alpha   107.91648869
_cell_angle_beta   90.00000000
_cell_angle_gamma   90.00000000
_symmetry_Int_Tables_number   1
_chemical_formula_structural   Pr2Ni12P5
_chemical_formula_sum   'Pr4 Ni24 P10'
_cell_volume   500.60374481
_cell_formula_units_Z   2
loop_
 _symmetry_equiv_pos_site_id
 _symmetry_equiv_pos_as_xyz
  1  'x, y, z'
loop_
 _atom_site_type_symbol
 _atom_site_label
 _atom_site_symmetry_multiplicity
 _atom_site_fract_x
 _atom_site_fract_y
 _atom_site_fract_z
 _atom_site_occupancy
  Pr  Pr0  1  0.75000000  0.28002817  0.31691911  1
  Pr  Pr1  1  0.25000000  0.71997183  0.68308089  1
  Pr  Pr2  1  0.75000000  0.24789049  0.81278699  1
  Pr  Pr3  1  0.25000000  0.75210951  0.18721301  1
  Ni  Ni4  1  0.75000000  0.84355474  0.86467967  1
  Ni  Ni5  1  0.25000000  0.15644526  0.13532033  1
  Ni  Ni6  1  0.75000000  0.28685433  0.56186194  1
  Ni  Ni7  1  0.25000000  0.71314567  0.43813806  1
  Ni  Ni8  1  0.75000000  0.07172159  0.98545415  1
  Ni  Ni9  1  0.25000000  0.92827841  0.01454585  1
  Ni  Ni10  1  0.75000000  0.06590691  0.55177594  1
  Ni  Ni11  1  0.25000000  0.93409309  0.44822406  1
  Ni  Ni12  1  0.75000000  0.59533381  0.30450859  1
  Ni  Ni13  1  0.25000000  0.40466619  0.69549141  1
  Ni  Ni14  1  0.75000000  0.58135833  0.99114911  1
  Ni  Ni15  1  0.25000000  0.41864167  0.00885089  1
  Ni  Ni16  1  0.75000000  0.57865204  0.49033505  1
  Ni  Ni17  1  0.25000000  0.42134796  0.50966495  1
  Ni  Ni18  1  0.75000000  0.29797228  0.08119276  1
  Ni  Ni19  1  0.25000000  0.70202772  0.91880724  1
  Ni  Ni20  1  0.75000000  0.99304826  0.34068861  1
  Ni  Ni21  1  0.25000000  0.00695174  0.65931139  1
  Ni  Ni22  1  0.75000000  0.84292160  0.56161221  1
  Ni  Ni23  1  0.25000000  0.15707840  0.43838779  1
  Ni  Ni24  1  0.75000000  0.98865552  0.15059309  1
  Ni  Ni25  1  0.25000000  0.01134448  0.84940691  1
  Ni  Ni26  1  0.75000000  0.56179918  0.79625092  1
  Ni  Ni27  1  0.25000000  0.43820082  0.20374908  1
  P  P28  1  0.75000000  0.50794916  0.12921823  1
  P  P29  1  0.25000000  0.49205084  0.87078177  1
  P  P30  1  0.75000000  0.79896509  0.01654640  1
  P  P31  1  0.25000000  0.20103491  0.98345360  1
  P  P32  1  0.75000000  0.49391985  0.62172356  1
  P  P33  1  0.25000000  0.50608015  0.37827644  1
  P  P34  1  0.75000000  0.81051027  0.38812506  1
  P  P35  1  0.25000000  0.18948973  0.61187494  1
  P  P36  1  0.75000000  0.95045122  0.74010076  1
  P  P37  1  0.25000000  0.04954878  0.25989924  1
