# generated using pymatgen
data_NdSiPd2
_symmetry_space_group_name_H-M   'P 1'
_cell_length_a   5.71241550
_cell_length_b   6.98319183
_cell_length_c   7.57890498
_cell_angle_alpha   90.00000000
_cell_angle_beta   90.00000000
_cell_angle_gamma   90.00000000
_symmetry_Int_Tables_number   1
_chemical_formula_structural   NdSiPd2
_chemical_formula_sum   'Nd4 Si4 Pd8'
_cell_volume   302.32928950
_cell_formula_units_Z   4
loop_
 _symmetry_equiv_pos_site_id
 _symmetry_equiv_pos_as_xyz
  1  'x, y, z'
loop_
 _atom_site_type_symbol
 _atom_site_label
 _atom_site_symmetry_multiplicity
 _atom_site_fract_x
 _atom_site_fract_y
 _atom_site_fract_z
 _atom_site_occupancy
  Nd  Nd0  1  0.35525924  0.75000000  0.97143090  1
  Nd  Nd1  1  0.64474076  0.25000000  0.02856910  1
  Nd  Nd2  1  0.85525924  0.25000000  0.52856910  1
  Nd  Nd3  1  0.14474076  0.75000000  0.47143090  1
  Si  Si4  1  0.64720072  0.75000000  0.62713332  1
  Si  Si5  1  0.35279928  0.25000000  0.37286668  1
  Si  Si6  1  0.14720072  0.25000000  0.87286668  1
  Si  Si7  1  0.85279928  0.75000000  0.12713332  1
  Pd  Pd8  1  0.90774676  0.94736753  0.82569911  1
  Pd  Pd9  1  0.09225324  0.05263247  0.17430089  1
  Pd  Pd10  1  0.40774676  0.05263247  0.67430089  1
  Pd  Pd11  1  0.09225324  0.44736753  0.17430089  1
  Pd  Pd12  1  0.59225324  0.94736753  0.32569911  1
  Pd  Pd13  1  0.90774676  0.55263247  0.82569911  1
  Pd  Pd14  1  0.59225324  0.55263247  0.32569911  1
  Pd  Pd15  1  0.40774676  0.44736753  0.67430089  1
