# generated using pymatgen
data_NaMnFeF6
_symmetry_space_group_name_H-M   'P 1'
_cell_length_a   5.10298553
_cell_length_b   9.18800090
_cell_length_c   9.18800090
_cell_angle_alpha   120.00000330
_cell_angle_beta   90.00000000
_cell_angle_gamma   90.00000000
_symmetry_Int_Tables_number   1
_chemical_formula_structural   NaMnFeF6
_chemical_formula_sum   'Na3 Mn3 Fe3 F18'
_cell_volume   373.07574255
_cell_formula_units_Z   3
loop_
 _symmetry_equiv_pos_site_id
 _symmetry_equiv_pos_as_xyz
  1  'x, y, z'
loop_
 _atom_site_type_symbol
 _atom_site_label
 _atom_site_symmetry_multiplicity
 _atom_site_fract_x
 _atom_site_fract_y
 _atom_site_fract_z
 _atom_site_occupancy
  Na  Na0  1  0.00000000  0.37389061  0.37389061  1
  Na  Na1  1  -0.00000000  0.00000000  0.62610939  1
  Na  Na2  1  -0.00000000  0.62610939  0.00000000  1
  Mn  Mn3  1  0.50000000  0.70247573  0.70247573  1
  Mn  Mn4  1  0.50000000  1.00000000  0.29752427  1
  Mn  Mn5  1  0.50000000  0.29752427  1.00000000  1
  Fe  Fe6  1  0.50015628  0.66666700  0.33333300  1
  Fe  Fe7  1  0.49984372  0.33333300  0.66666700  1
  Fe  Fe8  1  0.00000000  0.00000000  0.00000000  1
  F  F9  1  0.71340675  0.86912832  0.40481893  1
  F  F10  1  0.71340675  0.53569062  0.13087168  1
  F  F11  1  0.28659325  0.46430938  0.59518107  1
  F  F12  1  0.71340675  0.59518107  0.46430938  1
  F  F13  1  0.28659325  0.40481893  0.86912832  1
  F  F14  1  0.28659325  0.13087168  0.53569062  1
  F  F15  1  0.77879830  0.89564992  0.09718122  1
  F  F16  1  0.77879830  0.20153130  0.10435008  1
  F  F17  1  0.22120170  0.79846870  0.90281878  1
  F  F18  1  0.77879830  0.90281878  0.79846870  1
  F  F19  1  0.22120170  0.09718122  0.89564992  1
  F  F20  1  0.22120170  0.10435008  0.20153130  1
  F  F21  1  0.71092707  0.54130889  0.77259452  1
  F  F22  1  0.71092707  0.23128564  0.45869111  1
  F  F23  1  0.28907293  0.76871436  0.22740548  1
  F  F24  1  0.71092707  0.22740548  0.76871436  1
  F  F25  1  0.28907293  0.77259452  0.54130889  1
  F  F26  1  0.28907293  0.45869111  0.23128564  1
