# generated using pymatgen
data_Nd4MgCo
_symmetry_space_group_name_H-M   'P 1'
_cell_length_a   9.84571679
_cell_length_b   9.84571679
_cell_length_c   9.84571679
_cell_angle_alpha   60.00000000
_cell_angle_beta   60.00000000
_cell_angle_gamma   60.00000000
_symmetry_Int_Tables_number   1
_chemical_formula_structural   Nd4MgCo
_chemical_formula_sum   'Nd16 Mg4 Co4'
_cell_volume   674.88071823
_cell_formula_units_Z   4
loop_
 _symmetry_equiv_pos_site_id
 _symmetry_equiv_pos_as_xyz
  1  'x, y, z'
loop_
 _atom_site_type_symbol
 _atom_site_label
 _atom_site_symmetry_multiplicity
 _atom_site_fract_x
 _atom_site_fract_y
 _atom_site_fract_z
 _atom_site_occupancy
  Nd  Nd0  1  0.65581567  0.65581567  0.65581567  1
  Nd  Nd1  1  0.03255300  0.65581567  0.65581567  1
  Nd  Nd2  1  0.65581567  0.03255300  0.65581567  1
  Nd  Nd3  1  0.65581567  0.65581567  0.03255300  1
  Nd  Nd4  1  0.43771537  0.43771537  0.06228463  1
  Nd  Nd5  1  0.06228463  0.06228463  0.43771537  1
  Nd  Nd6  1  0.43771537  0.06228463  0.43771537  1
  Nd  Nd7  1  0.06228463  0.43771537  0.06228463  1
  Nd  Nd8  1  0.06228463  0.43771537  0.43771537  1
  Nd  Nd9  1  0.43771537  0.06228463  0.06228463  1
  Nd  Nd10  1  0.81274342  0.81274342  0.18725658  1
  Nd  Nd11  1  0.18725658  0.18725658  0.81274342  1
  Nd  Nd12  1  0.81274342  0.18725658  0.81274342  1
  Nd  Nd13  1  0.18725658  0.81274342  0.18725658  1
  Nd  Nd14  1  0.18725658  0.81274342  0.81274342  1
  Nd  Nd15  1  0.81274342  0.18725658  0.18725658  1
  Mg  Mg16  1  0.42121889  0.42121889  0.42121889  1
  Mg  Mg17  1  0.73634332  0.42121889  0.42121889  1
  Mg  Mg18  1  0.42121889  0.73634332  0.42121889  1
  Mg  Mg19  1  0.42121889  0.42121889  0.73634332  1
  Co  Co20  1  0.85961315  0.85961315  0.85961315  1
  Co  Co21  1  0.42116054  0.85961315  0.85961315  1
  Co  Co22  1  0.85961315  0.42116054  0.85961315  1
  Co  Co23  1  0.85961315  0.85961315  0.42116054  1
