# generated using pymatgen
data_Nd3Se3N
_symmetry_space_group_name_H-M   'P 1'
_cell_length_a   4.15351866
_cell_length_b   12.72257094
_cell_length_c   13.50503913
_cell_angle_alpha   90.00000000
_cell_angle_beta   90.00000000
_cell_angle_gamma   90.00000000
_symmetry_Int_Tables_number   1
_chemical_formula_structural   Nd3Se3N
_chemical_formula_sum   'Nd12 Se12 N4'
_cell_volume   713.65266828
_cell_formula_units_Z   4
loop_
 _symmetry_equiv_pos_site_id
 _symmetry_equiv_pos_as_xyz
  1  'x, y, z'
loop_
 _atom_site_type_symbol
 _atom_site_label
 _atom_site_symmetry_multiplicity
 _atom_site_fract_x
 _atom_site_fract_y
 _atom_site_fract_z
 _atom_site_occupancy
  Nd  Nd0  1  0.75000000  0.77886808  0.63201037  1
  Nd  Nd1  1  0.25000000  0.22113192  0.36798963  1
  Nd  Nd2  1  0.25000000  0.72113192  0.13201037  1
  Nd  Nd3  1  0.75000000  0.27886808  0.86798963  1
  Nd  Nd4  1  0.75000000  0.91316111  0.86847785  1
  Nd  Nd5  1  0.25000000  0.08683889  0.13152215  1
  Nd  Nd6  1  0.25000000  0.58683889  0.36847785  1
  Nd  Nd7  1  0.75000000  0.41316111  0.63152215  1
  Nd  Nd8  1  0.75000000  0.97127860  0.34505065  1
  Nd  Nd9  1  0.25000000  0.02872140  0.65494935  1
  Nd  Nd10  1  0.25000000  0.52872140  0.84505065  1
  Nd  Nd11  1  0.75000000  0.47127860  0.15494935  1
  Se  Se12  1  0.75000000  0.73775873  0.30180886  1
  Se  Se13  1  0.25000000  0.26224127  0.69819114  1
  Se  Se14  1  0.25000000  0.76224127  0.80180886  1
  Se  Se15  1  0.75000000  0.23775873  0.19819114  1
  Se  Se16  1  0.75000000  0.42111657  0.39233881  1
  Se  Se17  1  0.25000000  0.57888343  0.60766119  1
  Se  Se18  1  0.25000000  0.07888343  0.89233881  1
  Se  Se19  1  0.75000000  0.92111657  0.10766119  1
  Se  Se20  1  0.75000000  0.63754989  0.99781875  1
  Se  Se21  1  0.25000000  0.36245011  0.00218125  1
  Se  Se22  1  0.25000000  0.86245011  0.49781875  1
  Se  Se23  1  0.75000000  0.13754989  0.50218125  1
  N  N24  1  0.75000000  0.94537933  0.70248292  1
  N  N25  1  0.25000000  0.05462067  0.29751708  1
  N  N26  1  0.25000000  0.55462067  0.20248292  1
  N  N27  1  0.75000000  0.44537933  0.79751708  1
