# generated using pymatgen
data_NdTl(WO4)2
_symmetry_space_group_name_H-M   'P 1'
_cell_length_a   7.75052162
_cell_length_b   7.75052162
_cell_length_c   7.55316458
_cell_angle_alpha   62.88138484
_cell_angle_beta   62.88138484
_cell_angle_gamma   89.36466568
_symmetry_Int_Tables_number   1
_chemical_formula_structural   NdTl(WO4)2
_chemical_formula_sum   'Nd2 Tl2 W4 O16'
_cell_volume   348.19083857
_cell_formula_units_Z   2
loop_
 _symmetry_equiv_pos_site_id
 _symmetry_equiv_pos_as_xyz
  1  'x, y, z'
loop_
 _atom_site_type_symbol
 _atom_site_label
 _atom_site_symmetry_multiplicity
 _atom_site_fract_x
 _atom_site_fract_y
 _atom_site_fract_z
 _atom_site_occupancy
  Nd  Nd0  1  0.22453936  0.77546064  0.75000000  1
  Nd  Nd1  1  0.77546064  0.22453936  0.25000000  1
  Tl  Tl2  1  0.79578782  0.20421218  0.75000000  1
  Tl  Tl3  1  0.20421218  0.79578782  0.25000000  1
  W  W4  1  0.30250104  0.31246501  0.72129355  1
  W  W5  1  0.69749896  0.68753499  0.27870645  1
  W  W6  1  0.68753499  0.69749896  0.77870645  1
  W  W7  1  0.31246501  0.30250104  0.22129355  1
  O  O8  1  0.37976832  0.24876411  0.94142964  1
  O  O9  1  0.62023168  0.75123589  0.05857036  1
  O  O10  1  0.75123589  0.62023168  0.55857036  1
  O  O11  1  0.24876411  0.37976832  0.44142964  1
  O  O12  1  0.61676164  0.92893335  0.63188743  1
  O  O13  1  0.38323836  0.07106665  0.36811257  1
  O  O14  1  0.07106665  0.38323836  0.86811257  1
  O  O15  1  0.92893335  0.61676164  0.13188743  1
  O  O16  1  0.41589587  0.62930941  0.52757717  1
  O  O17  1  0.58410413  0.37069059  0.47242283  1
  O  O18  1  0.37069059  0.58410413  0.97242283  1
  O  O19  1  0.62930941  0.41589587  0.02757717  1
  O  O20  1  0.21400279  0.05308739  0.81056815  1
  O  O21  1  0.78599721  0.94691261  0.18943185  1
  O  O22  1  0.94691261  0.78599721  0.68943185  1
  O  O23  1  0.05308739  0.21400279  0.31056815  1
