# generated using pymatgen
data_Nd(TmS2)3
_symmetry_space_group_name_H-M   'P 1'
_cell_length_a   3.95216608
_cell_length_b   10.99265072
_cell_length_c   11.27326368
_cell_angle_alpha   108.92901337
_cell_angle_beta   90.00000000
_cell_angle_gamma   90.00000000
_symmetry_Int_Tables_number   1
_chemical_formula_structural   Nd(TmS2)3
_chemical_formula_sum   'Nd2 Tm6 S12'
_cell_volume   463.27860627
_cell_formula_units_Z   2
loop_
 _symmetry_equiv_pos_site_id
 _symmetry_equiv_pos_as_xyz
  1  'x, y, z'
loop_
 _atom_site_type_symbol
 _atom_site_label
 _atom_site_symmetry_multiplicity
 _atom_site_fract_x
 _atom_site_fract_y
 _atom_site_fract_z
 _atom_site_occupancy
  Nd  Nd0  1  0.75000000  0.94950825  0.30393416  1
  Nd  Nd1  1  0.25000000  0.05049175  0.69606584  1
  Tm  Tm2  1  0.75000000  0.55621327  0.16635900  1
  Tm  Tm3  1  0.25000000  0.44378673  0.83364100  1
  Tm  Tm4  1  0.75000000  0.32007696  0.49878536  1
  Tm  Tm5  1  0.25000000  0.67992304  0.50121464  1
  Tm  Tm6  1  0.75000000  0.83929919  0.91300281  1
  Tm  Tm7  1  0.25000000  0.16070081  0.08699719  1
  S  S8  1  0.75000000  0.52096093  0.38793214  1
  S  S9  1  0.25000000  0.47903907  0.61206786  1
  S  S10  1  0.75000000  0.08222082  0.90677587  1
  S  S11  1  0.25000000  0.91777918  0.09322413  1
  S  S12  1  0.75000000  0.60687583  0.94339021  1
  S  S13  1  0.25000000  0.39312417  0.05660979  1
  S  S14  1  0.75000000  0.26757006  0.72944766  1
  S  S15  1  0.25000000  0.73242994  0.27055234  1
  S  S16  1  0.75000000  0.88071675  0.53641310  1
  S  S17  1  0.25000000  0.11928325  0.46358690  1
  S  S18  1  0.75000000  0.19735053  0.24882893  1
  S  S19  1  0.25000000  0.80264947  0.75117107  1
