# generated using pymatgen
data_NpF6
_symmetry_space_group_name_H-M   'P 1'
_cell_length_a   5.41226121
_cell_length_b   9.32880363
_cell_length_c   10.29463865
_cell_angle_alpha   90.00000000
_cell_angle_beta   90.00000000
_cell_angle_gamma   90.00000000
_symmetry_Int_Tables_number   1
_chemical_formula_structural   NpF6
_chemical_formula_sum   'Np4 F24'
_cell_volume   519.77550269
_cell_formula_units_Z   4
loop_
 _symmetry_equiv_pos_site_id
 _symmetry_equiv_pos_as_xyz
  1  'x, y, z'
loop_
 _atom_site_type_symbol
 _atom_site_label
 _atom_site_symmetry_multiplicity
 _atom_site_fract_x
 _atom_site_fract_y
 _atom_site_fract_z
 _atom_site_occupancy
  Np  Np0  1  0.58017089  0.75000000  0.87044157  1
  Np  Np1  1  0.41982911  0.25000000  0.12955843  1
  Np  Np2  1  0.08017089  0.25000000  0.62955843  1
  Np  Np3  1  0.91982911  0.75000000  0.37044157  1
  F  F4  1  0.27887992  0.75000000  0.98438066  1
  F  F5  1  0.72112008  0.25000000  0.01561934  1
  F  F6  1  0.77887992  0.25000000  0.51561934  1
  F  F7  1  0.22112008  0.75000000  0.48438066  1
  F  F8  1  0.88159841  0.75000000  0.75595647  1
  F  F9  1  0.11840159  0.25000000  0.24404353  1
  F  F10  1  0.38159841  0.25000000  0.74404353  1
  F  F11  1  0.61840159  0.75000000  0.25595647  1
  F  F12  1  0.73397540  0.90171763  0.98294293  1
  F  F13  1  0.26602460  0.09828237  0.01705707  1
  F  F14  1  0.23397540  0.09828237  0.51705707  1
  F  F15  1  0.26602460  0.40171763  0.01705707  1
  F  F16  1  0.76602460  0.90171763  0.48294293  1
  F  F17  1  0.73397540  0.59828237  0.98294293  1
  F  F18  1  0.76602460  0.59828237  0.48294293  1
  F  F19  1  0.23397540  0.40171763  0.51705707  1
  F  F20  1  0.42763304  0.90248933  0.75847784  1
  F  F21  1  0.57236696  0.09751067  0.24152216  1
  F  F22  1  0.92763304  0.09751067  0.74152216  1
  F  F23  1  0.57236696  0.40248933  0.24152216  1
  F  F24  1  0.07236696  0.90248933  0.25847784  1
  F  F25  1  0.42763304  0.59751067  0.75847784  1
  F  F26  1  0.07236696  0.59751067  0.25847784  1
  F  F27  1  0.92763304  0.40248933  0.74152216  1
