# generated using pymatgen
data_Pr23Cd4Ir7
_symmetry_space_group_name_H-M   'P 1'
_cell_length_a   10.11930403
_cell_length_b   10.11930403
_cell_length_c   22.82519423
_cell_angle_alpha   90.00000000
_cell_angle_beta   90.00000000
_cell_angle_gamma   119.99999874
_symmetry_Int_Tables_number   1
_chemical_formula_structural   Pr23Cd4Ir7
_chemical_formula_sum   'Pr46 Cd8 Ir14'
_cell_volume   2024.16731266
_cell_formula_units_Z   2
loop_
 _symmetry_equiv_pos_site_id
 _symmetry_equiv_pos_as_xyz
  1  'x, y, z'
loop_
 _atom_site_type_symbol
 _atom_site_label
 _atom_site_symmetry_multiplicity
 _atom_site_fract_x
 _atom_site_fract_y
 _atom_site_fract_z
 _atom_site_occupancy
  Pr  Pr0  1  0.20617365  0.41234730  0.72001985  1
  Pr  Pr1  1  0.20617365  0.79382635  0.72001985  1
  Pr  Pr2  1  0.79382635  0.58765270  0.22001985  1
  Pr  Pr3  1  0.58765270  0.79382635  0.72001985  1
  Pr  Pr4  1  0.79382635  0.20617365  0.22001985  1
  Pr  Pr5  1  0.41234730  0.20617365  0.22001985  1
  Pr  Pr6  1  0.79377724  0.58755448  0.94666629  1
  Pr  Pr7  1  0.79377724  0.20622276  0.94666629  1
  Pr  Pr8  1  0.20622276  0.41244552  0.44666629  1
  Pr  Pr9  1  0.41244552  0.20622276  0.94666629  1
  Pr  Pr10  1  0.20622276  0.79377724  0.44666629  1
  Pr  Pr11  1  0.58755448  0.79377724  0.44666629  1
  Pr  Pr12  1  0.20844686  0.41689372  0.98977423  1
  Pr  Pr13  1  0.20844686  0.79155314  0.98977423  1
  Pr  Pr14  1  0.79155314  0.58310628  0.48977423  1
  Pr  Pr15  1  0.58310628  0.79155314  0.98977423  1
  Pr  Pr16  1  0.79155314  0.20844686  0.48977423  1
  Pr  Pr17  1  0.41689372  0.20844686  0.48977423  1
  Pr  Pr18  1  0.87270122  0.74540243  0.63582059  1
  Pr  Pr19  1  0.87270122  0.12729878  0.63582059  1
  Pr  Pr20  1  0.12729878  0.25459757  0.13582059  1
  Pr  Pr21  1  0.25459757  0.12729878  0.63582059  1
  Pr  Pr22  1  0.12729878  0.87270122  0.13582059  1
  Pr  Pr23  1  0.74540243  0.87270122  0.13582059  1
  Pr  Pr24  1  0.46047533  0.92095067  0.85581011  1
  Pr  Pr25  1  0.46047533  0.53952467  0.85581011  1
  Pr  Pr26  1  0.53952467  0.07904933  0.35581011  1
  Pr  Pr27  1  0.07904933  0.53952467  0.85581011  1
  Pr  Pr28  1  0.53952467  0.46047533  0.35581011  1
  Pr  Pr29  1  0.92095067  0.46047533  0.35581011  1
  Pr  Pr30  1  0.00000000  0.00000000  0.99829698  1
  Pr  Pr31  1  0.00000000  0.00000000  0.49829698  1
  Pr  Pr32  1  0.46107637  0.92215274  0.58582314  1
  Pr  Pr33  1  0.46107637  0.53892363  0.58582314  1
  Pr  Pr34  1  0.53892363  0.07784726  0.08582314  1
  Pr  Pr35  1  0.07784726  0.53892363  0.58582314  1
  Pr  Pr36  1  0.53892363  0.46107637  0.08582314  1
  Pr  Pr37  1  0.92215274  0.46107637  0.08582314  1
  Pr  Pr38  1  0.79767340  0.59534679  0.78226230  1
  Pr  Pr39  1  0.79767340  0.20232660  0.78226230  1
  Pr  Pr40  1  0.20232660  0.40465321  0.28226230  1
  Pr  Pr41  1  0.40465321  0.20232660  0.78226230  1
  Pr  Pr42  1  0.20232660  0.79767340  0.28226230  1
  Pr  Pr43  1  0.59534679  0.79767340  0.28226230  1
  Pr  Pr44  1  0.66666700  0.33333300  0.64578972  1
  Pr  Pr45  1  0.33333300  0.66666700  0.14578972  1
  Cd  Cd46  1  0.00000000  0.00000000  0.74959364  1
  Cd  Cd47  1  0.00000000  0.00000000  0.24959364  1
  Cd  Cd48  1  0.10656631  0.21313261  0.86325767  1
  Cd  Cd49  1  0.10656631  0.89343369  0.86325767  1
  Cd  Cd50  1  0.89343369  0.78686739  0.36325767  1
  Cd  Cd51  1  0.78686739  0.89343369  0.86325767  1
  Cd  Cd52  1  0.89343369  0.10656631  0.36325767  1
  Cd  Cd53  1  0.21313261  0.10656631  0.36325767  1
  Ir  Ir54  1  0.52052391  0.04104781  0.71041831  1
  Ir  Ir55  1  0.52052391  0.47947609  0.71041831  1
  Ir  Ir56  1  0.47947609  0.95895219  0.21041831  1
  Ir  Ir57  1  0.95895219  0.47947609  0.71041831  1
  Ir  Ir58  1  0.47947609  0.52052391  0.21041831  1
  Ir  Ir59  1  0.04104781  0.52052391  0.21041831  1
  Ir  Ir60  1  0.66666700  0.33333300  0.86424623  1
  Ir  Ir61  1  0.33333300  0.66666700  0.36424623  1
  Ir  Ir62  1  0.14414790  0.28829579  0.56307867  1
  Ir  Ir63  1  0.14414790  0.85585210  0.56307867  1
  Ir  Ir64  1  0.85585210  0.71170421  0.06307867  1
  Ir  Ir65  1  0.71170421  0.85585210  0.56307867  1
  Ir  Ir66  1  0.85585210  0.14414790  0.06307867  1
  Ir  Ir67  1  0.28829579  0.14414790  0.06307867  1
