# generated using pymatgen
data_Na3TbBr6
_symmetry_space_group_name_H-M   'P 1'
_cell_length_a   7.42653092
_cell_length_b   7.74319241
_cell_length_c   10.94679539
_cell_angle_alpha   90.00000000
_cell_angle_beta   90.39942494
_cell_angle_gamma   90.00000000
_symmetry_Int_Tables_number   1
_chemical_formula_structural   Na3TbBr6
_chemical_formula_sum   'Na6 Tb2 Br12'
_cell_volume   629.48080540
_cell_formula_units_Z   2
loop_
 _symmetry_equiv_pos_site_id
 _symmetry_equiv_pos_as_xyz
  1  'x, y, z'
loop_
 _atom_site_type_symbol
 _atom_site_label
 _atom_site_symmetry_multiplicity
 _atom_site_fract_x
 _atom_site_fract_y
 _atom_site_fract_z
 _atom_site_occupancy
  Na  Na0  1  0.00000000  0.00000000  0.50000000  1
  Na  Na1  1  0.50000000  0.50000000  -0.00000000  1
  Na  Na2  1  0.98776984  0.56000957  0.25880130  1
  Na  Na3  1  0.01223016  0.43999043  0.74119870  1
  Na  Na4  1  0.51223016  0.06000957  0.24119870  1
  Na  Na5  1  0.48776984  0.93999043  0.75880130  1
  Tb  Tb6  1  0.00000000  0.00000000  -0.00000000  1
  Tb  Tb7  1  0.50000000  0.50000000  0.50000000  1
  Br  Br8  1  0.83165839  0.30642741  0.07886420  1
  Br  Br9  1  0.16834161  0.69357259  0.92113580  1
  Br  Br10  1  0.66834161  0.80642741  0.42113580  1
  Br  Br11  1  0.33165839  0.19357259  0.57886420  1
  Br  Br12  1  0.13311303  0.93231661  0.23922239  1
  Br  Br13  1  0.86688697  0.06768339  0.76077761  1
  Br  Br14  1  0.36688697  0.43231661  0.26077761  1
  Br  Br15  1  0.63311303  0.56768339  0.73922239  1
  Br  Br16  1  0.68523333  0.82224361  0.06331232  1
  Br  Br17  1  0.31476667  0.17775639  0.93668768  1
  Br  Br18  1  0.81476667  0.32224361  0.43668768  1
  Br  Br19  1  0.18523333  0.67775639  0.56331232  1
