# generated using pymatgen
data_Na4Zr2TiMnSi4(O8F)2
_symmetry_space_group_name_H-M   'P 1'
_cell_length_a   5.66397970
_cell_length_b   7.19201748
_cell_length_c   18.32851444
_cell_angle_alpha   90.00000000
_cell_angle_beta   94.75090015
_cell_angle_gamma   90.00000000
_symmetry_Int_Tables_number   1
_chemical_formula_structural   Na4Zr2TiMnSi4(O8F)2
_chemical_formula_sum   'Na8 Zr4 Ti2 Mn2 Si8 O32 F4'
_cell_volume   744.05488261
_cell_formula_units_Z   2
loop_
 _symmetry_equiv_pos_site_id
 _symmetry_equiv_pos_as_xyz
  1  'x, y, z'
loop_
 _atom_site_type_symbol
 _atom_site_label
 _atom_site_symmetry_multiplicity
 _atom_site_fract_x
 _atom_site_fract_y
 _atom_site_fract_z
 _atom_site_occupancy
  Na  Na0  1  0.25000000  0.65339617  0.25000000  1
  Na  Na1  1  0.75000000  0.34660383  0.75000000  1
  Na  Na2  1  0.13222235  0.88636578  0.42905725  1
  Na  Na3  1  0.86777765  0.11363422  0.57094275  1
  Na  Na4  1  0.36777765  0.88636578  0.07094275  1
  Na  Na5  1  0.63222235  0.11363422  0.92905725  1
  Na  Na6  1  0.75000000  0.88949704  0.25000000  1
  Na  Na7  1  0.25000000  0.11050296  0.75000000  1
  Zr  Zr8  1  0.12207505  0.37841949  0.42472806  1
  Zr  Zr9  1  0.87792495  0.62158051  0.57527194  1
  Zr  Zr10  1  0.37792495  0.37841949  0.07527194  1
  Zr  Zr11  1  0.62207505  0.62158051  0.92472806  1
  Ti  Ti12  1  0.75000000  0.39247339  0.25000000  1
  Ti  Ti13  1  0.25000000  0.60752661  0.75000000  1
  Mn  Mn14  1  0.25000000  0.15287674  0.25000000  1
  Mn  Mn15  1  0.75000000  0.84712326  0.75000000  1
  Si  Si16  1  0.88333063  0.65846856  0.10439646  1
  Si  Si17  1  0.11666937  0.34153144  0.89560354  1
  Si  Si18  1  0.61666937  0.65846856  0.39560354  1
  Si  Si19  1  0.38333063  0.34153144  0.60439646  1
  Si  Si20  1  0.38366949  0.88622438  0.60532651  1
  Si  Si21  1  0.61633051  0.11377562  0.39467349  1
  Si  Si22  1  0.11633051  0.88622438  0.89467349  1
  Si  Si23  1  0.88366949  0.11377562  0.10532651  1
  O  O24  1  0.64869871  0.59315461  0.05098591  1
  O  O25  1  0.35130129  0.40684539  0.94901409  1
  O  O26  1  0.85130129  0.59315461  0.44901409  1
  O  O27  1  0.14869871  0.40684539  0.55098591  1
  O  O28  1  0.37614940  0.17393883  0.43271690  1
  O  O29  1  0.62385060  0.82606117  0.56728310  1
  O  O30  1  0.12385060  0.17393883  0.06728310  1
  O  O31  1  0.87614940  0.82606117  0.93271690  1
  O  O32  1  0.36355149  0.59543691  0.42273396  1
  O  O33  1  0.63644851  0.40456309  0.57726604  1
  O  O34  1  0.13644851  0.59543691  0.07726604  1
  O  O35  1  0.86355149  0.40456309  0.92273396  1
  O  O36  1  0.13923939  0.82407973  0.55882285  1
  O  O37  1  0.86076061  0.17592027  0.44117715  1
  O  O38  1  0.36076061  0.82407973  0.94117715  1
  O  O39  1  0.63923939  0.17592027  0.05882285  1
  O  O40  1  0.04556809  0.37231686  0.31413498  1
  O  O41  1  0.95443191  0.62768314  0.68586502  1
  O  O42  1  0.45443191  0.37231686  0.18586502  1
  O  O43  1  0.54556809  0.62768314  0.81413498  1
  O  O44  1  0.87488085  0.88541988  0.11038968  1
  O  O45  1  0.12511915  0.11458012  0.88961032  1
  O  O46  1  0.62511915  0.88541988  0.38961032  1
  O  O47  1  0.37488085  0.11458012  0.61038968  1
  O  O48  1  0.86486927  0.58457528  0.18847412  1
  O  O49  1  0.13513073  0.41542472  0.81152588  1
  O  O50  1  0.63513073  0.58457528  0.31152588  1
  O  O51  1  0.36486927  0.41542472  0.68847412  1
  O  O52  1  0.40329003  0.81030834  0.69038994  1
  O  O53  1  0.59670997  0.18969166  0.30961006  1
  O  O54  1  0.09670997  0.81030834  0.80961006  1
  O  O55  1  0.90329003  0.18969166  0.19038994  1
  F  F56  1  0.11114481  0.92097078  0.30709951  1
  F  F57  1  0.88885519  0.07902922  0.69290049  1
  F  F58  1  0.38885519  0.92097078  0.19290049  1
  F  F59  1  0.61114481  0.07902922  0.80709951  1
