# generated using pymatgen
data_Na2MgGeO4
_symmetry_space_group_name_H-M   'P 1'
_cell_length_a   5.42316476
_cell_length_b   5.69247518
_cell_length_c   7.21273203
_cell_angle_alpha   90.00000000
_cell_angle_beta   89.91383233
_cell_angle_gamma   90.00000000
_symmetry_Int_Tables_number   1
_chemical_formula_structural   Na2MgGeO4
_chemical_formula_sum   'Na4 Mg2 Ge2 O8'
_cell_volume   222.66566307
_cell_formula_units_Z   2
loop_
 _symmetry_equiv_pos_site_id
 _symmetry_equiv_pos_as_xyz
  1  'x, y, z'
loop_
 _atom_site_type_symbol
 _atom_site_label
 _atom_site_symmetry_multiplicity
 _atom_site_fract_x
 _atom_site_fract_y
 _atom_site_fract_z
 _atom_site_occupancy
  Na  Na0  1  0.56065584  0.67288054  0.19349243  1
  Na  Na1  1  0.06065584  0.32711946  0.69349243  1
  Na  Na2  1  0.06365754  0.81871878  0.43892904  1
  Na  Na3  1  0.56365754  0.18128122  0.93892904  1
  Mg  Mg4  1  0.57472144  0.18603225  0.44401611  1
  Mg  Mg5  1  0.07472144  0.81396775  0.94401611  1
  Ge  Ge6  1  0.07800755  0.31324847  0.19114222  1
  Ge  Ge7  1  0.57800755  0.68675153  0.69114222  1
  O  O8  1  0.93374617  0.20479159  0.39544704  1
  O  O9  1  0.43374617  0.79520841  0.89544704  1
  O  O10  1  0.99872665  0.61577820  0.16288432  1
  O  O11  1  0.49872665  0.38422180  0.66288432  1
  O  O12  1  0.40329162  0.29054911  0.21930141  1
  O  O13  1  0.90329162  0.70945089  0.71930141  1
  O  O14  1  0.99290320  0.14961061  0.98991744  1
  O  O15  1  0.49290320  0.85038939  0.48991744  1
