# generated using pymatgen
data_NdEu2BeO5
_symmetry_space_group_name_H-M   'P 1'
_cell_length_a   6.57765456
_cell_length_b   7.26991295
_cell_length_c   9.57303394
_cell_angle_alpha   90.00000000
_cell_angle_beta   90.00000000
_cell_angle_gamma   90.00000000
_symmetry_Int_Tables_number   1
_chemical_formula_structural   NdEu2BeO5
_chemical_formula_sum   'Nd4 Eu8 Be4 O20'
_cell_volume   457.77268086
_cell_formula_units_Z   4
loop_
 _symmetry_equiv_pos_site_id
 _symmetry_equiv_pos_as_xyz
  1  'x, y, z'
loop_
 _atom_site_type_symbol
 _atom_site_label
 _atom_site_symmetry_multiplicity
 _atom_site_fract_x
 _atom_site_fract_y
 _atom_site_fract_z
 _atom_site_occupancy
  Nd  Nd0  1  0.40409549  0.75000000  0.52415100  1
  Nd  Nd1  1  0.59590451  0.25000000  0.47584900  1
  Nd  Nd2  1  0.90409549  0.25000000  0.97584900  1
  Nd  Nd3  1  0.09590451  0.75000000  0.02415100  1
  Eu  Eu4  1  0.92053734  0.97711387  0.67344605  1
  Eu  Eu5  1  0.07946266  0.02288613  0.32655395  1
  Eu  Eu6  1  0.42053734  0.02288613  0.82655395  1
  Eu  Eu7  1  0.07946266  0.47711387  0.32655395  1
  Eu  Eu8  1  0.57946266  0.97711387  0.17344605  1
  Eu  Eu9  1  0.92053734  0.52288613  0.67344605  1
  Eu  Eu10  1  0.57946266  0.52288613  0.17344605  1
  Eu  Eu11  1  0.42053734  0.47711387  0.82655395  1
  Be  Be12  1  0.69155906  0.75000000  0.90018368  1
  Be  Be13  1  0.30844094  0.25000000  0.09981632  1
  Be  Be14  1  0.19155906  0.25000000  0.59981632  1
  Be  Be15  1  0.80844094  0.75000000  0.40018368  1
  O  O16  1  0.80863876  0.94092934  0.93289310  1
  O  O17  1  0.19136124  0.05907066  0.06710690  1
  O  O18  1  0.30863876  0.05907066  0.56710690  1
  O  O19  1  0.19136124  0.44092934  0.06710690  1
  O  O20  1  0.69136124  0.94092934  0.43289310  1
  O  O21  1  0.80863876  0.55907066  0.93289310  1
  O  O22  1  0.69136124  0.55907066  0.43289310  1
  O  O23  1  0.30863876  0.44092934  0.56710690  1
  O  O24  1  0.16472009  0.75000000  0.77657192  1
  O  O25  1  0.83527991  0.25000000  0.22342808  1
  O  O26  1  0.66472009  0.25000000  0.72342808  1
  O  O27  1  0.33527991  0.75000000  0.27657192  1
  O  O28  1  0.47902078  0.75000000  0.99068770  1
  O  O29  1  0.52097922  0.25000000  0.00931230  1
  O  O30  1  0.97902078  0.25000000  0.50931230  1
  O  O31  1  0.02097922  0.75000000  0.49068770  1
  O  O32  1  0.63552191  0.75000000  0.72767868  1
  O  O33  1  0.36447809  0.25000000  0.27232132  1
  O  O34  1  0.13552191  0.25000000  0.77232132  1
  O  O35  1  0.86447809  0.75000000  0.22767868  1
