# generated using pymatgen
data_Pr23Cd4Pt7
_symmetry_space_group_name_H-M   'P 1'
_cell_length_a   10.17547068
_cell_length_b   10.17547068
_cell_length_c   23.02334861
_cell_angle_alpha   90.00000000
_cell_angle_beta   90.00000000
_cell_angle_gamma   120.00000310
_symmetry_Int_Tables_number   1
_chemical_formula_structural   Pr23Cd4Pt7
_chemical_formula_sum   'Pr46 Cd8 Pt14'
_cell_volume   2064.46783968
_cell_formula_units_Z   2
loop_
 _symmetry_equiv_pos_site_id
 _symmetry_equiv_pos_as_xyz
  1  'x, y, z'
loop_
 _atom_site_type_symbol
 _atom_site_label
 _atom_site_symmetry_multiplicity
 _atom_site_fract_x
 _atom_site_fract_y
 _atom_site_fract_z
 _atom_site_occupancy
  Pr  Pr0  1  0.20525414  0.41050829  0.72089314  1
  Pr  Pr1  1  0.20525414  0.79474586  0.72089314  1
  Pr  Pr2  1  0.79474586  0.58949171  0.22089314  1
  Pr  Pr3  1  0.58949171  0.79474586  0.72089314  1
  Pr  Pr4  1  0.79474586  0.20525414  0.22089314  1
  Pr  Pr5  1  0.41050829  0.20525414  0.22089314  1
  Pr  Pr6  1  0.79444596  0.58889192  0.94531912  1
  Pr  Pr7  1  0.79444596  0.20555404  0.94531912  1
  Pr  Pr8  1  0.20555404  0.41110808  0.44531912  1
  Pr  Pr9  1  0.41110808  0.20555404  0.94531912  1
  Pr  Pr10  1  0.20555404  0.79444596  0.44531912  1
  Pr  Pr11  1  0.58889192  0.79444596  0.44531912  1
  Pr  Pr12  1  0.21115530  0.42231059  0.98954789  1
  Pr  Pr13  1  0.21115530  0.78884470  0.98954789  1
  Pr  Pr14  1  0.78884470  0.57768941  0.48954789  1
  Pr  Pr15  1  0.57768941  0.78884470  0.98954789  1
  Pr  Pr16  1  0.78884470  0.21115530  0.48954789  1
  Pr  Pr17  1  0.42231059  0.21115530  0.48954789  1
  Pr  Pr18  1  0.87144019  0.74288038  0.63632779  1
  Pr  Pr19  1  0.87144019  0.12855981  0.63632779  1
  Pr  Pr20  1  0.12855981  0.25711962  0.13632779  1
  Pr  Pr21  1  0.25711962  0.12855981  0.63632779  1
  Pr  Pr22  1  0.12855981  0.87144019  0.13632779  1
  Pr  Pr23  1  0.74288038  0.87144019  0.13632779  1
  Pr  Pr24  1  0.45661461  0.91322923  0.85622244  1
  Pr  Pr25  1  0.45661461  0.54338539  0.85622244  1
  Pr  Pr26  1  0.54338539  0.08677077  0.35622244  1
  Pr  Pr27  1  0.08677077  0.54338539  0.85622244  1
  Pr  Pr28  1  0.54338539  0.45661461  0.35622244  1
  Pr  Pr29  1  0.91322923  0.45661461  0.35622244  1
  Pr  Pr30  1  0.00000000  0.00000000  0.99615334  1
  Pr  Pr31  1  0.00000000  0.00000000  0.49615334  1
  Pr  Pr32  1  0.46122672  0.92245343  0.58489276  1
  Pr  Pr33  1  0.46122672  0.53877328  0.58489276  1
  Pr  Pr34  1  0.53877328  0.07754657  0.08489276  1
  Pr  Pr35  1  0.07754657  0.53877328  0.58489276  1
  Pr  Pr36  1  0.53877328  0.46122672  0.08489276  1
  Pr  Pr37  1  0.92245343  0.46122672  0.08489276  1
  Pr  Pr38  1  0.80098762  0.60197525  0.78393079  1
  Pr  Pr39  1  0.80098762  0.19901238  0.78393079  1
  Pr  Pr40  1  0.19901238  0.39802475  0.28393079  1
  Pr  Pr41  1  0.39802475  0.19901238  0.78393079  1
  Pr  Pr42  1  0.19901238  0.80098762  0.28393079  1
  Pr  Pr43  1  0.60197525  0.80098762  0.28393079  1
  Pr  Pr44  1  0.66666700  0.33333300  0.64277868  1
  Pr  Pr45  1  0.33333300  0.66666700  0.14277868  1
  Cd  Cd46  1  0.00000000  0.00000000  0.74897223  1
  Cd  Cd47  1  0.00000000  0.00000000  0.24897223  1
  Cd  Cd48  1  0.10723712  0.21447423  0.86324669  1
  Cd  Cd49  1  0.10723712  0.89276288  0.86324669  1
  Cd  Cd50  1  0.89276288  0.78552577  0.36324669  1
  Cd  Cd51  1  0.78552577  0.89276288  0.86324669  1
  Cd  Cd52  1  0.89276288  0.10723712  0.36324669  1
  Cd  Cd53  1  0.21447423  0.10723712  0.36324669  1
  Pt  Pt54  1  0.52270249  0.04540499  0.71079924  1
  Pt  Pt55  1  0.52270249  0.47729751  0.71079924  1
  Pt  Pt56  1  0.47729751  0.95459501  0.21079924  1
  Pt  Pt57  1  0.95459501  0.47729751  0.71079924  1
  Pt  Pt58  1  0.47729751  0.52270249  0.21079924  1
  Pt  Pt59  1  0.04540499  0.52270249  0.21079924  1
  Pt  Pt60  1  0.66666700  0.33333300  0.86142956  1
  Pt  Pt61  1  0.33333300  0.66666700  0.36142956  1
  Pt  Pt62  1  0.14273618  0.28547236  0.56461555  1
  Pt  Pt63  1  0.14273618  0.85726382  0.56461555  1
  Pt  Pt64  1  0.85726382  0.71452764  0.06461555  1
  Pt  Pt65  1  0.71452764  0.85726382  0.56461555  1
  Pt  Pt66  1  0.85726382  0.14273618  0.06461555  1
  Pt  Pt67  1  0.28547236  0.14273618  0.06461555  1
