# generated using pymatgen
data_Al(FeO2)3
_symmetry_space_group_name_H-M   'P 1'
_cell_length_a   17.88574926
_cell_length_b   5.95110196
_cell_length_c   5.95110223
_cell_angle_alpha   59.99963463
_cell_angle_beta   60.09965381
_cell_angle_gamma   60.09965423
_symmetry_Int_Tables_number   1
_chemical_formula_structural   Al(FeO2)3
_chemical_formula_sum   'Al4 Fe12 O24'
_cell_volume   448.57830317
_cell_formula_units_Z   4
loop_
 _symmetry_equiv_pos_site_id
 _symmetry_equiv_pos_as_xyz
  1  'x, y, z'
loop_
 _atom_site_type_symbol
 _atom_site_label
 _atom_site_symmetry_multiplicity
 _atom_site_fract_x
 _atom_site_fract_y
 _atom_site_fract_z
 _atom_site_occupancy
  Al  Al0  1  0.54667704  0.62029498  0.62029498  1
  Al  Al1  1  0.87036165  0.62909132  0.62909132  1
  Al  Al2  1  0.12963835  0.37090868  0.37090868  1
  Al  Al3  1  0.45332296  0.37970502  0.37970502  1
  Fe  Fe4  1  0.00000000  0.50000000  -0.00000000  1
  Fe  Fe5  1  0.33147529  0.50850133  0.99750841  1
  Fe  Fe6  1  0.66852471  0.49149867  0.00249159  1
  Fe  Fe7  1  0.00000000  -0.00000000  -0.00000000  1
  Fe  Fe8  1  0.33184263  0.99743810  0.99743810  1
  Fe  Fe9  1  0.66815737  0.00256190  0.00256190  1
  Fe  Fe10  1  0.17253180  0.99474336  0.99474336  1
  Fe  Fe11  1  0.50000000  -0.00000000  -0.00000000  1
  Fe  Fe12  1  0.82746820  0.00525664  0.00525664  1
  Fe  Fe13  1  0.00000000  -0.00000000  0.50000000  1
  Fe  Fe14  1  0.33147529  0.99750841  0.50850133  1
  Fe  Fe15  1  0.66852471  0.00249159  0.49149867  1
  O  O16  1  0.05996548  0.77353585  0.77353585  1
  O  O17  1  0.42265735  0.74339576  0.74339576  1
  O  O18  1  0.74436621  0.75595257  0.75595257  1
  O  O19  1  0.08663183  0.24693764  0.74778722  1
  O  O20  1  0.41771665  0.24404530  0.75764296  1
  O  O21  1  0.74028377  0.24406851  0.79208663  1
  O  O22  1  0.08663183  0.74778722  0.24693764  1
  O  O23  1  0.41771665  0.75764296  0.24404530  1
  O  O24  1  0.74028377  0.79208663  0.24406851  1
  O  O25  1  0.08661834  0.24689942  0.24689942  1
  O  O26  1  0.41786592  0.24385604  0.24385604  1
  O  O27  1  0.74100900  0.24294754  0.24294754  1
  O  O28  1  0.25971623  0.75593149  0.20791337  1
  O  O29  1  0.58228335  0.75595470  0.24235704  1
  O  O30  1  0.91336817  0.75306236  0.25221278  1
  O  O31  1  0.25563379  0.24404743  0.24404743  1
  O  O32  1  0.57734265  0.25660424  0.25660424  1
  O  O33  1  0.94003452  0.22646415  0.22646415  1
  O  O34  1  0.25971623  0.20791337  0.75593149  1
  O  O35  1  0.58228335  0.24235704  0.75595470  1
  O  O36  1  0.91336817  0.25221278  0.75306236  1
  O  O37  1  0.25899100  0.75705246  0.75705246  1
  O  O38  1  0.58213408  0.75614396  0.75614396  1
  O  O39  1  0.91338166  0.75310058  0.75310058  1
