# generated using pymatgen
data_NaSrGaF6
_symmetry_space_group_name_H-M   'P 1'
_cell_length_a   5.44689379
_cell_length_b   9.37702644
_cell_length_c   10.48264297
_cell_angle_alpha   90.00000000
_cell_angle_beta   90.00000000
_cell_angle_gamma   90.00000000
_symmetry_Int_Tables_number   1
_chemical_formula_structural   NaSrGaF6
_chemical_formula_sum   'Na4 Sr4 Ga4 F24'
_cell_volume   535.40798250
_cell_formula_units_Z   4
loop_
 _symmetry_equiv_pos_site_id
 _symmetry_equiv_pos_as_xyz
  1  'x, y, z'
loop_
 _atom_site_type_symbol
 _atom_site_label
 _atom_site_symmetry_multiplicity
 _atom_site_fract_x
 _atom_site_fract_y
 _atom_site_fract_z
 _atom_site_occupancy
  Na  Na0  1  0.04383271  0.64637254  0.08297105  1
  Na  Na1  1  0.45616729  0.35362746  0.58297105  1
  Na  Na2  1  0.95616729  0.14637254  0.41702895  1
  Na  Na3  1  0.54383271  0.85362746  0.91702895  1
  Sr  Sr4  1  0.50553949  0.31448208  0.17749693  1
  Sr  Sr5  1  0.99446051  0.68551792  0.67749693  1
  Sr  Sr6  1  0.49446051  0.81448208  0.32250307  1
  Sr  Sr7  1  0.00553949  0.18551792  0.82250307  1
  Ga  Ga8  1  0.03682793  0.00089015  0.12633804  1
  Ga  Ga9  1  0.46317207  0.99910985  0.62633804  1
  Ga  Ga10  1  0.96317207  0.50089015  0.37366196  1
  Ga  Ga11  1  0.53682793  0.49910985  0.87366196  1
  F  F12  1  0.21352690  0.14103169  0.58657779  1
  F  F13  1  0.28647310  0.85896831  0.08657779  1
  F  F14  1  0.78647310  0.64103169  0.91342221  1
  F  F15  1  0.71352690  0.35896831  0.41342221  1
  F  F16  1  0.20847421  0.62075854  0.29693087  1
  F  F17  1  0.29152579  0.37924146  0.79693087  1
  F  F18  1  0.79152579  0.12075854  0.20306913  1
  F  F19  1  0.70847421  0.87924146  0.70306913  1
  F  F20  1  0.21676387  0.15765503  0.04890632  1
  F  F21  1  0.28323613  0.84234497  0.54890632  1
  F  F22  1  0.78323613  0.65765503  0.45109368  1
  F  F23  1  0.71676387  0.34234497  0.95109368  1
  F  F24  1  0.15544851  0.33981828  0.31804788  1
  F  F25  1  0.34455149  0.66018172  0.81804788  1
  F  F26  1  0.84455149  0.83981828  0.18195212  1
  F  F27  1  0.65544851  0.16018172  0.68195212  1
  F  F28  1  0.36259473  0.50428276  0.03212016  1
  F  F29  1  0.13740527  0.49571724  0.53212016  1
  F  F30  1  0.63740527  0.00428276  0.46787984  1
  F  F31  1  0.86259473  0.99571724  0.96787984  1
  F  F32  1  0.21767580  0.02167499  0.28284428  1
  F  F33  1  0.28232420  0.97832501  0.78284428  1
  F  F34  1  0.78232420  0.52167499  0.21715572  1
  F  F35  1  0.71767580  0.47832501  0.71715572  1
