# generated using pymatgen
data_H11C4Br2N
_symmetry_space_group_name_H-M   'P 1'
_cell_length_a   6.15112500
_cell_length_b   7.39889436
_cell_length_c   20.59672232
_cell_angle_alpha   90.00000000
_cell_angle_beta   90.00000000
_cell_angle_gamma   90.00000000
_symmetry_Int_Tables_number   1
_chemical_formula_structural   H11C4Br2N
_chemical_formula_sum   'H44 C16 Br8 N4'
_cell_volume   937.38822363
_cell_formula_units_Z   4
loop_
 _symmetry_equiv_pos_site_id
 _symmetry_equiv_pos_as_xyz
  1  'x, y, z'
loop_
 _atom_site_type_symbol
 _atom_site_label
 _atom_site_symmetry_multiplicity
 _atom_site_fract_x
 _atom_site_fract_y
 _atom_site_fract_z
 _atom_site_occupancy
  H  H0  1  0.26967635  0.87320368  0.84515292  1
  H  H1  1  0.23032365  0.62679632  0.34515292  1
  H  H2  1  0.73032365  0.37320368  0.15484708  1
  H  H3  1  0.76967635  0.12679632  0.65484708  1
  H  H4  1  0.73032365  0.12679632  0.15484708  1
  H  H5  1  0.76967635  0.37320368  0.65484708  1
  H  H6  1  0.26967635  0.62679632  0.84515292  1
  H  H7  1  0.23032365  0.87320368  0.34515292  1
  H  H8  1  0.22937434  0.62711893  0.95537964  1
  H  H9  1  0.27062566  0.87288107  0.45537964  1
  H  H10  1  0.77062566  0.12711893  0.04462036  1
  H  H11  1  0.72937434  0.37288107  0.54462036  1
  H  H12  1  0.77062566  0.37288107  0.04462036  1
  H  H13  1  0.72937434  0.12711893  0.54462036  1
  H  H14  1  0.22937434  0.87288107  0.95537964  1
  H  H15  1  0.27062566  0.62711893  0.45537964  1
  H  H16  1  0.01006815  0.75000000  0.99402175  1
  H  H17  1  0.48993185  0.75000000  0.49402175  1
  H  H18  1  0.98993185  0.25000000  0.00597825  1
  H  H19  1  0.51006815  0.25000000  0.50597825  1
  H  H20  1  0.97267046  0.03438052  0.89179050  1
  H  H21  1  0.52732954  0.46561948  0.39179050  1
  H  H22  1  0.02732954  0.53438052  0.10820950  1
  H  H23  1  0.47267046  0.96561948  0.60820950  1
  H  H24  1  0.02732954  0.96561948  0.10820950  1
  H  H25  1  0.47267046  0.53438052  0.60820950  1
  H  H26  1  0.97267046  0.46561948  0.89179050  1
  H  H27  1  0.52732954  0.03438052  0.39179050  1
  H  H28  1  0.77444569  0.91485245  0.84348457  1
  H  H29  1  0.72555431  0.58514755  0.34348457  1
  H  H30  1  0.22555431  0.41485245  0.15651543  1
  H  H31  1  0.27444569  0.08514755  0.65651543  1
  H  H32  1  0.22555431  0.08514755  0.15651543  1
  H  H33  1  0.27444569  0.41485245  0.65651543  1
  H  H34  1  0.77444569  0.58514755  0.84348457  1
  H  H35  1  0.72555431  0.91485245  0.34348457  1
  H  H36  1  0.75371218  0.91140920  0.93047952  1
  H  H37  1  0.74628782  0.58859080  0.43047952  1
  H  H38  1  0.24628782  0.41140920  0.06952048  1
  H  H39  1  0.25371218  0.08859080  0.56952048  1
  H  H40  1  0.24628782  0.08859080  0.06952048  1
  H  H41  1  0.25371218  0.41140920  0.56952048  1
  H  H42  1  0.75371218  0.58859080  0.93047952  1
  H  H43  1  0.74628782  0.91140920  0.43047952  1
  C  C44  1  0.17256348  0.75000000  0.83883556  1
  C  C45  1  0.32743652  0.75000000  0.33883556  1
  C  C46  1  0.82743652  0.25000000  0.16116444  1
  C  C47  1  0.67256348  0.25000000  0.66116444  1
  C  C48  1  0.12943778  0.75000000  0.95445779  1
  C  C49  1  0.37056222  0.75000000  0.45445779  1
  C  C50  1  0.87056222  0.25000000  0.04554221  1
  C  C51  1  0.62943778  0.25000000  0.54554221  1
  C  C52  1  0.86490179  0.91593019  0.88900627  1
  C  C53  1  0.63509821  0.58406981  0.38900627  1
  C  C54  1  0.13509821  0.41593019  0.11099373  1
  C  C55  1  0.36490179  0.08406981  0.61099373  1
  C  C56  1  0.13509821  0.08406981  0.11099373  1
  C  C57  1  0.36490179  0.41593019  0.61099373  1
  C  C58  1  0.86490179  0.58406981  0.88900627  1
  C  C59  1  0.63509821  0.91593019  0.38900627  1
  Br  Br60  1  0.04819442  0.75000000  0.75146584  1
  Br  Br61  1  0.45180558  0.75000000  0.25146584  1
  Br  Br62  1  0.95180558  0.25000000  0.24853416  1
  Br  Br63  1  0.54819442  0.25000000  0.74853416  1
  Br  Br64  1  0.36736074  0.25000000  0.91374998  1
  Br  Br65  1  0.13263926  0.25000000  0.41374998  1
  Br  Br66  1  0.63263926  0.75000000  0.08625002  1
  Br  Br67  1  0.86736074  0.75000000  0.58625002  1
  N  N68  1  0.00431555  0.75000000  0.89178013  1
  N  N69  1  0.49568445  0.75000000  0.39178013  1
  N  N70  1  0.99568445  0.25000000  0.10821987  1
  N  N71  1  0.50431555  0.25000000  0.60821987  1
