# generated using pymatgen
data_Nd23Cd4Ni7
_symmetry_space_group_name_H-M   'P 1'
_cell_length_a   9.94336285
_cell_length_b   9.94336285
_cell_length_c   22.52776545
_cell_angle_alpha   90.00000000
_cell_angle_beta   90.00000000
_cell_angle_gamma   119.99999738
_symmetry_Int_Tables_number   1
_chemical_formula_structural   Nd23Cd4Ni7
_chemical_formula_sum   'Nd46 Cd8 Ni14'
_cell_volume   1928.92496645
_cell_formula_units_Z   2
loop_
 _symmetry_equiv_pos_site_id
 _symmetry_equiv_pos_as_xyz
  1  'x, y, z'
loop_
 _atom_site_type_symbol
 _atom_site_label
 _atom_site_symmetry_multiplicity
 _atom_site_fract_x
 _atom_site_fract_y
 _atom_site_fract_z
 _atom_site_occupancy
  Nd  Nd0  1  0.20666638  0.41333276  0.71963727  1
  Nd  Nd1  1  0.20666638  0.79333362  0.71963727  1
  Nd  Nd2  1  0.79333362  0.58666724  0.21963727  1
  Nd  Nd3  1  0.58666724  0.79333362  0.71963727  1
  Nd  Nd4  1  0.79333362  0.20666638  0.21963727  1
  Nd  Nd5  1  0.41333276  0.20666638  0.21963727  1
  Nd  Nd6  1  0.79290821  0.58581641  0.94724515  1
  Nd  Nd7  1  0.79290821  0.20709179  0.94724515  1
  Nd  Nd8  1  0.20709179  0.41418359  0.44724515  1
  Nd  Nd9  1  0.41418359  0.20709179  0.94724515  1
  Nd  Nd10  1  0.20709179  0.79290821  0.44724515  1
  Nd  Nd11  1  0.58581641  0.79290821  0.44724515  1
  Nd  Nd12  1  0.21079029  0.42158057  0.99049263  1
  Nd  Nd13  1  0.21079029  0.78920971  0.99049263  1
  Nd  Nd14  1  0.78920971  0.57841943  0.49049263  1
  Nd  Nd15  1  0.57841943  0.78920971  0.99049263  1
  Nd  Nd16  1  0.78920971  0.21079029  0.49049263  1
  Nd  Nd17  1  0.42158057  0.21079029  0.49049263  1
  Nd  Nd18  1  0.87281980  0.74563961  0.63379745  1
  Nd  Nd19  1  0.87281980  0.12718020  0.63379745  1
  Nd  Nd20  1  0.12718020  0.25436039  0.13379745  1
  Nd  Nd21  1  0.25436039  0.12718020  0.63379745  1
  Nd  Nd22  1  0.12718020  0.87281980  0.13379745  1
  Nd  Nd23  1  0.74563961  0.87281980  0.13379745  1
  Nd  Nd24  1  0.45752394  0.91504788  0.85591814  1
  Nd  Nd25  1  0.45752394  0.54247606  0.85591814  1
  Nd  Nd26  1  0.54247606  0.08495212  0.35591814  1
  Nd  Nd27  1  0.08495212  0.54247606  0.85591814  1
  Nd  Nd28  1  0.54247606  0.45752394  0.35591814  1
  Nd  Nd29  1  0.91504788  0.45752394  0.35591814  1
  Nd  Nd30  1  0.00000000  0.00000000  0.99939826  1
  Nd  Nd31  1  0.00000000  0.00000000  0.49939826  1
  Nd  Nd32  1  0.46039618  0.92079237  0.58566598  1
  Nd  Nd33  1  0.46039618  0.53960382  0.58566598  1
  Nd  Nd34  1  0.53960382  0.07920763  0.08566598  1
  Nd  Nd35  1  0.07920763  0.53960382  0.58566598  1
  Nd  Nd36  1  0.53960382  0.46039618  0.08566598  1
  Nd  Nd37  1  0.92079237  0.46039618  0.08566598  1
  Nd  Nd38  1  0.79653825  0.59307649  0.78230764  1
  Nd  Nd39  1  0.79653825  0.20346175  0.78230764  1
  Nd  Nd40  1  0.20346175  0.40692351  0.28230764  1
  Nd  Nd41  1  0.40692351  0.20346175  0.78230764  1
  Nd  Nd42  1  0.20346175  0.79653825  0.28230764  1
  Nd  Nd43  1  0.59307649  0.79653825  0.28230764  1
  Nd  Nd44  1  0.66666700  0.33333300  0.64548597  1
  Nd  Nd45  1  0.33333300  0.66666700  0.14548597  1
  Cd  Cd46  1  0.00000000  0.00000000  0.74919366  1
  Cd  Cd47  1  0.00000000  0.00000000  0.24919366  1
  Cd  Cd48  1  0.10668475  0.21336950  0.86315466  1
  Cd  Cd49  1  0.10668475  0.89331525  0.86315466  1
  Cd  Cd50  1  0.89331525  0.78663050  0.36315466  1
  Cd  Cd51  1  0.78663050  0.89331525  0.86315466  1
  Cd  Cd52  1  0.89331525  0.10668475  0.36315466  1
  Cd  Cd53  1  0.21336950  0.10668475  0.36315466  1
  Ni  Ni54  1  0.52131655  0.04263309  0.71043360  1
  Ni  Ni55  1  0.52131655  0.47868345  0.71043360  1
  Ni  Ni56  1  0.47868345  0.95736691  0.21043360  1
  Ni  Ni57  1  0.95736691  0.47868345  0.71043360  1
  Ni  Ni58  1  0.47868345  0.52131655  0.21043360  1
  Ni  Ni59  1  0.04263309  0.52131655  0.21043360  1
  Ni  Ni60  1  0.66666700  0.33333300  0.86321371  1
  Ni  Ni61  1  0.33333300  0.66666700  0.36321371  1
  Ni  Ni62  1  0.14275531  0.28551062  0.56449028  1
  Ni  Ni63  1  0.14275531  0.85724469  0.56449028  1
  Ni  Ni64  1  0.85724469  0.71448938  0.06449028  1
  Ni  Ni65  1  0.71448938  0.85724469  0.56449028  1
  Ni  Ni66  1  0.85724469  0.14275531  0.06449028  1
  Ni  Ni67  1  0.28551062  0.14275531  0.06449028  1
