# generated using pymatgen
data_Mg2FeBO5
_symmetry_space_group_name_H-M   'P 1'
_cell_length_a   3.04330057
_cell_length_b   9.37323900
_cell_length_c   12.42583407
_cell_angle_alpha   90.00000000
_cell_angle_beta   90.00000000
_cell_angle_gamma   90.00000000
_symmetry_Int_Tables_number   1
_chemical_formula_structural   Mg2FeBO5
_chemical_formula_sum   'Mg8 Fe4 B4 O20'
_cell_volume   354.45416846
_cell_formula_units_Z   4
loop_
 _symmetry_equiv_pos_site_id
 _symmetry_equiv_pos_as_xyz
  1  'x, y, z'
loop_
 _atom_site_type_symbol
 _atom_site_label
 _atom_site_symmetry_multiplicity
 _atom_site_fract_x
 _atom_site_fract_y
 _atom_site_fract_z
 _atom_site_occupancy
  Mg  Mg0  1  0.50000000  -0.00000000  0.50000000  1
  Mg  Mg1  1  0.50000000  0.50000000  0.00000000  1
  Mg  Mg2  1  0.50000000  0.00080521  0.21830201  1
  Mg  Mg3  1  0.50000000  0.99919479  0.78169799  1
  Mg  Mg4  1  0.50000000  0.49919479  0.71830201  1
  Mg  Mg5  1  0.50000000  0.50080521  0.28169799  1
  Mg  Mg6  1  0.00000000  -0.00000000  0.00000000  1
  Mg  Mg7  1  -0.00000000  0.50000000  0.50000000  1
  Fe  Fe8  1  0.00000000  0.23932744  0.38443383  1
  Fe  Fe9  1  0.00000000  0.76067256  0.61556617  1
  Fe  Fe10  1  -0.00000000  0.26067256  0.88443383  1
  Fe  Fe11  1  -0.00000000  0.73932744  0.11556617  1
  B  B12  1  0.00000000  0.27201324  0.13986709  1
  B  B13  1  0.00000000  0.72798676  0.86013291  1
  B  B14  1  0.00000000  0.22798676  0.63986709  1
  B  B15  1  0.00000000  0.77201324  0.36013291  1
  O  O16  1  0.00000000  0.34907610  0.23661538  1
  O  O17  1  0.00000000  0.65092390  0.76338462  1
  O  O18  1  -0.00000000  0.15092390  0.73661538  1
  O  O19  1  -0.00000000  0.84907610  0.26338462  1
  O  O20  1  0.50000000  0.10755823  0.35675449  1
  O  O21  1  0.50000000  0.89244177  0.64324551  1
  O  O22  1  0.50000000  0.39244177  0.85675449  1
  O  O23  1  0.50000000  0.60755823  0.14324551  1
  O  O24  1  0.00000000  0.12455460  0.14206527  1
  O  O25  1  0.00000000  0.87544540  0.85793473  1
  O  O26  1  -0.00000000  0.37544540  0.64206527  1
  O  O27  1  -0.00000000  0.62455460  0.35793473  1
  O  O28  1  0.00000000  0.34946610  0.04340824  1
  O  O29  1  -0.00000000  0.65053390  0.95659176  1
  O  O30  1  0.00000000  0.15053390  0.54340824  1
  O  O31  1  -0.00000000  0.84946610  0.45659176  1
  O  O32  1  0.50000000  0.38248789  0.42356932  1
  O  O33  1  0.50000000  0.61751211  0.57643068  1
  O  O34  1  0.50000000  0.11751211  0.92356932  1
  O  O35  1  0.50000000  0.88248789  0.07643068  1
