# generated using pymatgen
data_Nd23Cd4Ru7
_symmetry_space_group_name_H-M   'P 1'
_cell_length_a   10.02849295
_cell_length_b   10.02849295
_cell_length_c   22.48968197
_cell_angle_alpha   90.00000000
_cell_angle_beta   90.00000000
_cell_angle_gamma   120.00000217
_symmetry_Int_Tables_number   1
_chemical_formula_structural   Nd23Cd4Ru7
_chemical_formula_sum   'Nd46 Cd8 Ru14'
_cell_volume   1958.77829590
_cell_formula_units_Z   2
loop_
 _symmetry_equiv_pos_site_id
 _symmetry_equiv_pos_as_xyz
  1  'x, y, z'
loop_
 _atom_site_type_symbol
 _atom_site_label
 _atom_site_symmetry_multiplicity
 _atom_site_fract_x
 _atom_site_fract_y
 _atom_site_fract_z
 _atom_site_occupancy
  Nd  Nd0  1  0.20703266  0.41406533  0.71946836  1
  Nd  Nd1  1  0.20703266  0.79296734  0.71946836  1
  Nd  Nd2  1  0.79296734  0.58593467  0.21946836  1
  Nd  Nd3  1  0.58593467  0.79296734  0.71946836  1
  Nd  Nd4  1  0.79296734  0.20703266  0.21946836  1
  Nd  Nd5  1  0.41406533  0.20703266  0.21946836  1
  Nd  Nd6  1  0.79322060  0.58644121  0.94734971  1
  Nd  Nd7  1  0.79322060  0.20677940  0.94734971  1
  Nd  Nd8  1  0.20677940  0.41355879  0.44734971  1
  Nd  Nd9  1  0.41355879  0.20677940  0.94734971  1
  Nd  Nd10  1  0.20677940  0.79322060  0.44734971  1
  Nd  Nd11  1  0.58644121  0.79322060  0.44734971  1
  Nd  Nd12  1  0.20697449  0.41394898  0.99029857  1
  Nd  Nd13  1  0.20697449  0.79302551  0.99029857  1
  Nd  Nd14  1  0.79302551  0.58605102  0.49029857  1
  Nd  Nd15  1  0.58605102  0.79302551  0.99029857  1
  Nd  Nd16  1  0.79302551  0.20697449  0.49029857  1
  Nd  Nd17  1  0.41394898  0.20697449  0.49029857  1
  Nd  Nd18  1  0.87304185  0.74608371  0.63693123  1
  Nd  Nd19  1  0.87304185  0.12695815  0.63693123  1
  Nd  Nd20  1  0.12695815  0.25391629  0.13693123  1
  Nd  Nd21  1  0.25391629  0.12695815  0.63693123  1
  Nd  Nd22  1  0.12695815  0.87304185  0.13693123  1
  Nd  Nd23  1  0.74608371  0.87304185  0.13693123  1
  Nd  Nd24  1  0.45983347  0.91966693  0.85477483  1
  Nd  Nd25  1  0.45983347  0.54016653  0.85477483  1
  Nd  Nd26  1  0.54016653  0.08033307  0.35477483  1
  Nd  Nd27  1  0.08033307  0.54016653  0.85477483  1
  Nd  Nd28  1  0.54016653  0.45983347  0.35477483  1
  Nd  Nd29  1  0.91966693  0.45983347  0.35477483  1
  Nd  Nd30  1  -0.00000000  -0.00000000  0.00080793  1
  Nd  Nd31  1  -0.00000000  -0.00000000  0.50080793  1
  Nd  Nd32  1  0.45890643  0.91781286  0.58458863  1
  Nd  Nd33  1  0.45890643  0.54109357  0.58458863  1
  Nd  Nd34  1  0.54109357  0.08218714  0.08458863  1
  Nd  Nd35  1  0.08218714  0.54109357  0.58458863  1
  Nd  Nd36  1  0.54109357  0.45890643  0.08458863  1
  Nd  Nd37  1  0.91781286  0.45890643  0.08458863  1
  Nd  Nd38  1  0.79511843  0.59023686  0.78214107  1
  Nd  Nd39  1  0.79511843  0.20488157  0.78214107  1
  Nd  Nd40  1  0.20488157  0.40976314  0.28214107  1
  Nd  Nd41  1  0.40976314  0.20488157  0.78214107  1
  Nd  Nd42  1  0.20488157  0.79511843  0.28214107  1
  Nd  Nd43  1  0.59023686  0.79511843  0.28214107  1
  Nd  Nd44  1  0.66666700  0.33333300  0.64497306  1
  Nd  Nd45  1  0.33333300  0.66666700  0.14497306  1
  Cd  Cd46  1  -0.00000000  -0.00000000  0.75077522  1
  Cd  Cd47  1  -0.00000000  -0.00000000  0.25077522  1
  Cd  Cd48  1  0.10584142  0.21168284  0.86336272  1
  Cd  Cd49  1  0.10584142  0.89415858  0.86336272  1
  Cd  Cd50  1  0.89415858  0.78831716  0.36336272  1
  Cd  Cd51  1  0.78831716  0.89415858  0.86336272  1
  Cd  Cd52  1  0.89415858  0.10584142  0.36336272  1
  Cd  Cd53  1  0.21168284  0.10584142  0.36336272  1
  Ru  Ru54  1  0.51728307  0.03456615  0.70972529  1
  Ru  Ru55  1  0.51728307  0.48271693  0.70972529  1
  Ru  Ru56  1  0.48271693  0.96543385  0.20972529  1
  Ru  Ru57  1  0.96543385  0.48271693  0.70972529  1
  Ru  Ru58  1  0.48271693  0.51728307  0.20972529  1
  Ru  Ru59  1  0.03456615  0.51728307  0.20972529  1
  Ru  Ru60  1  0.66666700  0.33333300  0.86758425  1
  Ru  Ru61  1  0.33333300  0.66666700  0.36758425  1
  Ru  Ru62  1  0.14669652  0.29339304  0.56221943  1
  Ru  Ru63  1  0.14669652  0.85330348  0.56221943  1
  Ru  Ru64  1  0.85330348  0.70660696  0.06221943  1
  Ru  Ru65  1  0.70660696  0.85330348  0.56221943  1
  Ru  Ru66  1  0.85330348  0.14669652  0.06221943  1
  Ru  Ru67  1  0.29339304  0.14669652  0.06221943  1
