# generated using pymatgen
data_Mn2VPO7
_symmetry_space_group_name_H-M   'P 1'
_cell_length_a   4.80969470
_cell_length_b   5.57068816
_cell_length_c   5.57068816
_cell_angle_alpha   103.85240456
_cell_angle_beta   98.64495651
_cell_angle_gamma   98.64495651
_symmetry_Int_Tables_number   1
_chemical_formula_structural   Mn2VPO7
_chemical_formula_sum   'Mn2 V1 P1 O7'
_cell_volume   140.54540039
_cell_formula_units_Z   1
loop_
 _symmetry_equiv_pos_site_id
 _symmetry_equiv_pos_as_xyz
  1  'x, y, z'
loop_
 _atom_site_type_symbol
 _atom_site_label
 _atom_site_symmetry_multiplicity
 _atom_site_fract_x
 _atom_site_fract_y
 _atom_site_fract_z
 _atom_site_occupancy
  Mn  Mn0  1  0.27768694  0.31354068  0.93283748  1
  Mn  Mn1  1  0.27768694  0.93283748  0.31354068  1
  V  V2  1  0.68732975  0.83826873  0.83826873  1
  P  P3  1  0.87765656  0.39601883  0.39601883  1
  O  O4  1  0.48691977  0.69167077  0.01349845  1
  O  O5  1  0.48691977  0.01349845  0.69167077  1
  O  O6  1  0.05404985  0.53657057  0.24367027  1
  O  O7  1  0.05404985  0.24367027  0.53657057  1
  O  O8  1  0.58855390  0.23498346  0.23498346  1
  O  O9  1  0.01590417  0.01062344  0.01062344  1
  O  O10  1  0.79324250  0.60391734  0.60391734  1
