# generated using pymatgen
data_Na2MgFeF7
_symmetry_space_group_name_H-M   'P 1'
_cell_length_a   7.27967564
_cell_length_b   7.39349181
_cell_length_c   7.39349181
_cell_angle_alpha   61.19203450
_cell_angle_beta   60.50793955
_cell_angle_gamma   60.50793955
_symmetry_Int_Tables_number   1
_chemical_formula_structural   Na2MgFeF7
_chemical_formula_sum   'Na4 Mg2 Fe2 F14'
_cell_volume   286.02814846
_cell_formula_units_Z   2
loop_
 _symmetry_equiv_pos_site_id
 _symmetry_equiv_pos_as_xyz
  1  'x, y, z'
loop_
 _atom_site_type_symbol
 _atom_site_label
 _atom_site_symmetry_multiplicity
 _atom_site_fract_x
 _atom_site_fract_y
 _atom_site_fract_z
 _atom_site_occupancy
  Na  Na0  1  0.24774981  0.61554280  0.88895757  1
  Na  Na1  1  0.75225019  0.11104243  0.38445720  1
  Na  Na2  1  0.25092994  0.61214029  0.38785971  1
  Na  Na3  1  0.74907006  0.61214029  0.38785971  1
  Mg  Mg4  1  0.25035541  0.11227517  0.88772483  1
  Mg  Mg5  1  0.74964459  0.11227517  0.88772483  1
  Fe  Fe6  1  0.24956016  0.11263330  0.38824637  1
  Fe  Fe7  1  0.75043984  0.61175363  0.88736670  1
  F  F8  1  0.34269778  0.78962746  0.52497698  1
  F  F9  1  0.65730222  0.47502302  0.21037254  1
  F  F10  1  0.56331624  0.06381465  0.20481844  1
  F  F11  1  0.43668376  0.79518156  0.93618535  1
  F  F12  1  0.83194932  0.79518156  0.93618535  1
  F  F13  1  0.16805068  0.06381465  0.20481844  1
  F  F14  1  0.33237833  0.16045772  0.57083513  1
  F  F15  1  0.66762167  0.42916487  0.83954228  1
  F  F16  1  0.06367118  0.42916487  0.83954228  1
  F  F17  1  0.93632882  0.16045772  0.57083513  1
  F  F18  1  -0.00000000  0.01577180  0.98422820  1
  F  F19  1  0.15626539  0.43566140  0.25180782  1
  F  F20  1  0.84373461  0.74819218  0.56433860  1
  F  F21  1  0.50000000  0.20818345  0.79181655  1
