# generated using pymatgen
data_Ca5(TiS2)8
_symmetry_space_group_name_H-M   'P 1'
_cell_length_a   7.10429716
_cell_length_b   7.15053510
_cell_length_c   13.32348483
_cell_angle_alpha   90.00000058
_cell_angle_beta   88.87339492
_cell_angle_gamma   120.21552620
_symmetry_Int_Tables_number   1
_chemical_formula_structural   Ca5(TiS2)8
_chemical_formula_sum   'Ca5 Ti8 S16'
_cell_volume   584.72058412
_cell_formula_units_Z   1
loop_
 _symmetry_equiv_pos_site_id
 _symmetry_equiv_pos_as_xyz
  1  'x, y, z'
loop_
 _atom_site_type_symbol
 _atom_site_label
 _atom_site_symmetry_multiplicity
 _atom_site_fract_x
 _atom_site_fract_y
 _atom_site_fract_z
 _atom_site_occupancy
  Ca  Ca0  1  0.00000000  0.00000000  0.25000000  1
  Ca  Ca1  1  0.00000000  0.00000000  0.75000000  1
  Ca  Ca2  1  0.00000000  0.50000000  0.75000000  1
  Ca  Ca3  1  0.50000000  0.00000000  0.25000000  1
  Ca  Ca4  1  0.50000000  0.50000000  0.25000000  1
  Ti  Ti5  1  0.03255605  0.01627803  0.00078217  1
  Ti  Ti6  1  0.96744395  0.98372197  0.49921783  1
  Ti  Ti7  1  0.01402053  0.50701027  0.00431317  1
  Ti  Ti8  1  0.98597947  0.49298973  0.49568683  1
  Ti  Ti9  1  0.47867588  0.00324851  0.99481553  1
  Ti  Ti10  1  0.52132412  0.99675149  0.50518447  1
  Ti  Ti11  1  0.47867588  0.47542737  0.99481553  1
  Ti  Ti12  1  0.52132412  0.52457263  0.50518447  1
  S  S13  1  0.33435033  0.16717566  0.39350730  1
  S  S14  1  0.34039179  0.17019639  0.88321426  1
  S  S15  1  0.34175546  0.67087873  0.39491017  1
  S  S16  1  0.33657677  0.66828888  0.89529806  1
  S  S17  1  0.83393136  0.16680685  0.38735125  1
  S  S18  1  0.84411690  0.17224348  0.89898800  1
  S  S19  1  0.83393136  0.66712451  0.38735125  1
  S  S20  1  0.84411690  0.67187442  0.89898800  1
  S  S21  1  0.16606864  0.33287549  0.11264875  1
  S  S22  1  0.15588310  0.32812558  0.60101200  1
  S  S23  1  0.16606864  0.83319315  0.11264875  1
  S  S24  1  0.15588310  0.82775652  0.60101200  1
  S  S25  1  0.65824454  0.32912127  0.10508983  1
  S  S26  1  0.66342323  0.33171112  0.60470194  1
  S  S27  1  0.66564967  0.83282434  0.10649270  1
  S  S28  1  0.65960821  0.82980361  0.61678574  1
