# generated using pymatgen
data_Na3YSi3(HO2)6
_symmetry_space_group_name_H-M   'P 1'
_cell_length_a   7.02964360
_cell_length_b   11.86001549
_cell_length_c   13.51651622
_cell_angle_alpha   90.00000000
_cell_angle_beta   90.00000000
_cell_angle_gamma   90.00000000
_symmetry_Int_Tables_number   1
_chemical_formula_structural   Na3YSi3(HO2)6
_chemical_formula_sum   'Na12 Y4 Si12 H24 O48'
_cell_volume   1126.89469184
_cell_formula_units_Z   4
loop_
 _symmetry_equiv_pos_site_id
 _symmetry_equiv_pos_as_xyz
  1  'x, y, z'
loop_
 _atom_site_type_symbol
 _atom_site_label
 _atom_site_symmetry_multiplicity
 _atom_site_fract_x
 _atom_site_fract_y
 _atom_site_fract_z
 _atom_site_occupancy
  Na  Na0  1  0.72660890  0.21150070  0.06116079  1
  Na  Na1  1  0.77339110  0.78849930  0.56116079  1
  Na  Na2  1  0.27339110  0.71150070  0.43883921  1
  Na  Na3  1  0.22660890  0.28849930  0.93883921  1
  Na  Na4  1  0.22121177  0.37834543  0.40210308  1
  Na  Na5  1  0.27878823  0.62165457  0.90210308  1
  Na  Na6  1  0.77878823  0.87834543  0.09789692  1
  Na  Na7  1  0.72121177  0.12165457  0.59789692  1
  Na  Na8  1  0.15194404  0.72873297  0.16299890  1
  Na  Na9  1  0.34805596  0.27126703  0.66299890  1
  Na  Na10  1  0.84805596  0.22873297  0.33700110  1
  Na  Na11  1  0.65194404  0.77126703  0.83700110  1
  Y  Y12  1  0.35605833  0.01292216  0.79937290  1
  Y  Y13  1  0.14394167  0.98707784  0.29937290  1
  Y  Y14  1  0.64394167  0.51292216  0.70062710  1
  Y  Y15  1  0.85605833  0.48707784  0.20062710  1
  Si  Si16  1  0.11428245  0.01430852  0.03535418  1
  Si  Si17  1  0.38571755  0.98569148  0.53535418  1
  Si  Si18  1  0.88571755  0.51430852  0.46464582  1
  Si  Si19  1  0.61428245  0.48569148  0.96464582  1
  Si  Si20  1  0.12295663  0.23769561  0.15650831  1
  Si  Si21  1  0.37704337  0.76230439  0.65650831  1
  Si  Si22  1  0.87704337  0.73769561  0.34349169  1
  Si  Si23  1  0.62295663  0.26230439  0.84349169  1
  Si  Si24  1  0.34949449  0.46016545  0.13955633  1
  Si  Si25  1  0.15050551  0.53983455  0.63955633  1
  Si  Si26  1  0.65050551  0.96016545  0.36044367  1
  Si  Si27  1  0.84949449  0.03983455  0.86044367  1
  H  H28  1  0.12417247  0.14632136  0.47093688  1
  H  H29  1  0.37582753  0.85367864  0.97093688  1
  H  H30  1  0.87582753  0.64632136  0.02906312  1
  H  H31  1  0.62417247  0.35367864  0.52906312  1
  H  H32  1  0.03855468  0.23660012  0.54416891  1
  H  H33  1  0.46144532  0.76339988  0.04416891  1
  H  H34  1  0.96144532  0.73660012  0.95583109  1
  H  H35  1  0.53855468  0.26339988  0.45583109  1
  H  H36  1  0.52611455  0.33434341  0.28167069  1
  H  H37  1  0.97388545  0.66565659  0.78167069  1
  H  H38  1  0.47388545  0.83434341  0.21832931  1
  H  H39  1  0.02611455  0.16565659  0.71832931  1
  H  H40  1  0.53166506  0.02601502  0.17160589  1
  H  H41  1  0.96833494  0.97398498  0.67160589  1
  H  H42  1  0.46833494  0.52601502  0.32839411  1
  H  H43  1  0.03166506  0.47398498  0.82839411  1
  H  H44  1  0.48346066  0.01971009  0.05537156  1
  H  H45  1  0.01653934  0.98028991  0.55537156  1
  H  H46  1  0.51653934  0.51971009  0.44462844  1
  H  H47  1  0.98346066  0.48028991  0.94462844  1
  H  H48  1  0.40282701  0.22088300  0.29679577  1
  H  H49  1  0.09717299  0.77911700  0.79679577  1
  H  H50  1  0.59717299  0.72088300  0.20320423  1
  H  H51  1  0.90282701  0.27911700  0.70320423  1
  O  O52  1  0.39927376  0.05731040  0.63674239  1
  O  O53  1  0.10072624  0.94268960  0.13674239  1
  O  O54  1  0.60072624  0.55731040  0.86325761  1
  O  O55  1  0.89927376  0.44268960  0.36325761  1
  O  O56  1  0.06546868  0.22350421  0.47300240  1
  O  O57  1  0.43453132  0.77649579  0.97300240  1
  O  O58  1  0.93453132  0.72350421  0.02699760  1
  O  O59  1  0.56546868  0.27649579  0.52699760  1
  O  O60  1  0.19831123  0.01147303  0.46792071  1
  O  O61  1  0.30168877  0.98852697  0.96792071  1
  O  O62  1  0.80168877  0.51147303  0.03207929  1
  O  O63  1  0.69831123  0.48852697  0.53207929  1
  O  O64  1  0.58368397  0.04174742  0.10409030  1
  O  O65  1  0.91631603  0.95825258  0.60409030  1
  O  O66  1  0.41631603  0.54174742  0.39590970  1
  O  O67  1  0.08368397  0.45825258  0.89590970  1
  O  O68  1  0.53158441  0.45510216  0.21464250  1
  O  O69  1  0.96841559  0.54489784  0.71464250  1
  O  O70  1  0.46841559  0.95510216  0.28535750  1
  O  O71  1  0.03158441  0.04489784  0.78535750  1
  O  O72  1  0.09898900  0.15330081  0.05800301  1
  O  O73  1  0.40101100  0.84669919  0.55800301  1
  O  O74  1  0.90101100  0.65330081  0.44199699  1
  O  O75  1  0.59898900  0.34669919  0.94199699  1
  O  O76  1  0.16653043  0.52971448  0.17791234  1
  O  O77  1  0.33346957  0.47028552  0.67791234  1
  O  O78  1  0.83346957  0.02971448  0.32208766  1
  O  O79  1  0.66653043  0.97028552  0.82208766  1
  O  O80  1  0.19233042  0.17092172  0.25504563  1
  O  O81  1  0.30766958  0.82907828  0.75504563  1
  O  O82  1  0.80766958  0.67092172  0.24495437  1
  O  O83  1  0.69233042  0.32907828  0.74495437  1
  O  O84  1  0.07961721  0.80098416  0.32566652  1
  O  O85  1  0.42038279  0.19901584  0.82566652  1
  O  O86  1  0.92038279  0.30098416  0.17433348  1
  O  O87  1  0.57961721  0.69901584  0.67433348  1
  O  O88  1  0.28809228  0.32615433  0.11538345  1
  O  O89  1  0.21190772  0.67384567  0.61538345  1
  O  O90  1  0.71190772  0.82615433  0.38461655  1
  O  O91  1  0.78809228  0.17384567  0.88461655  1
  O  O92  1  0.50926780  0.26709974  0.32652359  1
  O  O93  1  0.99073220  0.73290026  0.82652359  1
  O  O94  1  0.49073220  0.76709974  0.17347641  1
  O  O95  1  0.00926780  0.23290026  0.67347641  1
  O  O96  1  0.41832613  0.51180579  0.03053162  1
  O  O97  1  0.08167387  0.48819421  0.53053162  1
  O  O98  1  0.58167387  0.01180579  0.46946838  1
  O  O99  1  0.91832613  0.98819421  0.96946838  1
