# generated using pymatgen
data_Li5Ni9P7
_symmetry_space_group_name_H-M   'P 1'
_cell_length_a   3.60866656
_cell_length_b   9.05674089
_cell_length_c   9.05674089
_cell_angle_alpha   120.00000019
_cell_angle_beta   90.00000000
_cell_angle_gamma   90.00000000
_symmetry_Int_Tables_number   1
_chemical_formula_structural   Li5Ni9P7
_chemical_formula_sum   'Li5 Ni9 P7'
_cell_volume   256.34288721
_cell_formula_units_Z   1
loop_
 _symmetry_equiv_pos_site_id
 _symmetry_equiv_pos_as_xyz
  1  'x, y, z'
loop_
 _atom_site_type_symbol
 _atom_site_label
 _atom_site_symmetry_multiplicity
 _atom_site_fract_x
 _atom_site_fract_y
 _atom_site_fract_z
 _atom_site_occupancy
  Li  Li0  1  0.50000000  0.78169420  0.90231316  1
  Li  Li1  1  0.50000000  0.12061896  0.21830580  1
  Li  Li2  1  0.50000000  0.09768684  0.87938104  1
  Li  Li3  1  -0.00000000  0.66666700  0.33333300  1
  Li  Li4  1  0.50000000  0.33333300  0.66666700  1
  Ni  Ni5  1  0.00000000  0.88069410  0.16560444  1
  Ni  Ni6  1  0.00000000  0.28491034  0.11930590  1
  Ni  Ni7  1  -0.00000000  0.83439556  0.71508966  1
  Ni  Ni8  1  0.00000000  0.56916276  0.94318357  1
  Ni  Ni9  1  -0.00000000  0.37402081  0.43083724  1
  Ni  Ni10  1  -0.00000000  0.05681643  0.62597919  1
  Ni  Ni11  1  0.50000000  0.95170742  0.38833703  1
  Ni  Ni12  1  0.50000000  0.43662962  0.04829258  1
  Ni  Ni13  1  0.50000000  0.61166297  0.56337038  1
  P  P14  1  0.50000000  0.71030801  0.12670024  1
  P  P15  1  0.50000000  0.41639223  0.28969199  1
  P  P16  1  0.50000000  0.87329976  0.58360777  1
  P  P17  1  -0.00000000  0.00000000  0.00000000  1
  P  P18  1  -0.00000000  0.57854705  0.70098557  1
  P  P19  1  0.00000000  0.12243852  0.42145295  1
  P  P20  1  -0.00000000  0.29901443  0.87756148  1
