# generated using pymatgen
data_Lu(Al5Fe)2
_symmetry_space_group_name_H-M   'P 1'
_cell_length_a   6.74274104
_cell_length_b   6.74274104
_cell_length_c   8.95016534
_cell_angle_alpha   90.00000000
_cell_angle_beta   90.00000000
_cell_angle_gamma   96.99722472
_symmetry_Int_Tables_number   1
_chemical_formula_structural   Lu(Al5Fe)2
_chemical_formula_sum   'Lu2 Al20 Fe4'
_cell_volume   403.88461696
_cell_formula_units_Z   2
loop_
 _symmetry_equiv_pos_site_id
 _symmetry_equiv_pos_as_xyz
  1  'x, y, z'
loop_
 _atom_site_type_symbol
 _atom_site_label
 _atom_site_symmetry_multiplicity
 _atom_site_fract_x
 _atom_site_fract_y
 _atom_site_fract_z
 _atom_site_occupancy
  Lu  Lu0  1  0.87310118  0.12689882  0.75000000  1
  Lu  Lu1  1  0.12689882  0.87310118  0.25000000  1
  Al  Al2  1  0.62591004  0.37408996  0.95138480  1
  Al  Al3  1  0.37408996  0.62591004  0.04861520  1
  Al  Al4  1  0.37408996  0.62591004  0.45138480  1
  Al  Al5  1  0.62591004  0.37408996  0.54861520  1
  Al  Al6  1  0.77281219  0.77281219  0.00000000  1
  Al  Al7  1  0.22718781  0.22718781  -0.00000000  1
  Al  Al8  1  0.22718781  0.22718781  0.50000000  1
  Al  Al9  1  0.77281219  0.77281219  0.50000000  1
  Al  Al10  1  0.84321365  0.15678635  0.40353308  1
  Al  Al11  1  0.15678635  0.84321365  0.59646692  1
  Al  Al12  1  0.15678635  0.84321365  0.90353308  1
  Al  Al13  1  0.84321365  0.15678635  0.09646692  1
  Al  Al14  1  0.41675014  0.13486868  0.75000000  1
  Al  Al15  1  0.58324986  0.86513132  0.25000000  1
  Al  Al16  1  0.86513132  0.58324986  0.75000000  1
  Al  Al17  1  0.13486868  0.41675014  0.25000000  1
  Al  Al18  1  0.52228234  0.77981977  0.75000000  1
  Al  Al19  1  0.47771766  0.22018023  0.25000000  1
  Al  Al20  1  0.22018023  0.47771766  0.75000000  1
  Al  Al21  1  0.77981977  0.52228234  0.25000000  1
  Fe  Fe22  1  0.50000000  0.00000000  0.00000000  1
  Fe  Fe23  1  0.50000000  0.00000000  0.50000000  1
  Fe  Fe24  1  0.00000000  0.50000000  0.50000000  1
  Fe  Fe25  1  0.00000000  0.50000000  0.00000000  1
