# generated using pymatgen
data_Rb2La10Co2I17
_symmetry_space_group_name_H-M   'P 1'
_cell_length_a   10.00550326
_cell_length_b   11.89995193
_cell_length_c   11.89979899
_cell_angle_alpha   108.03864015
_cell_angle_beta   93.24828957
_cell_angle_gamma   93.25431209
_symmetry_Int_Tables_number   1
_chemical_formula_structural   Rb2La10Co2I17
_chemical_formula_sum   'Rb2 La10 Co2 I17'
_cell_volume   1340.91651731
_cell_formula_units_Z   1
loop_
 _symmetry_equiv_pos_site_id
 _symmetry_equiv_pos_as_xyz
  1  'x, y, z'
loop_
 _atom_site_type_symbol
 _atom_site_label
 _atom_site_symmetry_multiplicity
 _atom_site_fract_x
 _atom_site_fract_y
 _atom_site_fract_z
 _atom_site_occupancy
  Rb  Rb0  1  0.00000429  0.67493962  0.32507832  1
  Rb  Rb1  1  0.00000568  0.32506358  0.67493983  1
  La  La2  1  0.57272180  0.70631717  0.00728571  1
  La  La3  1  0.42731435  0.29365929  0.99280000  1
  La  La4  1  0.42732055  0.99280501  0.29365372  1
  La  La5  1  0.57274201  0.00729435  0.70632850  1
  La  La6  1  0.44227275  0.67101347  0.67102754  1
  La  La7  1  0.55746785  0.32879834  0.32878665  1
  La  La8  1  0.33242417  0.93851418  0.93850905  1
  La  La9  1  0.66822348  0.06165998  0.06163714  1
  La  La10  1  0.81211874  0.79570927  0.79570636  1
  La  La11  1  0.18747133  0.20428555  0.20428380  1
  Co  Co12  1  0.57089176  0.85512990  0.85513957  1
  Co  Co13  1  0.42930606  0.14487201  0.14482981  1
  I  I14  1  0.86336982  0.61456621  0.94901096  1
  I  I15  1  0.13659729  0.38545735  0.05097249  1
  I  I16  1  0.13658782  0.05097749  0.38547101  1
  I  I17  1  0.86336097  0.94901939  0.61458636  1
  I  I18  1  0.58040778  0.52813062  0.18952699  1
  I  I19  1  0.41961813  0.47185456  0.81047411  1
  I  I20  1  0.41959993  0.81048548  0.47187397  1
  I  I21  1  0.58039904  0.18952883  0.52812935  1
  I  I22  1  0.71886780  0.56213748  0.56215284  1
  I  I23  1  0.28102490  0.43781795  0.43784034  1
  I  I24  1  0.72756489  0.24686084  0.89905950  1
  I  I25  1  0.27245155  0.75315785  0.10091793  1
  I  I26  1  0.27242667  0.10090968  0.75315961  1
  I  I27  1  0.72752682  0.89906144  0.24682974  1
  I  I28  1  0.87040395  0.28754844  0.28755337  1
  I  I29  1  0.12950824  0.71248441  0.71248698  1
  I  I30  1  -0.00000041  0.99994027  0.99994843  1
