# generated using pymatgen
data_Li5Ni9As7
_symmetry_space_group_name_H-M   'P 1'
_cell_length_a   3.79115336
_cell_length_b   9.38830893
_cell_length_c   9.38830892
_cell_angle_alpha   119.99999777
_cell_angle_beta   90.00000000
_cell_angle_gamma   90.00000000
_symmetry_Int_Tables_number   1
_chemical_formula_structural   Li5Ni9As7
_chemical_formula_sum   'Li5 Ni9 As7'
_cell_volume   289.38548082
_cell_formula_units_Z   1
loop_
 _symmetry_equiv_pos_site_id
 _symmetry_equiv_pos_as_xyz
  1  'x, y, z'
loop_
 _atom_site_type_symbol
 _atom_site_label
 _atom_site_symmetry_multiplicity
 _atom_site_fract_x
 _atom_site_fract_y
 _atom_site_fract_z
 _atom_site_occupancy
  Li  Li0  1  0.50000000  0.78398158  0.90133758  1
  Li  Li1  1  0.50000000  0.11735599  0.21601842  1
  Li  Li2  1  0.50000000  0.09866242  0.88264401  1
  Li  Li3  1  0.00000000  0.66666700  0.33333300  1
  Li  Li4  1  0.50000000  0.33333300  0.66666700  1
  Ni  Ni5  1  0.50000000  0.95626322  0.38874216  1
  Ni  Ni6  1  0.50000000  0.43247894  0.04373678  1
  Ni  Ni7  1  0.50000000  0.61125784  0.56752106  1
  Ni  Ni8  1  0.00000000  0.87946615  0.16982367  1
  Ni  Ni9  1  -0.00000000  0.29035752  0.12053385  1
  Ni  Ni10  1  0.00000000  0.83017633  0.70964248  1
  Ni  Ni11  1  0.00000000  0.57130033  0.95197370  1
  Ni  Ni12  1  -0.00000000  0.38067337  0.42869967  1
  Ni  Ni13  1  -0.00000000  0.04802630  0.61932663  1
  As  As14  1  -0.00000000  0.57743639  0.70501160  1
  As  As15  1  0.00000000  0.12757522  0.42256361  1
  As  As16  1  -0.00000000  0.29498840  0.87242478  1
  As  As17  1  0.00000000  -0.00000000  -0.00000000  1
  As  As18  1  0.50000000  0.71026259  0.12932708  1
  As  As19  1  0.50000000  0.41906449  0.28973741  1
  As  As20  1  0.50000000  0.87067292  0.58093551  1
