# generated using pymatgen
data_LiTb(WO4)2
_symmetry_space_group_name_H-M   'P 1'
_cell_length_a   5.13780402
_cell_length_b   5.87858605
_cell_length_c   10.12537643
_cell_angle_alpha   90.00000000
_cell_angle_beta   94.29974889
_cell_angle_gamma   90.00000000
_symmetry_Int_Tables_number   1
_chemical_formula_structural   LiTb(WO4)2
_chemical_formula_sum   'Li2 Tb2 W4 O16'
_cell_volume   304.95624424
_cell_formula_units_Z   2
loop_
 _symmetry_equiv_pos_site_id
 _symmetry_equiv_pos_as_xyz
  1  'x, y, z'
loop_
 _atom_site_type_symbol
 _atom_site_label
 _atom_site_symmetry_multiplicity
 _atom_site_fract_x
 _atom_site_fract_y
 _atom_site_fract_z
 _atom_site_occupancy
  Li  Li0  1  0.25000000  0.69313370  0.25000000  1
  Li  Li1  1  0.75000000  0.30686630  0.75000000  1
  Tb  Tb2  1  0.75000000  0.30661194  0.25000000  1
  Tb  Tb3  1  0.25000000  0.69338806  0.75000000  1
  W  W4  1  0.74980532  0.82534471  0.01361628  1
  W  W5  1  0.25019468  0.17465529  0.98638372  1
  W  W6  1  0.75019468  0.82534471  0.48638372  1
  W  W7  1  0.24980532  0.17465529  0.51361628  1
  O  O8  1  0.44866424  0.89235661  0.59615904  1
  O  O9  1  0.55133576  0.10764339  0.40384096  1
  O  O10  1  0.05133576  0.89235661  0.90384096  1
  O  O11  1  0.94866424  0.10764339  0.09615904  1
  O  O12  1  0.10909465  0.37292655  0.38776995  1
  O  O13  1  0.89090535  0.62707345  0.61223005  1
  O  O14  1  0.39090535  0.37292655  0.11223005  1
  O  O15  1  0.60909465  0.62707345  0.88776995  1
  O  O16  1  0.03605602  0.91295654  0.38849402  1
  O  O17  1  0.96394398  0.08704346  0.61150598  1
  O  O18  1  0.46394398  0.91295654  0.11150598  1
  O  O19  1  0.53605602  0.08704346  0.88849402  1
  O  O20  1  0.90276284  0.62693696  0.13451121  1
  O  O21  1  0.09723716  0.37306304  0.86548879  1
  O  O22  1  0.59723716  0.62693696  0.36548879  1
  O  O23  1  0.40276284  0.37306304  0.63451121  1
