# generated using pymatgen
data_NbNi11(BO5)4
_symmetry_space_group_name_H-M   'P 1'
_cell_length_a   6.12837861
_cell_length_b   6.12837861
_cell_length_c   21.61630483
_cell_angle_alpha   92.13046569
_cell_angle_beta   96.16890487
_cell_angle_gamma   119.32987372
_symmetry_Int_Tables_number   1
_chemical_formula_structural   NbNi11(BO5)4
_chemical_formula_sum   'Nb2 Ni22 B8 O40'
_cell_volume   699.89079079
_cell_formula_units_Z   2
loop_
 _symmetry_equiv_pos_site_id
 _symmetry_equiv_pos_as_xyz
  1  'x, y, z'
loop_
 _atom_site_type_symbol
 _atom_site_label
 _atom_site_symmetry_multiplicity
 _atom_site_fract_x
 _atom_site_fract_y
 _atom_site_fract_z
 _atom_site_occupancy
  Nb  Nb0  1  0.97026530  0.72026530  0.25000000  1
  Nb  Nb1  1  0.02973470  0.27973470  0.75000000  1
  Ni  Ni2  1  0.68464835  0.79346224  0.10895294  1
  Ni  Ni3  1  0.31535165  0.20653776  0.89104706  1
  Ni  Ni4  1  0.18450931  0.57569541  0.39104706  1
  Ni  Ni5  1  0.81549069  0.42430459  0.60895294  1
  Ni  Ni6  1  0.93072259  0.18277953  0.24964936  1
  Ni  Ni7  1  0.06927741  0.81722047  0.75035064  1
  Ni  Ni8  1  0.43313016  0.68107323  0.25035064  1
  Ni  Ni9  1  0.56686984  0.31892677  0.74964936  1
  Ni  Ni10  1  0.19020743  0.08263392  0.39335441  1
  Ni  Ni11  1  0.80979257  0.91736608  0.60664559  1
  Ni  Ni12  1  0.18927951  0.79685301  0.10664559  1
  Ni  Ni13  1  0.81072049  0.20314699  0.89335441  1
  Ni  Ni14  1  0.99577074  0.24816638  0.49931885  1
  Ni  Ni15  1  0.00422926  0.75183362  0.50068115  1
  Ni  Ni16  1  0.24884753  0.49645190  0.00068115  1
  Ni  Ni17  1  0.75115247  0.50354810  0.99931885  1
  Ni  Ni18  1  0.44292151  0.19292151  0.25000000  1
  Ni  Ni19  1  0.55707849  0.80707849  0.75000000  1
  Ni  Ni20  1  0.50000000  0.00000000  0.00000000  1
  Ni  Ni21  1  0.50000000  0.50000000  0.50000000  1
  Ni  Ni22  1  0.00000000  0.00000000  0.00000000  1
  Ni  Ni23  1  0.50000000  0.00000000  0.50000000  1
  B  B24  1  0.67204655  0.06811408  0.36798549  1
  B  B25  1  0.32795345  0.93188592  0.63201451  1
  B  B26  1  0.20012859  0.30406106  0.13201451  1
  B  B27  1  0.79987141  0.69593894  0.86798549  1
  B  B28  1  0.69935922  0.30619061  0.13005139  1
  B  B29  1  0.30064078  0.69380939  0.86994861  1
  B  B30  1  0.67613922  0.56930783  0.36994861  1
  B  B31  1  0.32386078  0.43069217  0.63005139  1
  O  O32  1  0.56882766  0.06576332  0.10024243  1
  O  O33  1  0.43117234  0.93423668  0.89975757  1
  O  O34  1  0.46552090  0.46858524  0.39975757  1
  O  O35  1  0.53447910  0.53141476  0.60024243  1
  O  O36  1  0.91595986  0.19415821  0.40015264  1
  O  O37  1  0.08404014  0.80584179  0.59984736  1
  O  O38  1  0.29400557  0.51580722  0.09984736  1
  O  O39  1  0.70599443  0.48419278  0.90015264  1
  O  O40  1  0.13372824  0.03804316  0.30025213  1
  O  O41  1  0.86627176  0.96195684  0.69974787  1
  O  O42  1  0.23779104  0.83347612  0.19974787  1
  O  O43  1  0.76220896  0.16652388  0.80025213  1
  O  O44  1  0.53544659  0.03316361  0.60025327  1
  O  O45  1  0.46455341  0.96683639  0.39974673  1
  O  O46  1  0.93291034  0.93519332  0.89974673  1
  O  O47  1  0.06708966  0.06480668  0.10025327  1
  O  O48  1  0.63531692  0.04199768  0.30199370  1
  O  O49  1  0.36468308  0.95800232  0.69800630  1
  O  O50  1  0.24000398  0.33332322  0.19800630  1
  O  O51  1  0.75999602  0.66667678  0.80199370  1
  O  O52  1  0.74017789  0.34115623  0.19651214  1
  O  O53  1  0.25982211  0.65884377  0.80348786  1
  O  O54  1  0.64464408  0.54366575  0.30348786  1
  O  O55  1  0.35535592  0.45633425  0.69651214  1
  O  O56  1  0.62877503  0.75654469  0.01424636  1
  O  O57  1  0.37122497  0.24345531  0.98575364  1
  O  O58  1  0.24229833  0.61452867  0.48575364  1
  O  O59  1  0.75770167  0.38547133  0.51424636  1
  O  O60  1  0.91945217  0.69765033  0.40151592  1
  O  O61  1  0.08054783  0.30234967  0.59848408  1
  O  O62  1  0.79613441  0.51793626  0.09848408  1
  O  O63  1  0.20386559  0.48206374  0.90151592  1
  O  O64  1  0.73952371  0.81560192  0.20336100  1
  O  O65  1  0.26047629  0.18439808  0.79663900  1
  O  O66  1  0.11224092  0.53616271  0.29663900  1
  O  O67  1  0.88775908  0.46383729  0.70336100  1
  O  O68  1  0.24416016  0.12333241  0.48682919  1
  O  O69  1  0.75583984  0.87666759  0.51317081  1
  O  O70  1  0.13650322  0.75733097  0.01317081  1
  O  O71  1  0.86349678  0.24266903  0.98682919  1
