# generated using pymatgen
data_MgU2P2(H10O11)2
_symmetry_space_group_name_H-M   'P 1'
_cell_length_a   7.01949230
_cell_length_b   7.02845451
_cell_length_c   19.98267480
_cell_angle_alpha   90.00000000
_cell_angle_beta   90.00000000
_cell_angle_gamma   90.83101188
_symmetry_Int_Tables_number   1
_chemical_formula_structural   MgU2P2(H10O11)2
_chemical_formula_sum   'Mg2 U4 P4 H40 O44'
_cell_volume   985.76519295
_cell_formula_units_Z   2
loop_
 _symmetry_equiv_pos_site_id
 _symmetry_equiv_pos_as_xyz
  1  'x, y, z'
loop_
 _atom_site_type_symbol
 _atom_site_label
 _atom_site_symmetry_multiplicity
 _atom_site_fract_x
 _atom_site_fract_y
 _atom_site_fract_z
 _atom_site_occupancy
  Mg  Mg0  1  0.00000000  -0.00000000  -0.00000000  1
  Mg  Mg1  1  0.50000000  0.50000000  0.50000000  1
  U  U2  1  0.45241418  0.98061316  0.29299938  1
  U  U3  1  0.54758582  0.01938684  0.70700062  1
  U  U4  1  0.04758582  0.51938684  0.79299938  1
  U  U5  1  0.95241418  0.48061316  0.20700062  1
  P  P6  1  0.55069105  0.52328098  0.74944041  1
  P  P7  1  0.44930895  0.47671902  0.25055959  1
  P  P8  1  0.94930895  0.97671902  0.24944041  1
  P  P9  1  0.05069105  0.02328098  0.75055959  1
  H  H10  1  0.02945818  0.85654195  0.44299996  1
  H  H11  1  0.97054182  0.14345805  0.55700004  1
  H  H12  1  0.47054182  0.64345805  0.94299996  1
  H  H13  1  0.52945818  0.35654195  0.05700004  1
  H  H14  1  0.41455403  0.86104168  0.46479259  1
  H  H15  1  0.58544597  0.13895832  0.53520741  1
  H  H16  1  0.08544597  0.63895832  0.96479259  1
  H  H17  1  0.91455403  0.36104168  0.03520741  1
  H  H18  1  0.81336744  0.45245144  0.57498051  1
  H  H19  1  0.18663256  0.54754856  0.42501949  1
  H  H20  1  0.68663256  0.04754856  0.07498051  1
  H  H21  1  0.31336744  0.95245144  0.92501949  1
  H  H22  1  0.69483394  0.61318968  0.61180248  1
  H  H23  1  0.30516606  0.38681032  0.38819752  1
  H  H24  1  0.80516606  0.88681032  0.11180248  1
  H  H25  1  0.19483394  0.11318968  0.88819752  1
  H  H26  1  0.13045940  0.88951131  0.61663021  1
  H  H27  1  0.86954060  0.11048869  0.38336979  1
  H  H28  1  0.36954060  0.61048869  0.11663021  1
  H  H29  1  0.63045940  0.38951131  0.88336979  1
  H  H30  1  0.79788796  0.63373917  0.41867714  1
  H  H31  1  0.20211204  0.36626083  0.58132286  1
  H  H32  1  0.70211204  0.86626083  0.91867714  1
  H  H33  1  0.29788796  0.13373917  0.08132286  1
  H  H34  1  0.21590912  0.69294607  0.02865331  1
  H  H35  1  0.78409088  0.30705393  0.97134669  1
  H  H36  1  0.28409088  0.80705393  0.52865331  1
  H  H37  1  0.71590912  0.19294607  0.47134669  1
  H  H38  1  0.99497252  0.74825482  0.57821842  1
  H  H39  1  0.00502748  0.25174518  0.42178158  1
  H  H40  1  0.50502748  0.75174518  0.07821842  1
  H  H41  1  0.49497252  0.24825482  0.92178158  1
  H  H42  1  0.05166970  0.78754682  0.37033485  1
  H  H43  1  0.94833030  0.21245318  0.62966515  1
  H  H44  1  0.44833030  0.71245318  0.87033485  1
  H  H45  1  0.55166970  0.28754682  0.12966515  1
  H  H46  1  0.61424729  0.58937159  0.37450367  1
  H  H47  1  0.38575271  0.41062841  0.62549633  1
  H  H48  1  0.88575271  0.91062841  0.87450367  1
  H  H49  1  0.11424729  0.08937159  0.12549633  1
  O  O50  1  0.90622277  0.80577561  0.20217317  1
  O  O51  1  0.09377723  0.19422439  0.79782683  1
  O  O52  1  0.59377723  0.69422439  0.70217317  1
  O  O53  1  0.40622277  0.30577561  0.29782683  1
  O  O54  1  0.44424001  0.97492244  0.38395993  1
  O  O55  1  0.55575999  0.02507756  0.61604007  1
  O  O56  1  0.05575999  0.52507756  0.88395993  1
  O  O57  1  0.94424001  0.47492244  0.11604007  1
  O  O58  1  0.46111732  0.98491793  0.20226556  1
  O  O59  1  0.53888268  0.01508207  0.79773444  1
  O  O60  1  0.03888268  0.51508207  0.70226556  1
  O  O61  1  0.96111732  0.48491793  0.29773444  1
  O  O62  1  0.02496926  0.73999579  0.41587902  1
  O  O63  1  0.97503074  0.26000421  0.58412098  1
  O  O64  1  0.47503074  0.76000421  0.91587902  1
  O  O65  1  0.52496926  0.23999579  0.08412098  1
  O  O66  1  0.08150194  0.85785046  0.57174246  1
  O  O67  1  0.91849806  0.14214954  0.42825754  1
  O  O68  1  0.41849806  0.64214954  0.07174246  1
  O  O69  1  0.58150194  0.35785046  0.92825754  1
  O  O70  1  0.73793339  0.56939927  0.56751580  1
  O  O71  1  0.26206661  0.43060073  0.43248420  1
  O  O72  1  0.76206661  0.93060073  0.06751580  1
  O  O73  1  0.23793339  0.06939927  0.93248420  1
  O  O74  1  0.21945744  0.98750897  0.70182539  1
  O  O75  1  0.78054256  0.01249103  0.29817461  1
  O  O76  1  0.28054256  0.51249103  0.20182539  1
  O  O77  1  0.71945744  0.48750897  0.79817461  1
  O  O78  1  0.67140021  0.56869983  0.41897041  1
  O  O79  1  0.32859979  0.43130017  0.58102959  1
  O  O80  1  0.82859979  0.93130017  0.91897041  1
  O  O81  1  0.17140021  0.06869983  0.08102959  1
  O  O82  1  0.09899690  0.72596160  0.00312123  1
  O  O83  1  0.90100310  0.27403840  0.99687877  1
  O  O84  1  0.40100310  0.77403840  0.50312123  1
  O  O85  1  0.59899690  0.22596160  0.49687877  1
  O  O86  1  0.01364705  0.84668428  0.79566994  1
  O  O87  1  0.98635295  0.15331572  0.20433006  1
  O  O88  1  0.48635295  0.65331572  0.29566994  1
  O  O89  1  0.51364705  0.34668428  0.70433006  1
  O  O90  1  0.12664347  0.93461675  0.29321795  1
  O  O91  1  0.87335653  0.06538325  0.70678205  1
  O  O92  1  0.37335653  0.56538325  0.79321795  1
  O  O93  1  0.62664347  0.43461675  0.20678205  1
