# generated using pymatgen
data_MnAlSiO5
_symmetry_space_group_name_H-M   'P 1'
_cell_length_a   5.72409279
_cell_length_b   8.09251571
_cell_length_c   8.20726296
_cell_angle_alpha   90.00000000
_cell_angle_beta   90.00000000
_cell_angle_gamma   90.00000000
_symmetry_Int_Tables_number   1
_chemical_formula_structural   MnAlSiO5
_chemical_formula_sum   'Mn4 Al4 Si4 O20'
_cell_volume   380.17938588
_cell_formula_units_Z   4
loop_
 _symmetry_equiv_pos_site_id
 _symmetry_equiv_pos_as_xyz
  1  'x, y, z'
loop_
 _atom_site_type_symbol
 _atom_site_label
 _atom_site_symmetry_multiplicity
 _atom_site_fract_x
 _atom_site_fract_y
 _atom_site_fract_z
 _atom_site_occupancy
  Mn  Mn0  1  0.25499311  -0.00000000  -0.00000000  1
  Mn  Mn1  1  0.74500689  -0.00000000  -0.00000000  1
  Mn  Mn2  1  0.24500689  0.50000000  0.50000000  1
  Mn  Mn3  1  0.75499311  0.50000000  0.50000000  1
  Al  Al4  1  0.00000000  0.62421564  0.13736650  1
  Al  Al5  1  0.00000000  0.37578436  0.86263350  1
  Al  Al6  1  0.50000000  0.87578436  0.63736650  1
  Al  Al7  1  0.50000000  0.12421564  0.36263350  1
  Si  Si8  1  -0.00000000  0.25073040  0.24476373  1
  Si  Si9  1  -0.00000000  0.74926960  0.75523627  1
  Si  Si10  1  0.50000000  0.24926960  0.74476373  1
  Si  Si11  1  0.50000000  0.75073040  0.25523627  1
  O  O12  1  0.00000000  0.39606264  0.10076201  1
  O  O13  1  -0.00000000  0.60393736  0.89923799  1
  O  O14  1  0.50000000  0.10393736  0.60076201  1
  O  O15  1  0.50000000  0.89606264  0.39923799  1
  O  O16  1  0.00000000  0.57499688  0.36138019  1
  O  O17  1  -0.00000000  0.42500312  0.63861981  1
  O  O18  1  0.50000000  0.92500312  0.86138019  1
  O  O19  1  0.50000000  0.07499688  0.13861981  1
  O  O20  1  0.23857917  0.25176889  0.35482899  1
  O  O21  1  0.76142083  0.74823111  0.64517101  1
  O  O22  1  0.23857917  0.74823111  0.64517101  1
  O  O23  1  0.26142083  0.24823111  0.85482899  1
  O  O24  1  0.76142083  0.25176889  0.35482899  1
  O  O25  1  0.73857917  0.75176889  0.14517101  1
  O  O26  1  0.26142083  0.75176889  0.14517101  1
  O  O27  1  0.73857917  0.24823111  0.85482899  1
  O  O28  1  0.00000000  0.07530074  0.13893395  1
  O  O29  1  -0.00000000  0.92469926  0.86106605  1
  O  O30  1  0.50000000  0.42469926  0.63893395  1
  O  O31  1  0.50000000  0.57530074  0.36106605  1
