# generated using pymatgen
data_CaCr2O4
_symmetry_space_group_name_H-M   'P 1'
_cell_length_a   6.30993341
_cell_length_b   6.17969789
_cell_length_c   6.17965940
_cell_angle_alpha   88.33706379
_cell_angle_beta   120.69469736
_cell_angle_gamma   120.69516935
_symmetry_Int_Tables_number   1
_chemical_formula_structural   CaCr2O4
_chemical_formula_sum   'Ca2 Cr4 O8'
_cell_volume   169.21415121
_cell_formula_units_Z   2
loop_
 _symmetry_equiv_pos_site_id
 _symmetry_equiv_pos_as_xyz
  1  'x, y, z'
loop_
 _atom_site_type_symbol
 _atom_site_label
 _atom_site_symmetry_multiplicity
 _atom_site_fract_x
 _atom_site_fract_y
 _atom_site_fract_z
 _atom_site_occupancy
  Ca  Ca0  1  -0.00001980  0.00004739  -0.00005085  1
  Ca  Ca1  1  0.50002520  0.00003779  -0.00011099  1
  Cr  Cr2  1  0.50023991  0.00026742  0.50040409  1
  Cr  Cr3  1  0.50011607  0.49984652  0.50019312  1
  Cr  Cr4  1  -0.00031438  0.49974412  -0.00025927  1
  Cr  Cr5  1  0.00001251  0.50000667  0.50010770  1
  O  O6  1  0.04156086  0.73579561  0.26419462  1
  O  O7  1  0.47161538  0.73519086  0.70802555  1
  O  O8  1  0.45843165  0.73580286  0.26412188  1
  O  O9  1  0.97166820  0.70811058  0.73520359  1
  O  O10  1  0.54162932  0.26423086  0.73577858  1
  O  O11  1  0.52833444  0.26480346  0.29185211  1
  O  O12  1  0.02838086  0.29193743  0.26481791  1
  O  O13  1  0.95836879  0.26414445  0.73576395  1
