# generated using pymatgen
data_Nd12InNi6
_symmetry_space_group_name_H-M   'P 1'
_cell_length_a   8.71772750
_cell_length_b   8.71772750
_cell_length_c   8.71772750
_cell_angle_alpha   109.47122063
_cell_angle_beta   109.47122063
_cell_angle_gamma   109.47122063
_symmetry_Int_Tables_number   1
_chemical_formula_structural   Nd12InNi6
_chemical_formula_sum   'Nd12 In1 Ni6'
_cell_volume   510.02090613
_cell_formula_units_Z   1
loop_
 _symmetry_equiv_pos_site_id
 _symmetry_equiv_pos_as_xyz
  1  'x, y, z'
loop_
 _atom_site_type_symbol
 _atom_site_label
 _atom_site_symmetry_multiplicity
 _atom_site_fract_x
 _atom_site_fract_y
 _atom_site_fract_z
 _atom_site_occupancy
  Nd  Nd0  1  0.81498204  0.69348468  0.50846672  1
  Nd  Nd1  1  0.18501796  0.30651532  0.49153328  1
  Nd  Nd2  1  0.18501796  0.69348468  0.87850264  1
  Nd  Nd3  1  0.81498204  0.30651532  0.12149736  1
  Nd  Nd4  1  0.69348468  0.50846672  0.81498204  1
  Nd  Nd5  1  0.30651532  0.49153328  0.18501796  1
  Nd  Nd6  1  0.69348468  0.87850264  0.18501796  1
  Nd  Nd7  1  0.30651532  0.12149736  0.81498204  1
  Nd  Nd8  1  0.50846672  0.81498204  0.69348468  1
  Nd  Nd9  1  0.49153328  0.18501796  0.30651532  1
  Nd  Nd10  1  0.12149736  0.81498204  0.30651532  1
  Nd  Nd11  1  0.87850264  0.18501796  0.69348468  1
  In  In12  1  -0.00000000  -0.00000000  -0.00000000  1
  Ni  Ni13  1  0.87819968  0.37819968  0.50000000  1
  Ni  Ni14  1  0.12180032  0.62180032  0.50000000  1
  Ni  Ni15  1  0.37819968  0.50000000  0.87819968  1
  Ni  Ni16  1  0.62180032  0.50000000  0.12180032  1
  Ni  Ni17  1  0.50000000  0.87819968  0.37819968  1
  Ni  Ni18  1  0.50000000  0.12180032  0.62180032  1
