# generated using pymatgen
data_LiDy6B3O14
_symmetry_space_group_name_H-M   'P 1'
_cell_length_a   8.41926803
_cell_length_b   8.88080909
_cell_length_c   15.59536755
_cell_angle_alpha   90.00000000
_cell_angle_beta   90.00000000
_cell_angle_gamma   91.92356222
_symmetry_Int_Tables_number   1
_chemical_formula_structural   LiDy6B3O14
_chemical_formula_sum   'Li4 Dy24 B12 O56'
_cell_volume   1165.40717846
_cell_formula_units_Z   4
loop_
 _symmetry_equiv_pos_site_id
 _symmetry_equiv_pos_as_xyz
  1  'x, y, z'
loop_
 _atom_site_type_symbol
 _atom_site_label
 _atom_site_symmetry_multiplicity
 _atom_site_fract_x
 _atom_site_fract_y
 _atom_site_fract_z
 _atom_site_occupancy
  Li  Li0  1  0.68035026  0.56045026  0.39612971  1
  Li  Li1  1  0.31964974  0.43954974  0.60387029  1
  Li  Li2  1  0.81964974  0.93954974  0.89612971  1
  Li  Li3  1  0.18035026  0.06045026  0.10387029  1
  Dy  Dy4  1  0.14237235  0.69306537  0.17793221  1
  Dy  Dy5  1  0.85762765  0.30693463  0.82206779  1
  Dy  Dy6  1  0.35762765  0.80693463  0.67793221  1
  Dy  Dy7  1  0.64237235  0.19306537  0.32206779  1
  Dy  Dy8  1  0.96005820  0.94489249  0.67433922  1
  Dy  Dy9  1  0.03994180  0.05510751  0.32566078  1
  Dy  Dy10  1  0.53994180  0.55510751  0.17433922  1
  Dy  Dy11  1  0.46005820  0.44489249  0.82566078  1
  Dy  Dy12  1  0.72733303  0.57561733  0.64387602  1
  Dy  Dy13  1  0.27266697  0.42438267  0.35612398  1
  Dy  Dy14  1  0.77266697  0.92438267  0.14387602  1
  Dy  Dy15  1  0.22733303  0.07561733  0.85612398  1
  Dy  Dy16  1  0.05182501  0.71739377  0.48660368  1
  Dy  Dy17  1  0.94817499  0.28260623  0.51339632  1
  Dy  Dy18  1  0.44817499  0.78260623  0.98660368  1
  Dy  Dy19  1  0.55182501  0.21739377  0.01339632  1
  Dy  Dy20  1  0.70001524  0.93860685  0.49599593  1
  Dy  Dy21  1  0.29998476  0.06139315  0.50400407  1
  Dy  Dy22  1  0.79998476  0.56139315  0.99599593  1
  Dy  Dy23  1  0.20001524  0.43860685  0.00400407  1
  Dy  Dy24  1  0.42181932  0.83408490  0.33408993  1
  Dy  Dy25  1  0.57818068  0.16591510  0.66591007  1
  Dy  Dy26  1  0.07818068  0.66591510  0.83408993  1
  Dy  Dy27  1  0.92181932  0.33408490  0.16591007  1
  B  B28  1  0.42873232  0.97285243  0.17301766  1
  B  B29  1  0.57126768  0.02714757  0.82698234  1
  B  B30  1  0.07126768  0.52714757  0.67301766  1
  B  B31  1  0.92873232  0.47285243  0.32698234  1
  B  B32  1  0.06406451  0.85513566  0.00070266  1
  B  B33  1  0.93593549  0.14486434  0.99929734  1
  B  B34  1  0.43593549  0.64486434  0.50070266  1
  B  B35  1  0.56406451  0.35513566  0.49929734  1
  B  B36  1  0.82014996  0.77844200  0.30677670  1
  B  B37  1  0.17985004  0.22155800  0.69322330  1
  B  B38  1  0.67985004  0.72155800  0.80677670  1
  B  B39  1  0.32014996  0.27844200  0.19322330  1
  O  O40  1  0.93978781  0.82240785  0.24862962  1
  O  O41  1  0.06021219  0.17759215  0.75137038  1
  O  O42  1  0.56021219  0.67759215  0.74862962  1
  O  O43  1  0.43978781  0.32240785  0.25137038  1
  O  O44  1  0.70978584  0.40628003  0.53329830  1
  O  O45  1  0.29021416  0.59371997  0.46670170  1
  O  O46  1  0.79021416  0.09371997  0.03329830  1
  O  O47  1  0.20978584  0.90628003  0.96670170  1
  O  O48  1  0.84435880  0.77915842  0.57923780  1
  O  O49  1  0.15564120  0.22084158  0.42076220  1
  O  O50  1  0.65564120  0.72084158  0.07923780  1
  O  O51  1  0.34435880  0.27915842  0.92076220  1
  O  O52  1  0.02852953  0.88194139  0.08557520  1
  O  O53  1  0.97147047  0.11805861  0.91442480  1
  O  O54  1  0.47147047  0.61805861  0.58557520  1
  O  O55  1  0.52852953  0.38194139  0.41442480  1
  O  O56  1  0.46596914  0.99078008  0.08751535  1
  O  O57  1  0.53403086  0.00921992  0.91248465  1
  O  O58  1  0.03403086  0.50921992  0.58751535  1
  O  O59  1  0.96596914  0.49078008  0.41248465  1
  O  O60  1  0.28251384  0.92389140  0.20457424  1
  O  O61  1  0.71748616  0.07610860  0.79542576  1
  O  O62  1  0.21748616  0.57610860  0.70457424  1
  O  O63  1  0.78251384  0.42389140  0.29542576  1
  O  O64  1  0.45637483  0.27860497  0.55146402  1
  O  O65  1  0.54362517  0.72139503  0.44853598  1
  O  O66  1  0.04362517  0.22139503  0.05146402  1
  O  O67  1  0.95637483  0.77860497  0.94853598  1
  O  O68  1  0.19250493  0.89446775  0.40180714  1
  O  O69  1  0.80749507  0.10553225  0.59819286  1
  O  O70  1  0.30749507  0.60553225  0.90180714  1
  O  O71  1  0.69250493  0.39446775  0.09819286  1
  O  O72  1  0.00875706  0.53607514  0.08945399  1
  O  O73  1  0.99124294  0.46392486  0.91054601  1
  O  O74  1  0.49124294  0.96392486  0.58945399  1
  O  O75  1  0.50875706  0.03607514  0.41054601  1
  O  O76  1  0.16227687  0.87607058  0.58553052  1
  O  O77  1  0.83772313  0.12392942  0.41446948  1
  O  O78  1  0.33772313  0.62392942  0.08553052  1
  O  O79  1  0.66227687  0.37607058  0.91446948  1
  O  O80  1  0.15429309  0.87803401  0.76815616  1
  O  O81  1  0.84570691  0.12196599  0.23184384  1
  O  O82  1  0.34570691  0.62196599  0.26815616  1
  O  O83  1  0.65429309  0.37803401  0.73184384  1
  O  O84  1  0.82550135  0.77171968  0.77480841  1
  O  O85  1  0.17449865  0.22828032  0.22519159  1
  O  O86  1  0.67449865  0.72828032  0.27480841  1
  O  O87  1  0.32550135  0.27171968  0.72519159  1
  O  O88  1  0.85145511  0.79930403  0.39349375  1
  O  O89  1  0.14854489  0.20069597  0.60650625  1
  O  O90  1  0.64854489  0.70069597  0.89349375  1
  O  O91  1  0.35145511  0.29930403  0.10650625  1
  O  O92  1  0.54960056  0.99666929  0.23245797  1
  O  O93  1  0.45039944  0.00333071  0.76754203  1
  O  O94  1  0.95039944  0.50333071  0.73245797  1
  O  O95  1  0.04960056  0.49666929  0.26754203  1
