# generated using pymatgen
data_La3HfGa5O14
_symmetry_space_group_name_H-M   'P 1'
_cell_length_a   5.20430746
_cell_length_b   8.35313092
_cell_length_c   8.35313092
_cell_angle_alpha   119.99999559
_cell_angle_beta   90.00000000
_cell_angle_gamma   90.00000000
_symmetry_Int_Tables_number   1
_chemical_formula_structural   La3HfGa5O14
_chemical_formula_sum   'La3 Hf1 Ga5 O14'
_cell_volume   314.47937934
_cell_formula_units_Z   1
loop_
 _symmetry_equiv_pos_site_id
 _symmetry_equiv_pos_as_xyz
  1  'x, y, z'
loop_
 _atom_site_type_symbol
 _atom_site_label
 _atom_site_symmetry_multiplicity
 _atom_site_fract_x
 _atom_site_fract_y
 _atom_site_fract_z
 _atom_site_occupancy
  La  La0  1  -0.00000000  0.42594999  0.42594999  1
  La  La1  1  -0.00000000  1.00000000  0.57405001  1
  La  La2  1  -0.00000000  0.57405001  1.00000000  1
  Hf  Hf3  1  -0.00000000  0.00000000  0.00000000  1
  Ga  Ga4  1  0.47028224  0.66666700  0.33333300  1
  Ga  Ga5  1  0.52971776  0.33333300  0.66666700  1
  Ga  Ga6  1  0.50000000  0.75585830  0.75585830  1
  Ga  Ga7  1  0.50000000  0.00000000  0.24414170  1
  Ga  Ga8  1  0.50000000  0.24414170  0.00000000  1
  O  O9  1  0.75745943  0.85264242  0.07942431  1
  O  O10  1  0.75745943  0.22678189  0.14735758  1
  O  O11  1  0.24254057  0.77321811  0.92057569  1
  O  O12  1  0.75745943  0.92057569  0.77321811  1
  O  O13  1  0.24254057  0.07942431  0.85264242  1
  O  O14  1  0.24254057  0.14735758  0.22678189  1
  O  O15  1  0.81978350  0.66666700  0.33333300  1
  O  O16  1  0.18021650  0.33333300  0.66666700  1
  O  O17  1  0.69835062  0.54236804  0.68889768  1
  O  O18  1  0.69835062  0.14652964  0.45763196  1
  O  O19  1  0.30164938  0.85347036  0.31110232  1
  O  O20  1  0.69835062  0.31110232  0.85347036  1
  O  O21  1  0.30164938  0.68889768  0.54236804  1
  O  O22  1  0.30164938  0.45763196  0.14652964  1
