# generated using pymatgen
data_KSr2Cl5
_symmetry_space_group_name_H-M   'P 1'
_cell_length_a   7.95950394
_cell_length_b   8.94079602
_cell_length_c   12.98053513
_cell_angle_alpha   90.15506499
_cell_angle_beta   90.00000000
_cell_angle_gamma   90.00000000
_symmetry_Int_Tables_number   1
_chemical_formula_structural   KSr2Cl5
_chemical_formula_sum   'K4 Sr8 Cl20'
_cell_volume   923.74732843
_cell_formula_units_Z   4
loop_
 _symmetry_equiv_pos_site_id
 _symmetry_equiv_pos_as_xyz
  1  'x, y, z'
loop_
 _atom_site_type_symbol
 _atom_site_label
 _atom_site_symmetry_multiplicity
 _atom_site_fract_x
 _atom_site_fract_y
 _atom_site_fract_z
 _atom_site_occupancy
  K  K0  1  0.97314221  0.49844568  0.67408607  1
  K  K1  1  0.02685779  0.50155432  0.32591393  1
  K  K2  1  0.47314221  0.50155432  0.82591393  1
  K  K3  1  0.52685779  0.49844568  0.17408607  1
  Sr  Sr4  1  0.97856724  0.00160131  0.67649594  1
  Sr  Sr5  1  0.02143276  0.99839869  0.32350406  1
  Sr  Sr6  1  0.47856724  0.99839869  0.82350406  1
  Sr  Sr7  1  0.52143276  0.00160131  0.17649594  1
  Sr  Sr8  1  0.93553376  0.75066524  0.99512994  1
  Sr  Sr9  1  0.06446624  0.24933476  0.00487006  1
  Sr  Sr10  1  0.43553376  0.24933476  0.50487006  1
  Sr  Sr11  1  0.56446624  0.75066524  0.49512994  1
  Cl  Cl12  1  0.83966958  0.46830188  0.90634514  1
  Cl  Cl13  1  0.16033042  0.53169812  0.09365486  1
  Cl  Cl14  1  0.33966958  0.53169812  0.59365486  1
  Cl  Cl15  1  0.66033042  0.46830188  0.40634514  1
  Cl  Cl16  1  0.16946288  0.78570080  0.81729221  1
  Cl  Cl17  1  0.83053712  0.21429920  0.18270779  1
  Cl  Cl18  1  0.66946288  0.21429920  0.68270779  1
  Cl  Cl19  1  0.33053712  0.78570080  0.31729221  1
  Cl  Cl20  1  0.69550590  0.77213634  0.71301937  1
  Cl  Cl21  1  0.30449410  0.22786366  0.28698063  1
  Cl  Cl22  1  0.19550590  0.22786366  0.78698063  1
  Cl  Cl23  1  0.80449410  0.77213634  0.21301937  1
  Cl  Cl24  1  0.55023858  0.78252808  0.99686881  1
  Cl  Cl25  1  0.44976142  0.21747192  0.00313119  1
  Cl  Cl26  1  0.05023858  0.21747192  0.50313119  1
  Cl  Cl27  1  0.94976142  0.78252808  0.49686881  1
  Cl  Cl28  1  0.34161723  0.96256056  0.60264235  1
  Cl  Cl29  1  0.65838277  0.03743944  0.39735765  1
  Cl  Cl30  1  0.84161723  0.03743944  0.89735765  1
  Cl  Cl31  1  0.15838277  0.96256056  0.10264235  1
