# generated using pymatgen
data_KLa(SO4)2
_symmetry_space_group_name_H-M   'P 1'
_cell_length_a   5.52562651
_cell_length_b   7.12421479
_cell_length_c   8.65530195
_cell_angle_alpha   85.95175538
_cell_angle_beta   88.65029304
_cell_angle_gamma   88.39695490
_symmetry_Int_Tables_number   1
_chemical_formula_structural   KLa(SO4)2
_chemical_formula_sum   'K2 La2 S4 O16'
_cell_volume   339.65974790
_cell_formula_units_Z   2
loop_
 _symmetry_equiv_pos_site_id
 _symmetry_equiv_pos_as_xyz
  1  'x, y, z'
loop_
 _atom_site_type_symbol
 _atom_site_label
 _atom_site_symmetry_multiplicity
 _atom_site_fract_x
 _atom_site_fract_y
 _atom_site_fract_z
 _atom_site_occupancy
  K  K0  1  0.25259849  0.84546861  0.18663833  1
  K  K1  1  0.74740151  0.15453139  0.81336167  1
  La  La2  1  0.68686705  0.31844324  0.29566320  1
  La  La3  1  0.31313295  0.68155676  0.70433680  1
  S  S4  1  0.22149537  0.19923635  0.54679744  1
  S  S5  1  0.77850463  0.80076365  0.45320256  1
  S  S6  1  0.24226092  0.32569917  0.06991012  1
  S  S7  1  0.75773908  0.67430083  0.93008988  1
  O  O8  1  0.01919415  0.21494052  0.10289228  1
  O  O9  1  0.98080585  0.78505948  0.89710772  1
  O  O10  1  0.21314889  0.05194865  0.67584068  1
  O  O11  1  0.78685111  0.94805135  0.32415932  1
  O  O12  1  0.46151153  0.19505034  0.07791482  1
  O  O13  1  0.53848847  0.80494966  0.92208518  1
  O  O14  1  0.76828919  0.57765283  0.08585918  1
  O  O15  1  0.23171081  0.42234717  0.91414082  1
  O  O16  1  0.27318072  0.45852407  0.19405838  1
  O  O17  1  0.72681928  0.54147593  0.80594162  1
  O  O18  1  0.37339465  0.35936995  0.58813439  1
  O  O19  1  0.62660535  0.64063005  0.41186561  1
  O  O20  1  0.33546064  0.12551961  0.40492929  1
  O  O21  1  0.66453936  0.87448039  0.59507071  1
  O  O22  1  0.03044057  0.72819436  0.48533309  1
  O  O23  1  0.96955943  0.27180564  0.51466691  1
