# generated using pymatgen
data_Lu(Al5Re)2
_symmetry_space_group_name_H-M   'P 1'
_cell_length_a   6.94965019
_cell_length_b   6.94965019
_cell_length_c   26.93739813
_cell_angle_alpha   90.00000000
_cell_angle_beta   90.00000000
_cell_angle_gamma   95.88331345
_symmetry_Int_Tables_number   1
_chemical_formula_structural   Lu(Al5Re)2
_chemical_formula_sum   'Lu6 Al60 Re12'
_cell_volume   1294.15988788
_cell_formula_units_Z   6
loop_
 _symmetry_equiv_pos_site_id
 _symmetry_equiv_pos_as_xyz
  1  'x, y, z'
loop_
 _atom_site_type_symbol
 _atom_site_label
 _atom_site_symmetry_multiplicity
 _atom_site_fract_x
 _atom_site_fract_y
 _atom_site_fract_z
 _atom_site_occupancy
  Lu  Lu0  1  0.87612056  0.12387944  0.91520415  1
  Lu  Lu1  1  0.12387944  0.87612056  0.08479585  1
  Lu  Lu2  1  0.12387944  0.87612056  0.41520415  1
  Lu  Lu3  1  0.87612056  0.12387944  0.58479585  1
  Lu  Lu4  1  0.61698923  0.38301077  0.75000000  1
  Lu  Lu5  1  0.38301077  0.61698923  0.25000000  1
  Al  Al6  1  0.59793600  0.40206400  0.86609681  1
  Al  Al7  1  0.40206400  0.59793600  0.13390319  1
  Al  Al8  1  0.40206400  0.59793600  0.36609681  1
  Al  Al9  1  0.59793600  0.40206400  0.63390319  1
  Al  Al10  1  0.59566052  0.81751725  0.75000000  1
  Al  Al11  1  0.40433948  0.18248275  0.25000000  1
  Al  Al12  1  0.18248275  0.40433948  0.75000000  1
  Al  Al13  1  0.81751725  0.59566052  0.25000000  1
  Al  Al14  1  0.87560283  0.12439717  0.35426695  1
  Al  Al15  1  0.12439717  0.87560283  0.64573305  1
  Al  Al16  1  0.12439717  0.87560283  0.85426695  1
  Al  Al17  1  0.87560283  0.12439717  0.14573305  1
  Al  Al18  1  0.37009291  0.62990709  0.82239956  1
  Al  Al19  1  0.62990709  0.37009291  0.17760044  1
  Al  Al20  1  0.62990709  0.37009291  0.32239956  1
  Al  Al21  1  0.37009291  0.62990709  0.67760044  1
  Al  Al22  1  0.52908239  0.77281693  0.91931644  1
  Al  Al23  1  0.47091761  0.22718307  0.08068356  1
  Al  Al24  1  0.47091761  0.22718307  0.41931644  1
  Al  Al25  1  0.22718307  0.47091761  0.58068356  1
  Al  Al26  1  0.52908239  0.77281693  0.58068356  1
  Al  Al27  1  0.77281693  0.52908239  0.41931644  1
  Al  Al28  1  0.77281693  0.52908239  0.08068356  1
  Al  Al29  1  0.22718307  0.47091761  0.91931644  1
  Al  Al30  1  0.26073954  0.03810202  0.75000000  1
  Al  Al31  1  0.73926046  0.96189798  0.25000000  1
  Al  Al32  1  0.96189798  0.73926046  0.75000000  1
  Al  Al33  1  0.03810202  0.26073954  0.25000000  1
  Al  Al34  1  0.62297225  0.37702775  0.97785107  1
  Al  Al35  1  0.37702775  0.62297225  0.02214893  1
  Al  Al36  1  0.37702775  0.62297225  0.47785107  1
  Al  Al37  1  0.62297225  0.37702775  0.52214893  1
  Al  Al38  1  0.52597746  0.03201966  0.82848910  1
  Al  Al39  1  0.47402254  0.96798034  0.17151090  1
  Al  Al40  1  0.47402254  0.96798034  0.32848910  1
  Al  Al41  1  0.96798034  0.47402254  0.67151090  1
  Al  Al42  1  0.52597746  0.03201966  0.67151090  1
  Al  Al43  1  0.03201966  0.52597746  0.32848910  1
  Al  Al44  1  0.03201966  0.52597746  0.17151090  1
  Al  Al45  1  0.96798034  0.47402254  0.82848910  1
  Al  Al46  1  0.90600914  0.09399086  0.80038983  1
  Al  Al47  1  0.09399086  0.90600914  0.19961017  1
  Al  Al48  1  0.09399086  0.90600914  0.30038983  1
  Al  Al49  1  0.90600914  0.09399086  0.69961017  1
  Al  Al50  1  0.38015028  0.12394732  0.91696399  1
  Al  Al51  1  0.61984972  0.87605268  0.08303601  1
  Al  Al52  1  0.61984972  0.87605268  0.41696399  1
  Al  Al53  1  0.87605268  0.61984972  0.58303601  1
  Al  Al54  1  0.38015028  0.12394732  0.58303601  1
  Al  Al55  1  0.12394732  0.38015028  0.41696399  1
  Al  Al56  1  0.12394732  0.38015028  0.08303601  1
  Al  Al57  1  0.87605268  0.61984972  0.91696399  1
  Al  Al58  1  0.79449890  0.79449890  0.00000000  1
  Al  Al59  1  0.20550110  0.20550110  0.00000000  1
  Al  Al60  1  0.20550110  0.20550110  0.50000000  1
  Al  Al61  1  0.79449890  0.79449890  0.50000000  1
  Al  Al62  1  0.83566579  0.16433421  0.46597900  1
  Al  Al63  1  0.16433421  0.83566579  0.53402100  1
  Al  Al64  1  0.16433421  0.83566579  0.96597900  1
  Al  Al65  1  0.83566579  0.16433421  0.03402100  1
  Re  Re66  1  0.74499873  0.75150632  0.83693878  1
  Re  Re67  1  0.25500127  0.24849368  0.16306122  1
  Re  Re68  1  0.25500127  0.24849368  0.33693878  1
  Re  Re69  1  0.24849368  0.25500127  0.66306122  1
  Re  Re70  1  0.74499873  0.75150632  0.66306122  1
  Re  Re71  1  0.75150632  0.74499873  0.33693878  1
  Re  Re72  1  0.75150632  0.74499873  0.16306122  1
  Re  Re73  1  0.24849368  0.25500127  0.83693878  1
  Re  Re74  1  0.50000000  -0.00000000  0.00000000  1
  Re  Re75  1  0.50000000  -0.00000000  0.50000000  1
  Re  Re76  1  0.00000000  0.50000000  0.50000000  1
  Re  Re77  1  0.00000000  0.50000000  0.00000000  1
