# generated using pymatgen
data_LaHf2F11
_symmetry_space_group_name_H-M   'P 1'
_cell_length_a   7.80746036
_cell_length_b   8.48850841
_cell_length_c   8.48850841
_cell_angle_alpha   73.09207974
_cell_angle_beta   62.62036649
_cell_angle_gamma   62.62036649
_symmetry_Int_Tables_number   1
_chemical_formula_structural   LaHf2F11
_chemical_formula_sum   'La2 Hf4 F22'
_cell_volume   441.33471492
_cell_formula_units_Z   2
loop_
 _symmetry_equiv_pos_site_id
 _symmetry_equiv_pos_as_xyz
  1  'x, y, z'
loop_
 _atom_site_type_symbol
 _atom_site_label
 _atom_site_symmetry_multiplicity
 _atom_site_fract_x
 _atom_site_fract_y
 _atom_site_fract_z
 _atom_site_occupancy
  La  La0  1  0.25000000  0.25000000  0.25000000  1
  La  La1  1  0.75000000  0.75000000  0.75000000  1
  Hf  Hf2  1  0.86635884  0.81978562  0.18021438  1
  Hf  Hf3  1  0.13364116  0.18021438  0.81978562  1
  Hf  Hf4  1  0.63364116  0.31978562  0.68021438  1
  Hf  Hf5  1  0.36635884  0.68021438  0.31978562  1
  F  F6  1  0.61035222  0.04967765  0.20552860  1
  F  F7  1  0.38964778  0.95032235  0.79447140  1
  F  F8  1  0.13444152  0.20552860  0.04967765  1
  F  F9  1  0.88964778  0.29447140  0.45032235  1
  F  F10  1  0.86555848  0.79447140  0.95032235  1
  F  F11  1  0.11035222  0.70552860  0.54967765  1
  F  F12  1  0.36555848  0.45032235  0.29447140  1
  F  F13  1  0.63444152  0.54967765  0.70552860  1
  F  F14  1  0.00000000  0.00000000  -0.00000000  1
  F  F15  1  0.50000000  0.50000000  0.50000000  1
  F  F16  1  0.62890753  0.72127988  0.27872012  1
  F  F17  1  0.37109247  0.27872012  0.72127988  1
  F  F18  1  0.87109247  0.22127988  0.77872012  1
  F  F19  1  0.12890753  0.77872012  0.22127988  1
  F  F20  1  0.76371401  0.82108386  0.44732264  1
  F  F21  1  0.23628599  0.17891614  0.55267736  1
  F  F22  1  0.96787950  0.44732264  0.82108386  1
  F  F23  1  0.73628599  0.05267736  0.67891614  1
  F  F24  1  0.03212050  0.55267736  0.17891614  1
  F  F25  1  0.26371401  0.94732264  0.32108386  1
  F  F26  1  0.53212050  0.67891614  0.05267736  1
  F  F27  1  0.46787950  0.32108386  0.94732264  1
