# generated using pymatgen
data_KPr(WO4)2
_symmetry_space_group_name_H-M   'P 1'
_cell_length_a   7.57343205
_cell_length_b   7.57343205
_cell_length_c   7.62776453
_cell_angle_alpha   113.74995853
_cell_angle_beta   113.74995853
_cell_angle_gamma   93.14433715
_symmetry_Int_Tables_number   1
_chemical_formula_structural   KPr(WO4)2
_chemical_formula_sum   'K2 Pr2 W4 O16'
_cell_volume   354.02439995
_cell_formula_units_Z   2
loop_
 _symmetry_equiv_pos_site_id
 _symmetry_equiv_pos_as_xyz
  1  'x, y, z'
loop_
 _atom_site_type_symbol
 _atom_site_label
 _atom_site_symmetry_multiplicity
 _atom_site_fract_x
 _atom_site_fract_y
 _atom_site_fract_z
 _atom_site_occupancy
  K  K0  1  0.69005069  0.69005069  0.52765689  1
  K  K1  1  0.30994931  0.30994931  0.47234311  1
  Pr  Pr2  1  0.69980485  0.30019515  -0.00000000  1
  Pr  Pr3  1  0.30019515  0.69980485  -0.00000000  1
  W  W4  1  0.20475071  0.20475071  0.94370494  1
  W  W5  1  0.79524929  0.79524929  0.05629506  1
  W  W6  1  0.83929194  0.16070806  0.50000000  1
  W  W7  1  0.16070806  0.83929194  0.50000000  1
  O  O8  1  0.34537785  0.09470110  0.74013204  1
  O  O9  1  0.65462215  0.90529890  0.25986796  1
  O  O10  1  0.90529890  0.65462215  0.25986796  1
  O  O11  1  0.09470110  0.34537785  0.74013204  1
  O  O12  1  0.69287124  0.21465830  0.64540776  1
  O  O13  1  0.30712876  0.78534170  0.35459224  1
  O  O14  1  0.78534170  0.30712876  0.35459224  1
  O  O15  1  0.21465830  0.69287124  0.64540776  1
  O  O16  1  0.70576437  0.95864942  0.93625774  1
  O  O17  1  0.29423563  0.04135058  0.06374226  1
  O  O18  1  0.04135058  0.29423563  0.06374226  1
  O  O19  1  0.95864942  0.70576437  0.93625774  1
  O  O20  1  0.98380104  0.98380104  0.65575868  1
  O  O21  1  0.01619896  0.01619896  0.34424132  1
  O  O22  1  0.57335980  0.57335980  0.88988310  1
  O  O23  1  0.42664020  0.42664020  0.11011690  1
