# generated using pymatgen
data_KPu2F9
_symmetry_space_group_name_H-M   'P 1'
_cell_length_a   6.94716705
_cell_length_b   8.71016383
_cell_length_c   11.52578133
_cell_angle_alpha   90.00000000
_cell_angle_beta   90.00000000
_cell_angle_gamma   90.00000000
_symmetry_Int_Tables_number   1
_chemical_formula_structural   KPu2F9
_chemical_formula_sum   'K4 Pu8 F36'
_cell_volume   697.43612945
_cell_formula_units_Z   4
loop_
 _symmetry_equiv_pos_site_id
 _symmetry_equiv_pos_as_xyz
  1  'x, y, z'
loop_
 _atom_site_type_symbol
 _atom_site_label
 _atom_site_symmetry_multiplicity
 _atom_site_fract_x
 _atom_site_fract_y
 _atom_site_fract_z
 _atom_site_occupancy
  K  K0  1  0.64268758  0.03591000  0.25000000  1
  K  K1  1  0.35731242  0.96409000  0.75000000  1
  K  K2  1  0.14268758  0.46409000  0.75000000  1
  K  K3  1  0.85731242  0.53591000  0.25000000  1
  Pu  Pu4  1  0.15415910  0.17300601  0.05056916  1
  Pu  Pu5  1  0.84584090  0.82699399  0.94943084  1
  Pu  Pu6  1  0.65415910  0.32699399  0.94943084  1
  Pu  Pu7  1  0.84584090  0.82699399  0.55056916  1
  Pu  Pu8  1  0.34584090  0.67300601  0.05056916  1
  Pu  Pu9  1  0.15415910  0.17300601  0.44943084  1
  Pu  Pu10  1  0.34584090  0.67300601  0.44943084  1
  Pu  Pu11  1  0.65415910  0.32699399  0.55056916  1
  F  F12  1  0.19559113  0.43461507  0.07994986  1
  F  F13  1  0.80440887  0.56538493  0.92005014  1
  F  F14  1  0.69559113  0.06538493  0.92005014  1
  F  F15  1  0.80440887  0.56538493  0.57994986  1
  F  F16  1  0.30440887  0.93461507  0.07994986  1
  F  F17  1  0.19559113  0.43461507  0.42005014  1
  F  F18  1  0.30440887  0.93461507  0.42005014  1
  F  F19  1  0.69559113  0.06538493  0.57994986  1
  F  F20  1  0.07616267  0.00553438  0.59881770  1
  F  F21  1  0.92383733  0.99446562  0.40118230  1
  F  F22  1  0.57616267  0.49446562  0.40118230  1
  F  F23  1  0.92383733  0.99446562  0.09881770  1
  F  F24  1  0.42383733  0.50553438  0.59881770  1
  F  F25  1  0.07616267  0.00553438  0.90118230  1
  F  F26  1  0.42383733  0.50553438  0.90118230  1
  F  F27  1  0.57616267  0.49446562  0.09881770  1
  F  F28  1  0.47294547  0.21025353  0.09453030  1
  F  F29  1  0.52705453  0.78974647  0.90546970  1
  F  F30  1  0.97294547  0.28974647  0.90546970  1
  F  F31  1  0.52705453  0.78974647  0.59453030  1
  F  F32  1  0.02705453  0.71025353  0.09453030  1
  F  F33  1  0.47294547  0.21025353  0.40546970  1
  F  F34  1  0.02705453  0.71025353  0.40546970  1
  F  F35  1  0.97294547  0.28974647  0.59453030  1
  F  F36  1  0.16061292  0.17736423  0.25000000  1
  F  F37  1  0.83938708  0.82263577  0.75000000  1
  F  F38  1  0.66061292  0.32263577  0.75000000  1
  F  F39  1  0.33938708  0.67736423  0.25000000  1
  F  F40  1  0.35325584  0.21529136  0.60711779  1
  F  F41  1  0.64674416  0.78470864  0.39288221  1
  F  F42  1  0.85325584  0.28470864  0.39288221  1
  F  F43  1  0.64674416  0.78470864  0.10711779  1
  F  F44  1  0.14674416  0.71529136  0.60711779  1
  F  F45  1  0.35325584  0.21529136  0.89288221  1
  F  F46  1  0.14674416  0.71529136  0.89288221  1
  F  F47  1  0.85325584  0.28470864  0.10711779  1
