# generated using pymatgen
data_KZr6BI14
_symmetry_space_group_name_H-M   'P 1'
_cell_length_a   10.88467332
_cell_length_b   10.88467332
_cell_length_c   13.13497828
_cell_angle_alpha   90.00000000
_cell_angle_beta   90.00000000
_cell_angle_gamma   95.57567456
_symmetry_Int_Tables_number   1
_chemical_formula_structural   KZr6BI14
_chemical_formula_sum   'K2 Zr12 B2 I28'
_cell_volume   1548.81847685
_cell_formula_units_Z   2
loop_
 _symmetry_equiv_pos_site_id
 _symmetry_equiv_pos_as_xyz
  1  'x, y, z'
loop_
 _atom_site_type_symbol
 _atom_site_label
 _atom_site_symmetry_multiplicity
 _atom_site_fract_x
 _atom_site_fract_y
 _atom_site_fract_z
 _atom_site_occupancy
  K  K0  1  0.50000000  0.50000000  0.00000000  1
  K  K1  1  -0.00000000  -0.00000000  0.50000000  1
  Zr  Zr2  1  0.36613082  0.36613082  0.40190145  1
  Zr  Zr3  1  0.63386918  0.63386918  0.59809855  1
  Zr  Zr4  1  0.13386918  0.13386918  0.90190145  1
  Zr  Zr5  1  0.86613082  0.86613082  0.09809855  1
  Zr  Zr6  1  0.17065769  0.95787885  0.10840982  1
  Zr  Zr7  1  0.82934231  0.04212115  0.89159018  1
  Zr  Zr8  1  0.32934231  0.54212115  0.60840982  1
  Zr  Zr9  1  0.45787885  0.67065769  0.39159018  1
  Zr  Zr10  1  0.67065769  0.45787885  0.39159018  1
  Zr  Zr11  1  0.54212115  0.32934231  0.60840982  1
  Zr  Zr12  1  0.04212115  0.82934231  0.89159018  1
  Zr  Zr13  1  0.95787885  0.17065769  0.10840982  1
  B  B14  1  -0.00000000  -0.00000000  0.00000000  1
  B  B15  1  0.50000000  0.50000000  0.50000000  1
  I  I16  1  0.36580349  0.11593946  0.00632745  1
  I  I17  1  0.63419651  0.88406054  0.99367255  1
  I  I18  1  0.13419651  0.38406054  0.50632745  1
  I  I19  1  0.61593946  0.86580349  0.49367255  1
  I  I20  1  0.86580349  0.61593946  0.49367255  1
  I  I21  1  0.38406054  0.13419651  0.50632745  1
  I  I22  1  0.88406054  0.63419651  0.99367255  1
  I  I23  1  0.11593946  0.36580349  0.00632745  1
  I  I24  1  0.25074384  0.74925616  0.00000000  1
  I  I25  1  0.74925616  0.25074384  0.00000000  1
  I  I26  1  0.24925616  0.75074384  0.50000000  1
  I  I27  1  0.75074384  0.24925616  0.50000000  1
  I  I28  1  0.40041314  0.90041314  0.25000000  1
  I  I29  1  0.59958686  0.09958686  0.75000000  1
  I  I30  1  0.09958686  0.59958686  0.75000000  1
  I  I31  1  0.90041314  0.40041314  0.25000000  1
  I  I32  1  0.15635108  0.15635108  0.26055751  1
  I  I33  1  0.84364892  0.84364892  0.73944249  1
  I  I34  1  0.34364892  0.34364892  0.76055751  1
  I  I35  1  0.65635108  0.65635108  0.23944249  1
  I  I36  1  0.53547655  0.28704641  0.25100718  1
  I  I37  1  0.46452345  0.71295359  0.74899282  1
  I  I38  1  0.96452345  0.21295359  0.75100718  1
  I  I39  1  0.78704641  0.03547655  0.24899282  1
  I  I40  1  0.03547655  0.78704641  0.24899282  1
  I  I41  1  0.21295359  0.96452345  0.75100718  1
  I  I42  1  0.71295359  0.46452345  0.74899282  1
  I  I43  1  0.28704641  0.53547655  0.25100718  1
