# generated using pymatgen
data_Mg2Cu9O13
_symmetry_space_group_name_H-M   'P 1'
_cell_length_a   2.95206973
_cell_length_b   5.14693253
_cell_length_c   16.22009216
_cell_angle_alpha   98.10216920
_cell_angle_beta   89.90267392
_cell_angle_gamma   107.15681035
_symmetry_Int_Tables_number   1
_chemical_formula_structural   Mg2Cu9O13
_chemical_formula_sum   'Mg2 Cu9 O13'
_cell_volume   232.92524817
_cell_formula_units_Z   1
loop_
 _symmetry_equiv_pos_site_id
 _symmetry_equiv_pos_as_xyz
  1  'x, y, z'
loop_
 _atom_site_type_symbol
 _atom_site_label
 _atom_site_symmetry_multiplicity
 _atom_site_fract_x
 _atom_site_fract_y
 _atom_site_fract_z
 _atom_site_occupancy
  Mg  Mg0  1  0.21499592  0.43528467  0.22761667  1
  Mg  Mg1  1  0.78500408  0.56471533  0.77238333  1
  Cu  Cu2  1  0.50000000  -0.00000000  0.50000000  1
  Cu  Cu3  1  0.64765869  0.29550809  0.04061451  1
  Cu  Cu4  1  0.35234131  0.70449191  0.95938549  1
  Cu  Cu5  1  0.75176404  0.50494542  0.41849565  1
  Cu  Cu6  1  0.24823596  0.49505458  0.58150435  1
  Cu  Cu7  1  0.93669150  0.87453279  0.12400181  1
  Cu  Cu8  1  0.06330850  0.12546721  0.87599819  1
  Cu  Cu9  1  0.99406039  0.98946772  0.33140123  1
  Cu  Cu10  1  0.00593961  0.01053228  0.66859877  1
  O  O11  1  -0.00000000  -0.00000000  -0.00000000  1
  O  O12  1  0.86071890  0.72090192  0.22724905  1
  O  O13  1  0.13928110  0.27909808  0.77275095  1
  O  O14  1  0.30142299  0.60346058  0.07113449  1
  O  O15  1  0.69857701  0.39653942  0.92886551  1
  O  O16  1  0.58546303  0.17379851  0.14596593  1
  O  O17  1  0.41453697  0.82620149  0.85403407  1
  O  O18  1  0.63189588  0.26474864  0.31461211  1
  O  O19  1  0.36810412  0.73525136  0.68538789  1
  O  O20  1  0.39386217  0.78737522  0.38762318  1
  O  O21  1  0.60613783  0.21262478  0.61237682  1
  O  O22  1  0.13281387  0.26917524  0.46984664  1
  O  O23  1  0.86718613  0.73082476  0.53015336  1
