# generated using pymatgen
data_KLiDyF5
_symmetry_space_group_name_H-M   'P 1'
_cell_length_a   6.53089662
_cell_length_b   6.37334354
_cell_length_c   11.90404042
_cell_angle_alpha   90.00000000
_cell_angle_beta   90.00000000
_cell_angle_gamma   113.85204414
_symmetry_Int_Tables_number   1
_chemical_formula_structural   KLiDyF5
_chemical_formula_sum   'K4 Li4 Dy4 F20'
_cell_volume   453.17117431
_cell_formula_units_Z   4
loop_
 _symmetry_equiv_pos_site_id
 _symmetry_equiv_pos_as_xyz
  1  'x, y, z'
loop_
 _atom_site_type_symbol
 _atom_site_label
 _atom_site_symmetry_multiplicity
 _atom_site_fract_x
 _atom_site_fract_y
 _atom_site_fract_z
 _atom_site_occupancy
  K  K0  1  0.94706507  0.96325516  0.34976134  1
  K  K1  1  0.05293493  0.03674484  0.65023866  1
  K  K2  1  0.05293493  0.53674484  0.84976134  1
  K  K3  1  0.94706507  0.46325516  0.15023866  1
  Li  Li4  1  0.55791033  0.96207556  0.74588262  1
  Li  Li5  1  0.44208967  0.03792444  0.25411738  1
  Li  Li6  1  0.44208967  0.53792444  0.24588262  1
  Li  Li7  1  0.55791033  0.46207556  0.75411738  1
  Dy  Dy8  1  0.68186809  0.81980726  0.99796183  1
  Dy  Dy9  1  0.31813191  0.18019274  0.00203817  1
  Dy  Dy10  1  0.31813191  0.68019274  0.49796183  1
  Dy  Dy11  1  0.68186809  0.31980726  0.50203817  1
  F  F12  1  0.71987049  0.77709476  0.80543824  1
  F  F13  1  0.28012951  0.22290524  0.19456176  1
  F  F14  1  0.28012951  0.72290524  0.30543824  1
  F  F15  1  0.71987049  0.27709476  0.69456176  1
  F  F16  1  0.66558072  0.95336513  0.53163949  1
  F  F17  1  0.33441928  0.04663487  0.46836051  1
  F  F18  1  0.33441928  0.54663487  0.03163949  1
  F  F19  1  0.66558072  0.45336513  0.96836051  1
  F  F20  1  0.95577825  0.67272393  0.50665662  1
  F  F21  1  0.04422175  0.32727607  0.49334338  1
  F  F22  1  0.04422175  0.82727607  0.00665662  1
  F  F23  1  0.95577825  0.17272393  0.99334338  1
  F  F24  1  0.46419007  0.96626885  0.89566429  1
  F  F25  1  0.53580993  0.03373115  0.10433571  1
  F  F26  1  0.53580993  0.53373115  0.39566429  1
  F  F27  1  0.46419007  0.46626885  0.60433571  1
  F  F28  1  0.28717665  0.77840147  0.67419898  1
  F  F29  1  0.71282335  0.22159853  0.32580102  1
  F  F30  1  0.71282335  0.72159853  0.17419898  1
  F  F31  1  0.28717665  0.27840147  0.82580102  1
