# generated using pymatgen
data_KTb2Cl7
_symmetry_space_group_name_H-M   'P 1'
_cell_length_a   6.97551056
_cell_length_b   12.67340947
_cell_length_c   13.58142903
_cell_angle_alpha   90.00000000
_cell_angle_beta   90.79414113
_cell_angle_gamma   90.00000000
_symmetry_Int_Tables_number   1
_chemical_formula_structural   KTb2Cl7
_chemical_formula_sum   'K4 Tb8 Cl28'
_cell_volume   1200.53055770
_cell_formula_units_Z   4
loop_
 _symmetry_equiv_pos_site_id
 _symmetry_equiv_pos_as_xyz
  1  'x, y, z'
loop_
 _atom_site_type_symbol
 _atom_site_label
 _atom_site_symmetry_multiplicity
 _atom_site_fract_x
 _atom_site_fract_y
 _atom_site_fract_z
 _atom_site_occupancy
  K  K0  1  0.24509977  0.79976785  0.03714835  1
  K  K1  1  0.75490023  0.20023215  0.96285165  1
  K  K2  1  0.75490023  0.29976785  0.46285165  1
  K  K3  1  0.24509977  0.70023215  0.53714835  1
  Tb  Tb4  1  0.22415347  0.46187564  0.23757575  1
  Tb  Tb5  1  0.77584653  0.53812436  0.76242425  1
  Tb  Tb6  1  0.77584653  0.96187564  0.26242425  1
  Tb  Tb7  1  0.22415347  0.03812436  0.73757575  1
  Tb  Tb8  1  0.27250327  0.15920204  0.24757957  1
  Tb  Tb9  1  0.72749673  0.84079796  0.75242043  1
  Tb  Tb10  1  0.72749673  0.65920204  0.25242043  1
  Tb  Tb11  1  0.27250327  0.34079796  0.74757957  1
  Cl  Cl12  1  0.05417266  0.02518534  0.13588282  1
  Cl  Cl13  1  0.94582734  0.97481466  0.86411718  1
  Cl  Cl14  1  0.94582734  0.52518534  0.36411718  1
  Cl  Cl15  1  0.05417266  0.47481466  0.63588282  1
  Cl  Cl16  1  0.25308040  0.31390872  0.38803086  1
  Cl  Cl17  1  0.74691960  0.68609128  0.61196914  1
  Cl  Cl18  1  0.74691960  0.81390872  0.11196914  1
  Cl  Cl19  1  0.25308040  0.18609128  0.88803086  1
  Cl  Cl20  1  0.48308731  0.32049380  0.17430083  1
  Cl  Cl21  1  0.51691269  0.67950620  0.82569917  1
  Cl  Cl22  1  0.51691269  0.82049380  0.32569917  1
  Cl  Cl23  1  0.48308731  0.17950620  0.67430083  1
  Cl  Cl24  1  0.02193856  0.07464369  0.37664069  1
  Cl  Cl25  1  0.97806144  0.92535631  0.62335931  1
  Cl  Cl26  1  0.97806144  0.57464369  0.12335931  1
  Cl  Cl27  1  0.02193856  0.42535631  0.87664069  1
  Cl  Cl28  1  0.53441534  0.05711197  0.13202946  1
  Cl  Cl29  1  0.46558466  0.94288803  0.86797054  1
  Cl  Cl30  1  0.46558466  0.55711197  0.36797054  1
  Cl  Cl31  1  0.53441534  0.44288803  0.63202946  1
  Cl  Cl32  1  0.00181765  0.29649996  0.17503488  1
  Cl  Cl33  1  0.99818235  0.70350004  0.82496512  1
  Cl  Cl34  1  0.99818235  0.79649996  0.32496512  1
  Cl  Cl35  1  0.00181765  0.20350004  0.67503488  1
  Cl  Cl36  1  0.54303187  0.08738007  0.37498635  1
  Cl  Cl37  1  0.45696813  0.91261993  0.62501365  1
  Cl  Cl38  1  0.45696813  0.58738007  0.12501365  1
  Cl  Cl39  1  0.54303187  0.41261993  0.87498635  1
