# generated using pymatgen
data_La4AsBrO8
_symmetry_space_group_name_H-M   'P 1'
_cell_length_a   8.52135232
_cell_length_b   8.52135232
_cell_length_c   13.67467989
_cell_angle_alpha   90.00000000
_cell_angle_beta   90.00000000
_cell_angle_gamma   90.00000000
_symmetry_Int_Tables_number   1
_chemical_formula_structural   La4AsBrO8
_chemical_formula_sum   'La16 As4 Br4 O32'
_cell_volume   992.96562103
_cell_formula_units_Z   4
loop_
 _symmetry_equiv_pos_site_id
 _symmetry_equiv_pos_as_xyz
  1  'x, y, z'
loop_
 _atom_site_type_symbol
 _atom_site_label
 _atom_site_symmetry_multiplicity
 _atom_site_fract_x
 _atom_site_fract_y
 _atom_site_fract_z
 _atom_site_occupancy
  La  La0  1  0.51628590  0.24530503  0.16806818  1
  La  La1  1  0.48371410  0.75469497  0.83193182  1
  La  La2  1  0.48371410  0.75469497  0.16806818  1
  La  La3  1  0.75469497  0.51628590  0.66806818  1
  La  La4  1  0.51628590  0.24530503  0.83193182  1
  La  La5  1  0.24530503  0.48371410  0.33193182  1
  La  La6  1  0.24530503  0.48371410  0.66806818  1
  La  La7  1  0.75469497  0.51628590  0.33193182  1
  La  La8  1  0.24472382  0.01302529  0.33232131  1
  La  La9  1  0.75527618  0.98697471  0.66767869  1
  La  La10  1  0.75527618  0.98697471  0.33232131  1
  La  La11  1  0.98697471  0.24472382  0.83232131  1
  La  La12  1  0.24472382  0.01302529  0.66767869  1
  La  La13  1  0.01302529  0.75527618  0.16767869  1
  La  La14  1  0.01302529  0.75527618  0.83232131  1
  La  La15  1  0.98697471  0.24472382  0.16767869  1
  As  As16  1  0.25203768  0.04255104  -0.00000000  1
  As  As17  1  0.74796232  0.95744896  -0.00000000  1
  As  As18  1  0.95744896  0.25203768  0.50000000  1
  As  As19  1  0.04255104  0.74796232  0.50000000  1
  Br  Br20  1  0.25278679  0.55527939  -0.00000000  1
  Br  Br21  1  0.74721321  0.44472061  -0.00000000  1
  Br  Br22  1  0.44472061  0.25278679  0.50000000  1
  Br  Br23  1  0.55527939  0.74721321  0.50000000  1
  O  O24  1  0.08746204  0.16278685  -0.00000000  1
  O  O25  1  0.91253796  0.83721315  -0.00000000  1
  O  O26  1  0.83721315  0.08746204  0.50000000  1
  O  O27  1  0.16278685  0.91253796  0.50000000  1
  O  O28  1  0.25695965  0.24974557  0.23030336  1
  O  O29  1  0.74304035  0.75025443  0.76969664  1
  O  O30  1  0.74304035  0.75025443  0.23030336  1
  O  O31  1  0.75025443  0.25695965  0.73030336  1
  O  O32  1  0.25695965  0.24974557  0.76969664  1
  O  O33  1  0.24974557  0.74304035  0.26969664  1
  O  O34  1  0.24974557  0.74304035  0.73030336  1
  O  O35  1  0.75025443  0.25695965  0.26969664  1
  O  O36  1  0.41606154  0.16328539  -0.00000000  1
  O  O37  1  0.58393846  0.83671461  -0.00000000  1
  O  O38  1  0.83671461  0.41606154  0.50000000  1
  O  O39  1  0.16328539  0.58393846  0.50000000  1
  O  O40  1  -0.00000000  0.50000000  0.23875329  1
  O  O41  1  -0.00000000  0.50000000  0.76124671  1
  O  O42  1  0.50000000  -0.00000000  0.73875329  1
  O  O43  1  0.50000000  -0.00000000  0.26124671  1
  O  O44  1  0.07050057  0.25212356  0.39600905  1
  O  O45  1  0.92949943  0.74787644  0.60399095  1
  O  O46  1  0.92949943  0.74787644  0.39600905  1
  O  O47  1  0.74787644  0.07050057  0.89600905  1
  O  O48  1  0.07050057  0.25212356  0.60399095  1
  O  O49  1  0.25212356  0.92949943  0.10399095  1
  O  O50  1  0.25212356  0.92949943  0.89600905  1
  O  O51  1  0.74787644  0.07050057  0.10399095  1
  O  O52  1  -0.00000000  -0.00000000  0.25000000  1
  O  O53  1  -0.00000000  -0.00000000  0.75000000  1
  O  O54  1  0.50000000  0.50000000  0.25000000  1
  O  O55  1  0.50000000  0.50000000  0.75000000  1
