# generated using pymatgen
data_K2TcH9
_symmetry_space_group_name_H-M   'P 1'
_cell_length_a   5.59660446
_cell_length_b   9.60458515
_cell_length_c   9.60458515
_cell_angle_alpha   119.99999758
_cell_angle_beta   90.00000000
_cell_angle_gamma   90.00000000
_symmetry_Int_Tables_number   1
_chemical_formula_structural   K2TcH9
_chemical_formula_sum   'K6 Tc3 H27'
_cell_volume   447.10803916
_cell_formula_units_Z   3
loop_
 _symmetry_equiv_pos_site_id
 _symmetry_equiv_pos_as_xyz
  1  'x, y, z'
loop_
 _atom_site_type_symbol
 _atom_site_label
 _atom_site_symmetry_multiplicity
 _atom_site_fract_x
 _atom_site_fract_y
 _atom_site_fract_z
 _atom_site_occupancy
  K  K0  1  0.50000000  0.73792696  0.73792696  1
  K  K1  1  0.50000000  -0.00000000  0.26207304  1
  K  K2  1  0.50000000  0.26207304  -0.00000000  1
  K  K3  1  0.00000000  0.41146644  0.41146644  1
  K  K4  1  0.00000000  0.00000000  0.58853356  1
  K  K5  1  -0.00000000  0.58853356  0.00000000  1
  Tc  Tc6  1  -0.00000000  -0.00000000  0.00000000  1
  Tc  Tc7  1  0.50000000  0.66666700  0.33333300  1
  Tc  Tc8  1  0.50000000  0.33333300  0.66666700  1
  H  H9  1  0.78854719  0.12674645  0.12674645  1
  H  H10  1  0.78854719  1.00000000  0.87325355  1
  H  H11  1  0.21145281  0.12674645  0.12674645  1
  H  H12  1  0.21145281  1.00000000  0.87325355  1
  H  H13  1  0.78854719  0.87325355  1.00000000  1
  H  H14  1  0.21145281  0.87325355  1.00000000  1
  H  H15  1  -0.00000000  0.82763114  0.82763114  1
  H  H16  1  -0.00000000  0.00000000  0.17236886  1
  H  H17  1  0.00000000  0.17236886  0.00000000  1
  H  H18  1  0.71816537  0.77475986  0.30840035  1
  H  H19  1  0.71816537  0.53364049  0.22524014  1
  H  H20  1  0.28183463  0.77475986  0.30840035  1
  H  H21  1  0.28183463  0.46635951  0.69159965  1
  H  H22  1  0.71816537  0.69159965  0.46635951  1
  H  H23  1  0.28183463  0.53364049  0.22524014  1
  H  H24  1  0.28183463  0.30840035  0.77475986  1
  H  H25  1  0.71816537  0.46635951  0.69159965  1
  H  H26  1  0.28183463  0.69159965  0.46635951  1
  H  H27  1  0.71816537  0.30840035  0.77475986  1
  H  H28  1  0.28183463  0.22524014  0.53364049  1
  H  H29  1  0.71816537  0.22524014  0.53364049  1
  H  H30  1  0.50000000  0.63193507  0.14581064  1
  H  H31  1  0.50000000  0.51387557  0.36806493  1
  H  H32  1  0.50000000  0.48612443  0.85418936  1
  H  H33  1  0.50000000  0.85418936  0.48612443  1
  H  H34  1  0.50000000  0.14581064  0.63193507  1
  H  H35  1  0.50000000  0.36806493  0.51387557  1
