# generated using pymatgen
data_KTm2F7
_symmetry_space_group_name_H-M   'P 1'
_cell_length_a   7.94121516
_cell_length_b   8.16866091
_cell_length_c   10.48724339
_cell_angle_alpha   77.87817815
_cell_angle_beta   67.75219958
_cell_angle_gamma   60.91686601
_symmetry_Int_Tables_number   1
_chemical_formula_structural   KTm2F7
_chemical_formula_sum   'K4 Tm8 F28'
_cell_volume   549.98023500
_cell_formula_units_Z   4
loop_
 _symmetry_equiv_pos_site_id
 _symmetry_equiv_pos_as_xyz
  1  'x, y, z'
loop_
 _atom_site_type_symbol
 _atom_site_label
 _atom_site_symmetry_multiplicity
 _atom_site_fract_x
 _atom_site_fract_y
 _atom_site_fract_z
 _atom_site_occupancy
  K  K0  1  0.14362242  0.34478383  0.36797132  1
  K  K1  1  0.64991427  0.65882263  0.04134882  1
  K  K2  1  0.11796255  0.02825762  0.73581729  1
  K  K3  1  0.62045091  0.35265279  0.40644539  1
  Tm  Tm4  1  0.62180523  0.84934309  0.38859906  1
  Tm  Tm5  1  0.14025262  0.84934309  0.38859906  1
  Tm  Tm6  1  0.12377931  0.68585197  0.06658942  1
  Tm  Tm7  1  0.64112125  0.00772692  0.71003059  1
  Tm  Tm8  1  0.64636787  0.52517587  0.70697292  1
  Tm  Tm9  1  0.12148334  0.52517587  0.70697292  1
  Tm  Tm10  1  0.64465260  0.16810082  0.06746448  1
  Tm  Tm11  1  0.11978210  0.16810082  0.06746448  1
  F  F12  1  0.76103464  0.84969746  0.15035494  1
  F  F13  1  0.23891296  0.84969746  0.15035494  1
  F  F14  1  0.74844531  0.56470241  0.47341361  1
  F  F15  1  0.21343867  0.56470241  0.47341361  1
  F  F16  1  0.37686665  0.12928443  0.11698228  1
  F  F17  1  0.98548052  0.38881659  0.64022237  1
  F  F18  1  0.27683777  0.98322474  0.46309973  1
  F  F19  1  0.38627193  0.67055675  0.88815965  1
  F  F20  1  0.05501167  0.67055675  0.88815965  1
  F  F21  1  0.78259792  0.29854502  0.13625914  1
  F  F22  1  0.37877342  0.01965562  0.88700448  1
  F  F23  1  0.71456648  0.01965562  0.88700448  1
  F  F24  1  0.52908788  0.84814465  0.62432521  1
  F  F25  1  0.99844226  0.84814465  0.62432521  1
  F  F26  1  0.70391987  0.34536681  0.88678557  1
  F  F27  1  0.06392775  0.34536681  0.88678557  1
  F  F28  1  0.38423643  0.57787704  0.65365010  1
  F  F29  1  0.98582286  0.72865962  0.29969466  1
  F  F30  1  0.38184142  0.45498872  0.12591519  1
  F  F31  1  0.03725466  0.45498872  0.12591519  1
  F  F32  1  0.38452160  0.24279753  0.65067565  1
  F  F33  1  0.72200522  0.24279753  0.65067565  1
  F  F34  1  0.76941102  0.69116104  0.77001693  1
  F  F35  1  0.48437132  0.71437057  0.31688679  1
  F  F36  1  0.77548378  0.97371293  0.47531952  1
  F  F37  1  0.54411770  0.13321254  0.30228241  1
  F  F38  1  0.02038735  0.13321254  0.30228241  1
  F  F39  1  0.99643645  0.99856779  0.00855930  1
