# generated using pymatgen
data_Li(TmGe)4
_symmetry_space_group_name_H-M   'P 1'
_cell_length_a   7.04694795
_cell_length_b   7.62170734
_cell_length_c   14.47517009
_cell_angle_alpha   90.00000000
_cell_angle_beta   90.00000000
_cell_angle_gamma   90.00000000
_symmetry_Int_Tables_number   1
_chemical_formula_structural   Li(TmGe)4
_chemical_formula_sum   'Li4 Tm16 Ge16'
_cell_volume   777.45812739
_cell_formula_units_Z   4
loop_
 _symmetry_equiv_pos_site_id
 _symmetry_equiv_pos_as_xyz
  1  'x, y, z'
loop_
 _atom_site_type_symbol
 _atom_site_label
 _atom_site_symmetry_multiplicity
 _atom_site_fract_x
 _atom_site_fract_y
 _atom_site_fract_z
 _atom_site_occupancy
  Li  Li0  1  0.84156444  0.47859585  0.75000000  1
  Li  Li1  1  0.15843556  0.52140415  0.25000000  1
  Li  Li2  1  0.65843556  0.97859585  0.25000000  1
  Li  Li3  1  0.34156444  0.02140415  0.75000000  1
  Tm  Tm4  1  0.67186650  0.82400305  0.87221700  1
  Tm  Tm5  1  0.32813350  0.17599695  0.12778300  1
  Tm  Tm6  1  0.82813350  0.32400305  0.12778300  1
  Tm  Tm7  1  0.32813350  0.17599695  0.37221700  1
  Tm  Tm8  1  0.17186650  0.67599695  0.87221700  1
  Tm  Tm9  1  0.67186650  0.82400305  0.62778300  1
  Tm  Tm10  1  0.17186650  0.67599695  0.62778300  1
  Tm  Tm11  1  0.82813350  0.32400305  0.37221700  1
  Tm  Tm12  1  0.98586477  0.81405510  0.40337995  1
  Tm  Tm13  1  0.01413523  0.18594490  0.59662005  1
  Tm  Tm14  1  0.51413523  0.31405510  0.59662005  1
  Tm  Tm15  1  0.01413523  0.18594490  0.90337995  1
  Tm  Tm16  1  0.48586477  0.68594490  0.40337995  1
  Tm  Tm17  1  0.98586477  0.81405510  0.09662005  1
  Tm  Tm18  1  0.48586477  0.68594490  0.09662005  1
  Tm  Tm19  1  0.51413523  0.31405510  0.90337995  1
  Ge  Ge20  1  0.98265156  0.91152739  0.75000000  1
  Ge  Ge21  1  0.01734844  0.08847261  0.25000000  1
  Ge  Ge22  1  0.51734844  0.41152739  0.25000000  1
  Ge  Ge23  1  0.48265156  0.58847261  0.75000000  1
  Ge  Ge24  1  0.71516605  0.13746011  0.75000000  1
  Ge  Ge25  1  0.28483395  0.86253989  0.25000000  1
  Ge  Ge26  1  0.78483395  0.63746011  0.25000000  1
  Ge  Ge27  1  0.21516605  0.36253989  0.75000000  1
  Ge  Ge28  1  0.83218190  0.53405447  0.96261452  1
  Ge  Ge29  1  0.16781810  0.46594553  0.03738548  1
  Ge  Ge30  1  0.66781810  0.03405447  0.03738548  1
  Ge  Ge31  1  0.16781810  0.46594553  0.46261452  1
  Ge  Ge32  1  0.33218190  0.96594553  0.96261452  1
  Ge  Ge33  1  0.83218190  0.53405447  0.53738548  1
  Ge  Ge34  1  0.33218190  0.96594553  0.53738548  1
  Ge  Ge35  1  0.66781810  0.03405447  0.46261452  1
