# generated using pymatgen
data_Li2Mg7Zn12
_symmetry_space_group_name_H-M   'P 1'
_cell_length_a   5.16748195
_cell_length_b   5.16748195
_cell_length_c   61.53672365
_cell_angle_alpha   90.00000000
_cell_angle_beta   90.00000000
_cell_angle_gamma   119.99999988
_symmetry_Int_Tables_number   1
_chemical_formula_structural   Li2Mg7Zn12
_chemical_formula_sum   'Li8 Mg28 Zn48'
_cell_volume   1423.05910609
_cell_formula_units_Z   4
loop_
 _symmetry_equiv_pos_site_id
 _symmetry_equiv_pos_as_xyz
  1  'x, y, z'
loop_
 _atom_site_type_symbol
 _atom_site_label
 _atom_site_symmetry_multiplicity
 _atom_site_fract_x
 _atom_site_fract_y
 _atom_site_fract_z
 _atom_site_occupancy
  Li  Li0  1  0.66666700  0.33333300  0.85801243  1
  Li  Li1  1  0.33333300  0.66666700  0.14198757  1
  Li  Li2  1  0.33333300  0.66666700  0.35801243  1
  Li  Li3  1  0.66666700  0.33333300  0.64198757  1
  Li  Li4  1  0.66666700  0.33333300  0.78597175  1
  Li  Li5  1  0.33333300  0.66666700  0.21402825  1
  Li  Li6  1  0.33333300  0.66666700  0.28597175  1
  Li  Li7  1  0.66666700  0.33333300  0.71402825  1
  Mg  Mg8  1  0.66666700  0.33333300  0.27679251  1
  Mg  Mg9  1  0.33333300  0.66666700  0.72320749  1
  Mg  Mg10  1  0.33333300  0.66666700  0.77679251  1
  Mg  Mg11  1  0.66666700  0.33333300  0.22320749  1
  Mg  Mg12  1  -0.00000000  -0.00000000  0.84877592  1
  Mg  Mg13  1  -0.00000000  -0.00000000  0.15122408  1
  Mg  Mg14  1  -0.00000000  -0.00000000  0.34877592  1
  Mg  Mg15  1  -0.00000000  -0.00000000  0.65122408  1
  Mg  Mg16  1  0.66666700  0.33333300  0.42021616  1
  Mg  Mg17  1  0.33333300  0.66666700  0.57978384  1
  Mg  Mg18  1  0.33333300  0.66666700  0.92021616  1
  Mg  Mg19  1  0.66666700  0.33333300  0.07978384  1
  Mg  Mg20  1  -0.00000000  -0.00000000  0.79514050  1
  Mg  Mg21  1  -0.00000000  -0.00000000  0.20485950  1
  Mg  Mg22  1  -0.00000000  -0.00000000  0.29514050  1
  Mg  Mg23  1  -0.00000000  -0.00000000  0.70485950  1
  Mg  Mg24  1  0.66666700  0.33333300  0.93764345  1
  Mg  Mg25  1  0.33333300  0.66666700  0.06235655  1
  Mg  Mg26  1  0.33333300  0.66666700  0.43764345  1
  Mg  Mg27  1  0.66666700  0.33333300  0.56235655  1
  Mg  Mg28  1  0.66666700  0.33333300  0.99092275  1
  Mg  Mg29  1  0.33333300  0.66666700  0.00907725  1
  Mg  Mg30  1  0.33333300  0.66666700  0.49092275  1
  Mg  Mg31  1  0.66666700  0.33333300  0.50907725  1
  Mg  Mg32  1  0.66666700  0.33333300  0.36693068  1
  Mg  Mg33  1  0.33333300  0.66666700  0.63306932  1
  Mg  Mg34  1  0.33333300  0.66666700  0.86693068  1
  Mg  Mg35  1  0.66666700  0.33333300  0.13306932  1
  Zn  Zn36  1  -0.00000000  -0.00000000  0.92876814  1
  Zn  Zn37  1  -0.00000000  -0.00000000  0.07123186  1
  Zn  Zn38  1  -0.00000000  -0.00000000  0.42876814  1
  Zn  Zn39  1  -0.00000000  -0.00000000  0.57123186  1
  Zn  Zn40  1  0.83264705  0.16735295  0.89314812  1
  Zn  Zn41  1  0.16735295  0.83264705  0.10685188  1
  Zn  Zn42  1  0.33470591  0.16735295  0.89314812  1
  Zn  Zn43  1  0.16735295  0.83264705  0.39314812  1
  Zn  Zn44  1  0.66529409  0.83264705  0.10685188  1
  Zn  Zn45  1  0.83264705  0.16735295  0.60685188  1
  Zn  Zn46  1  0.83264705  0.66529409  0.89314812  1
  Zn  Zn47  1  0.66529409  0.83264705  0.39314812  1
  Zn  Zn48  1  0.16735295  0.33470591  0.10685188  1
  Zn  Zn49  1  0.33470591  0.16735295  0.60685188  1
  Zn  Zn50  1  0.16735295  0.33470591  0.39314812  1
  Zn  Zn51  1  0.83264705  0.66529409  0.60685188  1
  Zn  Zn52  1  0.49870507  0.50129493  0.82191189  1
  Zn  Zn53  1  0.50129493  0.49870507  0.17808811  1
  Zn  Zn54  1  0.00258986  0.50129493  0.82191189  1
  Zn  Zn55  1  0.50129493  0.49870507  0.32191189  1
  Zn  Zn56  1  0.99741014  0.49870507  0.17808811  1
  Zn  Zn57  1  0.49870507  0.50129493  0.67808811  1
  Zn  Zn58  1  0.49870507  0.99741014  0.82191189  1
  Zn  Zn59  1  0.99741014  0.49870507  0.32191189  1
  Zn  Zn60  1  0.50129493  0.00258986  0.17808811  1
  Zn  Zn61  1  0.00258986  0.50129493  0.67808811  1
  Zn  Zn62  1  0.50129493  0.00258986  0.32191189  1
  Zn  Zn63  1  0.49870507  0.99741014  0.67808811  1
  Zn  Zn64  1  0.83069718  0.16930282  0.46433672  1
  Zn  Zn65  1  0.16930282  0.83069718  0.53566328  1
  Zn  Zn66  1  0.33860565  0.16930282  0.46433672  1
  Zn  Zn67  1  0.16930282  0.83069718  0.96433672  1
  Zn  Zn68  1  0.66139435  0.83069718  0.53566328  1
  Zn  Zn69  1  0.83069718  0.16930282  0.03566328  1
  Zn  Zn70  1  0.83069718  0.66139435  0.46433672  1
  Zn  Zn71  1  0.66139435  0.83069718  0.96433672  1
  Zn  Zn72  1  0.16930282  0.33860565  0.53566328  1
  Zn  Zn73  1  0.33860565  0.16930282  0.03566328  1
  Zn  Zn74  1  0.16930282  0.33860565  0.96433672  1
  Zn  Zn75  1  0.83069718  0.66139435  0.03566328  1
  Zn  Zn76  1  0.83454256  0.16545744  0.75000000  1
  Zn  Zn77  1  0.16545744  0.83454256  0.25000000  1
  Zn  Zn78  1  0.33091488  0.16545744  0.75000000  1
  Zn  Zn79  1  0.66908512  0.83454256  0.25000000  1
  Zn  Zn80  1  0.83454256  0.66908512  0.75000000  1
  Zn  Zn81  1  0.16545744  0.33091488  0.25000000  1
  Zn  Zn82  1  -0.00000000  -0.00000000  0.00000000  1
  Zn  Zn83  1  -0.00000000  -0.00000000  0.50000000  1
