# generated using pymatgen
data_KEu2Cl5
_symmetry_space_group_name_H-M   'P 1'
_cell_length_a   7.94368525
_cell_length_b   8.86743483
_cell_length_c   12.66903236
_cell_angle_alpha   89.94732562
_cell_angle_beta   90.00000000
_cell_angle_gamma   90.00000000
_symmetry_Int_Tables_number   1
_chemical_formula_structural   KEu2Cl5
_chemical_formula_sum   'K4 Eu8 Cl20'
_cell_volume   892.40767128
_cell_formula_units_Z   4
loop_
 _symmetry_equiv_pos_site_id
 _symmetry_equiv_pos_as_xyz
  1  'x, y, z'
loop_
 _atom_site_type_symbol
 _atom_site_label
 _atom_site_symmetry_multiplicity
 _atom_site_fract_x
 _atom_site_fract_y
 _atom_site_fract_z
 _atom_site_occupancy
  K  K0  1  0.97663694  0.50339737  0.67642231  1
  K  K1  1  0.02336306  0.49660263  0.32357769  1
  K  K2  1  0.47663694  0.49660263  0.82357769  1
  K  K3  1  0.52336306  0.50339737  0.17642231  1
  Eu  Eu4  1  0.97773998  0.00108128  0.67797350  1
  Eu  Eu5  1  0.02226002  0.99891872  0.32202650  1
  Eu  Eu6  1  0.47773998  0.99891872  0.82202650  1
  Eu  Eu7  1  0.52226002  0.00108128  0.17797350  1
  Eu  Eu8  1  0.92860496  0.75221964  0.99355955  1
  Eu  Eu9  1  0.07139504  0.24778036  0.00644045  1
  Eu  Eu10  1  0.42860496  0.24778036  0.50644045  1
  Eu  Eu11  1  0.57139504  0.75221964  0.49355955  1
  Cl  Cl12  1  0.83948023  0.46326526  0.91050937  1
  Cl  Cl13  1  0.16051977  0.53673474  0.08949063  1
  Cl  Cl14  1  0.33948023  0.53673474  0.58949063  1
  Cl  Cl15  1  0.66051977  0.46326526  0.41050937  1
  Cl  Cl16  1  0.16440343  0.78604618  0.81653178  1
  Cl  Cl17  1  0.83559657  0.21395382  0.18346822  1
  Cl  Cl18  1  0.66440343  0.21395382  0.68346822  1
  Cl  Cl19  1  0.33559657  0.78604618  0.31653178  1
  Cl  Cl20  1  0.69624217  0.77478757  0.71532071  1
  Cl  Cl21  1  0.30375783  0.22521243  0.28467929  1
  Cl  Cl22  1  0.19624217  0.22521243  0.78467929  1
  Cl  Cl23  1  0.80375783  0.77478757  0.21532071  1
  Cl  Cl24  1  0.54822080  0.78287261  0.99723880  1
  Cl  Cl25  1  0.45177920  0.21712739  0.00276120  1
  Cl  Cl26  1  0.04822080  0.21712739  0.50276120  1
  Cl  Cl27  1  0.95177920  0.78287261  0.49723880  1
  Cl  Cl28  1  0.33993848  0.96018669  0.60128689  1
  Cl  Cl29  1  0.66006152  0.03981331  0.39871311  1
  Cl  Cl30  1  0.83993848  0.03981331  0.89871311  1
  Cl  Cl31  1  0.16006152  0.96018669  0.10128689  1
