# generated using pymatgen
data_La3Sb5O12
_symmetry_space_group_name_H-M   'P 1'
_cell_length_a   9.80697489
_cell_length_b   9.80697489
_cell_length_c   9.80697489
_cell_angle_alpha   109.47122063
_cell_angle_beta   109.47122063
_cell_angle_gamma   109.47122063
_symmetry_Int_Tables_number   1
_chemical_formula_structural   La3Sb5O12
_chemical_formula_sum   'La6 Sb10 O24'
_cell_volume   726.07803456
_cell_formula_units_Z   2
loop_
 _symmetry_equiv_pos_site_id
 _symmetry_equiv_pos_as_xyz
  1  'x, y, z'
loop_
 _atom_site_type_symbol
 _atom_site_label
 _atom_site_symmetry_multiplicity
 _atom_site_fract_x
 _atom_site_fract_y
 _atom_site_fract_z
 _atom_site_occupancy
  La  La0  1  0.25000000  0.75000000  0.50000000  1
  La  La1  1  0.75000000  0.25000000  0.50000000  1
  La  La2  1  0.75000000  0.50000000  0.25000000  1
  La  La3  1  0.25000000  0.50000000  0.75000000  1
  La  La4  1  0.50000000  0.25000000  0.75000000  1
  La  La5  1  0.50000000  0.75000000  0.25000000  1
  Sb  Sb6  1  0.50115844  0.50115844  0.50115844  1
  Sb  Sb7  1  0.49884156  0.00000000  -0.00000000  1
  Sb  Sb8  1  0.00000000  0.49884156  -0.00000000  1
  Sb  Sb9  1  0.00000000  -0.00000000  0.49884156  1
  Sb  Sb10  1  0.71822656  0.71822656  0.00000000  1
  Sb  Sb11  1  0.28177344  0.28177344  -0.00000000  1
  Sb  Sb12  1  0.71822656  0.00000000  0.71822656  1
  Sb  Sb13  1  0.28177344  -0.00000000  0.28177344  1
  Sb  Sb14  1  0.00000000  0.71822656  0.71822656  1
  Sb  Sb15  1  -0.00000000  0.28177344  0.28177344  1
  O  O16  1  0.80534071  0.51206512  0.51206512  1
  O  O17  1  0.19465929  0.70672441  0.70672441  1
  O  O18  1  0.00000000  0.48793488  0.29327559  1
  O  O19  1  0.51206512  0.51206512  0.80534071  1
  O  O20  1  0.00000000  0.29327559  0.48793488  1
  O  O21  1  0.70672441  0.70672441  0.19465929  1
  O  O22  1  0.48793488  0.29327559  -0.00000000  1
  O  O23  1  0.29327559  0.48793488  0.00000000  1
  O  O24  1  0.51206512  0.80534071  0.51206512  1
  O  O25  1  0.29327559  0.00000000  0.48793488  1
  O  O26  1  0.48793488  -0.00000000  0.29327559  1
  O  O27  1  0.70672441  0.19465929  0.70672441  1
  O  O28  1  0.27464490  0.46957533  0.46957533  1
  O  O29  1  0.72535510  0.19493043  0.19493043  1
  O  O30  1  -0.00000000  0.53042467  0.80506957  1
  O  O31  1  0.46957533  0.46957533  0.27464490  1
  O  O32  1  0.00000000  0.80506957  0.53042467  1
  O  O33  1  0.19493043  0.19493043  0.72535510  1
  O  O34  1  0.53042467  0.80506957  -0.00000000  1
  O  O35  1  0.80506957  0.53042467  -0.00000000  1
  O  O36  1  0.46957533  0.27464490  0.46957533  1
  O  O37  1  0.80506957  0.00000000  0.53042467  1
  O  O38  1  0.53042467  -0.00000000  0.80506957  1
  O  O39  1  0.19493043  0.72535510  0.19493043  1
