# generated using pymatgen
data_MgV2O6
_symmetry_space_group_name_H-M   'P 1'
_cell_length_a   4.87264043
_cell_length_b   5.21704237
_cell_length_c   7.97632540
_cell_angle_alpha   89.94101283
_cell_angle_beta   89.99738015
_cell_angle_gamma   89.98742740
_symmetry_Int_Tables_number   1
_chemical_formula_structural   MgV2O6
_chemical_formula_sum   'Mg2 V4 O12'
_cell_volume   202.76423344
_cell_formula_units_Z   2
loop_
 _symmetry_equiv_pos_site_id
 _symmetry_equiv_pos_as_xyz
  1  'x, y, z'
loop_
 _atom_site_type_symbol
 _atom_site_label
 _atom_site_symmetry_multiplicity
 _atom_site_fract_x
 _atom_site_fract_y
 _atom_site_fract_z
 _atom_site_occupancy
  Mg  Mg0  1  0.56329409  0.56095144  0.24843483  1
  Mg  Mg1  1  0.06332108  0.93911440  0.75156968  1
  V  V2  1  0.48624579  0.01147662  0.04897691  1
  V  V3  1  0.98621642  0.48855844  0.95097307  1
  V  V4  1  0.04043018  0.48736297  0.47979379  1
  V  V5  1  0.54045441  0.01288003  0.52023635  1
  O  O6  1  0.69140739  0.29853215  0.43373552  1
  O  O7  1  0.19142295  0.20147933  0.56627451  1
  O  O8  1  0.75716548  0.78390058  0.05177257  1
  O  O9  1  0.25715400  0.71585300  0.94821409  1
  O  O10  1  0.25966207  0.73013284  0.56549857  1
  O  O11  1  0.75964201  0.76992347  0.43447269  1
  O  O12  1  0.18347463  0.19322350  0.93479105  1
  O  O13  1  0.68349167  0.30663577  0.06520655  1
  O  O14  1  0.15508149  0.48044614  0.27840141  1
  O  O15  1  0.65504908  0.01955506  0.72160588  1
  O  O16  1  0.37436165  0.97373096  0.24547596  1
  O  O17  1  0.87430359  0.52630334  0.75445956  1
