# generated using pymatgen
data_K4MnO4
_symmetry_space_group_name_H-M   'P 1'
_cell_length_a   6.52877488
_cell_length_b   6.30890446
_cell_length_c   9.58146825
_cell_angle_alpha   71.47569310
_cell_angle_beta   78.52352046
_cell_angle_gamma   67.11656808
_symmetry_Int_Tables_number   1
_chemical_formula_structural   K4MnO4
_chemical_formula_sum   'K8 Mn2 O8'
_cell_volume   343.46927942
_cell_formula_units_Z   2
loop_
 _symmetry_equiv_pos_site_id
 _symmetry_equiv_pos_as_xyz
  1  'x, y, z'
loop_
 _atom_site_type_symbol
 _atom_site_label
 _atom_site_symmetry_multiplicity
 _atom_site_fract_x
 _atom_site_fract_y
 _atom_site_fract_z
 _atom_site_occupancy
  K  K0  1  0.77731611  0.03541557  0.38162808  1
  K  K1  1  0.22268389  0.96458443  0.61837192  1
  K  K2  1  0.75190115  0.58781736  0.16174175  1
  K  K3  1  0.24809885  0.41218264  0.83825825  1
  K  K4  1  0.24513138  0.76330014  0.02944799  1
  K  K5  1  0.75486862  0.23669986  0.97055201  1
  K  K6  1  0.27366360  0.51244876  0.43706875  1
  K  K7  1  0.72633640  0.48755124  0.56293125  1
  Mn  Mn8  1  0.27441196  0.15433215  0.24730667  1
  Mn  Mn9  1  0.72558804  0.84566785  0.75269333  1
  O  O10  1  0.03918446  0.29761225  0.36609050  1
  O  O11  1  0.96081554  0.70238775  0.63390950  1
  O  O12  1  0.53856333  0.13591751  0.65508323  1
  O  O13  1  0.46143667  0.86408249  0.34491677  1
  O  O14  1  0.46223463  0.32572559  0.19687638  1
  O  O15  1  0.53776537  0.67427441  0.80312362  1
  O  O16  1  0.11596683  0.16666729  0.10556988  1
  O  O17  1  0.88403317  0.83333271  0.89443012  1
