# generated using pymatgen
data_K2RbTmV2O8
_symmetry_space_group_name_H-M   'P 1'
_cell_length_a   5.97245609
_cell_length_b   5.97245609
_cell_length_c   7.81178043
_cell_angle_alpha   90.00000000
_cell_angle_beta   90.00000000
_cell_angle_gamma   120.00000854
_symmetry_Int_Tables_number   1
_chemical_formula_structural   K2RbTmV2O8
_chemical_formula_sum   'K2 Rb1 Tm1 V2 O8'
_cell_volume   241.31624185
_cell_formula_units_Z   1
loop_
 _symmetry_equiv_pos_site_id
 _symmetry_equiv_pos_as_xyz
  1  'x, y, z'
loop_
 _atom_site_type_symbol
 _atom_site_label
 _atom_site_symmetry_multiplicity
 _atom_site_fract_x
 _atom_site_fract_y
 _atom_site_fract_z
 _atom_site_occupancy
  K  K0  1  0.66666700  0.33333300  0.29749021  1
  K  K1  1  0.33333300  0.66666700  0.70250979  1
  Rb  Rb2  1  0.00000000  0.00000000  -0.00000000  1
  Tm  Tm3  1  0.00000000  0.00000000  0.50000000  1
  V  V4  1  0.66666700  0.33333300  0.74599267  1
  V  V5  1  0.33333300  0.66666700  0.25400733  1
  O  O6  1  0.66666700  0.33333300  0.96191721  1
  O  O7  1  0.33333300  0.66666700  0.03808279  1
  O  O8  1  0.82739491  0.65478982  0.67001479  1
  O  O9  1  0.17260509  0.34521018  0.32998521  1
  O  O10  1  0.82739491  0.17260509  0.67001479  1
  O  O11  1  0.17260509  0.82739491  0.32998521  1
  O  O12  1  0.34521018  0.17260509  0.67001479  1
  O  O13  1  0.65478982  0.82739491  0.32998521  1
