# generated using pymatgen
data_K3LuF6
_symmetry_space_group_name_H-M   'P 1'
_cell_length_a   6.34381468
_cell_length_b   6.56030440
_cell_length_c   9.09897735
_cell_angle_alpha   90.00000000
_cell_angle_beta   89.68153191
_cell_angle_gamma   90.00000000
_symmetry_Int_Tables_number   1
_chemical_formula_structural   K3LuF6
_chemical_formula_sum   'K6 Lu2 F12'
_cell_volume   378.66952416
_cell_formula_units_Z   2
loop_
 _symmetry_equiv_pos_site_id
 _symmetry_equiv_pos_as_xyz
  1  'x, y, z'
loop_
 _atom_site_type_symbol
 _atom_site_label
 _atom_site_symmetry_multiplicity
 _atom_site_fract_x
 _atom_site_fract_y
 _atom_site_fract_z
 _atom_site_occupancy
  K  K0  1  -0.00000000  0.00000000  0.50000000  1
  K  K1  1  0.50000000  0.50000000  0.00000000  1
  K  K2  1  0.01197940  0.45035567  0.25263430  1
  K  K3  1  0.98802060  0.54964433  0.74736570  1
  K  K4  1  0.48802060  0.95035567  0.24736570  1
  K  K5  1  0.51197940  0.04964433  0.75263430  1
  Lu  Lu6  1  -0.00000000  0.00000000  0.00000000  1
  Lu  Lu7  1  0.50000000  0.50000000  0.50000000  1
  F  F8  1  0.16717753  0.73123241  0.06276886  1
  F  F9  1  0.83282247  0.26876759  0.93723114  1
  F  F10  1  0.33282247  0.23123241  0.43723114  1
  F  F11  1  0.66717753  0.76876759  0.56276886  1
  F  F12  1  0.89693096  0.04768676  0.22053033  1
  F  F13  1  0.10306904  0.95231324  0.77946967  1
  F  F14  1  0.60306904  0.54768676  0.27946967  1
  F  F15  1  0.39693096  0.45231324  0.72053033  1
  F  F16  1  0.27435561  0.17432377  0.04567261  1
  F  F17  1  0.72564439  0.82567623  0.95432739  1
  F  F18  1  0.22564439  0.67432377  0.45432739  1
  F  F19  1  0.77435561  0.32567623  0.54567261  1
