# generated using pymatgen
data_K3Zr6BeCl15
_symmetry_space_group_name_H-M   'P 1'
_cell_length_a   10.13996171
_cell_length_b   10.13996171
_cell_length_c   14.33320817
_cell_angle_alpha   87.73780745
_cell_angle_beta   87.73780745
_cell_angle_gamma   69.55381137
_symmetry_Int_Tables_number   1
_chemical_formula_structural   K3Zr6BeCl15
_chemical_formula_sum   'K6 Zr12 Be2 Cl30'
_cell_volume   1379.28459572
_cell_formula_units_Z   2
loop_
 _symmetry_equiv_pos_site_id
 _symmetry_equiv_pos_as_xyz
  1  'x, y, z'
loop_
 _atom_site_type_symbol
 _atom_site_label
 _atom_site_symmetry_multiplicity
 _atom_site_fract_x
 _atom_site_fract_y
 _atom_site_fract_z
 _atom_site_occupancy
  K  K0  1  0.06192177  0.93807823  0.75000000  1
  K  K1  1  0.93807823  0.06192177  0.25000000  1
  K  K2  1  0.35894055  0.86788677  0.43202041  1
  K  K3  1  0.64105945  0.13211323  0.56797959  1
  K  K4  1  0.13211323  0.64105945  0.06797959  1
  K  K5  1  0.86788677  0.35894055  0.93202041  1
  Zr  Zr6  1  0.45288932  0.15177249  0.86592742  1
  Zr  Zr7  1  0.54711068  0.84822751  0.13407258  1
  Zr  Zr8  1  0.84822751  0.54711068  0.63407258  1
  Zr  Zr9  1  0.15177249  0.45288932  0.36592742  1
  Zr  Zr10  1  0.72990062  0.00121009  0.99869089  1
  Zr  Zr11  1  0.27009938  0.99878991  0.00130911  1
  Zr  Zr12  1  0.99878991  0.27009938  0.50130911  1
  Zr  Zr13  1  0.00121009  0.72990062  0.49869089  1
  Zr  Zr14  1  0.57499836  0.80234218  0.90282236  1
  Zr  Zr15  1  0.42500164  0.19765782  0.09717764  1
  Zr  Zr16  1  0.19765782  0.42500164  0.59717764  1
  Zr  Zr17  1  0.80234218  0.57499836  0.40282236  1
  Be  Be18  1  0.50000000  0.00000000  -0.00000000  1
  Be  Be19  1  0.00000000  0.50000000  0.50000000  1
  Cl  Cl20  1  0.70925762  0.15715846  0.84952343  1
  Cl  Cl21  1  0.29074238  0.84284154  0.15047657  1
  Cl  Cl22  1  0.84284154  0.29074238  0.65047657  1
  Cl  Cl23  1  0.15715846  0.70925762  0.34952343  1
  Cl  Cl24  1  0.42173561  0.32864723  0.71075962  1
  Cl  Cl25  1  0.57826439  0.67135277  0.28924038  1
  Cl  Cl26  1  0.67135277  0.57826439  0.78924038  1
  Cl  Cl27  1  0.32864723  0.42173561  0.21075962  1
  Cl  Cl28  1  0.32480358  0.77966641  0.89800989  1
  Cl  Cl29  1  0.67519642  0.22033359  0.10199011  1
  Cl  Cl30  1  0.22033359  0.67519642  0.60199011  1
  Cl  Cl31  1  0.77966641  0.32480358  0.39800989  1
  Cl  Cl32  1  0.51827004  0.95148915  0.74858917  1
  Cl  Cl33  1  0.48172996  0.04851085  0.25141083  1
  Cl  Cl34  1  0.04851085  0.48172996  0.75141083  1
  Cl  Cl35  1  0.95148915  0.51827004  0.24858917  1
  Cl  Cl36  1  0.38122473  0.36776967  0.45959865  1
  Cl  Cl37  1  0.61877527  0.63223033  0.54040135  1
  Cl  Cl38  1  0.63223033  0.61877527  0.04040135  1
  Cl  Cl39  1  0.36776967  0.38122473  0.95959865  1
  Cl  Cl40  1  0.19361447  0.15827331  0.85427287  1
  Cl  Cl41  1  0.80638553  0.84172669  0.14572713  1
  Cl  Cl42  1  0.84172669  0.80638553  0.64572713  1
  Cl  Cl43  1  0.15827331  0.19361447  0.35427287  1
  Cl  Cl44  1  0.21915567  0.16018717  0.60076850  1
  Cl  Cl45  1  0.78084433  0.83981283  0.39923150  1
  Cl  Cl46  1  0.83981283  0.78084433  0.89923150  1
  Cl  Cl47  1  0.16018717  0.21915567  0.10076850  1
  Cl  Cl48  1  0.00000000  0.00000000  -0.00000000  1
  Cl  Cl49  1  0.00000000  0.00000000  0.50000000  1
