# generated using pymatgen
data_K2RbHoV2O8
_symmetry_space_group_name_H-M   'P 1'
_cell_length_a   6.01606348
_cell_length_b   6.01606348
_cell_length_c   7.81323221
_cell_angle_alpha   90.00000000
_cell_angle_beta   90.00000000
_cell_angle_gamma   120.00000286
_symmetry_Int_Tables_number   1
_chemical_formula_structural   K2RbHoV2O8
_chemical_formula_sum   'K2 Rb1 Ho1 V2 O8'
_cell_volume   244.89852609
_cell_formula_units_Z   1
loop_
 _symmetry_equiv_pos_site_id
 _symmetry_equiv_pos_as_xyz
  1  'x, y, z'
loop_
 _atom_site_type_symbol
 _atom_site_label
 _atom_site_symmetry_multiplicity
 _atom_site_fract_x
 _atom_site_fract_y
 _atom_site_fract_z
 _atom_site_occupancy
  K  K0  1  0.66666700  0.33333300  0.29741113  1
  K  K1  1  0.33333300  0.66666700  0.70258887  1
  Rb  Rb2  1  0.00000000  0.00000000  -0.00000000  1
  Ho  Ho3  1  0.00000000  0.00000000  0.50000000  1
  V  V4  1  0.66666700  0.33333300  0.74808347  1
  V  V5  1  0.33333300  0.66666700  0.25191653  1
  O  O6  1  0.66666700  0.33333300  0.96402988  1
  O  O7  1  0.33333300  0.66666700  0.03597012  1
  O  O8  1  0.82608850  0.65217701  0.66994627  1
  O  O9  1  0.17391150  0.34782299  0.33005373  1
  O  O10  1  0.82608850  0.17391150  0.66994627  1
  O  O11  1  0.17391150  0.82608850  0.33005373  1
  O  O12  1  0.34782299  0.17391150  0.66994627  1
  O  O13  1  0.65217701  0.82608850  0.33005373  1
