# generated using pymatgen
data_La2Re3Si5
_symmetry_space_group_name_H-M   'P 1'
_cell_length_a   5.83869392
_cell_length_b   11.06376670
_cell_length_c   11.06376670
_cell_angle_alpha   90.00000000
_cell_angle_beta   90.00000000
_cell_angle_gamma   90.00000000
_symmetry_Int_Tables_number   1
_chemical_formula_structural   La2Re3Si5
_chemical_formula_sum   'La8 Re12 Si20'
_cell_volume   714.69661893
_cell_formula_units_Z   4
loop_
 _symmetry_equiv_pos_site_id
 _symmetry_equiv_pos_as_xyz
  1  'x, y, z'
loop_
 _atom_site_type_symbol
 _atom_site_label
 _atom_site_symmetry_multiplicity
 _atom_site_fract_x
 _atom_site_fract_y
 _atom_site_fract_z
 _atom_site_occupancy
  La  La0  1  -0.00000000  0.26186680  0.42564059  1
  La  La1  1  0.00000000  0.73813320  0.57435941  1
  La  La2  1  0.00000000  0.57435941  0.26186680  1
  La  La3  1  0.50000000  0.23813320  0.92564059  1
  La  La4  1  0.00000000  0.42564059  0.73813320  1
  La  La5  1  0.50000000  0.76186680  0.07435941  1
  La  La6  1  0.50000000  0.92564059  0.76186680  1
  La  La7  1  0.50000000  0.07435941  0.23813320  1
  Re  Re8  1  -0.00000000  0.14696305  0.12690977  1
  Re  Re9  1  0.00000000  0.85303695  0.87309023  1
  Re  Re10  1  0.00000000  0.87309023  0.14696305  1
  Re  Re11  1  0.50000000  0.35303695  0.62690977  1
  Re  Re12  1  0.00000000  0.12690977  0.85303695  1
  Re  Re13  1  0.50000000  0.64696305  0.37309023  1
  Re  Re14  1  0.50000000  0.62690977  0.64696305  1
  Re  Re15  1  0.50000000  0.37309023  0.35303695  1
  Re  Re16  1  0.25000000  -0.00000000  0.50000000  1
  Re  Re17  1  0.75000000  -0.00000000  0.50000000  1
  Re  Re18  1  0.25000000  0.50000000  0.00000000  1
  Re  Re19  1  0.75000000  0.50000000  0.00000000  1
  Si  Si20  1  0.00000000  0.01997091  0.31775746  1
  Si  Si21  1  0.00000000  0.98002909  0.68224254  1
  Si  Si22  1  0.00000000  0.68224254  0.01997091  1
  Si  Si23  1  0.50000000  0.48002909  0.81775746  1
  Si  Si24  1  0.00000000  0.31775746  0.98002909  1
  Si  Si25  1  0.50000000  0.51997091  0.18224254  1
  Si  Si26  1  0.50000000  0.81775746  0.51997091  1
  Si  Si27  1  0.50000000  0.18224254  0.48002909  1
  Si  Si28  1  0.25000000  0.17375282  0.67375282  1
  Si  Si29  1  0.75000000  0.82624718  0.32624718  1
  Si  Si30  1  0.25000000  0.82624718  0.32624718  1
  Si  Si31  1  0.25000000  0.32624718  0.17375282  1
  Si  Si32  1  0.75000000  0.17375282  0.67375282  1
  Si  Si33  1  0.75000000  0.67375282  0.82624718  1
  Si  Si34  1  0.25000000  0.67375282  0.82624718  1
  Si  Si35  1  0.75000000  0.32624718  0.17375282  1
  Si  Si36  1  0.22925465  -0.00000000  -0.00000000  1
  Si  Si37  1  0.77074535  -0.00000000  0.00000000  1
  Si  Si38  1  0.27074535  0.50000000  0.50000000  1
  Si  Si39  1  0.72925465  0.50000000  0.50000000  1
