# generated using pymatgen
data_Pr8Ni18P11
_symmetry_space_group_name_H-M   'P 1'
_cell_length_a   3.95137675
_cell_length_b   18.29737979
_cell_length_c   18.29737979
_cell_angle_alpha   120.00000140
_cell_angle_beta   90.00000000
_cell_angle_gamma   90.00000000
_symmetry_Int_Tables_number   1
_chemical_formula_structural   Pr8Ni18P11
_chemical_formula_sum   'Pr16 Ni36 P22'
_cell_volume   1145.66295597
_cell_formula_units_Z   2
loop_
 _symmetry_equiv_pos_site_id
 _symmetry_equiv_pos_as_xyz
  1  'x, y, z'
loop_
 _atom_site_type_symbol
 _atom_site_label
 _atom_site_symmetry_multiplicity
 _atom_site_fract_x
 _atom_site_fract_y
 _atom_site_fract_z
 _atom_site_occupancy
  Pr  Pr0  1  0.50000000  0.52294444  0.04588887  1
  Pr  Pr1  1  0.50000000  0.52294444  0.47705556  1
  Pr  Pr2  1  0.50000000  0.95411113  0.47705556  1
  Pr  Pr3  1  0.50000000  0.73964188  0.47928375  1
  Pr  Pr4  1  0.50000000  0.73964188  0.26035812  1
  Pr  Pr5  1  0.50000000  0.52071625  0.26035812  1
  Pr  Pr6  1  0.00000000  0.22097869  0.44195738  1
  Pr  Pr7  1  0.00000000  0.22097869  0.77902131  1
  Pr  Pr8  1  -0.00000000  0.55804262  0.77902131  1
  Pr  Pr9  1  0.00000000  0.99870426  0.21768551  1
  Pr  Pr10  1  -0.00000000  0.21898125  0.00129574  1
  Pr  Pr11  1  -0.00000000  0.21898125  0.21768551  1
  Pr  Pr12  1  0.00000000  0.78231449  0.78101875  1
  Pr  Pr13  1  0.00000000  0.78231449  0.00129574  1
  Pr  Pr14  1  -0.00000000  0.99870426  0.78101875  1
  Pr  Pr15  1  0.00000000  -0.00000000  0.00000000  1
  Ni  Ni16  1  0.50000000  0.29005910  0.58011820  1
  Ni  Ni17  1  0.50000000  0.29005910  0.70994090  1
  Ni  Ni18  1  0.50000000  0.41988180  0.70994090  1
  Ni  Ni19  1  0.50000000  0.92397017  0.29450106  1
  Ni  Ni20  1  0.50000000  0.37053089  0.07602983  1
  Ni  Ni21  1  0.50000000  0.37053089  0.29450106  1
  Ni  Ni22  1  0.50000000  0.70549894  0.62946911  1
  Ni  Ni23  1  0.50000000  0.70549894  0.07602983  1
  Ni  Ni24  1  0.50000000  0.92397017  0.62946911  1
  Ni  Ni25  1  0.00000000  0.59881019  0.63027678  1
  Ni  Ni26  1  -0.00000000  0.03146659  0.40118981  1
  Ni  Ni27  1  -0.00000000  0.03146659  0.63027678  1
  Ni  Ni28  1  0.00000000  0.36972322  0.96853341  1
  Ni  Ni29  1  0.00000000  0.36972322  0.40118981  1
  Ni  Ni30  1  0.00000000  0.59881019  0.96853341  1
  Ni  Ni31  1  -0.00000000  0.81595485  0.63190969  1
  Ni  Ni32  1  -0.00000000  0.81595485  0.18404515  1
  Ni  Ni33  1  0.00000000  0.36809031  0.18404515  1
  Ni  Ni34  1  -0.00000000  0.59402644  0.18805287  1
  Ni  Ni35  1  -0.00000000  0.59402644  0.40597356  1
  Ni  Ni36  1  0.00000000  0.81194713  0.40597356  1
  Ni  Ni37  1  0.50000000  0.92671322  0.85342644  1
  Ni  Ni38  1  0.50000000  0.92671322  0.07328678  1
  Ni  Ni39  1  0.50000000  0.14657356  0.07328678  1
  Ni  Ni40  1  0.50000000  0.50160762  0.63116072  1
  Ni  Ni41  1  0.50000000  0.12955309  0.49839238  1
  Ni  Ni42  1  0.50000000  0.12955309  0.63116072  1
  Ni  Ni43  1  0.50000000  0.36883928  0.87044691  1
  Ni  Ni44  1  0.50000000  0.36883928  0.49839238  1
  Ni  Ni45  1  0.50000000  0.50160762  0.87044691  1
  Ni  Ni46  1  0.00000000  0.38316111  0.76632221  1
  Ni  Ni47  1  0.00000000  0.38316111  0.61683889  1
  Ni  Ni48  1  -0.00000000  0.23367779  0.61683889  1
  Ni  Ni49  1  0.50000000  0.14556651  0.29113301  1
  Ni  Ni50  1  0.50000000  0.14556651  0.85443349  1
  Ni  Ni51  1  0.50000000  0.70886699  0.85443349  1
  P  P52  1  0.00000000  0.66666700  0.33333300  1
  P  P53  1  0.50000000  0.85421273  0.70842546  1
  P  P54  1  0.50000000  0.85421273  0.14578727  1
  P  P55  1  0.50000000  0.29157454  0.14578727  1
  P  P56  1  -0.00000000  0.88332091  0.33236747  1
  P  P57  1  -0.00000000  0.44904656  0.11667909  1
  P  P58  1  0.00000000  0.44904656  0.33236747  1
  P  P59  1  0.00000000  0.66763253  0.55095344  1
  P  P60  1  0.00000000  0.66763253  0.11667909  1
  P  P61  1  -0.00000000  0.88332091  0.55095344  1
  P  P62  1  0.00000000  0.45130519  0.90261039  1
  P  P63  1  0.00000000  0.45130519  0.54869481  1
  P  P64  1  -0.00000000  0.09738961  0.54869481  1
  P  P65  1  0.50000000  0.64086640  0.71215261  1
  P  P66  1  0.50000000  0.07128621  0.35913360  1
  P  P67  1  0.50000000  0.07128621  0.71215261  1
  P  P68  1  0.50000000  0.28784739  0.92871379  1
  P  P69  1  0.50000000  0.28784739  0.35913360  1
  P  P70  1  0.50000000  0.64086640  0.92871379  1
  P  P71  1  0.50000000  0.07243479  0.14486958  1
  P  P72  1  0.50000000  0.07243479  0.92756521  1
  P  P73  1  0.50000000  0.85513042  0.92756521  1
