# generated using pymatgen
data_InNiAg2F7
_symmetry_space_group_name_H-M   'P 1'
_cell_length_a   7.59559944
_cell_length_b   7.73886946
_cell_length_c   7.73886946
_cell_angle_alpha   61.29365720
_cell_angle_beta   60.61053650
_cell_angle_gamma   60.61053650
_symmetry_Int_Tables_number   1
_chemical_formula_structural   InNiAg2F7
_chemical_formula_sum   'In2 Ni2 Ag4 F14'
_cell_volume   327.71335980
_cell_formula_units_Z   2
loop_
 _symmetry_equiv_pos_site_id
 _symmetry_equiv_pos_as_xyz
  1  'x, y, z'
loop_
 _atom_site_type_symbol
 _atom_site_label
 _atom_site_symmetry_multiplicity
 _atom_site_fract_x
 _atom_site_fract_y
 _atom_site_fract_z
 _atom_site_occupancy
  In  In0  1  0.24982718  0.11228569  0.38805995  1
  In  In1  1  0.75017282  0.61194005  0.88771431  1
  Ni  Ni2  1  0.25012301  0.11247442  0.88752558  1
  Ni  Ni3  1  0.74987699  0.11247442  0.88752558  1
  Ag  Ag4  1  0.24770914  0.61544312  0.88913861  1
  Ag  Ag5  1  0.75229086  0.11086139  0.38455688  1
  Ag  Ag6  1  0.25087083  0.61241970  0.38758030  1
  Ag  Ag7  1  0.74912917  0.61241970  0.38758030  1
  F  F8  1  0.35040966  0.78053384  0.51864684  1
  F  F9  1  0.64959034  0.48135316  0.21946616  1
  F  F10  1  0.57483971  0.06230904  0.19902289  1
  F  F11  1  0.42516029  0.80097711  0.93769096  1
  F  F12  1  0.83617164  0.80097711  0.93769096  1
  F  F13  1  0.16382836  0.06230904  0.19902289  1
  F  F14  1  0.33779063  0.16165523  0.57616933  1
  F  F15  1  0.66220937  0.42383067  0.83834477  1
  F  F16  1  0.07561519  0.42383067  0.83834477  1
  F  F17  1  0.92438481  0.16165523  0.57616933  1
  F  F18  1  0.00000000  0.03401098  0.96598902  1
  F  F19  1  0.14856331  0.44421949  0.25865389  1
  F  F20  1  0.85143669  0.74134611  0.55578051  1
  F  F21  1  0.50000000  0.19017383  0.80982617  1
