# generated using pymatgen
data_Mn9Zn2O13
_symmetry_space_group_name_H-M   'P 1'
_cell_length_a   3.04985814
_cell_length_b   5.31755629
_cell_length_c   17.27855795
_cell_angle_alpha   97.95238379
_cell_angle_beta   90.36958897
_cell_angle_gamma   105.24838092
_symmetry_Int_Tables_number   1
_chemical_formula_structural   Mn9Zn2O13
_chemical_formula_sum   'Mn9 Zn2 O13'
_cell_volume   267.48574211
_cell_formula_units_Z   1
loop_
 _symmetry_equiv_pos_site_id
 _symmetry_equiv_pos_as_xyz
  1  'x, y, z'
loop_
 _atom_site_type_symbol
 _atom_site_label
 _atom_site_symmetry_multiplicity
 _atom_site_fract_x
 _atom_site_fract_y
 _atom_site_fract_z
 _atom_site_occupancy
  Mn  Mn0  1  0.50000000  0.00000000  0.50000000  1
  Mn  Mn1  1  0.64607807  0.29218094  0.04090365  1
  Mn  Mn2  1  0.35392193  0.70781906  0.95909635  1
  Mn  Mn3  1  0.75145589  0.49938208  0.41642119  1
  Mn  Mn4  1  0.24854411  0.50061792  0.58357881  1
  Mn  Mn5  1  0.94101117  0.87195802  0.12837192  1
  Mn  Mn6  1  0.05898883  0.12804198  0.87162808  1
  Mn  Mn7  1  0.99506980  0.98343237  0.32812067  1
  Mn  Mn8  1  0.00493020  0.01656763  0.67187933  1
  Zn  Zn9  1  0.22784990  0.43638293  0.22818048  1
  Zn  Zn10  1  0.77215010  0.56361707  0.77181952  1
  O  O11  1  -0.00000000  0.00000000  -0.00000000  1
  O  O12  1  0.85221534  0.70129163  0.22918051  1
  O  O13  1  0.14778466  0.29870837  0.77081949  1
  O  O14  1  0.29974702  0.59303903  0.06562431  1
  O  O15  1  0.70025298  0.40696097  0.93437569  1
  O  O16  1  0.58680957  0.17437402  0.14304463  1
  O  O17  1  0.41319043  0.82562598  0.85695537  1
  O  O18  1  0.62330836  0.25411763  0.31066025  1
  O  O19  1  0.37669164  0.74588237  0.68933975  1
  O  O20  1  0.39388695  0.78774589  0.39354296  1
  O  O21  1  0.60611305  0.21225411  0.60645704  1
  O  O22  1  0.13526855  0.25799659  0.46592157  1
  O  O23  1  0.86473145  0.74200341  0.53407843  1
