# generated using pymatgen
data_KEuF4
_symmetry_space_group_name_H-M   'P 1'
_cell_length_a   3.71616694
_cell_length_b   6.30290169
_cell_length_c   15.72274716
_cell_angle_alpha   90.00000000
_cell_angle_beta   90.00000000
_cell_angle_gamma   90.00000000
_symmetry_Int_Tables_number   1
_chemical_formula_structural   KEuF4
_chemical_formula_sum   'K4 Eu4 F16'
_cell_volume   368.26816614
_cell_formula_units_Z   4
loop_
 _symmetry_equiv_pos_site_id
 _symmetry_equiv_pos_as_xyz
  1  'x, y, z'
loop_
 _atom_site_type_symbol
 _atom_site_label
 _atom_site_symmetry_multiplicity
 _atom_site_fract_x
 _atom_site_fract_y
 _atom_site_fract_z
 _atom_site_occupancy
  K  K0  1  0.75000000  0.77575640  0.79921125  1
  K  K1  1  0.25000000  0.22424360  0.20078875  1
  K  K2  1  0.25000000  0.72424360  0.29921125  1
  K  K3  1  0.75000000  0.27575640  0.70078875  1
  Eu  Eu4  1  0.75000000  0.24882680  0.43902349  1
  Eu  Eu5  1  0.25000000  0.75117320  0.56097651  1
  Eu  Eu6  1  0.25000000  0.25117320  0.93902349  1
  Eu  Eu7  1  0.75000000  0.74882680  0.06097651  1
  F  F8  1  0.75000000  0.89299322  0.63501091  1
  F  F9  1  0.25000000  0.10700678  0.36498909  1
  F  F10  1  0.25000000  0.60700678  0.13501091  1
  F  F11  1  0.75000000  0.39299322  0.86498909  1
  F  F12  1  0.75000000  0.86583257  0.46360410  1
  F  F13  1  0.25000000  0.13416743  0.53639590  1
  F  F14  1  0.25000000  0.63416743  0.96360410  1
  F  F15  1  0.75000000  0.36583257  0.03639590  1
  F  F16  1  0.75000000  0.99720736  0.94200810  1
  F  F17  1  0.25000000  0.00279264  0.05799190  1
  F  F18  1  0.25000000  0.50279264  0.44200810  1
  F  F19  1  0.75000000  0.49720736  0.55799190  1
  F  F20  1  0.75000000  0.91057595  0.19292607  1
  F  F21  1  0.25000000  0.08942405  0.80707393  1
  F  F22  1  0.25000000  0.58942405  0.69292607  1
  F  F23  1  0.75000000  0.41057595  0.30707393  1
