# generated using pymatgen
data_K2MnI4
_symmetry_space_group_name_H-M   'P 1'
_cell_length_a   8.07318325
_cell_length_b   8.36149012
_cell_length_c   9.86922897
_cell_angle_alpha   90.00000000
_cell_angle_beta   107.96442520
_cell_angle_gamma   90.00000000
_symmetry_Int_Tables_number   1
_chemical_formula_structural   K2MnI4
_chemical_formula_sum   'K4 Mn2 I8'
_cell_volume   633.73189461
_cell_formula_units_Z   2
loop_
 _symmetry_equiv_pos_site_id
 _symmetry_equiv_pos_as_xyz
  1  'x, y, z'
loop_
 _atom_site_type_symbol
 _atom_site_label
 _atom_site_symmetry_multiplicity
 _atom_site_fract_x
 _atom_site_fract_y
 _atom_site_fract_z
 _atom_site_occupancy
  K  K0  1  0.21922785  0.25000000  0.55165664  1
  K  K1  1  0.78077215  0.75000000  0.44834336  1
  K  K2  1  0.26567879  0.25000000  0.06784151  1
  K  K3  1  0.73432121  0.75000000  0.93215849  1
  Mn  Mn4  1  0.77443665  0.25000000  0.69960855  1
  Mn  Mn5  1  0.22556335  0.75000000  0.30039145  1
  I  I6  1  0.59526936  0.25000000  0.42154247  1
  I  I7  1  0.40473064  0.75000000  0.57845753  1
  I  I8  1  0.00502425  0.00193076  0.23970904  1
  I  I9  1  0.99497575  0.99806924  0.76029096  1
  I  I10  1  0.99497575  0.50193076  0.76029096  1
  I  I11  1  0.00502425  0.49806924  0.23970904  1
  I  I12  1  0.57568686  0.25000000  0.87359581  1
  I  I13  1  0.42431314  0.75000000  0.12640419  1
