# generated using pymatgen
data_KAgTeS3
_symmetry_space_group_name_H-M   'P 1'
_cell_length_a   7.47139027
_cell_length_b   8.66803003
_cell_length_c   10.94271894
_cell_angle_alpha   90.00000000
_cell_angle_beta   90.00000000
_cell_angle_gamma   106.33923709
_symmetry_Int_Tables_number   1
_chemical_formula_structural   KAgTeS3
_chemical_formula_sum   'K4 Ag4 Te4 S12'
_cell_volume   680.05358587
_cell_formula_units_Z   4
loop_
 _symmetry_equiv_pos_site_id
 _symmetry_equiv_pos_as_xyz
  1  'x, y, z'
loop_
 _atom_site_type_symbol
 _atom_site_label
 _atom_site_symmetry_multiplicity
 _atom_site_fract_x
 _atom_site_fract_y
 _atom_site_fract_z
 _atom_site_occupancy
  K  K0  1  0.47479628  0.61566549  0.74856160  1
  K  K1  1  0.52520372  0.38433451  0.25143840  1
  K  K2  1  0.52520372  0.88433451  0.24856160  1
  K  K3  1  0.47479628  0.11566549  0.75143840  1
  Ag  Ag4  1  0.91956628  0.98071593  0.75146665  1
  Ag  Ag5  1  0.08043372  0.01928407  0.24853335  1
  Ag  Ag6  1  0.08043372  0.51928407  0.25146665  1
  Ag  Ag7  1  0.91956628  0.48071593  0.74853335  1
  Te  Te8  1  0.91366950  0.72771929  0.00515234  1
  Te  Te9  1  0.08633050  0.27228071  0.99484766  1
  Te  Te10  1  0.08633050  0.77228071  0.50515234  1
  Te  Te11  1  0.91366950  0.22771929  0.49484766  1
  S  S12  1  0.73067877  0.96660314  0.55409566  1
  S  S13  1  0.26932123  0.03339686  0.44590434  1
  S  S14  1  0.26932123  0.53339686  0.05409566  1
  S  S15  1  0.73067877  0.46660314  0.94590434  1
  S  S16  1  0.86167354  0.71648411  0.22357391  1
  S  S17  1  0.13832646  0.28351589  0.77642609  1
  S  S18  1  0.13832646  0.78351589  0.72357391  1
  S  S19  1  0.86167354  0.21648411  0.27642609  1
  S  S20  1  0.72221732  0.89362981  0.94541865  1
  S  S21  1  0.27778268  0.10637019  0.05458135  1
  S  S22  1  0.27778268  0.60637019  0.44541865  1
  S  S23  1  0.72221732  0.39362981  0.55458135  1
