# generated using pymatgen
data_K2SmCl5
_symmetry_space_group_name_H-M   'P 1'
_cell_length_a   8.13926574
_cell_length_b   8.67824042
_cell_length_c   13.12512965
_cell_angle_alpha   90.00000000
_cell_angle_beta   90.00000000
_cell_angle_gamma   90.00000000
_symmetry_Int_Tables_number   1
_chemical_formula_structural   K2SmCl5
_chemical_formula_sum   'K8 Sm4 Cl20'
_cell_volume   927.08703502
_cell_formula_units_Z   4
loop_
 _symmetry_equiv_pos_site_id
 _symmetry_equiv_pos_as_xyz
  1  'x, y, z'
loop_
 _atom_site_type_symbol
 _atom_site_label
 _atom_site_symmetry_multiplicity
 _atom_site_fract_x
 _atom_site_fract_y
 _atom_site_fract_z
 _atom_site_occupancy
  K  K0  1  0.96662225  0.99984624  0.67435353  1
  K  K1  1  0.03337775  0.00015376  0.32564647  1
  K  K2  1  0.46662225  0.00015376  0.82564647  1
  K  K3  1  0.03337775  0.49984624  0.32564647  1
  K  K4  1  0.53337775  0.99984624  0.17435353  1
  K  K5  1  0.96662225  0.50015376  0.67435353  1
  K  K6  1  0.53337775  0.50015376  0.17435353  1
  K  K7  1  0.46662225  0.49984624  0.82564647  1
  Sm  Sm8  1  0.92447517  0.75000000  0.99660941  1
  Sm  Sm9  1  0.07552483  0.25000000  0.00339059  1
  Sm  Sm10  1  0.42447517  0.25000000  0.50339059  1
  Sm  Sm11  1  0.57552483  0.75000000  0.49660941  1
  Cl  Cl12  1  0.67163894  0.75000000  0.69823688  1
  Cl  Cl13  1  0.32836106  0.25000000  0.30176312  1
  Cl  Cl14  1  0.17163894  0.25000000  0.80176312  1
  Cl  Cl15  1  0.82836106  0.75000000  0.19823688  1
  Cl  Cl16  1  0.13729579  0.75000000  0.83327469  1
  Cl  Cl17  1  0.86270421  0.25000000  0.16672531  1
  Cl  Cl18  1  0.63729579  0.25000000  0.66672531  1
  Cl  Cl19  1  0.36270421  0.75000000  0.33327469  1
  Cl  Cl20  1  0.58538448  0.75000000  0.98854183  1
  Cl  Cl21  1  0.41461552  0.25000000  0.01145817  1
  Cl  Cl22  1  0.08538448  0.25000000  0.51145817  1
  Cl  Cl23  1  0.91461552  0.75000000  0.48854183  1
  Cl  Cl24  1  0.84608248  0.45966432  0.91783995  1
  Cl  Cl25  1  0.15391752  0.54033568  0.08216005  1
  Cl  Cl26  1  0.34608248  0.54033568  0.58216005  1
  Cl  Cl27  1  0.15391752  0.95966432  0.08216005  1
  Cl  Cl28  1  0.65391752  0.45966432  0.41783995  1
  Cl  Cl29  1  0.84608248  0.04033568  0.91783995  1
  Cl  Cl30  1  0.65391752  0.04033568  0.41783995  1
  Cl  Cl31  1  0.34608248  0.95966432  0.58216005  1
