# generated using pymatgen
data_La4CdNi
_symmetry_space_group_name_H-M   'P 1'
_cell_length_a   10.05989913
_cell_length_b   10.05989913
_cell_length_c   10.05989913
_cell_angle_alpha   60.00000000
_cell_angle_beta   60.00000000
_cell_angle_gamma   60.00000000
_symmetry_Int_Tables_number   1
_chemical_formula_structural   La4CdNi
_chemical_formula_sum   'La16 Cd4 Ni4'
_cell_volume   719.88956756
_cell_formula_units_Z   4
loop_
 _symmetry_equiv_pos_site_id
 _symmetry_equiv_pos_as_xyz
  1  'x, y, z'
loop_
 _atom_site_type_symbol
 _atom_site_label
 _atom_site_symmetry_multiplicity
 _atom_site_fract_x
 _atom_site_fract_y
 _atom_site_fract_z
 _atom_site_occupancy
  La  La0  1  0.65345932  0.65345932  0.65345932  1
  La  La1  1  0.03962203  0.65345932  0.65345932  1
  La  La2  1  0.65345932  0.03962203  0.65345932  1
  La  La3  1  0.65345932  0.65345932  0.03962203  1
  La  La4  1  0.80987697  0.80987697  0.19012303  1
  La  La5  1  0.19012303  0.19012303  0.80987697  1
  La  La6  1  0.80987697  0.19012303  0.80987697  1
  La  La7  1  0.19012303  0.80987697  0.19012303  1
  La  La8  1  0.19012303  0.80987697  0.80987697  1
  La  La9  1  0.80987697  0.19012303  0.19012303  1
  La  La10  1  0.43676523  0.43676523  0.06323477  1
  La  La11  1  0.06323477  0.06323477  0.43676523  1
  La  La12  1  0.43676523  0.06323477  0.43676523  1
  La  La13  1  0.06323477  0.43676523  0.06323477  1
  La  La14  1  0.06323477  0.43676523  0.43676523  1
  La  La15  1  0.43676523  0.06323477  0.06323477  1
  Cd  Cd16  1  0.42078036  0.42078036  0.42078036  1
  Cd  Cd17  1  0.73765891  0.42078036  0.42078036  1
  Cd  Cd18  1  0.42078036  0.73765891  0.42078036  1
  Cd  Cd19  1  0.42078036  0.42078036  0.73765891  1
  Ni  Ni20  1  0.85888046  0.85888046  0.85888046  1
  Ni  Ni21  1  0.42335861  0.85888046  0.85888046  1
  Ni  Ni22  1  0.85888046  0.42335861  0.85888046  1
  Ni  Ni23  1  0.85888046  0.85888046  0.42335861  1
