# generated using pymatgen
data_Na3Mn5(Ge3O10)2
_symmetry_space_group_name_H-M   'P 1'
_cell_length_a   9.33694167
_cell_length_b   10.34646997
_cell_length_c   10.73783019
_cell_angle_alpha   65.48971954
_cell_angle_beta   84.17982389
_cell_angle_gamma   65.14829450
_symmetry_Int_Tables_number   1
_chemical_formula_structural   Na3Mn5(Ge3O10)2
_chemical_formula_sum   'Na6 Mn10 Ge12 O40'
_cell_volume   853.09454955
_cell_formula_units_Z   2
loop_
 _symmetry_equiv_pos_site_id
 _symmetry_equiv_pos_as_xyz
  1  'x, y, z'
loop_
 _atom_site_type_symbol
 _atom_site_label
 _atom_site_symmetry_multiplicity
 _atom_site_fract_x
 _atom_site_fract_y
 _atom_site_fract_z
 _atom_site_occupancy
  Na  Na0  1  0.38326126  0.37014685  0.42127731  1
  Na  Na1  1  0.61673874  0.62985315  0.57872269  1
  Na  Na2  1  0.62671915  0.61179770  0.05129142  1
  Na  Na3  1  0.37328085  0.38820230  0.94870858  1
  Na  Na4  1  0.05926227  0.06224130  0.84584999  1
  Na  Na5  1  0.94073773  0.93775870  0.15415001  1
  Mn  Mn6  1  0.15953089  0.17672992  0.04780143  1
  Mn  Mn7  1  0.84046911  0.82327008  0.95219857  1
  Mn  Mn8  1  0.06173985  0.05252398  0.34639797  1
  Mn  Mn9  1  0.93826015  0.94747602  0.65360203  1
  Mn  Mn10  1  0.17706334  0.15253907  0.53854145  1
  Mn  Mn11  1  0.82293666  0.84746093  0.46145855  1
  Mn  Mn12  1  -0.00000000  0.50000000  0.50000000  1
  Mn  Mn13  1  0.26796949  0.27102192  0.73901348  1
  Mn  Mn14  1  0.73203051  0.72897808  0.26098652  1
  Mn  Mn15  1  0.50000000  0.00000000  0.00000000  1
  Ge  Ge16  1  0.44027037  0.05268090  0.30274367  1
  Ge  Ge17  1  0.55972963  0.94731910  0.69725633  1
  Ge  Ge18  1  0.34808589  0.76787118  0.25558722  1
  Ge  Ge19  1  0.65191411  0.23212882  0.74441278  1
  Ge  Ge20  1  0.04842574  0.43766393  0.20053472  1
  Ge  Ge21  1  0.95157426  0.56233607  0.79946528  1
  Ge  Ge22  1  0.66545610  0.23207929  0.23883982  1
  Ge  Ge23  1  0.33454390  0.76792071  0.76116018  1
  Ge  Ge24  1  0.24119142  0.65611044  0.55714155  1
  Ge  Ge25  1  0.75880858  0.34388956  0.44285845  1
  Ge  Ge26  1  0.21948272  0.65958837  0.06663649  1
  Ge  Ge27  1  0.78051728  0.34041163  0.93336351  1
  O  O28  1  0.28385760  0.04730812  0.40699924  1
  O  O29  1  0.71614240  0.95269188  0.59300076  1
  O  O30  1  0.28267725  0.07935592  0.92902881  1
  O  O31  1  0.71732275  0.92064408  0.07097119  1
  O  O32  1  0.38653140  0.11669958  0.12265509  1
  O  O33  1  0.61346860  0.88330042  0.87734491  1
  O  O34  1  0.38827968  0.68073635  0.43814806  1
  O  O35  1  0.61172032  0.31926365  0.56185194  1
  O  O36  1  0.04728800  0.27769927  0.17473551  1
  O  O37  1  0.95271200  0.72230073  0.82526449  1
  O  O38  1  0.10952082  0.38723897  0.37313904  1
  O  O39  1  0.89047918  0.61276103  0.62686096  1
  O  O40  1  0.08549321  0.29011501  0.64918668  1
  O  O41  1  0.91450679  0.70988499  0.35081332  1
  O  O42  1  0.13310563  0.39281423  0.86308809  1
  O  O43  1  0.86689437  0.60718577  0.13691191  1
  O  O44  1  0.66083601  0.38020996  0.28709310  1
  O  O45  1  0.33916399  0.61979004  0.71290690  1
  O  O46  1  0.63168601  0.33328666  0.05434009  1
  O  O47  1  0.36831399  0.66671334  0.94565991  1
  O  O48  1  0.22603120  0.48831244  0.57008789  1
  O  O49  1  0.77396880  0.51168756  0.42991211  1
  O  O50  1  0.52143203  0.77447172  0.17507849  1
  O  O51  1  0.47856797  0.22552828  0.82492151  1
  O  O52  1  0.31090081  0.62717516  0.22125599  1
  O  O53  1  0.68909919  0.37282484  0.77874401  1
  O  O54  1  0.18030977  0.94535823  0.20822406  1
  O  O55  1  0.81969023  0.05464177  0.79177594  1
  O  O56  1  0.04297561  0.82498983  0.00767740  1
  O  O57  1  0.95702439  0.17501017  0.99232260  1
  O  O58  1  0.83524277  0.05837607  0.29873793  1
  O  O59  1  0.16475723  0.94162393  0.70126207  1
  O  O60  1  0.38933717  0.12692703  0.63356339  1
  O  O61  1  0.61066283  0.87307297  0.36643661  1
  O  O62  1  0.49104915  0.20585313  0.29942697  1
  O  O63  1  0.50895085  0.79414687  0.70057303  1
  O  O64  1  0.06362459  0.82940051  0.51338811  1
  O  O65  1  0.93637541  0.17059949  0.48661189  1
  O  O66  1  0.20256011  0.48408180  0.09933594  1
  O  O67  1  0.79743989  0.51591820  0.90066406  1
