# generated using pymatgen
data_K2FeI4
_symmetry_space_group_name_H-M   'P 1'
_cell_length_a   7.94929072
_cell_length_b   8.22221863
_cell_length_c   9.78340112
_cell_angle_alpha   90.00000000
_cell_angle_beta   108.20383734
_cell_angle_gamma   90.00000000
_symmetry_Int_Tables_number   1
_chemical_formula_structural   K2FeI4
_chemical_formula_sum   'K4 Fe2 I8'
_cell_volume   607.44718624
_cell_formula_units_Z   2
loop_
 _symmetry_equiv_pos_site_id
 _symmetry_equiv_pos_as_xyz
  1  'x, y, z'
loop_
 _atom_site_type_symbol
 _atom_site_label
 _atom_site_symmetry_multiplicity
 _atom_site_fract_x
 _atom_site_fract_y
 _atom_site_fract_z
 _atom_site_occupancy
  K  K0  1  0.21862962  0.25000000  0.55156500  1
  K  K1  1  0.78137038  0.75000000  0.44843500  1
  K  K2  1  0.26803270  0.25000000  0.06802968  1
  K  K3  1  0.73196730  0.75000000  0.93197032  1
  Fe  Fe4  1  0.77618728  0.25000000  0.70094551  1
  Fe  Fe5  1  0.22381272  0.75000000  0.29905449  1
  I  I6  1  0.60035768  0.25000000  0.42508202  1
  I  I7  1  0.39964232  0.75000000  0.57491798  1
  I  I8  1  0.00623589  0.00175605  0.23967310  1
  I  I9  1  0.99376411  0.99824395  0.76032690  1
  I  I10  1  0.99376411  0.50175605  0.76032690  1
  I  I11  1  0.00623589  0.49824395  0.23967310  1
  I  I12  1  0.57974513  0.25000000  0.87259800  1
  I  I13  1  0.42025487  0.75000000  0.12740200  1
