# generated using pymatgen
data_K3YCl6
_symmetry_space_group_name_H-M   'P 1'
_cell_length_a   7.84140228
_cell_length_b   13.24882886
_cell_length_c   12.72162174
_cell_angle_alpha   108.64838497
_cell_angle_beta   90.00000000
_cell_angle_gamma   90.00000000
_symmetry_Int_Tables_number   1
_chemical_formula_structural   K3YCl6
_chemical_formula_sum   'K12 Y4 Cl24'
_cell_volume   1252.25373070
_cell_formula_units_Z   4
loop_
 _symmetry_equiv_pos_site_id
 _symmetry_equiv_pos_as_xyz
  1  'x, y, z'
loop_
 _atom_site_type_symbol
 _atom_site_label
 _atom_site_symmetry_multiplicity
 _atom_site_fract_x
 _atom_site_fract_y
 _atom_site_fract_z
 _atom_site_occupancy
  K  K0  1  0.43585665  0.68443689  0.73322069  1
  K  K1  1  0.56414335  0.31556311  0.26677931  1
  K  K2  1  0.93585665  0.31556311  0.76677931  1
  K  K3  1  0.06414335  0.68443689  0.23322069  1
  K  K4  1  0.96661771  0.90174343  0.64164453  1
  K  K5  1  0.03338229  0.09825657  0.35835547  1
  K  K6  1  0.46661771  0.09825657  0.85835547  1
  K  K7  1  0.53338229  0.90174343  0.14164453  1
  K  K8  1  0.93368382  0.67918695  0.88716018  1
  K  K9  1  0.06631618  0.32081305  0.11283982  1
  K  K10  1  0.43368382  0.32081305  0.61283982  1
  K  K11  1  0.56631618  0.67918695  0.38716018  1
  Y  Y12  1  -0.00000000  0.50000000  0.50000000  1
  Y  Y13  1  0.50000000  0.50000000  0.00000000  1
  Y  Y14  1  -0.00000000  0.00000000  0.00000000  1
  Y  Y15  1  0.50000000  0.00000000  0.50000000  1
  Cl  Cl16  1  0.49911483  0.88196474  0.62973124  1
  Cl  Cl17  1  0.50088517  0.11803526  0.37026876  1
  Cl  Cl18  1  0.99911483  0.11803526  0.87026876  1
  Cl  Cl19  1  0.00088517  0.88196474  0.12973124  1
  Cl  Cl20  1  0.29154167  0.65496968  0.99579243  1
  Cl  Cl21  1  0.70845833  0.34503032  0.00420757  1
  Cl  Cl22  1  0.79154167  0.34503032  0.50420757  1
  Cl  Cl23  1  0.20845833  0.65496968  0.49579243  1
  Cl  Cl24  1  0.78555768  0.65310619  0.60697396  1
  Cl  Cl25  1  0.21444232  0.34689381  0.39302604  1
  Cl  Cl26  1  0.28555768  0.34689381  0.89302604  1
  Cl  Cl27  1  0.71444232  0.65310619  0.10697396  1
  Cl  Cl28  1  0.64208184  0.50051198  0.80871047  1
  Cl  Cl29  1  0.35791816  0.49948802  0.19128953  1
  Cl  Cl30  1  0.14208184  0.49948802  0.69128953  1
  Cl  Cl31  1  0.85791816  0.50051198  0.30871047  1
  Cl  Cl32  1  0.17784818  0.86073504  0.84436573  1
  Cl  Cl33  1  0.82215182  0.13926496  0.15563427  1
  Cl  Cl34  1  0.67784818  0.13926496  0.65563427  1
  Cl  Cl35  1  0.32215182  0.86073504  0.34436573  1
  Cl  Cl36  1  0.71453692  0.89765975  0.90563802  1
  Cl  Cl37  1  0.28546308  0.10234025  0.09436198  1
  Cl  Cl38  1  0.21453692  0.10234025  0.59436198  1
  Cl  Cl39  1  0.78546308  0.89765975  0.40563802  1
