# generated using pymatgen
data_Hf5Si3N
_symmetry_space_group_name_H-M   'P 1'
_cell_length_a   5.55729466
_cell_length_b   7.82946650
_cell_length_c   7.82946650
_cell_angle_alpha   120.00000303
_cell_angle_beta   90.00000000
_cell_angle_gamma   90.00000000
_symmetry_Int_Tables_number   1
_chemical_formula_structural   Hf5Si3N
_chemical_formula_sum   'Hf10 Si6 N2'
_cell_volume   295.02470408
_cell_formula_units_Z   2
loop_
 _symmetry_equiv_pos_site_id
 _symmetry_equiv_pos_as_xyz
  1  'x, y, z'
loop_
 _atom_site_type_symbol
 _atom_site_label
 _atom_site_symmetry_multiplicity
 _atom_site_fract_x
 _atom_site_fract_y
 _atom_site_fract_z
 _atom_site_occupancy
  Hf  Hf0  1  0.75000000  0.76496053  0.76496053  1
  Hf  Hf1  1  0.25000000  0.23503947  0.23503947  1
  Hf  Hf2  1  0.75000000  1.00000000  0.23503947  1
  Hf  Hf3  1  0.25000000  0.00000000  0.76496053  1
  Hf  Hf4  1  0.75000000  0.23503947  1.00000000  1
  Hf  Hf5  1  0.25000000  0.76496053  0.00000000  1
  Hf  Hf6  1  -0.00000000  0.66666700  0.33333300  1
  Hf  Hf7  1  0.00000000  0.33333300  0.66666700  1
  Hf  Hf8  1  0.50000000  0.33333300  0.66666700  1
  Hf  Hf9  1  0.50000000  0.66666700  0.33333300  1
  Si  Si10  1  0.75000000  0.40394077  0.40394077  1
  Si  Si11  1  0.25000000  0.59605923  0.59605923  1
  Si  Si12  1  0.75000000  1.00000000  0.59605923  1
  Si  Si13  1  0.25000000  0.00000000  0.40394077  1
  Si  Si14  1  0.75000000  0.59605923  1.00000000  1
  Si  Si15  1  0.25000000  0.40394077  0.00000000  1
  N  N16  1  0.00000000  0.00000000  0.00000000  1
  N  N17  1  0.50000000  -0.00000000  0.00000000  1
