# generated using pymatgen
data_K2Hg3Se4
_symmetry_space_group_name_H-M   'P 1'
_cell_length_a   6.99901810
_cell_length_b   11.23402500
_cell_length_c   14.44474878
_cell_angle_alpha   90.00000000
_cell_angle_beta   90.00000000
_cell_angle_gamma   90.00000000
_symmetry_Int_Tables_number   1
_chemical_formula_structural   K2Hg3Se4
_chemical_formula_sum   'K8 Hg12 Se16'
_cell_volume   1135.74934686
_cell_formula_units_Z   4
loop_
 _symmetry_equiv_pos_site_id
 _symmetry_equiv_pos_as_xyz
  1  'x, y, z'
loop_
 _atom_site_type_symbol
 _atom_site_label
 _atom_site_symmetry_multiplicity
 _atom_site_fract_x
 _atom_site_fract_y
 _atom_site_fract_z
 _atom_site_occupancy
  K  K0  1  0.77018994  0.61812502  0.99886114  1
  K  K1  1  0.22981006  0.38187498  0.00113886  1
  K  K2  1  0.72981006  0.88187498  0.49886114  1
  K  K3  1  0.77018994  0.38187498  0.50113886  1
  K  K4  1  0.27018994  0.11812502  0.50113886  1
  K  K5  1  0.22981006  0.61812502  0.49886114  1
  K  K6  1  0.72981006  0.11812502  0.00113886  1
  K  K7  1  0.27018994  0.88187498  0.99886114  1
  Hg  Hg8  1  0.91248017  -0.00000000  0.75000000  1
  Hg  Hg9  1  0.08751983  -0.00000000  0.25000000  1
  Hg  Hg10  1  0.58751983  0.50000000  0.25000000  1
  Hg  Hg11  1  0.41248017  0.50000000  0.75000000  1
  Hg  Hg12  1  0.91169616  0.66159397  0.74172745  1
  Hg  Hg13  1  0.08830384  0.33840603  0.25827255  1
  Hg  Hg14  1  0.58830384  0.83840603  0.24172745  1
  Hg  Hg15  1  0.91169616  0.33840603  0.75827255  1
  Hg  Hg16  1  0.41169616  0.16159397  0.75827255  1
  Hg  Hg17  1  0.08830384  0.66159397  0.24172745  1
  Hg  Hg18  1  0.58830384  0.16159397  0.25827255  1
  Hg  Hg19  1  0.41169616  0.83840603  0.74172745  1
  Se  Se20  1  0.67453349  0.86585309  0.86081552  1
  Se  Se21  1  0.32546651  0.13414691  0.13918448  1
  Se  Se22  1  0.82546651  0.63414691  0.36081552  1
  Se  Se23  1  0.67453349  0.13414691  0.63918448  1
  Se  Se24  1  0.17453349  0.36585309  0.63918448  1
  Se  Se25  1  0.32546651  0.86585309  0.36081552  1
  Se  Se26  1  0.82546651  0.36585309  0.13918448  1
  Se  Se27  1  0.17453349  0.63414691  0.86081552  1
  Se  Se28  1  0.63544269  0.62787791  0.63007497  1
  Se  Se29  1  0.36455731  0.37212209  0.36992503  1
  Se  Se30  1  0.86455731  0.87212209  0.13007497  1
  Se  Se31  1  0.63544269  0.37212209  0.86992503  1
  Se  Se32  1  0.13544269  0.12787791  0.86992503  1
  Se  Se33  1  0.36455731  0.62787791  0.13007497  1
  Se  Se34  1  0.86455731  0.12787791  0.36992503  1
  Se  Se35  1  0.13544269  0.87212209  0.63007497  1
