# generated using pymatgen
data_Zn2Fe9O13
_symmetry_space_group_name_H-M   'P 1'
_cell_length_a   2.98524606
_cell_length_b   5.27003955
_cell_length_c   17.24113778
_cell_angle_alpha   97.99534591
_cell_angle_beta   90.01517542
_cell_angle_gamma   106.42628008
_symmetry_Int_Tables_number   1
_chemical_formula_structural   Zn2Fe9O13
_chemical_formula_sum   'Zn2 Fe9 O13'
_cell_volume   257.41986164
_cell_formula_units_Z   1
loop_
 _symmetry_equiv_pos_site_id
 _symmetry_equiv_pos_as_xyz
  1  'x, y, z'
loop_
 _atom_site_type_symbol
 _atom_site_label
 _atom_site_symmetry_multiplicity
 _atom_site_fract_x
 _atom_site_fract_y
 _atom_site_fract_z
 _atom_site_occupancy
  Zn  Zn0  1  0.21089323  0.41967655  0.22973136  1
  Zn  Zn1  1  0.78910677  0.58032345  0.77026864  1
  Fe  Fe2  1  0.50000000  0.00000000  0.50000000  1
  Fe  Fe3  1  0.64792174  0.29560787  0.04413376  1
  Fe  Fe4  1  0.35207826  0.70439213  0.95586624  1
  Fe  Fe5  1  0.74719748  0.49437469  0.41612375  1
  Fe  Fe6  1  0.25280252  0.50562531  0.58387625  1
  Fe  Fe7  1  0.93241898  0.86443633  0.13097084  1
  Fe  Fe8  1  0.06758102  0.13556367  0.86902916  1
  Fe  Fe9  1  0.98397637  0.96811592  0.32451668  1
  Fe  Fe10  1  0.01602363  0.03188408  0.67548332  1
  O  O11  1  0.00000000  0.00000000  -0.00000000  1
  O  O12  1  0.84987115  0.69809208  0.22856412  1
  O  O13  1  0.15012885  0.30190792  0.77143588  1
  O  O14  1  0.28686222  0.57359265  0.06553438  1
  O  O15  1  0.71313778  0.42640735  0.93446562  1
  O  O16  1  0.58617671  0.17242142  0.14496299  1
  O  O17  1  0.41382329  0.82757858  0.85503701  1
  O  O18  1  0.63171466  0.26445962  0.31517399  1
  O  O19  1  0.36828534  0.73554038  0.68482601  1
  O  O20  1  0.37731895  0.75472750  0.39387847  1
  O  O21  1  0.62268105  0.24527250  0.60612153  1
  O  O22  1  0.14123190  0.28241826  0.46271096  1
  O  O23  1  0.85876810  0.71758174  0.53728904  1
