# generated using pymatgen
data_Hf6Be15Pd8
_symmetry_space_group_name_H-M   'P 1'
_cell_length_a   8.06768017
_cell_length_b   8.06768017
_cell_length_c   8.06768017
_cell_angle_alpha   60.00000000
_cell_angle_beta   60.00000000
_cell_angle_gamma   60.00000000
_symmetry_Int_Tables_number   1
_chemical_formula_structural   Hf6Be15Pd8
_chemical_formula_sum   'Hf6 Be15 Pd8'
_cell_volume   371.30519186
_cell_formula_units_Z   1
loop_
 _symmetry_equiv_pos_site_id
 _symmetry_equiv_pos_as_xyz
  1  'x, y, z'
loop_
 _atom_site_type_symbol
 _atom_site_label
 _atom_site_symmetry_multiplicity
 _atom_site_fract_x
 _atom_site_fract_y
 _atom_site_fract_z
 _atom_site_occupancy
  Hf  Hf0  1  0.69698862  0.69698862  0.30301138  1
  Hf  Hf1  1  0.30301138  0.30301138  0.69698862  1
  Hf  Hf2  1  0.69698862  0.30301138  0.69698862  1
  Hf  Hf3  1  0.30301138  0.69698862  0.30301138  1
  Hf  Hf4  1  0.30301138  0.69698862  0.69698862  1
  Hf  Hf5  1  0.69698862  0.30301138  0.30301138  1
  Be  Be6  1  0.67333206  0.67333206  0.67333206  1
  Be  Be7  1  0.32666794  0.32666794  0.32666794  1
  Be  Be8  1  0.98000382  0.67333206  0.67333206  1
  Be  Be9  1  0.67333206  0.98000382  0.67333206  1
  Be  Be10  1  0.01999618  0.32666794  0.32666794  1
  Be  Be11  1  0.32666794  0.01999618  0.32666794  1
  Be  Be12  1  0.67333206  0.67333206  0.98000382  1
  Be  Be13  1  0.32666794  0.32666794  0.01999618  1
  Be  Be14  1  0.00000000  0.00000000  0.50000000  1
  Be  Be15  1  0.50000000  0.50000000  -0.00000000  1
  Be  Be16  1  0.00000000  0.50000000  -0.00000000  1
  Be  Be17  1  0.50000000  0.00000000  0.50000000  1
  Be  Be18  1  0.50000000  0.00000000  -0.00000000  1
  Be  Be19  1  0.00000000  0.50000000  0.50000000  1
  Be  Be20  1  0.00000000  0.00000000  -0.00000000  1
  Pd  Pd21  1  0.87488001  0.87488001  0.87488001  1
  Pd  Pd22  1  0.12511999  0.12511999  0.12511999  1
  Pd  Pd23  1  0.37535996  0.87488001  0.87488001  1
  Pd  Pd24  1  0.87488001  0.37535996  0.87488001  1
  Pd  Pd25  1  0.62464004  0.12511999  0.12511999  1
  Pd  Pd26  1  0.12511999  0.62464004  0.12511999  1
  Pd  Pd27  1  0.87488001  0.87488001  0.37535996  1
  Pd  Pd28  1  0.12511999  0.12511999  0.62464004  1
