# generated using pymatgen
data_K2HoF5
_symmetry_space_group_name_H-M   'P 1'
_cell_length_a   6.68795623
_cell_length_b   7.28423880
_cell_length_c   11.01787543
_cell_angle_alpha   90.00000000
_cell_angle_beta   90.00000000
_cell_angle_gamma   90.00000000
_symmetry_Int_Tables_number   1
_chemical_formula_structural   K2HoF5
_chemical_formula_sum   'K8 Ho4 F20'
_cell_volume   536.75420433
_cell_formula_units_Z   4
loop_
 _symmetry_equiv_pos_site_id
 _symmetry_equiv_pos_as_xyz
  1  'x, y, z'
loop_
 _atom_site_type_symbol
 _atom_site_label
 _atom_site_symmetry_multiplicity
 _atom_site_fract_x
 _atom_site_fract_y
 _atom_site_fract_z
 _atom_site_occupancy
  K  K0  1  0.97178872  0.00190596  0.67226665  1
  K  K1  1  0.02821128  0.99809404  0.32773335  1
  K  K2  1  0.47178872  0.99809404  0.82773335  1
  K  K3  1  0.02821128  0.50190596  0.32773335  1
  K  K4  1  0.52821128  0.00190596  0.17226665  1
  K  K5  1  0.97178872  0.49809404  0.67226665  1
  K  K6  1  0.52821128  0.49809404  0.17226665  1
  K  K7  1  0.47178872  0.50190596  0.82773335  1
  Ho  Ho8  1  0.93559848  0.75000000  0.99875966  1
  Ho  Ho9  1  0.06440152  0.25000000  0.00124034  1
  Ho  Ho10  1  0.43559848  0.25000000  0.50124034  1
  Ho  Ho11  1  0.56440152  0.75000000  0.49875966  1
  F  F12  1  0.66341036  0.75000000  0.68994672  1
  F  F13  1  0.33658964  0.25000000  0.31005328  1
  F  F14  1  0.16341036  0.25000000  0.81005328  1
  F  F15  1  0.83658964  0.75000000  0.18994672  1
  F  F16  1  0.13156977  0.75000000  0.83873260  1
  F  F17  1  0.86843023  0.25000000  0.16126740  1
  F  F18  1  0.63156977  0.25000000  0.66126740  1
  F  F19  1  0.36843023  0.75000000  0.33873260  1
  F  F20  1  0.60868079  0.75000000  0.98650435  1
  F  F21  1  0.39131921  0.25000000  0.01349565  1
  F  F22  1  0.10868079  0.25000000  0.51349565  1
  F  F23  1  0.89131921  0.75000000  0.48650435  1
  F  F24  1  0.85722690  0.46613203  0.92249597  1
  F  F25  1  0.14277310  0.53386797  0.07750403  1
  F  F26  1  0.35722690  0.53386797  0.57750403  1
  F  F27  1  0.14277310  0.96613203  0.07750403  1
  F  F28  1  0.64277310  0.46613203  0.42249597  1
  F  F29  1  0.85722690  0.03386797  0.92249597  1
  F  F30  1  0.64277310  0.03386797  0.42249597  1
  F  F31  1  0.35722690  0.96613203  0.57750403  1
