# generated using pymatgen
data_Ho12(MnC3)5
_symmetry_space_group_name_H-M   'P 1'
_cell_length_a   5.02137592
_cell_length_b   10.42042136
_cell_length_c   10.42042136
_cell_angle_alpha   120.00000214
_cell_angle_beta   90.00000000
_cell_angle_gamma   90.00000000
_symmetry_Int_Tables_number   1
_chemical_formula_structural   Ho12(MnC3)5
_chemical_formula_sum   'Ho12 Mn5 C15'
_cell_volume   472.19775563
_cell_formula_units_Z   1
loop_
 _symmetry_equiv_pos_site_id
 _symmetry_equiv_pos_as_xyz
  1  'x, y, z'
loop_
 _atom_site_type_symbol
 _atom_site_label
 _atom_site_symmetry_multiplicity
 _atom_site_fract_x
 _atom_site_fract_y
 _atom_site_fract_z
 _atom_site_occupancy
  Ho  Ho0  1  0.50000000  0.20626200  0.20626200  1
  Ho  Ho1  1  0.50000000  1.00000000  0.79373800  1
  Ho  Ho2  1  0.50000000  0.79373800  1.00000000  1
  Ho  Ho3  1  -0.00000000  0.73046521  0.18545611  1
  Ho  Ho4  1  -0.00000000  0.45499090  0.26953479  1
  Ho  Ho5  1  -0.00000000  0.54500910  0.81454389  1
  Ho  Ho6  1  0.00000000  0.81454389  0.54500910  1
  Ho  Ho7  1  0.00000000  0.18545611  0.73046521  1
  Ho  Ho8  1  0.00000000  0.26953479  0.45499090  1
  Ho  Ho9  1  0.50000000  0.57143254  0.57143254  1
  Ho  Ho10  1  0.50000000  0.00000000  0.42856746  1
  Ho  Ho11  1  0.50000000  0.42856746  0.00000000  1
  Mn  Mn12  1  0.00000000  0.84724131  0.84724131  1
  Mn  Mn13  1  0.00000000  0.00000000  0.15275869  1
  Mn  Mn14  1  -0.00000000  0.15275869  0.00000000  1
  Mn  Mn15  1  0.50000000  0.66666700  0.33333300  1
  Mn  Mn16  1  0.50000000  0.33333300  0.66666700  1
  C  C17  1  -0.00000000  0.67567912  0.67567912  1
  C  C18  1  0.00000000  1.00000000  0.32432088  1
  C  C19  1  -0.00000000  0.32432088  1.00000000  1
  C  C20  1  -0.00000000  0.20214143  0.20214143  1
  C  C21  1  0.00000000  1.00000000  0.79785857  1
  C  C22  1  -0.00000000  0.79785857  1.00000000  1
  C  C23  1  -0.00000000  0.54575572  0.54575572  1
  C  C24  1  0.00000000  0.00000000  0.45424428  1
  C  C25  1  -0.00000000  0.45424428  0.00000000  1
  C  C26  1  0.50000000  0.71553761  0.19189069  1
  C  C27  1  0.50000000  0.47635308  0.28446239  1
  C  C28  1  0.50000000  0.52364692  0.80810931  1
  C  C29  1  0.50000000  0.80810931  0.52364692  1
  C  C30  1  0.50000000  0.19189069  0.71553761  1
  C  C31  1  0.50000000  0.28446239  0.47635308  1
