# generated using pymatgen
data_Sr2YTiCu2O7
_symmetry_space_group_name_H-M   'P 1'
_cell_length_a   5.52845293
_cell_length_b   5.65822157
_cell_length_c   12.27155473
_cell_angle_alpha   103.30967232
_cell_angle_beta   102.94652177
_cell_angle_gamma   89.98640378
_symmetry_Int_Tables_number   1
_chemical_formula_structural   Sr2YTiCu2O7
_chemical_formula_sum   'Sr4 Y2 Ti2 Cu4 O14'
_cell_volume   363.52856335
_cell_formula_units_Z   2
loop_
 _symmetry_equiv_pos_site_id
 _symmetry_equiv_pos_as_xyz
  1  'x, y, z'
loop_
 _atom_site_type_symbol
 _atom_site_label
 _atom_site_symmetry_multiplicity
 _atom_site_fract_x
 _atom_site_fract_y
 _atom_site_fract_z
 _atom_site_occupancy
  Sr  Sr0  1  0.35544811  0.33418697  0.71896993  1
  Sr  Sr1  1  0.63541827  0.66708988  0.28239769  1
  Sr  Sr2  1  0.85590184  0.88558372  0.71901031  1
  Sr  Sr3  1  0.13605205  0.11609196  0.28216243  1
  Y  Y4  1  0.98693943  0.00082983  0.00061610  1
  Y  Y5  1  0.48675296  0.50043356  0.00069788  1
  Ti  Ti6  1  0.28390134  0.67516998  0.50036405  1
  Ti  Ti7  1  0.78363771  0.32540240  0.50065803  1
  Cu  Cu8  1  0.92515425  0.44280488  0.87719379  1
  Cu  Cu9  1  0.04849458  0.55896519  0.12404140  1
  Cu  Cu10  1  0.42541298  0.93611971  0.87736103  1
  Cu  Cu11  1  0.54872464  0.06534201  0.12392410  1
  O  O12  1  0.12702193  0.37517534  0.50079744  1
  O  O13  1  0.62791070  0.62650345  0.50157009  1
  O  O14  1  0.18259762  0.19784151  0.87450315  1
  O  O15  1  0.30814362  0.80431859  0.12662598  1
  O  O16  1  0.68284042  0.17877986  0.87511648  1
  O  O17  1  0.80813300  0.82257967  0.12644045  1
  O  O18  1  0.66123719  0.67536250  0.86981421  1
  O  O19  1  0.79259283  0.32586799  0.13160570  1
  O  O20  1  0.16150735  0.69639257  0.87039801  1
  O  O21  1  0.29221203  0.30574715  0.13049278  1
  O  O22  1  0.26232684  0.88140374  0.63102662  1
  O  O23  1  0.63397956  0.12174194  0.36971702  1
  O  O24  1  0.76403057  0.25084780  0.63180847  1
  O  O25  1  0.13693418  0.74816579  0.36907185  1
