# generated using pymatgen
data_EuLuCuS3
_symmetry_space_group_name_H-M   'P 1'
_cell_length_a   3.86285821
_cell_length_b   6.66396815
_cell_length_c   9.99268854
_cell_angle_alpha   90.00000000
_cell_angle_beta   90.00000000
_cell_angle_gamma   106.84788352
_symmetry_Int_Tables_number   1
_chemical_formula_structural   EuLuCuS3
_chemical_formula_sum   'Eu2 Lu2 Cu2 S6'
_cell_volume   246.19044229
_cell_formula_units_Z   2
loop_
 _symmetry_equiv_pos_site_id
 _symmetry_equiv_pos_as_xyz
  1  'x, y, z'
loop_
 _atom_site_type_symbol
 _atom_site_label
 _atom_site_symmetry_multiplicity
 _atom_site_fract_x
 _atom_site_fract_y
 _atom_site_fract_z
 _atom_site_occupancy
  Eu  Eu0  1  0.74737855  0.49475710  0.25000000  1
  Eu  Eu1  1  0.25262145  0.50524290  0.75000000  1
  Lu  Lu2  1  -0.00000000  0.00000000  -0.00000000  1
  Lu  Lu3  1  -0.00000000  0.00000000  0.50000000  1
  Cu  Cu4  1  0.46812088  0.93624176  0.25000000  1
  Cu  Cu5  1  0.53187912  0.06375824  0.75000000  1
  S  S6  1  0.36085006  0.72170013  0.06410941  1
  S  S7  1  0.63914994  0.27829987  0.93589059  1
  S  S8  1  0.63914994  0.27829987  0.56410941  1
  S  S9  1  0.36085006  0.72170013  0.43589059  1
  S  S10  1  0.07551872  0.15103744  0.25000000  1
  S  S11  1  0.92448128  0.84896256  0.75000000  1
