# generated using pymatgen
data_Gd2MnNiO6
_symmetry_space_group_name_H-M   'P 1'
_cell_length_a   5.34112606
_cell_length_b   5.65200329
_cell_length_c   7.63457340
_cell_angle_alpha   90.00000000
_cell_angle_beta   89.55552852
_cell_angle_gamma   90.00000000
_symmetry_Int_Tables_number   1
_chemical_formula_structural   Gd2MnNiO6
_chemical_formula_sum   'Gd4 Mn2 Ni2 O12'
_cell_volume   230.46604092
_cell_formula_units_Z   2
loop_
 _symmetry_equiv_pos_site_id
 _symmetry_equiv_pos_as_xyz
  1  'x, y, z'
loop_
 _atom_site_type_symbol
 _atom_site_label
 _atom_site_symmetry_multiplicity
 _atom_site_fract_x
 _atom_site_fract_y
 _atom_site_fract_z
 _atom_site_occupancy
  Gd  Gd0  1  0.01858003  0.43434671  0.25212343  1
  Gd  Gd1  1  0.98141997  0.56565329  0.74787657  1
  Gd  Gd2  1  0.48141997  0.93434671  0.24787657  1
  Gd  Gd3  1  0.51858003  0.06565329  0.75212343  1
  Mn  Mn4  1  -0.00000000  0.00000000  -0.00000000  1
  Mn  Mn5  1  0.50000000  0.50000000  0.50000000  1
  Ni  Ni6  1  -0.00000000  -0.00000000  0.50000000  1
  Ni  Ni7  1  0.50000000  0.50000000  -0.00000000  1
  O  O8  1  0.89544863  0.03725172  0.24043272  1
  O  O9  1  0.10455137  0.96274828  0.75956728  1
  O  O10  1  0.60455137  0.53725172  0.25956728  1
  O  O11  1  0.39544863  0.46274828  0.74043272  1
  O  O12  1  0.18508058  0.71262536  0.05810869  1
  O  O13  1  0.81491942  0.28737464  0.94189131  1
  O  O14  1  0.31491942  0.21262536  0.44189131  1
  O  O15  1  0.68508058  0.78737464  0.55810869  1
  O  O16  1  0.29398358  0.18899438  0.04925457  1
  O  O17  1  0.70601642  0.81100562  0.95074543  1
  O  O18  1  0.20601642  0.68899438  0.45074543  1
  O  O19  1  0.79398358  0.31100562  0.54925457  1
