# generated using pymatgen
data_EuZrF6
_symmetry_space_group_name_H-M   'P 1'
_cell_length_a   5.38846708
_cell_length_b   6.74964820
_cell_length_c   6.74964820
_cell_angle_alpha   110.63050471
_cell_angle_beta   90.00000000
_cell_angle_gamma   90.00000000
_symmetry_Int_Tables_number   1
_chemical_formula_structural   EuZrF6
_chemical_formula_sum   'Eu2 Zr2 F12'
_cell_volume   229.74390561
_cell_formula_units_Z   2
loop_
 _symmetry_equiv_pos_site_id
 _symmetry_equiv_pos_as_xyz
  1  'x, y, z'
loop_
 _atom_site_type_symbol
 _atom_site_label
 _atom_site_symmetry_multiplicity
 _atom_site_fract_x
 _atom_site_fract_y
 _atom_site_fract_z
 _atom_site_occupancy
  Eu  Eu0  1  0.53851883  0.75000000  0.25000000  1
  Eu  Eu1  1  0.46148117  0.25000000  0.75000000  1
  Zr  Zr2  1  0.00000000  0.75000000  0.75000000  1
  Zr  Zr3  1  0.00000000  0.25000000  0.25000000  1
  F  F4  1  0.73853234  0.55995141  0.81665768  1
  F  F5  1  0.26146766  0.44004859  0.18334232  1
  F  F6  1  0.73853234  0.94004859  0.68334232  1
  F  F7  1  0.26146766  0.68334232  0.94004859  1
  F  F8  1  0.26146766  0.05995141  0.31665768  1
  F  F9  1  0.73853234  0.31665768  0.05995141  1
  F  F10  1  0.26146766  0.81665768  0.55995141  1
  F  F11  1  0.73853234  0.18334232  0.44004859  1
  F  F12  1  0.84232863  0.92404028  0.07595972  1
  F  F13  1  0.15767137  0.07595972  0.92404028  1
  F  F14  1  0.84232863  0.57595972  0.42404028  1
  F  F15  1  0.15767137  0.42404028  0.57595972  1
