# generated using pymatgen
data_Eu5P3O12F
_symmetry_space_group_name_H-M   'P 1'
_cell_length_a   7.31697273
_cell_length_b   9.85312359
_cell_length_c   9.85312358
_cell_angle_alpha   120.00000023
_cell_angle_beta   90.00000000
_cell_angle_gamma   90.00000000
_symmetry_Int_Tables_number   1
_chemical_formula_structural   Eu5P3O12F
_chemical_formula_sum   'Eu10 P6 O24 F2'
_cell_volume   615.19093466
_cell_formula_units_Z   2
loop_
 _symmetry_equiv_pos_site_id
 _symmetry_equiv_pos_as_xyz
  1  'x, y, z'
loop_
 _atom_site_type_symbol
 _atom_site_label
 _atom_site_symmetry_multiplicity
 _atom_site_fract_x
 _atom_site_fract_y
 _atom_site_fract_z
 _atom_site_occupancy
  Eu  Eu0  1  0.99979651  0.66666700  0.33333300  1
  Eu  Eu1  1  0.00020349  0.33333300  0.66666700  1
  Eu  Eu2  1  0.49979651  0.33333300  0.66666700  1
  Eu  Eu3  1  0.50020349  0.66666700  0.33333300  1
  Eu  Eu4  1  0.75000000  0.75824204  0.01011870  1
  Eu  Eu5  1  0.25000000  0.24175796  0.98988130  1
  Eu  Eu6  1  0.75000000  0.25187666  0.24175796  1
  Eu  Eu7  1  0.25000000  0.74812334  0.75824204  1
  Eu  Eu8  1  0.75000000  0.98988130  0.74812334  1
  Eu  Eu9  1  0.25000000  0.01011870  0.25187666  1
  P  P10  1  0.75000000  0.60163414  0.63175834  1
  P  P11  1  0.25000000  0.39836586  0.36824166  1
  P  P12  1  0.75000000  0.03012420  0.39836586  1
  P  P13  1  0.25000000  0.96987580  0.60163414  1
  P  P14  1  0.75000000  0.36824166  0.96987580  1
  P  P15  1  0.25000000  0.63175834  0.03012420  1
  O  O16  1  0.75000000  0.84922192  0.32893879  1
  O  O17  1  0.25000000  0.15077808  0.67106121  1
  O  O18  1  0.75000000  0.47971687  0.15077808  1
  O  O19  1  0.25000000  0.52028313  0.84922192  1
  O  O20  1  0.75000000  0.67106121  0.52028313  1
  O  O21  1  0.25000000  0.32893879  0.47971687  1
  O  O22  1  0.75000000  0.41818363  0.53594839  1
  O  O23  1  0.25000000  0.58181637  0.46405161  1
  O  O24  1  0.75000000  0.11776476  0.58181637  1
  O  O25  1  0.25000000  0.88223524  0.41818363  1
  O  O26  1  0.75000000  0.46405161  0.88223524  1
  O  O27  1  0.25000000  0.53594839  0.11776476  1
  O  O28  1  0.92223265  0.65605664  0.73919741  1
  O  O29  1  0.07776735  0.34394336  0.26080259  1
  O  O30  1  0.92223265  0.08314077  0.34394336  1
  O  O31  1  0.42223265  0.34394336  0.26080259  1
  O  O32  1  0.07776735  0.91685923  0.65605664  1
  O  O33  1  0.57776735  0.65605664  0.73919741  1
  O  O34  1  0.92223265  0.26080259  0.91685923  1
  O  O35  1  0.42223265  0.91685923  0.65605664  1
  O  O36  1  0.07776735  0.73919741  0.08314077  1
  O  O37  1  0.57776735  0.08314077  0.34394336  1
  O  O38  1  0.42223265  0.73919741  0.08314077  1
  O  O39  1  0.57776735  0.26080259  0.91685923  1
  F  F40  1  0.75000000  -0.00000000  -0.00000000  1
  F  F41  1  0.25000000  -0.00000000  -0.00000000  1
