# generated using pymatgen
data_GdAlGe2O7
_symmetry_space_group_name_H-M   'P 1'
_cell_length_a   6.55159005
_cell_length_b   7.26088210
_cell_length_c   11.40484102
_cell_angle_alpha   96.80772393
_cell_angle_beta   90.00000000
_cell_angle_gamma   90.00000000
_symmetry_Int_Tables_number   1
_chemical_formula_structural   GdAlGe2O7
_chemical_formula_sum   'Gd4 Al4 Ge8 O28'
_cell_volume   538.70686821
_cell_formula_units_Z   4
loop_
 _symmetry_equiv_pos_site_id
 _symmetry_equiv_pos_as_xyz
  1  'x, y, z'
loop_
 _atom_site_type_symbol
 _atom_site_label
 _atom_site_symmetry_multiplicity
 _atom_site_fract_x
 _atom_site_fract_y
 _atom_site_fract_z
 _atom_site_occupancy
  Gd  Gd0  1  0.64631554  0.73001869  0.47209803  1
  Gd  Gd1  1  0.35368446  0.26998131  0.52790197  1
  Gd  Gd2  1  0.14631554  0.76998131  0.02790197  1
  Gd  Gd3  1  0.85368446  0.23001869  0.97209803  1
  Al  Al4  1  0.60172440  0.01745920  0.72912843  1
  Al  Al5  1  0.39827560  0.98254080  0.27087157  1
  Al  Al6  1  0.10172440  0.48254080  0.77087157  1
  Al  Al7  1  0.89827560  0.51745920  0.22912843  1
  Ge  Ge8  1  0.34290851  0.24078278  0.95156433  1
  Ge  Ge9  1  0.65709149  0.75921722  0.04843567  1
  Ge  Ge10  1  0.84290851  0.25921722  0.54843567  1
  Ge  Ge11  1  0.15709149  0.74078278  0.45156433  1
  Ge  Ge12  1  0.09006349  0.91762626  0.72045800  1
  Ge  Ge13  1  0.90993651  0.08237374  0.27954200  1
  Ge  Ge14  1  0.59006349  0.58237374  0.77954200  1
  Ge  Ge15  1  0.40993651  0.41762626  0.22045800  1
  O  O16  1  0.62394715  0.76946004  0.69507807  1
  O  O17  1  0.37605285  0.23053996  0.30492193  1
  O  O18  1  0.12394715  0.73053996  0.80492193  1
  O  O19  1  0.87605285  0.26946004  0.19507807  1
  O  O20  1  0.17288297  0.06741722  0.97735796  1
  O  O21  1  0.82711703  0.93258278  0.02264204  1
  O  O22  1  0.67288297  0.43258278  0.52264204  1
  O  O23  1  0.32711703  0.56741722  0.47735796  1
  O  O24  1  0.38446627  0.44445667  0.72101922  1
  O  O25  1  0.61553373  0.55554333  0.27898078  1
  O  O26  1  0.88446627  0.05554333  0.77898078  1
  O  O27  1  0.11553373  0.94445667  0.22101922  1
  O  O28  1  0.99851105  0.82541416  0.57374724  1
  O  O29  1  0.00148895  0.17458584  0.42625276  1
  O  O30  1  0.49851105  0.67458584  0.92625276  1
  O  O31  1  0.50148895  0.32541416  0.07374724  1
  O  O32  1  0.55453277  0.16096315  0.86635748  1
  O  O33  1  0.44546723  0.83903685  0.13364252  1
  O  O34  1  0.05453277  0.33903685  0.63364252  1
  O  O35  1  0.94546723  0.66096315  0.36635748  1
  O  O36  1  0.15695878  0.40720268  0.91586344  1
  O  O37  1  0.84304122  0.59279732  0.08413656  1
  O  O38  1  0.65695878  0.09279732  0.58413656  1
  O  O39  1  0.34304122  0.90720268  0.41586344  1
  O  O40  1  0.31841240  0.02896274  0.68720393  1
  O  O41  1  0.68158760  0.97103726  0.31279607  1
  O  O42  1  0.81841240  0.47103726  0.81279607  1
  O  O43  1  0.18158760  0.52896274  0.18720393  1
