# generated using pymatgen
data_Er4C7
_symmetry_space_group_name_H-M   'P 1'
_cell_length_a   3.67741581
_cell_length_b   6.40064868
_cell_length_c   13.66554634
_cell_angle_alpha   90.00000000
_cell_angle_beta   90.00000000
_cell_angle_gamma   104.94377880
_symmetry_Int_Tables_number   1
_chemical_formula_structural   Er4C7
_chemical_formula_sum   'Er8 C14'
_cell_volume   310.77886014
_cell_formula_units_Z   2
loop_
 _symmetry_equiv_pos_site_id
 _symmetry_equiv_pos_as_xyz
  1  'x, y, z'
loop_
 _atom_site_type_symbol
 _atom_site_label
 _atom_site_symmetry_multiplicity
 _atom_site_fract_x
 _atom_site_fract_y
 _atom_site_fract_z
 _atom_site_occupancy
  Er  Er0  1  0.94655747  0.83976770  0.83822992  1
  Er  Er1  1  0.05344253  0.16023230  0.16177008  1
  Er  Er2  1  0.05344253  0.66023230  0.33822992  1
  Er  Er3  1  0.94655747  0.33976770  0.66177008  1
  Er  Er4  1  0.63452093  0.76079787  0.55475482  1
  Er  Er5  1  0.36547907  0.23920213  0.44524518  1
  Er  Er6  1  0.36547907  0.73920213  0.05475482  1
  Er  Er7  1  0.63452093  0.26079787  0.94524518  1
  C  C8  1  0.73754760  0.95307885  0.39487619  1
  C  C9  1  0.26245240  0.04692115  0.60512381  1
  C  C10  1  0.26245240  0.54692115  0.89487619  1
  C  C11  1  0.73754760  0.45307885  0.10512381  1
  C  C12  1  0.53729190  0.57600731  0.71488650  1
  C  C13  1  0.46270810  0.42399269  0.28511350  1
  C  C14  1  0.46270810  0.92399269  0.21488650  1
  C  C15  1  0.53729190  0.07600731  0.78511350  1
  C  C16  1  0.62046075  0.95469846  0.30264005  1
  C  C17  1  0.37953925  0.04530154  0.69735995  1
  C  C18  1  0.37953925  0.54530154  0.80264005  1
  C  C19  1  0.62046075  0.45469846  0.19735995  1
  C  C20  1  0.00000000  0.00000000  -0.00000000  1
  C  C21  1  0.00000000  0.50000000  0.50000000  1
