# generated using pymatgen
data_Er4MgRh
_symmetry_space_group_name_H-M   'P 1'
_cell_length_a   9.64171741
_cell_length_b   9.64171741
_cell_length_c   9.64171741
_cell_angle_alpha   60.00000000
_cell_angle_beta   60.00000000
_cell_angle_gamma   60.00000000
_symmetry_Int_Tables_number   1
_chemical_formula_structural   Er4MgRh
_chemical_formula_sum   'Er16 Mg4 Rh4'
_cell_volume   633.79410768
_cell_formula_units_Z   4
loop_
 _symmetry_equiv_pos_site_id
 _symmetry_equiv_pos_as_xyz
  1  'x, y, z'
loop_
 _atom_site_type_symbol
 _atom_site_label
 _atom_site_symmetry_multiplicity
 _atom_site_fract_x
 _atom_site_fract_y
 _atom_site_fract_z
 _atom_site_occupancy
  Er  Er0  1  0.65385857  0.65385857  0.65385857  1
  Er  Er1  1  0.03842428  0.65385857  0.65385857  1
  Er  Er2  1  0.65385857  0.03842428  0.65385857  1
  Er  Er3  1  0.65385857  0.65385857  0.03842428  1
  Er  Er4  1  0.81252556  0.81252556  0.18747444  1
  Er  Er5  1  0.18747444  0.18747444  0.81252556  1
  Er  Er6  1  0.81252556  0.18747444  0.81252556  1
  Er  Er7  1  0.18747444  0.81252556  0.18747444  1
  Er  Er8  1  0.18747444  0.81252556  0.81252556  1
  Er  Er9  1  0.81252556  0.18747444  0.18747444  1
  Er  Er10  1  0.43569669  0.43569669  0.06430331  1
  Er  Er11  1  0.06430331  0.06430331  0.43569669  1
  Er  Er12  1  0.43569669  0.06430331  0.43569669  1
  Er  Er13  1  0.06430331  0.43569669  0.06430331  1
  Er  Er14  1  0.06430331  0.43569669  0.43569669  1
  Er  Er15  1  0.43569669  0.06430331  0.06430331  1
  Mg  Mg16  1  0.42076164  0.42076164  0.42076164  1
  Mg  Mg17  1  0.73771509  0.42076164  0.42076164  1
  Mg  Mg18  1  0.42076164  0.73771509  0.42076164  1
  Mg  Mg19  1  0.42076164  0.42076164  0.73771509  1
  Rh  Rh20  1  0.85842765  0.85842765  0.85842765  1
  Rh  Rh21  1  0.42471705  0.85842765  0.85842765  1
  Rh  Rh22  1  0.85842765  0.42471705  0.85842765  1
  Rh  Rh23  1  0.85842765  0.85842765  0.42471705  1
