# generated using pymatgen
data_Ca2Ta2NiO8
_symmetry_space_group_name_H-M   'P 1'
_cell_length_a   5.44023947
_cell_length_b   6.33427378
_cell_length_c   9.94329139
_cell_angle_alpha   108.70482633
_cell_angle_beta   91.43342009
_cell_angle_gamma   89.99114092
_symmetry_Int_Tables_number   1
_chemical_formula_structural   Ca2Ta2NiO8
_chemical_formula_sum   'Ca4 Ta4 Ni2 O16'
_cell_volume   324.43530902
_cell_formula_units_Z   2
loop_
 _symmetry_equiv_pos_site_id
 _symmetry_equiv_pos_as_xyz
  1  'x, y, z'
loop_
 _atom_site_type_symbol
 _atom_site_label
 _atom_site_symmetry_multiplicity
 _atom_site_fract_x
 _atom_site_fract_y
 _atom_site_fract_z
 _atom_site_occupancy
  Ca  Ca0  1  0.75642271  0.46453890  0.58331363  1
  Ca  Ca1  1  0.74077164  0.88071588  0.41323652  1
  Ca  Ca2  1  0.24114468  0.53260196  0.41533276  1
  Ca  Ca3  1  0.25630880  0.11630559  0.58477141  1
  Ta  Ta4  1  0.74853677  0.25886000  0.21898788  1
  Ta  Ta5  1  0.74887447  0.03787426  0.77888507  1
  Ta  Ta6  1  0.24890121  0.73850597  0.77950282  1
  Ta  Ta7  1  0.24832087  0.95923570  0.21931595  1
  Ni  Ni8  1  0.74851518  0.63262204  0.99919301  1
  Ni  Ni9  1  0.24854582  0.36539371  0.99940038  1
  O  O10  1  0.08545644  0.19298035  0.13503563  1
  O  O11  1  0.41178707  0.05696601  0.86324814  1
  O  O12  1  0.91186595  0.80424115  0.86315198  1
  O  O13  1  0.58554745  0.94001842  0.13492561  1
  O  O14  1  0.58093982  0.41386998  0.11183402  1
  O  O15  1  0.91562307  0.30085257  0.88698375  1
  O  O16  1  0.41616065  0.58373630  0.88703373  1
  O  O17  1  0.08086759  0.69653924  0.11135300  1
  O  O18  1  0.48843187  0.24018387  0.35757415  1
  O  O19  1  0.00931536  0.88040447  0.64056648  1
  O  O20  1  0.33771129  0.84006785  0.36936266  1
  O  O21  1  0.15894725  0.46902662  0.62915745  1
  O  O22  1  0.65932324  0.15675695  0.62873283  1
  O  O23  1  0.83864319  0.52817059  0.36940304  1
  O  O24  1  0.98814665  0.11671622  0.35773717  1
  O  O25  1  0.50898997  0.75668741  0.64070691  1
