# generated using pymatgen
data_H6C(NO)2
_symmetry_space_group_name_H-M   'P 1'
_cell_length_a   6.80490792
_cell_length_b   6.80824689
_cell_length_c   17.22612545
_cell_angle_alpha   90.00000000
_cell_angle_beta   90.00000000
_cell_angle_gamma   90.00000000
_symmetry_Int_Tables_number   1
_chemical_formula_structural   H6C(NO)2
_chemical_formula_sum   'H48 C8 N16 O16'
_cell_volume   798.07766161
_cell_formula_units_Z   8
loop_
 _symmetry_equiv_pos_site_id
 _symmetry_equiv_pos_as_xyz
  1  'x, y, z'
loop_
 _atom_site_type_symbol
 _atom_site_label
 _atom_site_symmetry_multiplicity
 _atom_site_fract_x
 _atom_site_fract_y
 _atom_site_fract_z
 _atom_site_occupancy
  H  H0  1  0.26456626  0.29309789  0.04291620  1
  H  H1  1  0.73543374  0.70690211  0.95708380  1
  H  H2  1  0.23543374  0.70690211  0.54291620  1
  H  H3  1  0.73543374  0.79309789  0.45708380  1
  H  H4  1  0.76456626  0.29309789  0.45708380  1
  H  H5  1  0.26456626  0.20690211  0.54291620  1
  H  H6  1  0.76456626  0.20690211  0.95708380  1
  H  H7  1  0.23543374  0.79309789  0.04291620  1
  H  H8  1  0.08207052  0.17111900  0.25965977  1
  H  H9  1  0.91792948  0.82888100  0.74034023  1
  H  H10  1  0.41792948  0.82888100  0.75965977  1
  H  H11  1  0.91792948  0.67111900  0.24034023  1
  H  H12  1  0.58207052  0.17111900  0.24034023  1
  H  H13  1  0.08207052  0.32888100  0.75965977  1
  H  H14  1  0.58207052  0.32888100  0.74034023  1
  H  H15  1  0.41792948  0.67111900  0.25965977  1
  H  H16  1  0.13522245  0.38948724  0.49398713  1
  H  H17  1  0.86477755  0.61051276  0.50601287  1
  H  H18  1  0.36477755  0.61051276  0.99398713  1
  H  H19  1  0.86477755  0.88948724  0.00601287  1
  H  H20  1  0.63522245  0.38948724  0.00601287  1
  H  H21  1  0.13522245  0.11051276  0.99398713  1
  H  H22  1  0.63522245  0.11051276  0.50601287  1
  H  H23  1  0.36477755  0.88948724  0.49398713  1
  H  H24  1  0.03750282  0.26486792  0.34878344  1
  H  H25  1  0.96249718  0.73513208  0.65121656  1
  H  H26  1  0.46249718  0.73513208  0.84878344  1
  H  H27  1  0.96249718  0.76486792  0.15121656  1
  H  H28  1  0.53750282  0.26486792  0.15121656  1
  H  H29  1  0.03750282  0.23513208  0.84878344  1
  H  H30  1  0.53750282  0.23513208  0.65121656  1
  H  H31  1  0.46249718  0.76486792  0.34878344  1
  H  H32  1  0.47961562  0.02225730  0.17038104  1
  H  H33  1  0.52038438  0.97774270  0.82961896  1
  H  H34  1  0.02038438  0.97774270  0.67038104  1
  H  H35  1  0.52038438  0.52225730  0.32961896  1
  H  H36  1  0.97961562  0.02225730  0.32961896  1
  H  H37  1  0.47961562  0.47774270  0.67038104  1
  H  H38  1  0.97961562  0.47774270  0.82961896  1
  H  H39  1  0.02038438  0.52225730  0.17038104  1
  H  H40  1  0.21437167  0.09206191  0.34055273  1
  H  H41  1  0.78562833  0.90793809  0.65944727  1
  H  H42  1  0.28562833  0.90793809  0.84055273  1
  H  H43  1  0.78562833  0.59206191  0.15944727  1
  H  H44  1  0.71437167  0.09206191  0.15944727  1
  H  H45  1  0.21437167  0.40793809  0.84055273  1
  H  H46  1  0.71437167  0.40793809  0.65944727  1
  H  H47  1  0.28562833  0.59206191  0.34055273  1
  C  C48  1  0.06444093  0.14712196  0.11086137  1
  C  C49  1  0.93555907  0.85287804  0.88913863  1
  C  C50  1  0.43555907  0.85287804  0.61086137  1
  C  C51  1  0.93555907  0.64712196  0.38913863  1
  C  C52  1  0.56444093  0.14712196  0.38913863  1
  C  C53  1  0.06444093  0.35287804  0.61086137  1
  C  C54  1  0.56444093  0.35287804  0.88913863  1
  C  C55  1  0.43555907  0.64712196  0.11086137  1
  N  N56  1  0.07677341  0.13688715  0.31984904  1
  N  N57  1  0.92322659  0.86311285  0.68015096  1
  N  N58  1  0.42322659  0.86311285  0.81984904  1
  N  N59  1  0.92322659  0.63688715  0.18015096  1
  N  N60  1  0.57677341  0.13688715  0.18015096  1
  N  N61  1  0.07677341  0.36311285  0.81984904  1
  N  N62  1  0.57677341  0.36311285  0.68015096  1
  N  N63  1  0.42322659  0.63688715  0.31984904  1
  N  N64  1  0.17662796  0.17331175  0.04550871  1
  N  N65  1  0.82337204  0.82668825  0.95449129  1
  N  N66  1  0.32337204  0.82668825  0.54550871  1
  N  N67  1  0.82337204  0.67331175  0.45449129  1
  N  N68  1  0.67662796  0.17331175  0.45449129  1
  N  N69  1  0.17662796  0.32668825  0.54550871  1
  N  N70  1  0.67662796  0.32668825  0.95449129  1
  N  N71  1  0.32337204  0.67331175  0.04550871  1
  O  O72  1  0.43222109  0.01115553  0.39080471  1
  O  O73  1  0.56777891  0.98884447  0.60919529  1
  O  O74  1  0.06777891  0.98884447  0.89080471  1
  O  O75  1  0.56777891  0.51115553  0.10919529  1
  O  O76  1  0.93222109  0.01115553  0.10919529  1
  O  O77  1  0.43222109  0.48884447  0.89080471  1
  O  O78  1  0.93222109  0.48884447  0.60919529  1
  O  O79  1  0.06777891  0.51115553  0.39080471  1
  O  O80  1  0.09946827  0.25673059  0.16983297  1
  O  O81  1  0.90053173  0.74326941  0.83016703  1
  O  O82  1  0.40053173  0.74326941  0.66983297  1
  O  O83  1  0.90053173  0.75673059  0.33016703  1
  O  O84  1  0.59946827  0.25673059  0.33016703  1
  O  O85  1  0.09946827  0.24326941  0.66983297  1
  O  O86  1  0.59946827  0.24326941  0.83016703  1
  O  O87  1  0.40053173  0.75673059  0.16983297  1
