# generated using pymatgen
data_DyCoB4
_symmetry_space_group_name_H-M   'P 1'
_cell_length_a   3.39033383
_cell_length_b   5.90354043
_cell_length_c   11.42449531
_cell_angle_alpha   90.00000000
_cell_angle_beta   90.00000000
_cell_angle_gamma   90.00000000
_symmetry_Int_Tables_number   1
_chemical_formula_structural   DyCoB4
_chemical_formula_sum   'Dy4 Co4 B16'
_cell_volume   228.66096330
_cell_formula_units_Z   4
loop_
 _symmetry_equiv_pos_site_id
 _symmetry_equiv_pos_as_xyz
  1  'x, y, z'
loop_
 _atom_site_type_symbol
 _atom_site_label
 _atom_site_symmetry_multiplicity
 _atom_site_fract_x
 _atom_site_fract_y
 _atom_site_fract_z
 _atom_site_occupancy
  Dy  Dy0  1  0.50000000  0.37270019  0.14994236  1
  Dy  Dy1  1  0.50000000  0.62729981  0.85005764  1
  Dy  Dy2  1  0.50000000  0.12729981  0.64994236  1
  Dy  Dy3  1  0.50000000  0.87270019  0.35005764  1
  Co  Co4  1  0.50000000  0.36534409  0.41078768  1
  Co  Co5  1  0.50000000  0.63465591  0.58921232  1
  Co  Co6  1  0.50000000  0.13465591  0.91078768  1
  Co  Co7  1  0.50000000  0.86534409  0.08921232  1
  B  B8  1  -0.00000000  0.11120787  0.04596138  1
  B  B9  1  -0.00000000  0.88879213  0.95403862  1
  B  B10  1  0.00000000  0.38879213  0.54596138  1
  B  B11  1  0.00000000  0.61120787  0.45403862  1
  B  B12  1  -0.00000000  0.13909219  0.46760910  1
  B  B13  1  -0.00000000  0.86090781  0.53239090  1
  B  B14  1  0.00000000  0.36090781  0.96760910  1
  B  B15  1  0.00000000  0.63909219  0.03239090  1
  B  B16  1  0.00000000  0.02312521  0.19081018  1
  B  B17  1  0.00000000  0.97687479  0.80918982  1
  B  B18  1  0.00000000  0.47687479  0.69081018  1
  B  B19  1  -0.00000000  0.52312521  0.30918982  1
  B  B20  1  0.00000000  0.21865671  0.31526438  1
  B  B21  1  0.00000000  0.78134329  0.68473562  1
  B  B22  1  -0.00000000  0.28134329  0.81526438  1
  B  B23  1  -0.00000000  0.71865671  0.18473562  1
