# generated using pymatgen
data_ErSiNi
_symmetry_space_group_name_H-M   'P 1'
_cell_length_a   4.12022031
_cell_length_b   6.76058194
_cell_length_c   7.07397619
_cell_angle_alpha   90.00000000
_cell_angle_beta   90.00000000
_cell_angle_gamma   90.00000000
_symmetry_Int_Tables_number   1
_chemical_formula_structural   ErSiNi
_chemical_formula_sum   'Er4 Si4 Ni4'
_cell_volume   197.04622233
_cell_formula_units_Z   4
loop_
 _symmetry_equiv_pos_site_id
 _symmetry_equiv_pos_as_xyz
  1  'x, y, z'
loop_
 _atom_site_type_symbol
 _atom_site_label
 _atom_site_symmetry_multiplicity
 _atom_site_fract_x
 _atom_site_fract_y
 _atom_site_fract_z
 _atom_site_occupancy
  Er  Er0  1  0.75000000  0.01024717  0.30036939  1
  Er  Er1  1  0.25000000  0.98975283  0.69963061  1
  Er  Er2  1  0.25000000  0.48975283  0.80036939  1
  Er  Er3  1  0.75000000  0.51024717  0.19963061  1
  Si  Si4  1  0.75000000  0.69085666  0.59303821  1
  Si  Si5  1  0.25000000  0.30914334  0.40696179  1
  Si  Si6  1  0.25000000  0.80914334  0.09303821  1
  Si  Si7  1  0.75000000  0.19085666  0.90696179  1
  Ni  Ni8  1  0.75000000  0.81570226  0.92086138  1
  Ni  Ni9  1  0.25000000  0.18429774  0.07913862  1
  Ni  Ni10  1  0.25000000  0.68429774  0.42086138  1
  Ni  Ni11  1  0.75000000  0.31570226  0.57913862  1
