# generated using pymatgen
data_Er6InCo2
_symmetry_space_group_name_H-M   'P 1'
_cell_length_a   8.27389236
_cell_length_b   8.27389236
_cell_length_c   8.27389236
_cell_angle_alpha   106.68280144
_cell_angle_beta   110.05922380
_cell_angle_gamma   111.71165365
_symmetry_Int_Tables_number   1
_chemical_formula_structural   Er6InCo2
_chemical_formula_sum   'Er12 In2 Co4'
_cell_volume   435.15614946
_cell_formula_units_Z   2
loop_
 _symmetry_equiv_pos_site_id
 _symmetry_equiv_pos_as_xyz
  1  'x, y, z'
loop_
 _atom_site_type_symbol
 _atom_site_label
 _atom_site_symmetry_multiplicity
 _atom_site_fract_x
 _atom_site_fract_y
 _atom_site_fract_z
 _atom_site_occupancy
  Er  Er0  1  0.52452473  0.71182995  0.81269478  1
  Er  Er1  1  0.47547527  0.28817005  0.18730522  1
  Er  Er2  1  0.10086482  0.28817005  0.81269478  1
  Er  Er3  1  0.89913518  0.71182995  0.18730522  1
  Er  Er4  1  0.69650314  0.38114380  0.68464066  1
  Er  Er5  1  0.30349686  0.61885620  0.31535934  1
  Er  Er6  1  0.30349686  0.98813753  0.68464066  1
  Er  Er7  1  0.69650314  0.01186247  0.31535934  1
  Er  Er8  1  0.78893973  0.76827893  0.55721866  1
  Er  Er9  1  0.21106027  0.23172107  0.44278134  1
  Er  Er10  1  0.21106027  0.76827893  0.97933920  1
  Er  Er11  1  0.78893973  0.23172107  0.02066080  1
  In  In12  1  0.00000000  0.50000000  0.50000000  1
  In  In13  1  0.00000000  -0.00000000  0.00000000  1
  Co  Co14  1  0.50000000  0.38721104  0.88721104  1
  Co  Co15  1  0.50000000  0.61278896  0.11278896  1
  Co  Co16  1  0.62382548  0.00000000  0.62382548  1
  Co  Co17  1  0.37617452  0.00000000  0.37617452  1
