# generated using pymatgen
data_CsSm2Cl7
_symmetry_space_group_name_H-M   'P 1'
_cell_length_a   7.18252721
_cell_length_b   14.12769571
_cell_length_c   13.01753608
_cell_angle_alpha   90.00000000
_cell_angle_beta   90.00000000
_cell_angle_gamma   90.00000000
_symmetry_Int_Tables_number   1
_chemical_formula_structural   CsSm2Cl7
_chemical_formula_sum   'Cs4 Sm8 Cl28'
_cell_volume   1320.92269598
_cell_formula_units_Z   4
loop_
 _symmetry_equiv_pos_site_id
 _symmetry_equiv_pos_as_xyz
  1  'x, y, z'
loop_
 _atom_site_type_symbol
 _atom_site_label
 _atom_site_symmetry_multiplicity
 _atom_site_fract_x
 _atom_site_fract_y
 _atom_site_fract_z
 _atom_site_occupancy
  Cs  Cs0  1  0.75000000  0.95898461  0.19627733  1
  Cs  Cs1  1  0.25000000  0.04101539  0.80372267  1
  Cs  Cs2  1  0.25000000  0.54101539  0.69627733  1
  Cs  Cs3  1  0.75000000  0.45898461  0.30372267  1
  Sm  Sm4  1  0.75000000  0.76334749  0.54007330  1
  Sm  Sm5  1  0.25000000  0.23665251  0.45992670  1
  Sm  Sm6  1  0.25000000  0.73665251  0.04007330  1
  Sm  Sm7  1  0.75000000  0.26334749  0.95992670  1
  Sm  Sm8  1  0.75000000  0.75079116  0.84447846  1
  Sm  Sm9  1  0.25000000  0.24920884  0.15552154  1
  Sm  Sm10  1  0.25000000  0.74920884  0.34447846  1
  Sm  Sm11  1  0.75000000  0.25079116  0.65552154  1
  Cl  Cl12  1  0.98782200  0.82255378  0.69427894  1
  Cl  Cl13  1  0.01217800  0.17744622  0.30572106  1
  Cl  Cl14  1  0.01217800  0.67744622  0.19427894  1
  Cl  Cl15  1  0.48782200  0.17744622  0.30572106  1
  Cl  Cl16  1  0.98782200  0.32255378  0.80572106  1
  Cl  Cl17  1  0.51217800  0.82255378  0.69427894  1
  Cl  Cl18  1  0.51217800  0.32255378  0.80572106  1
  Cl  Cl19  1  0.48782200  0.67744622  0.19427894  1
  Cl  Cl20  1  0.99057366  0.87358584  0.42402473  1
  Cl  Cl21  1  0.00942634  0.12641416  0.57597527  1
  Cl  Cl22  1  0.00942634  0.62641416  0.92402473  1
  Cl  Cl23  1  0.49057366  0.12641416  0.57597527  1
  Cl  Cl24  1  0.99057366  0.37358584  0.07597527  1
  Cl  Cl25  1  0.50942634  0.87358584  0.42402473  1
  Cl  Cl26  1  0.50942634  0.37358584  0.07597527  1
  Cl  Cl27  1  0.49057366  0.62641416  0.92402473  1
  Cl  Cl28  1  0.99153116  0.86323533  0.96017333  1
  Cl  Cl29  1  0.00846884  0.13676467  0.03982667  1
  Cl  Cl30  1  0.00846884  0.63676467  0.46017333  1
  Cl  Cl31  1  0.49153116  0.13676467  0.03982667  1
  Cl  Cl32  1  0.99153116  0.36323533  0.53982667  1
  Cl  Cl33  1  0.50846884  0.86323533  0.96017333  1
  Cl  Cl34  1  0.50846884  0.36323533  0.53982667  1
  Cl  Cl35  1  0.49153116  0.63676467  0.46017333  1
  Cl  Cl36  1  0.75000000  0.61504597  0.68856459  1
  Cl  Cl37  1  0.25000000  0.38495403  0.31143541  1
  Cl  Cl38  1  0.25000000  0.88495403  0.18856459  1
  Cl  Cl39  1  0.75000000  0.11504597  0.81143541  1
