# generated using pymatgen
data_Dy2(Ga3Ir)3
_symmetry_space_group_name_H-M   'P 1'
_cell_length_a   7.58499487
_cell_length_b   7.58499487
_cell_length_c   9.49628580
_cell_angle_alpha   90.00000000
_cell_angle_beta   90.00000000
_cell_angle_gamma   119.96600596
_symmetry_Int_Tables_number   1
_chemical_formula_structural   Dy2(Ga3Ir)3
_chemical_formula_sum   'Dy4 Ga18 Ir6'
_cell_volume   473.30779362
_cell_formula_units_Z   2
loop_
 _symmetry_equiv_pos_site_id
 _symmetry_equiv_pos_as_xyz
  1  'x, y, z'
loop_
 _atom_site_type_symbol
 _atom_site_label
 _atom_site_symmetry_multiplicity
 _atom_site_fract_x
 _atom_site_fract_y
 _atom_site_fract_z
 _atom_site_occupancy
  Dy  Dy0  1  0.66794765  0.99709710  0.25000000  1
  Dy  Dy1  1  0.33205235  0.00290290  0.75000000  1
  Dy  Dy2  1  0.99709710  0.66794765  0.25000000  1
  Dy  Dy3  1  0.00290290  0.33205235  0.75000000  1
  Ga  Ga4  1  0.12605275  0.12605275  0.25000000  1
  Ga  Ga5  1  0.87394725  0.87394725  0.75000000  1
  Ga  Ga6  1  0.33389439  0.99955027  0.07869909  1
  Ga  Ga7  1  0.66610561  0.00044973  0.92130091  1
  Ga  Ga8  1  0.66610561  0.00044973  0.57869909  1
  Ga  Ga9  1  0.99955027  0.33389439  0.42130091  1
  Ga  Ga10  1  0.33389439  0.99955027  0.42130091  1
  Ga  Ga11  1  0.00044973  0.66610561  0.57869909  1
  Ga  Ga12  1  0.00044973  0.66610561  0.92130091  1
  Ga  Ga13  1  0.99955027  0.33389439  0.07869909  1
  Ga  Ga14  1  0.33307841  0.33307841  0.56272709  1
  Ga  Ga15  1  0.66692159  0.66692159  0.43727291  1
  Ga  Ga16  1  0.66692159  0.66692159  0.06272709  1
  Ga  Ga17  1  0.33307841  0.33307841  0.93727291  1
  Ga  Ga18  1  0.54629605  0.33829525  0.25000000  1
  Ga  Ga19  1  0.45370395  0.66170475  0.75000000  1
  Ga  Ga20  1  0.33829525  0.54629605  0.25000000  1
  Ga  Ga21  1  0.66170475  0.45370395  0.75000000  1
  Ir  Ir22  1  0.32846224  0.67153776  0.00000000  1
  Ir  Ir23  1  0.67153776  0.32846224  0.00000000  1
  Ir  Ir24  1  0.67153776  0.32846224  0.50000000  1
  Ir  Ir25  1  0.32846224  0.67153776  0.50000000  1
  Ir  Ir26  1  -0.00000000  -0.00000000  0.00000000  1
  Ir  Ir27  1  -0.00000000  -0.00000000  0.50000000  1
