# generated using pymatgen
data_DyTlS2O9
_symmetry_space_group_name_H-M   'P 1'
_cell_length_a   8.52455586
_cell_length_b   10.48700659
_cell_length_c   10.17714600
_cell_angle_alpha   119.83337288
_cell_angle_beta   90.00000000
_cell_angle_gamma   90.00000000
_symmetry_Int_Tables_number   1
_chemical_formula_structural   DyTlS2O9
_chemical_formula_sum   'Dy4 Tl4 S8 O36'
_cell_volume   789.23564744
_cell_formula_units_Z   4
loop_
 _symmetry_equiv_pos_site_id
 _symmetry_equiv_pos_as_xyz
  1  'x, y, z'
loop_
 _atom_site_type_symbol
 _atom_site_label
 _atom_site_symmetry_multiplicity
 _atom_site_fract_x
 _atom_site_fract_y
 _atom_site_fract_z
 _atom_site_occupancy
  Dy  Dy0  1  0.36253499  0.96299445  0.71686444  1
  Dy  Dy1  1  0.63746501  0.03700555  0.28313556  1
  Dy  Dy2  1  0.86253499  0.53700555  0.78313556  1
  Dy  Dy3  1  0.13746501  0.46299445  0.21686444  1
  Tl  Tl4  1  0.33274326  0.68742720  0.96532220  1
  Tl  Tl5  1  0.66725674  0.31257280  0.03467780  1
  Tl  Tl6  1  0.83274326  0.81257280  0.53467780  1
  Tl  Tl7  1  0.16725674  0.18742720  0.46532220  1
  S  S8  1  0.12959891  0.31631116  0.87319888  1
  S  S9  1  0.87040109  0.68368884  0.12680112  1
  S  S10  1  0.62959891  0.18368884  0.62680112  1
  S  S11  1  0.37040109  0.81631116  0.37319888  1
  S  S12  1  0.19896258  0.60336577  0.59861801  1
  S  S13  1  0.80103742  0.39663423  0.40138199  1
  S  S14  1  0.69896258  0.89663423  0.90138199  1
  S  S15  1  0.30103742  0.10336577  0.09861801  1
  O  O16  1  0.78442482  0.03811078  0.96826380  1
  O  O17  1  0.21557518  0.96188922  0.03173620  1
  O  O18  1  0.28442482  0.46188922  0.53173620  1
  O  O19  1  0.71557518  0.53811078  0.46826380  1
  O  O20  1  0.20387438  0.17508180  0.76232184  1
  O  O21  1  0.79612562  0.82491820  0.23767816  1
  O  O22  1  0.70387438  0.32491820  0.73767816  1
  O  O23  1  0.29612562  0.67508180  0.26232184  1
  O  O24  1  0.30975691  0.72982512  0.67595259  1
  O  O25  1  0.69024309  0.27017488  0.32404741  1
  O  O26  1  0.80975691  0.77017488  0.82404741  1
  O  O27  1  0.19024309  0.22982512  0.17595259  1
  O  O28  1  0.38530691  0.11630191  0.97696188  1
  O  O29  1  0.61469309  0.88369809  0.02303812  1
  O  O30  1  0.88530691  0.38369809  0.52303812  1
  O  O31  1  0.11469309  0.61630191  0.47696188  1
  O  O32  1  0.09423837  0.94437384  0.76854645  1
  O  O33  1  0.90576163  0.05562616  0.23145355  1
  O  O34  1  0.59423837  0.55562616  0.73145355  1
  O  O35  1  0.40576163  0.44437384  0.26854645  1
  O  O36  1  0.25025842  0.42040982  0.98197608  1
  O  O37  1  0.74974158  0.57959018  0.01802392  1
  O  O38  1  0.75025842  0.07959018  0.51802392  1
  O  O39  1  0.24974158  0.92040982  0.48197608  1
  O  O40  1  0.01136272  0.29872444  0.97096578  1
  O  O41  1  0.98863728  0.70127556  0.02903422  1
  O  O42  1  0.51136272  0.20127556  0.52903422  1
  O  O43  1  0.48863728  0.79872444  0.47096578  1
  O  O44  1  0.05717806  0.38046444  0.78624646  1
  O  O45  1  0.94282194  0.61953556  0.21375354  1
  O  O46  1  0.55717806  0.11953556  0.71375354  1
  O  O47  1  0.44282194  0.88046444  0.28624646  1
  O  O48  1  0.58730392  0.88486554  0.78405130  1
  O  O49  1  0.41269608  0.11513446  0.21594870  1
  O  O50  1  0.08730392  0.61513446  0.71594870  1
  O  O51  1  0.91269608  0.38486554  0.28405130  1
