# generated using pymatgen
data_Eu3B2(O2F)3
_symmetry_space_group_name_H-M   'P 1'
_cell_length_a   6.39330649
_cell_length_b   7.27766128
_cell_length_c   8.40479176
_cell_angle_alpha   95.77158163
_cell_angle_beta   90.00000000
_cell_angle_gamma   116.05551686
_symmetry_Int_Tables_number   1
_chemical_formula_structural   Eu3B2(O2F)3
_chemical_formula_sum   'Eu6 B4 O12 F6'
_cell_volume   349.10886330
_cell_formula_units_Z   2
loop_
 _symmetry_equiv_pos_site_id
 _symmetry_equiv_pos_as_xyz
  1  'x, y, z'
loop_
 _atom_site_type_symbol
 _atom_site_label
 _atom_site_symmetry_multiplicity
 _atom_site_fract_x
 _atom_site_fract_y
 _atom_site_fract_z
 _atom_site_occupancy
  Eu  Eu0  1  0.28106474  0.34321215  0.68023791  1
  Eu  Eu1  1  0.71893526  0.65678785  0.31976209  1
  Eu  Eu2  1  0.93785260  0.65678785  0.81976209  1
  Eu  Eu3  1  0.06214740  0.34321215  0.18023791  1
  Eu  Eu4  1  0.60644738  -0.00000000  0.75000000  1
  Eu  Eu5  1  0.39355262  -0.00000000  0.25000000  1
  B  B6  1  0.40059565  0.63404526  0.97958433  1
  B  B7  1  0.59940435  0.36595474  0.02041567  1
  B  B8  1  0.76655039  0.36595474  0.52041567  1
  B  B9  1  0.23344961  0.63404526  0.47958433  1
  O  O10  1  0.56220857  0.30514174  0.85795637  1
  O  O11  1  0.43779143  0.69485826  0.14204363  1
  O  O12  1  0.25706683  0.69485826  0.64204363  1
  O  O13  1  0.74293317  0.30514174  0.35795637  1
  O  O14  1  0.70299788  0.52090745  0.57621454  1
  O  O15  1  0.29700212  0.47909255  0.42378546  1
  O  O16  1  0.18209043  0.47909255  0.92378546  1
  O  O17  1  0.81790957  0.52090745  0.07621454  1
  O  O18  1  0.57396250  0.69676681  0.87184820  1
  O  O19  1  0.42603750  0.30323319  0.12815180  1
  O  O20  1  0.87719569  0.30323319  0.62815180  1
  O  O21  1  0.12280431  0.69676681  0.37184820  1
  F  F22  1  0.97998041  -0.00000000  0.75000000  1
  F  F23  1  0.02001959  -0.00000000  0.25000000  1
  F  F24  1  0.27169177  0.89649937  0.95798389  1
  F  F25  1  0.72830823  0.10350063  0.04201611  1
  F  F26  1  0.37519240  0.10350063  0.54201611  1
  F  F27  1  0.62480760  0.89649937  0.45798389  1
