# generated using pymatgen
data_SrSb(PO4)2
_symmetry_space_group_name_H-M   'P 1'
_cell_length_a   6.24299568
_cell_length_b   6.87207210
_cell_length_c   9.46271507
_cell_angle_alpha   105.38463479
_cell_angle_beta   109.62346747
_cell_angle_gamma   98.28674075
_symmetry_Int_Tables_number   1
_chemical_formula_structural   SrSb(PO4)2
_chemical_formula_sum   'Sr2 Sb2 P4 O16'
_cell_volume   356.32612314
_cell_formula_units_Z   2
loop_
 _symmetry_equiv_pos_site_id
 _symmetry_equiv_pos_as_xyz
  1  'x, y, z'
loop_
 _atom_site_type_symbol
 _atom_site_label
 _atom_site_symmetry_multiplicity
 _atom_site_fract_x
 _atom_site_fract_y
 _atom_site_fract_z
 _atom_site_occupancy
  Sr  Sr0  1  0.27787941  0.73708915  0.02722445  1
  Sr  Sr1  1  0.72212059  0.26291085  0.97277555  1
  Sb  Sb2  1  0.65617210  0.86066715  0.53166444  1
  Sb  Sb3  1  0.34382790  0.13933285  0.46833556  1
  P  P4  1  0.39132073  0.40822125  0.22927070  1
  P  P5  1  0.60867927  0.59177875  0.77072930  1
  P  P6  1  0.87520292  0.99689751  0.27590449  1
  P  P7  1  0.12479708  0.00310249  0.72409551  1
  O  O8  1  0.84617032  0.59973366  0.89216020  1
  O  O9  1  0.58999746  0.44407138  0.17416603  1
  O  O10  1  0.61642728  0.79788112  0.72186359  1
  O  O11  1  0.92533269  0.12468226  0.71243670  1
  O  O12  1  0.41000254  0.55592862  0.82583397  1
  O  O13  1  0.96977680  0.78554136  0.58737268  1
  O  O14  1  0.03022320  0.21445864  0.41262732  1
  O  O15  1  0.25395323  0.99408516  0.88678419  1
  O  O16  1  0.38357272  0.20211888  0.27813641  1
  O  O17  1  0.74604677  0.00591484  0.11321581  1
  O  O18  1  0.15382968  0.40026634  0.10783980  1
  O  O19  1  0.42985262  0.59070871  0.38798296  1
  O  O20  1  0.57014738  0.40929129  0.61201704  1
  O  O21  1  0.68111106  0.89776187  0.32539890  1
  O  O22  1  0.07466731  0.87531774  0.28756330  1
  O  O23  1  0.31888894  0.10223813  0.67460110  1
