# generated using pymatgen
data_CsEu(WO4)2
_symmetry_space_group_name_H-M   'P 1'
_cell_length_a   7.78845619
_cell_length_b   7.78845619
_cell_length_c   7.63641365
_cell_angle_alpha   63.11811722
_cell_angle_beta   63.11811722
_cell_angle_gamma   90.12693335
_symmetry_Int_Tables_number   1
_chemical_formula_structural   CsEu(WO4)2
_chemical_formula_sum   'Cs2 Eu2 W4 O16'
_cell_volume   355.87189977
_cell_formula_units_Z   2
loop_
 _symmetry_equiv_pos_site_id
 _symmetry_equiv_pos_as_xyz
  1  'x, y, z'
loop_
 _atom_site_type_symbol
 _atom_site_label
 _atom_site_symmetry_multiplicity
 _atom_site_fract_x
 _atom_site_fract_y
 _atom_site_fract_z
 _atom_site_occupancy
  Cs  Cs0  1  0.80172824  0.19827176  0.75000000  1
  Cs  Cs1  1  0.19827176  0.80172824  0.25000000  1
  Eu  Eu2  1  0.22560117  0.77439883  0.75000000  1
  Eu  Eu3  1  0.77439883  0.22560117  0.25000000  1
  W  W4  1  0.30395152  0.31368555  0.72165726  1
  W  W5  1  0.69604848  0.68631445  0.27834274  1
  W  W6  1  0.68631445  0.69604848  0.77834274  1
  W  W7  1  0.31368555  0.30395152  0.22165726  1
  O  O8  1  0.37857855  0.25057820  0.93766092  1
  O  O9  1  0.62142145  0.74942180  0.06233908  1
  O  O10  1  0.74942180  0.62142145  0.56233908  1
  O  O11  1  0.25057820  0.37857855  0.43766092  1
  O  O12  1  0.61943259  0.92723841  0.63290435  1
  O  O13  1  0.38056741  0.07276159  0.36709565  1
  O  O14  1  0.07276159  0.38056741  0.86709565  1
  O  O15  1  0.92723841  0.61943259  0.13290435  1
  O  O16  1  0.41734920  0.62677179  0.53020012  1
  O  O17  1  0.58265080  0.37322821  0.46979988  1
  O  O18  1  0.37322821  0.58265080  0.96979988  1
  O  O19  1  0.62677179  0.41734920  0.03020012  1
  O  O20  1  0.21405899  0.05705202  0.80246392  1
  O  O21  1  0.78594101  0.94294798  0.19753608  1
  O  O22  1  0.94294798  0.78594101  0.69753608  1
  O  O23  1  0.05705202  0.21405899  0.30246392  1
