# generated using pymatgen
data_ErMnFeO5
_symmetry_space_group_name_H-M   'P 1'
_cell_length_a   5.77823534
_cell_length_b   7.30314923
_cell_length_c   8.57886605
_cell_angle_alpha   90.00000000
_cell_angle_beta   90.00000000
_cell_angle_gamma   90.00000000
_symmetry_Int_Tables_number   1
_chemical_formula_structural   ErMnFeO5
_chemical_formula_sum   'Er4 Mn4 Fe4 O20'
_cell_volume   362.02227056
_cell_formula_units_Z   4
loop_
 _symmetry_equiv_pos_site_id
 _symmetry_equiv_pos_as_xyz
  1  'x, y, z'
loop_
 _atom_site_type_symbol
 _atom_site_label
 _atom_site_symmetry_multiplicity
 _atom_site_fract_x
 _atom_site_fract_y
 _atom_site_fract_z
 _atom_site_occupancy
  Er  Er0  1  0.50000000  0.36630750  0.33117380  1
  Er  Er1  1  0.50000000  0.63369250  0.66882620  1
  Er  Er2  1  0.50000000  0.13369250  0.83117380  1
  Er  Er3  1  0.50000000  0.86630750  0.16882620  1
  Mn  Mn4  1  0.25155586  0.00000000  0.50000000  1
  Mn  Mn5  1  0.74844414  0.00000000  0.50000000  1
  Mn  Mn6  1  0.74844414  0.50000000  0.00000000  1
  Mn  Mn7  1  0.25155586  0.50000000  -0.00000000  1
  Fe  Fe8  1  0.00000000  0.10673635  0.14614912  1
  Fe  Fe9  1  0.00000000  0.89326365  0.85385088  1
  Fe  Fe10  1  -0.00000000  0.39326365  0.64614912  1
  Fe  Fe11  1  -0.00000000  0.60673635  0.35385088  1
  O  O12  1  0.23594628  0.00000000  0.00000000  1
  O  O13  1  0.76405372  0.00000000  -0.00000000  1
  O  O14  1  0.76405372  0.50000000  0.50000000  1
  O  O15  1  0.23594628  0.50000000  0.50000000  1
  O  O16  1  0.26085043  0.10823925  0.29490313  1
  O  O17  1  0.73914957  0.89176075  0.70509687  1
  O  O18  1  0.26085043  0.89176075  0.70509687  1
  O  O19  1  0.73914957  0.39176075  0.79490313  1
  O  O20  1  0.73914957  0.10823925  0.29490313  1
  O  O21  1  0.26085043  0.60823925  0.20509687  1
  O  O22  1  0.73914957  0.60823925  0.20509687  1
  O  O23  1  0.26085043  0.39176075  0.79490313  1
  O  O24  1  0.50000000  0.33699491  0.05844831  1
  O  O25  1  0.50000000  0.66300509  0.94155169  1
  O  O26  1  0.50000000  0.16300509  0.55844831  1
  O  O27  1  0.50000000  0.83699491  0.44155169  1
  O  O28  1  0.00000000  0.34967926  0.07015878  1
  O  O29  1  -0.00000000  0.65032074  0.92984122  1
  O  O30  1  -0.00000000  0.15032074  0.57015878  1
  O  O31  1  0.00000000  0.84967926  0.42984122  1
