# generated using pymatgen
data_Dy2Au5F21
_symmetry_space_group_name_H-M   'P 1'
_cell_length_a   8.10779361
_cell_length_b   9.19203374
_cell_length_c   12.15973637
_cell_angle_alpha   89.14093214
_cell_angle_beta   88.92043857
_cell_angle_gamma   88.90685571
_symmetry_Int_Tables_number   1
_chemical_formula_structural   Dy2Au5F21
_chemical_formula_sum   'Dy4 Au10 F42'
_cell_volume   905.80720716
_cell_formula_units_Z   2
loop_
 _symmetry_equiv_pos_site_id
 _symmetry_equiv_pos_as_xyz
  1  'x, y, z'
loop_
 _atom_site_type_symbol
 _atom_site_label
 _atom_site_symmetry_multiplicity
 _atom_site_fract_x
 _atom_site_fract_y
 _atom_site_fract_z
 _atom_site_occupancy
  Dy  Dy0  1  0.17186194  0.31727705  0.49587523  1
  Dy  Dy1  1  0.82813806  0.68272295  0.50412477  1
  Dy  Dy2  1  0.16558353  0.18145741  0.00065082  1
  Dy  Dy3  1  0.83441647  0.81854259  0.99934918  1
  Au  Au4  1  0.94117396  0.01451522  0.29563646  1
  Au  Au5  1  0.05882604  0.98548478  0.70436354  1
  Au  Au6  1  0.05830580  0.50818233  0.79070913  1
  Au  Au7  1  0.94169420  0.49181767  0.20929087  1
  Au  Au8  1  0.51837727  0.24962396  0.24499614  1
  Au  Au9  1  0.48162273  0.75037604  0.75500386  1
  Au  Au10  1  0.32610909  0.72239771  0.40461376  1
  Au  Au11  1  0.67389091  0.27760229  0.59538624  1
  Au  Au12  1  0.33663757  0.77661041  0.09343975  1
  Au  Au13  1  0.66336243  0.22338959  0.90656025  1
  F  F14  1  0.02444311  0.13176024  0.41646372  1
  F  F15  1  0.97555689  0.86823976  0.58353628  1
  F  F16  1  0.09649054  0.74340169  0.08909359  1
  F  F17  1  0.90350946  0.25659831  0.91090641  1
  F  F18  1  0.34289328  0.22845613  0.36003742  1
  F  F19  1  0.65710672  0.77154387  0.63996258  1
  F  F20  1  0.08137349  0.11881867  0.18790659  1
  F  F21  1  0.91862651  0.88118133  0.81209341  1
  F  F22  1  0.68477272  0.24348742  0.35793295  1
  F  F23  1  0.31522728  0.75651258  0.64206705  1
  F  F24  1  0.08489547  0.73588271  0.38564192  1
  F  F25  1  0.91510453  0.26411729  0.61435808  1
  F  F26  1  0.08546351  0.38649621  0.31237967  1
  F  F27  1  0.91453649  0.61350379  0.68762033  1
  F  F28  1  0.19691125  0.39966081  0.89663030  1
  F  F29  1  0.80308875  0.60033919  0.10336970  1
  F  F30  1  0.32671852  0.51447773  0.45441634  1
  F  F31  1  0.67328148  0.48552227  0.54558366  1
  F  F32  1  0.69772239  0.27053486  0.13801383  1
  F  F33  1  0.30227761  0.72946514  0.86198617  1
  F  F34  1  0.05575683  0.38746032  0.08914044  1
  F  F35  1  0.94424317  0.61253968  0.91085956  1
  F  F36  1  0.18528011  0.40742243  0.67373533  1
  F  F37  1  0.81471989  0.59257757  0.32626467  1
  F  F38  1  0.43291020  0.27946734  0.57557015  1
  F  F39  1  0.56708980  0.72053266  0.42442985  1
  F  F40  1  0.15758000  0.10333670  0.81860532  1
  F  F41  1  0.84242000  0.89666330  0.18139468  1
  F  F42  1  0.35730629  0.58784759  0.16574740  1
  F  F43  1  0.64269371  0.41215241  0.83425260  1
  F  F44  1  0.32249244  0.97579708  0.02667883  1
  F  F45  1  0.67750756  0.02420292  0.97332117  1
  F  F46  1  0.66855071  0.08074392  0.65412646  1
  F  F47  1  0.33144929  0.91925608  0.34587354  1
  F  F48  1  0.19765946  0.09262447  0.59712358  1
  F  F49  1  0.80234054  0.90737553  0.40287642  1
  F  F50  1  0.57685166  0.80239083  0.10068891  1
  F  F51  1  0.42314834  0.19760917  0.89931109  1
  F  F52  1  0.35909119  0.25335879  0.12246766  1
  F  F53  1  0.64090881  0.74664121  0.87753234  1
  F  F54  1  0.00000000  -0.00000000  0.00000000  1
  F  F55  1  0.00000000  0.50000000  0.50000000  1
