# generated using pymatgen
data_Sb2HCSCl6O5F3
_symmetry_space_group_name_H-M   'P 1'
_cell_length_a   9.62480941
_cell_length_b   10.02182565
_cell_length_c   17.82334832
_cell_angle_alpha   90.00000000
_cell_angle_beta   103.18859556
_cell_angle_gamma   90.00000000
_symmetry_Int_Tables_number   1
_chemical_formula_structural   Sb2HCSCl6O5F3
_chemical_formula_sum   'Sb8 H4 C4 S4 Cl24 O20 F12'
_cell_volume   1673.86217959
_cell_formula_units_Z   4
loop_
 _symmetry_equiv_pos_site_id
 _symmetry_equiv_pos_as_xyz
  1  'x, y, z'
loop_
 _atom_site_type_symbol
 _atom_site_label
 _atom_site_symmetry_multiplicity
 _atom_site_fract_x
 _atom_site_fract_y
 _atom_site_fract_z
 _atom_site_occupancy
  Sb  Sb0  1  0.23621237  0.71912629  0.46011257  1
  Sb  Sb1  1  0.73621237  0.78087371  0.96011257  1
  Sb  Sb2  1  0.76378763  0.28087371  0.53988743  1
  Sb  Sb3  1  0.26378763  0.21912629  0.03988743  1
  Sb  Sb4  1  0.18908978  0.95285263  0.33207355  1
  Sb  Sb5  1  0.68908978  0.54714737  0.83207355  1
  Sb  Sb6  1  0.81091022  0.04714737  0.66792645  1
  Sb  Sb7  1  0.31091022  0.45285263  0.16792645  1
  H  H8  1  0.22474647  0.99166004  0.49401629  1
  H  H9  1  0.72474647  0.50833996  0.99401629  1
  H  H10  1  0.77525353  0.00833996  0.50598371  1
  H  H11  1  0.27525353  0.49166004  0.00598371  1
  C  C12  1  0.78857728  0.71367670  0.32045348  1
  C  C13  1  0.28857728  0.78632330  0.82045348  1
  C  C14  1  0.21142272  0.28632330  0.67954652  1
  C  C15  1  0.71142272  0.21367670  0.17954652  1
  S  S16  1  0.88987990  0.83676378  0.39308911  1
  S  S17  1  0.38987990  0.66323622  0.89308911  1
  S  S18  1  0.11012010  0.16323622  0.60691089  1
  S  S19  1  0.61012010  0.33676378  0.10691089  1
  Cl  Cl20  1  0.08459588  0.93648013  0.20111014  1
  Cl  Cl21  1  0.58459588  0.56351987  0.70111014  1
  Cl  Cl22  1  0.91540412  0.06351987  0.79888986  1
  Cl  Cl23  1  0.41540412  0.43648013  0.29888986  1
  Cl  Cl24  1  0.23279974  0.73673658  0.59045350  1
  Cl  Cl25  1  0.73279974  0.76326342  0.09045350  1
  Cl  Cl26  1  0.76720026  0.26326342  0.40954650  1
  Cl  Cl27  1  0.26720026  0.23673658  0.90954650  1
  Cl  Cl28  1  0.14069671  0.17798137  0.34873655  1
  Cl  Cl29  1  0.64069671  0.32201863  0.84873655  1
  Cl  Cl30  1  0.85930329  0.82201863  0.65126345  1
  Cl  Cl31  1  0.35930329  0.67798137  0.15126345  1
  Cl  Cl32  1  0.48292927  0.69567786  0.48007954  1
  Cl  Cl33  1  0.98292927  0.80432214  0.98007954  1
  Cl  Cl34  1  0.51707073  0.30432214  0.51992046  1
  Cl  Cl35  1  0.01707073  0.19567786  0.01992046  1
  Cl  Cl36  1  0.17178143  0.49452819  0.44383338  1
  Cl  Cl37  1  0.67178143  0.00547181  0.94383338  1
  Cl  Cl38  1  0.82821857  0.50547181  0.55616662  1
  Cl  Cl39  1  0.32821857  0.99452819  0.05616662  1
  Cl  Cl40  1  0.42521533  0.98312000  0.32427505  1
  Cl  Cl41  1  0.92521533  0.51688000  0.82427505  1
  Cl  Cl42  1  0.57478467  0.01688000  0.67572495  1
  Cl  Cl43  1  0.07478467  0.48312000  0.17572495  1
  O  O44  1  0.19646808  0.75736460  0.34826377  1
  O  O45  1  0.69646808  0.74263540  0.84826377  1
  O  O46  1  0.80353192  0.24263540  0.65173623  1
  O  O47  1  0.30353192  0.25736460  0.15173623  1
  O  O48  1  0.24318343  0.92918481  0.45386339  1
  O  O49  1  0.74318343  0.57081519  0.95386339  1
  O  O50  1  0.75681657  0.07081519  0.54613661  1
  O  O51  1  0.25681657  0.42918481  0.04613661  1
  O  O52  1  0.99669756  0.75425426  0.44700412  1
  O  O53  1  0.49669756  0.74574574  0.94700412  1
  O  O54  1  0.00330244  0.24574574  0.55299588  1
  O  O55  1  0.50330244  0.25425426  0.05299588  1
  O  O56  1  0.95641732  0.93122923  0.34742890  1
  O  O57  1  0.45641732  0.56877077  0.84742890  1
  O  O58  1  0.04358268  0.06877077  0.65257110  1
  O  O59  1  0.54358268  0.43122923  0.15257110  1
  O  O60  1  0.78411157  0.89621455  0.42831464  1
  O  O61  1  0.28411157  0.60378545  0.92831464  1
  O  O62  1  0.21588843  0.10378545  0.57168536  1
  O  O63  1  0.71588843  0.39621455  0.07168536  1
  F  F64  1  0.87882029  0.65335179  0.28363899  1
  F  F65  1  0.37882029  0.84664821  0.78363899  1
  F  F66  1  0.12117971  0.34664821  0.71636101  1
  F  F67  1  0.62117971  0.15335179  0.21636101  1
  F  F68  1  0.72697701  0.62188426  0.35721451  1
  F  F69  1  0.22697701  0.87811574  0.85721451  1
  F  F70  1  0.27302299  0.37811574  0.64278549  1
  F  F71  1  0.77302299  0.12188426  0.14278549  1
  F  F72  1  0.68765365  0.77980437  0.26912838  1
  F  F73  1  0.18765365  0.72019563  0.76912838  1
  F  F74  1  0.31234635  0.22019563  0.73087162  1
  F  F75  1  0.81234635  0.27980437  0.23087162  1
