# generated using pymatgen
data_LaN2Cl5
_symmetry_space_group_name_H-M   'P 1'
_cell_length_a   12.95207998
_cell_length_b   8.36671506
_cell_length_c   8.68307720
_cell_angle_alpha   90.00000000
_cell_angle_beta   90.00000000
_cell_angle_gamma   90.00000000
_symmetry_Int_Tables_number   1
_chemical_formula_structural   LaN2Cl5
_chemical_formula_sum   'La4 N8 Cl20'
_cell_volume   940.95349257
_cell_formula_units_Z   4
loop_
 _symmetry_equiv_pos_site_id
 _symmetry_equiv_pos_as_xyz
  1  'x, y, z'
loop_
 _atom_site_type_symbol
 _atom_site_label
 _atom_site_symmetry_multiplicity
 _atom_site_fract_x
 _atom_site_fract_y
 _atom_site_fract_z
 _atom_site_occupancy
  La  La0  1  0.57599864  0.75000000  0.01224231  1
  La  La1  1  0.42400136  0.25000000  0.98775769  1
  La  La2  1  0.07599864  0.25000000  0.48775769  1
  La  La3  1  0.92400136  0.75000000  0.51224231  1
  N  N4  1  0.47299778  0.46119085  0.53292293  1
  N  N5  1  0.52700222  0.53880915  0.46707707  1
  N  N6  1  0.97299778  0.53880915  0.96707707  1
  N  N7  1  0.52700222  0.96119085  0.46707707  1
  N  N8  1  0.02700222  0.46119085  0.03292293  1
  N  N9  1  0.47299778  0.03880915  0.53292293  1
  N  N10  1  0.02700222  0.03880915  0.03292293  1
  N  N11  1  0.97299778  0.96119085  0.96707707  1
  Cl  Cl12  1  0.32569842  0.75000000  0.76068173  1
  Cl  Cl13  1  0.67430158  0.25000000  0.23931827  1
  Cl  Cl14  1  0.82569842  0.25000000  0.73931827  1
  Cl  Cl15  1  0.17430158  0.75000000  0.26068173  1
  Cl  Cl16  1  0.58282243  0.45403038  0.86484581  1
  Cl  Cl17  1  0.41717757  0.54596962  0.13515419  1
  Cl  Cl18  1  0.08282243  0.54596962  0.63515419  1
  Cl  Cl19  1  0.41717757  0.95403038  0.13515419  1
  Cl  Cl20  1  0.91717757  0.45403038  0.36484581  1
  Cl  Cl21  1  0.58282243  0.04596962  0.86484581  1
  Cl  Cl22  1  0.91717757  0.04596962  0.36484581  1
  Cl  Cl23  1  0.08282243  0.95403038  0.63515419  1
  Cl  Cl24  1  0.19079672  0.75000000  0.02925763  1
  Cl  Cl25  1  0.80920328  0.25000000  0.97074237  1
  Cl  Cl26  1  0.69079672  0.25000000  0.47074237  1
  Cl  Cl27  1  0.30920328  0.75000000  0.52925763  1
  Cl  Cl28  1  0.77013647  0.75000000  0.71019755  1
  Cl  Cl29  1  0.22986353  0.25000000  0.28980245  1
  Cl  Cl30  1  0.27013647  0.25000000  0.78980245  1
  Cl  Cl31  1  0.72986353  0.75000000  0.21019755  1
