# generated using pymatgen
data_Er5CoBi2
_symmetry_space_group_name_H-M   'P 1'
_cell_length_a   7.85484149
_cell_length_b   8.88959772
_cell_length_c   12.40472367
_cell_angle_alpha   90.00000000
_cell_angle_beta   90.00000000
_cell_angle_gamma   90.00000000
_symmetry_Int_Tables_number   1
_chemical_formula_structural   Er5CoBi2
_chemical_formula_sum   'Er20 Co4 Bi8'
_cell_volume   866.17696119
_cell_formula_units_Z   4
loop_
 _symmetry_equiv_pos_site_id
 _symmetry_equiv_pos_as_xyz
  1  'x, y, z'
loop_
 _atom_site_type_symbol
 _atom_site_label
 _atom_site_symmetry_multiplicity
 _atom_site_fract_x
 _atom_site_fract_y
 _atom_site_fract_z
 _atom_site_occupancy
  Er  Er0  1  0.65549787  0.75000000  0.70233798  1
  Er  Er1  1  0.34450213  0.25000000  0.29766202  1
  Er  Er2  1  0.15549787  0.25000000  0.79766202  1
  Er  Er3  1  0.84450213  0.75000000  0.20233798  1
  Er  Er4  1  0.13017137  0.75000000  0.81898988  1
  Er  Er5  1  0.86982863  0.25000000  0.18101012  1
  Er  Er6  1  0.63017137  0.25000000  0.68101012  1
  Er  Er7  1  0.36982863  0.75000000  0.31898988  1
  Er  Er8  1  0.55987587  0.75000000  0.99594648  1
  Er  Er9  1  0.44012413  0.25000000  0.00405352  1
  Er  Er10  1  0.05987587  0.25000000  0.50405352  1
  Er  Er11  1  0.94012413  0.75000000  0.49594648  1
  Er  Er12  1  0.83070648  0.46349729  0.93176805  1
  Er  Er13  1  0.16929352  0.53650271  0.06823195  1
  Er  Er14  1  0.33070648  0.53650271  0.56823195  1
  Er  Er15  1  0.16929352  0.96349729  0.06823195  1
  Er  Er16  1  0.66929352  0.46349729  0.43176805  1
  Er  Er17  1  0.83070648  0.03650271  0.93176805  1
  Er  Er18  1  0.66929352  0.03650271  0.43176805  1
  Er  Er19  1  0.33070648  0.96349729  0.56823195  1
  Co  Co20  1  0.93443994  0.75000000  0.99427657  1
  Co  Co21  1  0.06556006  0.25000000  0.00572343  1
  Co  Co22  1  0.43443994  0.25000000  0.50572343  1
  Co  Co23  1  0.56556006  0.75000000  0.49427657  1
  Bi  Bi24  1  0.93788827  0.00298412  0.67307489  1
  Bi  Bi25  1  0.06211173  0.99701588  0.32692511  1
  Bi  Bi26  1  0.43788827  0.99701588  0.82692511  1
  Bi  Bi27  1  0.06211173  0.50298412  0.32692511  1
  Bi  Bi28  1  0.56211173  0.00298412  0.17307489  1
  Bi  Bi29  1  0.93788827  0.49701588  0.67307489  1
  Bi  Bi30  1  0.56211173  0.49701588  0.17307489  1
  Bi  Bi31  1  0.43788827  0.50298412  0.82692511  1
