# generated using pymatgen
data_K10Gd22F79
_symmetry_space_group_name_H-M   'P 1'
_cell_length_a   8.24618213
_cell_length_b   11.92364070
_cell_length_c   18.00893435
_cell_angle_alpha   109.33239122
_cell_angle_beta   103.23508379
_cell_angle_gamma   90.00000000
_symmetry_Int_Tables_number   1
_chemical_formula_structural   K10Gd22F79
_chemical_formula_sum   'K10 Gd22 F79'
_cell_volume   1620.94912279
_cell_formula_units_Z   1
loop_
 _symmetry_equiv_pos_site_id
 _symmetry_equiv_pos_as_xyz
  1  'x, y, z'
loop_
 _atom_site_type_symbol
 _atom_site_label
 _atom_site_symmetry_multiplicity
 _atom_site_fract_x
 _atom_site_fract_y
 _atom_site_fract_z
 _atom_site_occupancy
  K  K0  1  0.12537191  0.38615404  0.25074381  1
  K  K1  1  0.87462809  0.61384596  0.74925619  1
  K  K2  1  0.12537191  0.86458977  0.25074381  1
  K  K3  1  0.87462809  0.13541023  0.74925619  1
  K  K4  1  0.25355621  0.49407170  0.50711241  1
  K  K5  1  0.74644379  0.50592830  0.49288759  1
  K  K6  1  0.25355621  0.01304071  0.50711241  1
  K  K7  1  0.74644379  0.98695929  0.49288759  1
  K  K8  1  0.50000000  0.75764460  1.00000000  1
  K  K9  1  0.50000000  0.24235540  0.00000000  1
  Gd  Gd10  1  0.37016928  0.62755189  0.74033856  1
  Gd  Gd11  1  0.62983072  0.37244811  0.25966144  1
  Gd  Gd12  1  0.37016928  0.11278667  0.74033856  1
  Gd  Gd13  1  0.62983072  0.88721333  0.25966144  1
  Gd  Gd14  1  0.32157369  0.06641981  0.13283963  1
  Gd  Gd15  1  0.67842631  0.93358019  0.86716037  1
  Gd  Gd16  1  0.81126594  0.06641981  0.13283963  1
  Gd  Gd17  1  0.18873406  0.93358019  0.86716037  1
  Gd  Gd18  1  0.69737123  0.43863660  0.87727320  1
  Gd  Gd19  1  0.30262877  0.56136340  0.12272680  1
  Gd  Gd20  1  0.17990197  0.43863660  0.87727320  1
  Gd  Gd21  1  0.82009803  0.56136340  0.12272680  1
  Gd  Gd22  1  0.42844408  0.18746044  0.37492088  1
  Gd  Gd23  1  0.57155592  0.81253956  0.62507912  1
  Gd  Gd24  1  0.94647680  0.18746044  0.37492088  1
  Gd  Gd25  1  0.05352320  0.81253956  0.62507912  1
  Gd  Gd26  1  0.56889415  0.30609727  0.61219453  1
  Gd  Gd27  1  0.43110585  0.69390273  0.38780547  1
  Gd  Gd28  1  0.04330038  0.30609727  0.61219453  1
  Gd  Gd29  1  0.95669962  0.69390273  0.38780547  1
  Gd  Gd30  1  0.00000000  0.25338453  0.00000000  1
  Gd  Gd31  1  1.00000000  0.74661547  1.00000000  1
  F  F32  1  0.21491695  0.21310987  0.08712073  1
  F  F33  1  0.78508305  0.78689013  0.91287927  1
  F  F34  1  0.87220378  0.87401086  0.08712073  1
  F  F35  1  0.78508305  0.12598914  0.91287927  1
  F  F36  1  0.12779622  0.12598914  0.91287927  1
  F  F37  1  0.21491695  0.87401086  0.08712073  1
  F  F38  1  0.12779622  0.78689013  0.91287927  1
  F  F39  1  0.87220378  0.21310987  0.08712073  1
  F  F40  1  0.27918685  0.27918685  0.55837371  1
  F  F41  1  0.72081315  0.72081315  0.44162629  1
  F  F42  1  0.45763335  0.45763335  0.91526671  1
  F  F43  1  0.54236665  0.54236665  0.08473329  1
  F  F44  1  0.05634196  0.44469602  0.11268392  1
  F  F45  1  0.94365804  0.55530398  0.88731608  1
  F  F46  1  0.05634196  0.66798791  0.11268392  1
  F  F47  1  0.94365804  0.33201209  0.88731608  1
  F  F48  1  0.18577198  0.29109552  0.37154397  1
  F  F49  1  0.81422802  0.70890448  0.62845603  1
  F  F50  1  0.18577198  0.08044844  0.37154397  1
  F  F51  1  0.81422802  0.91955156  0.62845603  1
  F  F52  1  0.22634106  0.38689822  1.00000000  1
  F  F53  1  0.77365894  0.61310178  0.00000000  1
  F  F54  1  0.77365894  0.38689822  1.00000000  1
  F  F55  1  0.22634106  0.61310178  0.00000000  1
  F  F56  1  0.70819112  0.37308188  0.74616375  1
  F  F57  1  0.29180888  0.62691812  0.25383625  1
  F  F58  1  0.03797263  0.37308188  0.74616375  1
  F  F59  1  0.96202737  0.62691812  0.25383625  1
  F  F60  1  0.42785655  0.81686685  0.85571310  1
  F  F61  1  0.57214345  0.18313315  0.14428690  1
  F  F62  1  0.42785655  0.03884625  0.85571310  1
  F  F63  1  0.57214345  0.96115375  0.14428690  1
  F  F64  1  -0.00000000  -0.00000000  0.00000000  1
  F  F65  1  0.35174420  0.35174420  0.70348840  1
  F  F66  1  0.64825580  0.64825580  0.29651160  1
  F  F67  1  0.31803457  0.71200255  0.63606914  1
  F  F68  1  0.68196543  0.28799745  0.36393086  1
  F  F69  1  0.31803457  0.92406659  0.63606914  1
  F  F70  1  0.68196543  0.07593341  0.36393086  1
  F  F71  1  0.50758671  0.35072118  0.48776715  1
  F  F72  1  0.49241329  0.64927882  0.51223285  1
  F  F73  1  0.98018044  0.13704597  0.48776715  1
  F  F74  1  0.49241329  0.86295403  0.51223285  1
  F  F75  1  0.01981956  0.86295403  0.51223285  1
  F  F76  1  0.50758671  0.13704597  0.48776715  1
  F  F77  1  0.01981956  0.64927882  0.51223285  1
  F  F78  1  0.98018044  0.35072118  0.48776715  1
  F  F79  1  0.19389607  0.58761439  0.38779215  1
  F  F80  1  0.80610393  0.41238561  0.61220785  1
  F  F81  1  0.19389607  0.80017776  0.38779215  1
  F  F82  1  0.80610393  0.19982224  0.61220785  1
  F  F83  1  0.41738601  0.42216111  0.17419243  1
  F  F84  1  0.58261399  0.57783889  0.82580757  1
  F  F85  1  0.75680642  0.75203132  0.17419243  1
  F  F86  1  0.58261399  0.24796868  0.82580757  1
  F  F87  1  0.24319358  0.24796868  0.82580757  1
  F  F88  1  0.41738601  0.75203132  0.17419243  1
  F  F89  1  0.24319358  0.57783889  0.82580757  1
  F  F90  1  0.75680642  0.42216111  0.17419243  1
  F  F91  1  0.09080176  0.09080176  0.18160352  1
  F  F92  1  0.90919824  0.90919824  0.81839648  1
  F  F93  1  0.33845484  -0.00000000  0.00000000  1
  F  F94  1  0.66154516  -0.00000000  0.00000000  1
  F  F95  1  0.39549558  0.24046197  0.25580310  1
  F  F96  1  0.60450442  0.75953803  0.74419690  1
  F  F97  1  0.86030753  0.01534114  0.25580310  1
  F  F98  1  0.60450442  0.98465886  0.74419690  1
  F  F99  1  0.13969247  0.98465886  0.74419690  1
  F  F100  1  0.39549558  0.01534114  0.25580310  1
  F  F101  1  0.13969247  0.75953803  0.74419690  1
  F  F102  1  0.86030753  0.24046197  0.25580310  1
  F  F103  1  0.50166908  0.50509683  0.64988874  1
  F  F104  1  0.49833092  0.49490317  0.35011126  1
  F  F105  1  0.14821966  0.14479192  0.64988874  1
  F  F106  1  0.49833092  0.85520808  0.35011126  1
  F  F107  1  0.85178034  0.85520808  0.35011126  1
  F  F108  1  0.50166908  0.14479192  0.64988874  1
  F  F109  1  0.85178034  0.49490317  0.35011126  1
  F  F110  1  0.14821966  0.50509683  0.64988874  1
