# generated using pymatgen
data_Er6Nb4Al43
_symmetry_space_group_name_H-M   'P 1'
_cell_length_a   11.11554580
_cell_length_b   11.11554580
_cell_length_c   17.70646415
_cell_angle_alpha   90.00000000
_cell_angle_beta   90.00000000
_cell_angle_gamma   119.99999917
_symmetry_Int_Tables_number   1
_chemical_formula_structural   Er6Nb4Al43
_chemical_formula_sum   'Er12 Nb8 Al86'
_cell_volume   1894.62849494
_cell_formula_units_Z   2
loop_
 _symmetry_equiv_pos_site_id
 _symmetry_equiv_pos_as_xyz
  1  'x, y, z'
loop_
 _atom_site_type_symbol
 _atom_site_label
 _atom_site_symmetry_multiplicity
 _atom_site_fract_x
 _atom_site_fract_y
 _atom_site_fract_z
 _atom_site_occupancy
  Er  Er0  1  0.46971096  0.46971096  0.90384674  1
  Er  Er1  1  0.53028904  0.53028904  0.09615326  1
  Er  Er2  1  0.00000000  0.53028904  0.90384674  1
  Er  Er3  1  0.53028904  0.53028904  0.40384674  1
  Er  Er4  1  0.00000000  0.53028904  0.59615326  1
  Er  Er5  1  1.00000000  0.46971096  0.09615326  1
  Er  Er6  1  0.46971096  0.46971096  0.59615326  1
  Er  Er7  1  1.00000000  0.46971096  0.40384674  1
  Er  Er8  1  0.53028904  0.00000000  0.90384674  1
  Er  Er9  1  0.46971096  1.00000000  0.09615326  1
  Er  Er10  1  0.46971096  1.00000000  0.40384674  1
  Er  Er11  1  0.53028904  0.00000000  0.59615326  1
  Nb  Nb12  1  0.00000000  0.00000000  -0.00000000  1
  Nb  Nb13  1  0.00000000  0.00000000  0.50000000  1
  Nb  Nb14  1  0.27441330  0.27441330  0.75000000  1
  Nb  Nb15  1  0.72558670  0.72558670  0.25000000  1
  Nb  Nb16  1  0.00000000  0.72558670  0.75000000  1
  Nb  Nb17  1  1.00000000  0.27441330  0.25000000  1
  Nb  Nb18  1  0.72558670  0.00000000  0.75000000  1
  Nb  Nb19  1  0.27441330  1.00000000  0.25000000  1
  Al  Al20  1  0.85004762  0.44559284  0.75000000  1
  Al  Al21  1  0.14995238  0.55440716  0.25000000  1
  Al  Al22  1  0.59554522  0.14995238  0.75000000  1
  Al  Al23  1  0.40445478  0.55440716  0.75000000  1
  Al  Al24  1  0.40445478  0.85004762  0.25000000  1
  Al  Al25  1  0.59554522  0.44559284  0.25000000  1
  Al  Al26  1  0.55440716  0.40445478  0.75000000  1
  Al  Al27  1  0.44559284  0.85004762  0.75000000  1
  Al  Al28  1  0.44559284  0.59554522  0.25000000  1
  Al  Al29  1  0.55440716  0.14995238  0.25000000  1
  Al  Al30  1  0.14995238  0.59554522  0.75000000  1
  Al  Al31  1  0.85004762  0.40445478  0.25000000  1
  Al  Al32  1  0.84087602  0.84087602  0.38475155  1
  Al  Al33  1  0.15912398  0.15912398  0.61524845  1
  Al  Al34  1  0.00000000  0.15912398  0.38475155  1
  Al  Al35  1  0.15912398  0.15912398  0.88475155  1
  Al  Al36  1  0.00000000  0.15912398  0.11524845  1
  Al  Al37  1  1.00000000  0.84087602  0.61524845  1
  Al  Al38  1  0.84087602  0.84087602  0.11524845  1
  Al  Al39  1  1.00000000  0.84087602  0.88475155  1
  Al  Al40  1  0.15912398  0.00000000  0.38475155  1
  Al  Al41  1  0.84087602  1.00000000  0.61524845  1
  Al  Al42  1  0.84087602  1.00000000  0.88475155  1
  Al  Al43  1  0.15912398  0.00000000  0.11524845  1
  Al  Al44  1  0.75277829  0.24722171  -0.00000000  1
  Al  Al45  1  0.24722171  0.75277829  -0.00000000  1
  Al  Al46  1  0.49444341  0.24722171  -0.00000000  1
  Al  Al47  1  0.24722171  0.75277829  0.50000000  1
  Al  Al48  1  0.50555659  0.75277829  0.50000000  1
  Al  Al49  1  0.50555659  0.75277829  -0.00000000  1
  Al  Al50  1  0.75277829  0.24722171  0.50000000  1
  Al  Al51  1  0.49444341  0.24722171  0.50000000  1
  Al  Al52  1  0.75277829  0.50555659  -0.00000000  1
  Al  Al53  1  0.24722171  0.49444341  -0.00000000  1
  Al  Al54  1  0.24722171  0.49444341  0.50000000  1
  Al  Al55  1  0.75277829  0.50555659  0.50000000  1
  Al  Al56  1  0.85288438  0.85288438  0.75000000  1
  Al  Al57  1  0.14711562  0.14711562  0.25000000  1
  Al  Al58  1  0.00000000  0.14711562  0.75000000  1
  Al  Al59  1  1.00000000  0.85288438  0.25000000  1
  Al  Al60  1  0.14711562  0.00000000  0.75000000  1
  Al  Al61  1  0.85288438  1.00000000  0.25000000  1
  Al  Al62  1  0.66666700  0.33333300  0.87373675  1
  Al  Al63  1  0.33333300  0.66666700  0.12626325  1
  Al  Al64  1  0.33333300  0.66666700  0.37373675  1
  Al  Al65  1  0.33333300  0.66666700  0.62626325  1
  Al  Al66  1  0.66666700  0.33333300  0.62626325  1
  Al  Al67  1  0.66666700  0.33333300  0.37373675  1
  Al  Al68  1  0.66666700  0.33333300  0.12626325  1
  Al  Al69  1  0.33333300  0.66666700  0.87373675  1
  Al  Al70  1  0.74309118  0.74309118  0.96971496  1
  Al  Al71  1  0.25690882  0.25690882  0.03028504  1
  Al  Al72  1  1.00000000  0.25690882  0.96971496  1
  Al  Al73  1  0.25690882  0.25690882  0.46971496  1
  Al  Al74  1  1.00000000  0.25690882  0.53028504  1
  Al  Al75  1  0.00000000  0.74309118  0.03028504  1
  Al  Al76  1  0.74309118  0.74309118  0.53028504  1
  Al  Al77  1  0.00000000  0.74309118  0.46971496  1
  Al  Al78  1  0.25690882  1.00000000  0.96971496  1
  Al  Al79  1  0.74309118  0.00000000  0.03028504  1
  Al  Al80  1  0.74309118  0.00000000  0.46971496  1
  Al  Al81  1  0.25690882  1.00000000  0.53028504  1
  Al  Al82  1  0.84323531  0.23766973  0.83651739  1
  Al  Al83  1  0.15676469  0.76233027  0.16348261  1
  Al  Al84  1  0.39443443  0.15676469  0.83651739  1
  Al  Al85  1  0.15676469  0.76233027  0.33651739  1
  Al  Al86  1  0.60556557  0.76233027  0.66348261  1
  Al  Al87  1  0.60556557  0.84323531  0.16348261  1
  Al  Al88  1  0.84323531  0.23766973  0.66348261  1
  Al  Al89  1  0.39443443  0.23766973  0.33651739  1
  Al  Al90  1  0.76233027  0.60556557  0.83651739  1
  Al  Al91  1  0.60556557  0.84323531  0.33651739  1
  Al  Al92  1  0.23766973  0.84323531  0.66348261  1
  Al  Al93  1  0.23766973  0.39443443  0.16348261  1
  Al  Al94  1  0.39443443  0.15676469  0.66348261  1
  Al  Al95  1  0.76233027  0.15676469  0.33651739  1
  Al  Al96  1  0.39443443  0.23766973  0.16348261  1
  Al  Al97  1  0.60556557  0.76233027  0.83651739  1
  Al  Al98  1  0.23766973  0.39443443  0.33651739  1
  Al  Al99  1  0.76233027  0.15676469  0.16348261  1
  Al  Al100  1  0.76233027  0.60556557  0.66348261  1
  Al  Al101  1  0.23766973  0.84323531  0.83651739  1
  Al  Al102  1  0.15676469  0.39443443  0.66348261  1
  Al  Al103  1  0.84323531  0.60556557  0.33651739  1
  Al  Al104  1  0.84323531  0.60556557  0.16348261  1
  Al  Al105  1  0.15676469  0.39443443  0.83651739  1
