# generated using pymatgen
data_Er6Al43V4
_symmetry_space_group_name_H-M   'P 1'
_cell_length_a   10.99316722
_cell_length_b   10.99316722
_cell_length_c   17.55920761
_cell_angle_alpha   90.00000000
_cell_angle_beta   90.00000000
_cell_angle_gamma   120.00000159
_symmetry_Int_Tables_number   1
_chemical_formula_structural   Er6Al43V4
_chemical_formula_sum   'Er12 Al86 V8'
_cell_volume   1837.72789318
_cell_formula_units_Z   2
loop_
 _symmetry_equiv_pos_site_id
 _symmetry_equiv_pos_as_xyz
  1  'x, y, z'
loop_
 _atom_site_type_symbol
 _atom_site_label
 _atom_site_symmetry_multiplicity
 _atom_site_fract_x
 _atom_site_fract_y
 _atom_site_fract_z
 _atom_site_occupancy
  Er  Er0  1  0.46954894  0.46954894  0.90423009  1
  Er  Er1  1  0.53045106  0.53045106  0.09576991  1
  Er  Er2  1  1.00000000  0.53045106  0.90423009  1
  Er  Er3  1  0.53045106  0.53045106  0.40423009  1
  Er  Er4  1  1.00000000  0.53045106  0.59576991  1
  Er  Er5  1  0.00000000  0.46954894  0.09576991  1
  Er  Er6  1  0.46954894  0.46954894  0.59576991  1
  Er  Er7  1  0.00000000  0.46954894  0.40423009  1
  Er  Er8  1  0.53045106  1.00000000  0.90423009  1
  Er  Er9  1  0.46954894  0.00000000  0.09576991  1
  Er  Er10  1  0.46954894  0.00000000  0.40423009  1
  Er  Er11  1  0.53045106  1.00000000  0.59576991  1
  Al  Al12  1  0.85392582  0.45180019  0.75000000  1
  Al  Al13  1  0.14607418  0.54819981  0.25000000  1
  Al  Al14  1  0.59787436  0.14607418  0.75000000  1
  Al  Al15  1  0.40212564  0.54819981  0.75000000  1
  Al  Al16  1  0.40212564  0.85392582  0.25000000  1
  Al  Al17  1  0.59787436  0.45180019  0.25000000  1
  Al  Al18  1  0.54819981  0.40212564  0.75000000  1
  Al  Al19  1  0.45180019  0.85392582  0.75000000  1
  Al  Al20  1  0.45180019  0.59787436  0.25000000  1
  Al  Al21  1  0.54819981  0.14607418  0.25000000  1
  Al  Al22  1  0.14607418  0.59787436  0.75000000  1
  Al  Al23  1  0.85392582  0.40212564  0.25000000  1
  Al  Al24  1  0.84434085  0.84434085  0.38442725  1
  Al  Al25  1  0.15565915  0.15565915  0.61557275  1
  Al  Al26  1  1.00000000  0.15565915  0.38442725  1
  Al  Al27  1  0.15565915  0.15565915  0.88442725  1
  Al  Al28  1  1.00000000  0.15565915  0.11557275  1
  Al  Al29  1  0.00000000  0.84434085  0.61557275  1
  Al  Al30  1  0.84434085  0.84434085  0.11557275  1
  Al  Al31  1  0.00000000  0.84434085  0.88442725  1
  Al  Al32  1  0.15565915  1.00000000  0.38442725  1
  Al  Al33  1  0.84434085  0.00000000  0.61557275  1
  Al  Al34  1  0.84434085  0.00000000  0.88442725  1
  Al  Al35  1  0.15565915  1.00000000  0.11557275  1
  Al  Al36  1  0.75310431  0.24689569  0.00000000  1
  Al  Al37  1  0.24689569  0.75310431  -0.00000000  1
  Al  Al38  1  0.49379138  0.24689569  0.00000000  1
  Al  Al39  1  0.24689569  0.75310431  0.50000000  1
  Al  Al40  1  0.50620862  0.75310431  0.50000000  1
  Al  Al41  1  0.50620862  0.75310431  0.00000000  1
  Al  Al42  1  0.75310431  0.24689569  0.50000000  1
  Al  Al43  1  0.49379138  0.24689569  0.50000000  1
  Al  Al44  1  0.75310431  0.50620862  -0.00000000  1
  Al  Al45  1  0.24689569  0.49379138  0.00000000  1
  Al  Al46  1  0.24689569  0.49379138  0.50000000  1
  Al  Al47  1  0.75310431  0.50620862  0.50000000  1
  Al  Al48  1  0.85461761  0.85461761  0.75000000  1
  Al  Al49  1  0.14538239  0.14538239  0.25000000  1
  Al  Al50  1  1.00000000  0.14538239  0.75000000  1
  Al  Al51  1  0.00000000  0.85461761  0.25000000  1
  Al  Al52  1  0.14538239  1.00000000  0.75000000  1
  Al  Al53  1  0.85461761  0.00000000  0.25000000  1
  Al  Al54  1  0.66666700  0.33333300  0.87264514  1
  Al  Al55  1  0.33333300  0.66666700  0.12735486  1
  Al  Al56  1  0.33333300  0.66666700  0.37264514  1
  Al  Al57  1  0.33333300  0.66666700  0.62735486  1
  Al  Al58  1  0.66666700  0.33333300  0.62735486  1
  Al  Al59  1  0.66666700  0.33333300  0.37264514  1
  Al  Al60  1  0.66666700  0.33333300  0.12735486  1
  Al  Al61  1  0.33333300  0.66666700  0.87264514  1
  Al  Al62  1  0.74688096  0.74688096  0.97008273  1
  Al  Al63  1  0.25311904  0.25311904  0.02991727  1
  Al  Al64  1  1.00000000  0.25311904  0.97008273  1
  Al  Al65  1  0.25311904  0.25311904  0.47008273  1
  Al  Al66  1  1.00000000  0.25311904  0.52991727  1
  Al  Al67  1  0.00000000  0.74688096  0.02991727  1
  Al  Al68  1  0.74688096  0.74688096  0.52991727  1
  Al  Al69  1  0.00000000  0.74688096  0.47008273  1
  Al  Al70  1  0.25311904  1.00000000  0.97008273  1
  Al  Al71  1  0.74688096  0.00000000  0.02991727  1
  Al  Al72  1  0.74688096  0.00000000  0.47008273  1
  Al  Al73  1  0.25311904  1.00000000  0.52991727  1
  Al  Al74  1  0.84242878  0.23430572  0.83460199  1
  Al  Al75  1  0.15757122  0.76569428  0.16539801  1
  Al  Al76  1  0.39187694  0.15757122  0.83460199  1
  Al  Al77  1  0.15757122  0.76569428  0.33460199  1
  Al  Al78  1  0.60812306  0.76569428  0.66539801  1
  Al  Al79  1  0.60812306  0.84242878  0.16539801  1
  Al  Al80  1  0.84242878  0.23430572  0.66539801  1
  Al  Al81  1  0.39187694  0.23430572  0.33460199  1
  Al  Al82  1  0.76569428  0.60812306  0.83460199  1
  Al  Al83  1  0.60812306  0.84242878  0.33460199  1
  Al  Al84  1  0.23430572  0.84242878  0.66539801  1
  Al  Al85  1  0.23430572  0.39187694  0.16539801  1
  Al  Al86  1  0.39187694  0.15757122  0.66539801  1
  Al  Al87  1  0.76569428  0.15757122  0.33460199  1
  Al  Al88  1  0.39187694  0.23430572  0.16539801  1
  Al  Al89  1  0.60812306  0.76569428  0.83460199  1
  Al  Al90  1  0.23430572  0.39187694  0.33460199  1
  Al  Al91  1  0.76569428  0.15757122  0.16539801  1
  Al  Al92  1  0.76569428  0.60812306  0.66539801  1
  Al  Al93  1  0.23430572  0.84242878  0.83460199  1
  Al  Al94  1  0.15757122  0.39187694  0.66539801  1
  Al  Al95  1  0.84242878  0.60812306  0.33460199  1
  Al  Al96  1  0.84242878  0.60812306  0.16539801  1
  Al  Al97  1  0.15757122  0.39187694  0.83460199  1
  V  V98  1  -0.00000000  -0.00000000  0.00000000  1
  V  V99  1  -0.00000000  -0.00000000  0.50000000  1
  V  V100  1  0.26984526  0.26984526  0.75000000  1
  V  V101  1  0.73015474  0.73015474  0.25000000  1
  V  V102  1  1.00000000  0.73015474  0.75000000  1
  V  V103  1  0.00000000  0.26984526  0.25000000  1
  V  V104  1  0.73015474  1.00000000  0.75000000  1
  V  V105  1  0.26984526  0.00000000  0.25000000  1
