# generated using pymatgen
data_Eu2Ni7
_symmetry_space_group_name_H-M   'P 1'
_cell_length_a   5.02699863
_cell_length_b   5.02699863
_cell_length_c   24.07549352
_cell_angle_alpha   90.00000000
_cell_angle_beta   90.00000000
_cell_angle_gamma   120.00000512
_symmetry_Int_Tables_number   1
_chemical_formula_structural   Eu2Ni7
_chemical_formula_sum   'Eu8 Ni28'
_cell_volume   526.89410704
_cell_formula_units_Z   4
loop_
 _symmetry_equiv_pos_site_id
 _symmetry_equiv_pos_as_xyz
  1  'x, y, z'
loop_
 _atom_site_type_symbol
 _atom_site_label
 _atom_site_symmetry_multiplicity
 _atom_site_fract_x
 _atom_site_fract_y
 _atom_site_fract_z
 _atom_site_occupancy
  Eu  Eu0  1  0.66666700  0.33333300  0.32686281  1
  Eu  Eu1  1  0.33333300  0.66666700  0.67313719  1
  Eu  Eu2  1  0.33333300  0.66666700  0.82686281  1
  Eu  Eu3  1  0.66666700  0.33333300  0.17313719  1
  Eu  Eu4  1  0.66666700  0.33333300  0.47201635  1
  Eu  Eu5  1  0.33333300  0.66666700  0.52798365  1
  Eu  Eu6  1  0.33333300  0.66666700  0.97201635  1
  Eu  Eu7  1  0.66666700  0.33333300  0.02798365  1
  Ni  Ni8  1  0.66666700  0.33333300  0.83216200  1
  Ni  Ni9  1  0.33333300  0.66666700  0.16783800  1
  Ni  Ni10  1  0.33333300  0.66666700  0.33216200  1
  Ni  Ni11  1  0.66666700  0.33333300  0.66783800  1
  Ni  Ni12  1  0.83410526  0.16589474  0.91254203  1
  Ni  Ni13  1  0.16589474  0.83410526  0.08745797  1
  Ni  Ni14  1  0.33178948  0.16589474  0.91254203  1
  Ni  Ni15  1  0.16589474  0.83410526  0.41254203  1
  Ni  Ni16  1  0.66821052  0.83410526  0.08745797  1
  Ni  Ni17  1  0.83410526  0.16589474  0.58745797  1
  Ni  Ni18  1  0.83410526  0.66821052  0.91254203  1
  Ni  Ni19  1  0.66821052  0.83410526  0.41254203  1
  Ni  Ni20  1  0.16589474  0.33178948  0.08745797  1
  Ni  Ni21  1  0.33178948  0.16589474  0.58745797  1
  Ni  Ni22  1  0.16589474  0.33178948  0.41254203  1
  Ni  Ni23  1  0.83410526  0.66821052  0.58745797  1
  Ni  Ni24  1  -0.00000000  -0.00000000  0.83119758  1
  Ni  Ni25  1  -0.00000000  -0.00000000  0.16880242  1
  Ni  Ni26  1  -0.00000000  -0.00000000  0.33119758  1
  Ni  Ni27  1  -0.00000000  -0.00000000  0.66880242  1
  Ni  Ni28  1  -0.00000000  -0.00000000  -0.00000000  1
  Ni  Ni29  1  -0.00000000  -0.00000000  0.50000000  1
  Ni  Ni30  1  0.83290590  0.16709410  0.75000000  1
  Ni  Ni31  1  0.16709410  0.83290590  0.25000000  1
  Ni  Ni32  1  0.33418820  0.16709410  0.75000000  1
  Ni  Ni33  1  0.66581180  0.83290590  0.25000000  1
  Ni  Ni34  1  0.83290590  0.66581180  0.75000000  1
  Ni  Ni35  1  0.16709410  0.33418820  0.25000000  1
