# generated using pymatgen
data_Dy3NiGe2
_symmetry_space_group_name_H-M   'P 1'
_cell_length_a   4.17532361
_cell_length_b   11.39139054
_cell_length_c   11.32594105
_cell_angle_alpha   90.00000000
_cell_angle_beta   90.00000000
_cell_angle_gamma   90.00000000
_symmetry_Int_Tables_number   1
_chemical_formula_structural   Dy3NiGe2
_chemical_formula_sum   'Dy12 Ni4 Ge8'
_cell_volume   538.69281062
_cell_formula_units_Z   4
loop_
 _symmetry_equiv_pos_site_id
 _symmetry_equiv_pos_as_xyz
  1  'x, y, z'
loop_
 _atom_site_type_symbol
 _atom_site_label
 _atom_site_symmetry_multiplicity
 _atom_site_fract_x
 _atom_site_fract_y
 _atom_site_fract_z
 _atom_site_occupancy
  Dy  Dy0  1  0.75000000  0.94159534  0.62662801  1
  Dy  Dy1  1  0.25000000  0.05840466  0.37337199  1
  Dy  Dy2  1  0.25000000  0.55840466  0.12662801  1
  Dy  Dy3  1  0.75000000  0.44159534  0.87337199  1
  Dy  Dy4  1  0.75000000  0.78257119  0.30426541  1
  Dy  Dy5  1  0.25000000  0.21742881  0.69573459  1
  Dy  Dy6  1  0.25000000  0.71742881  0.80426541  1
  Dy  Dy7  1  0.75000000  0.28257119  0.19573459  1
  Dy  Dy8  1  0.75000000  0.61761337  0.55838174  1
  Dy  Dy9  1  0.25000000  0.38238663  0.44161826  1
  Dy  Dy10  1  0.25000000  0.88238663  0.05838174  1
  Dy  Dy11  1  0.75000000  0.11761337  0.94161826  1
  Ni  Ni12  1  0.75000000  0.86928147  0.86688883  1
  Ni  Ni13  1  0.25000000  0.13071853  0.13311117  1
  Ni  Ni14  1  0.25000000  0.63071853  0.36688883  1
  Ni  Ni15  1  0.75000000  0.36928147  0.63311117  1
  Ge  Ge16  1  0.75000000  0.51997250  0.31205911  1
  Ge  Ge17  1  0.25000000  0.48002750  0.68794089  1
  Ge  Ge18  1  0.25000000  0.98002750  0.81205911  1
  Ge  Ge19  1  0.75000000  0.01997250  0.18794089  1
  Ge  Ge20  1  0.75000000  0.69323718  0.99737267  1
  Ge  Ge21  1  0.25000000  0.30676282  0.00262733  1
  Ge  Ge22  1  0.25000000  0.80676282  0.49737267  1
  Ge  Ge23  1  0.75000000  0.19323718  0.50262733  1
