# generated using pymatgen
data_Er6Ni20As13
_symmetry_space_group_name_H-M   'P 1'
_cell_length_a   3.83729911
_cell_length_b   13.09685905
_cell_length_c   13.09685905
_cell_angle_alpha   119.99999740
_cell_angle_beta   90.00000000
_cell_angle_gamma   90.00000000
_symmetry_Int_Tables_number   1
_chemical_formula_structural   Er6Ni20As13
_chemical_formula_sum   'Er6 Ni20 As13'
_cell_volume   570.02066823
_cell_formula_units_Z   1
loop_
 _symmetry_equiv_pos_site_id
 _symmetry_equiv_pos_as_xyz
  1  'x, y, z'
loop_
 _atom_site_type_symbol
 _atom_site_label
 _atom_site_symmetry_multiplicity
 _atom_site_fract_x
 _atom_site_fract_y
 _atom_site_fract_z
 _atom_site_occupancy
  Er  Er0  1  -0.00000000  0.52878521  0.80966822  1
  Er  Er1  1  0.00000000  0.28088301  0.47121479  1
  Er  Er2  1  0.00000000  0.19033178  0.71911699  1
  Er  Er3  1  0.50000000  0.81032356  0.28115522  1
  Er  Er4  1  0.50000000  0.47083167  0.18967644  1
  Er  Er5  1  0.50000000  0.71884478  0.52916833  1
  Ni  Ni6  1  -0.00000000  0.80019797  0.90815844  1
  Ni  Ni7  1  -0.00000000  0.10796047  0.19980203  1
  Ni  Ni8  1  0.00000000  0.09184156  0.89203953  1
  Ni  Ni9  1  0.50000000  0.33333300  0.66666700  1
  Ni  Ni10  1  0.50000000  0.92804556  0.07804178  1
  Ni  Ni11  1  0.50000000  0.14999622  0.07195444  1
  Ni  Ni12  1  0.50000000  0.92195822  0.85000378  1
  Ni  Ni13  1  -0.00000000  0.66666700  0.33333300  1
  Ni  Ni14  1  0.00000000  0.56232483  0.58268752  1
  Ni  Ni15  1  -0.00000000  0.02036269  0.43767517  1
  Ni  Ni16  1  0.00000000  0.41731248  0.97963731  1
  Ni  Ni17  1  0.50000000  0.68256662  0.75221865  1
  Ni  Ni18  1  0.50000000  0.06965202  0.31743338  1
  Ni  Ni19  1  0.50000000  0.24778135  0.93034798  1
  Ni  Ni20  1  0.50000000  0.97883048  0.56355861  1
  Ni  Ni21  1  0.50000000  0.58472813  0.02116952  1
  Ni  Ni22  1  0.50000000  0.43644139  0.41527187  1
  Ni  Ni23  1  0.00000000  0.75494987  0.07601927  1
  Ni  Ni24  1  0.00000000  0.32106940  0.24505013  1
  Ni  Ni25  1  -0.00000000  0.92398073  0.67893060  1
  As  As26  1  0.50000000  0.47464459  0.61346741  1
  As  As27  1  0.50000000  0.13882281  0.52535541  1
  As  As28  1  0.50000000  0.38653259  0.86117719  1
  As  As29  1  0.50000000  0.71702280  0.95063652  1
  As  As30  1  0.50000000  0.23361373  0.28297720  1
  As  As31  1  0.50000000  0.04936348  0.76638627  1
  As  As32  1  0.00000000  0.86023047  0.47455174  1
  As  As33  1  0.00000000  0.61432128  0.13976953  1
  As  As34  1  -0.00000000  0.52544826  0.38567872  1
  As  As35  1  0.00000000  0.94771230  0.23246139  1
  As  As36  1  -0.00000000  0.28474909  0.05228770  1
  As  As37  1  -0.00000000  0.76753861  0.71525091  1
  As  As38  1  -0.00000000  0.00000000  0.00000000  1
