# generated using pymatgen
data_CsMo3Cl7
_symmetry_space_group_name_H-M   'P 1'
_cell_length_a   10.17182879
_cell_length_b   10.17182879
_cell_length_c   15.09422046
_cell_angle_alpha   90.00000000
_cell_angle_beta   90.00000000
_cell_angle_gamma   120.00000205
_symmetry_Int_Tables_number   1
_chemical_formula_structural   CsMo3Cl7
_chemical_formula_sum   'Cs4 Mo12 Cl28'
_cell_volume   1352.50660664
_cell_formula_units_Z   4
loop_
 _symmetry_equiv_pos_site_id
 _symmetry_equiv_pos_as_xyz
  1  'x, y, z'
loop_
 _atom_site_type_symbol
 _atom_site_label
 _atom_site_symmetry_multiplicity
 _atom_site_fract_x
 _atom_site_fract_y
 _atom_site_fract_z
 _atom_site_occupancy
  Cs  Cs0  1  -0.00000000  0.00000000  0.99557648  1
  Cs  Cs1  1  -0.00000000  0.00000000  0.49557648  1
  Cs  Cs2  1  0.66666700  0.33333300  0.71047643  1
  Cs  Cs3  1  0.33333300  0.66666700  0.21047643  1
  Mo  Mo4  1  0.48698169  0.67544935  0.78321257  1
  Mo  Mo5  1  0.18846766  0.51301831  0.78321257  1
  Mo  Mo6  1  0.81153234  0.32455065  0.28321257  1
  Mo  Mo7  1  0.32455065  0.81153234  0.78321257  1
  Mo  Mo8  1  0.67544935  0.48698169  0.28321257  1
  Mo  Mo9  1  0.51301831  0.18846766  0.28321257  1
  Mo  Mo10  1  0.47673819  0.82095777  0.64151792  1
  Mo  Mo11  1  0.34421957  0.52326181  0.64151792  1
  Mo  Mo12  1  0.65578043  0.17904223  0.14151792  1
  Mo  Mo13  1  0.17904223  0.65578043  0.64151792  1
  Mo  Mo14  1  0.82095777  0.47673819  0.14151792  1
  Mo  Mo15  1  0.52326181  0.34421957  0.14151792  1
  Cl  Cl16  1  0.62659809  0.68851990  0.64332394  1
  Cl  Cl17  1  0.06192181  0.37340191  0.64332394  1
  Cl  Cl18  1  0.93807819  0.31148010  0.14332394  1
  Cl  Cl19  1  0.31148010  0.93807819  0.64332394  1
  Cl  Cl20  1  0.68851990  0.62659809  0.14332394  1
  Cl  Cl21  1  0.37340191  0.06192181  0.14332394  1
  Cl  Cl22  1  0.98552530  0.30882872  0.86980805  1
  Cl  Cl23  1  0.32330343  0.01447470  0.86980805  1
  Cl  Cl24  1  0.67669657  0.69117128  0.36980805  1
  Cl  Cl25  1  0.69117128  0.67669657  0.86980805  1
  Cl  Cl26  1  0.30882872  0.98552530  0.36980805  1
  Cl  Cl27  1  0.01447470  0.32330343  0.36980805  1
  Cl  Cl28  1  0.66666700  0.33333300  0.01095542  1
  Cl  Cl29  1  0.33333300  0.66666700  0.51095542  1
  Cl  Cl30  1  0.66666700  0.33333300  0.41364053  1
  Cl  Cl31  1  0.33333300  0.66666700  0.91364053  1
  Cl  Cl32  1  0.60794106  0.95688775  0.78141996  1
  Cl  Cl33  1  0.34894668  0.39205894  0.78141996  1
  Cl  Cl34  1  0.65105332  0.04311225  0.28141996  1
  Cl  Cl35  1  0.04311225  0.65105332  0.78141996  1
  Cl  Cl36  1  0.95688775  0.60794106  0.28141996  1
  Cl  Cl37  1  0.39205894  0.34894668  0.28141996  1
  Cl  Cl38  1  0.66893206  0.03411338  0.55490127  1
  Cl  Cl39  1  0.36518132  0.33106794  0.55490127  1
  Cl  Cl40  1  0.63481868  0.96588662  0.05490127  1
  Cl  Cl41  1  0.96588662  0.63481868  0.55490127  1
  Cl  Cl42  1  0.03411338  0.66893206  0.05490127  1
  Cl  Cl43  1  0.33106794  0.36518132  0.05490127  1
