# generated using pymatgen
data_Sb5(TeO6)3
_symmetry_space_group_name_H-M   'P 1'
_cell_length_a   8.93014344
_cell_length_b   8.93014320
_cell_length_c   11.96185901
_cell_angle_alpha   94.12392919
_cell_angle_beta   94.12392576
_cell_angle_gamma   66.59034528
_symmetry_Int_Tables_number   1
_chemical_formula_structural   Sb5(TeO6)3
_chemical_formula_sum   'Sb10 Te6 O36'
_cell_volume   872.16183286
_cell_formula_units_Z   2
loop_
 _symmetry_equiv_pos_site_id
 _symmetry_equiv_pos_as_xyz
  1  'x, y, z'
loop_
 _atom_site_type_symbol
 _atom_site_label
 _atom_site_symmetry_multiplicity
 _atom_site_fract_x
 _atom_site_fract_y
 _atom_site_fract_z
 _atom_site_occupancy
  Sb  Sb0  1  0.84986863  0.51111915  0.96153871  1
  Sb  Sb1  1  0.10992727  0.27368749  0.45300034  1
  Sb  Sb2  1  0.36185268  0.35435876  0.28271296  1
  Sb  Sb3  1  0.94682129  0.73494050  0.79783497  1
  Sb  Sb4  1  0.64564124  0.63814732  0.71728704  1
  Sb  Sb5  1  0.92859518  0.07140482  0.00000000  1
  Sb  Sb6  1  0.69859170  0.30140830  0.50000000  1
  Sb  Sb7  1  0.26505950  0.05317771  0.20216503  1
  Sb  Sb8  1  0.72631251  0.89007273  0.54699966  1
  Sb  Sb9  1  0.48888085  0.15013137  0.03846129  1
  Te  Te10  1  0.44084176  0.80705926  0.96423991  1
  Te  Te11  1  0.80822379  0.24127429  0.24795299  1
  Te  Te12  1  0.75872571  0.19177621  0.75204701  1
  Te  Te13  1  0.39724151  0.83162108  0.44364237  1
  Te  Te14  1  0.16837892  0.60275849  0.55635763  1
  Te  Te15  1  0.19294074  0.55915824  0.03576009  1
  O  O16  1  0.44836480  0.00640520  0.91174839  1
  O  O17  1  0.75839643  0.43918238  0.81672825  1
  O  O18  1  0.58142190  0.49425540  0.60798187  1
  O  O19  1  0.78960046  0.12643081  0.37349803  1
  O  O20  1  0.56081762  0.24160357  0.18327175  1
  O  O21  1  0.87356919  0.21039954  0.62650197  1
  O  O22  1  0.30988886  0.85789950  0.28620507  1
  O  O23  1  0.95836741  0.12035655  0.84454405  1
  O  O24  1  0.60966916  0.15080703  0.56186418  1
  O  O25  1  0.16721612  0.45023715  0.38073685  1
  O  O26  1  0.63874548  0.63680005  0.03093584  1
  O  O27  1  0.48269957  0.95261376  0.12092434  1
  O  O28  1  0.81570697  0.94472850  0.71736832  1
  O  O29  1  0.74658060  0.73172839  0.86466495  1
  O  O30  1  0.36319995  0.36125452  0.96906416  1
  O  O31  1  0.28427661  0.54812637  0.19164144  1
  O  O32  1  0.96629115  0.75075662  0.49120692  1
  O  O33  1  0.26827161  0.25341940  0.13533505  1
  O  O34  1  0.50574460  0.41857810  0.39201813  1
  O  O35  1  0.24924338  0.03370885  0.50879308  1
  O  O36  1  0.59213700  0.85540733  0.40614946  1
  O  O37  1  0.85277518  0.63770031  0.66515295  1
  O  O38  1  0.87964345  0.04163259  0.15545595  1
  O  O39  1  0.45187363  0.71572339  0.80835856  1
  O  O40  1  0.99823231  0.83829022  0.94019229  1
  O  O41  1  0.68956606  0.12065180  0.96010218  1
  O  O42  1  0.04738624  0.51730043  0.87907566  1
  O  O43  1  0.14210050  0.69011114  0.71379493  1
  O  O44  1  0.05527150  0.18429303  0.28263168  1
  O  O45  1  0.36229969  0.14722482  0.33484705  1
  O  O46  1  0.14459267  0.40786300  0.59385054  1
  O  O47  1  0.87934820  0.31043394  0.03989782  1
  O  O48  1  0.84919297  0.39033084  0.43813582  1
  O  O49  1  0.54976285  0.83278388  0.61926315  1
  O  O50  1  0.16170978  0.00176769  0.05980771  1
  O  O51  1  0.99359480  0.55163519  0.08825161  1
