# generated using pymatgen
data_La23Cd4Ni7
_symmetry_space_group_name_H-M   'P 1'
_cell_length_a   10.09568218
_cell_length_b   10.09568218
_cell_length_c   22.91171512
_cell_angle_alpha   90.00000000
_cell_angle_beta   90.00000000
_cell_angle_gamma   120.00000063
_symmetry_Int_Tables_number   1
_chemical_formula_structural   La23Cd4Ni7
_chemical_formula_sum   'La46 Cd8 Ni14'
_cell_volume   2022.36513549
_cell_formula_units_Z   2
loop_
 _symmetry_equiv_pos_site_id
 _symmetry_equiv_pos_as_xyz
  1  'x, y, z'
loop_
 _atom_site_type_symbol
 _atom_site_label
 _atom_site_symmetry_multiplicity
 _atom_site_fract_x
 _atom_site_fract_y
 _atom_site_fract_z
 _atom_site_occupancy
  La  La0  1  0.20605070  0.41210141  0.71944081  1
  La  La1  1  0.20605070  0.79394930  0.71944081  1
  La  La2  1  0.79394930  0.58789859  0.21944081  1
  La  La3  1  0.58789859  0.79394930  0.71944081  1
  La  La4  1  0.79394930  0.20605070  0.21944081  1
  La  La5  1  0.41210141  0.20605070  0.21944081  1
  La  La6  1  0.79354828  0.58709657  0.94752006  1
  La  La7  1  0.79354828  0.20645172  0.94752006  1
  La  La8  1  0.20645172  0.41290343  0.44752006  1
  La  La9  1  0.41290343  0.20645172  0.94752006  1
  La  La10  1  0.20645172  0.79354828  0.44752006  1
  La  La11  1  0.58709657  0.79354828  0.44752006  1
  La  La12  1  0.21129599  0.42259198  0.99131510  1
  La  La13  1  0.21129599  0.78870401  0.99131510  1
  La  La14  1  0.78870401  0.57740802  0.49131510  1
  La  La15  1  0.57740802  0.78870401  0.99131510  1
  La  La16  1  0.78870401  0.21129599  0.49131510  1
  La  La17  1  0.42259198  0.21129599  0.49131510  1
  La  La18  1  0.87182417  0.74364834  0.63372331  1
  La  La19  1  0.87182417  0.12817583  0.63372331  1
  La  La20  1  0.12817583  0.25635166  0.13372331  1
  La  La21  1  0.25635166  0.12817583  0.63372331  1
  La  La22  1  0.12817583  0.87182417  0.13372331  1
  La  La23  1  0.74364834  0.87182417  0.13372331  1
  La  La24  1  0.45821259  0.91642519  0.85577505  1
  La  La25  1  0.45821259  0.54178741  0.85577505  1
  La  La26  1  0.54178741  0.08357481  0.35577505  1
  La  La27  1  0.08357481  0.54178741  0.85577505  1
  La  La28  1  0.54178741  0.45821259  0.35577505  1
  La  La29  1  0.91642519  0.45821259  0.35577505  1
  La  La30  1  -0.00000000  -0.00000000  0.99923135  1
  La  La31  1  -0.00000000  -0.00000000  0.49923135  1
  La  La32  1  0.46047458  0.92094915  0.58565007  1
  La  La33  1  0.46047458  0.53952542  0.58565007  1
  La  La34  1  0.53952542  0.07905085  0.08565007  1
  La  La35  1  0.07905085  0.53952542  0.58565007  1
  La  La36  1  0.53952542  0.46047458  0.08565007  1
  La  La37  1  0.92094915  0.46047458  0.08565007  1
  La  La38  1  0.79601685  0.59203370  0.78227903  1
  La  La39  1  0.79601685  0.20398315  0.78227903  1
  La  La40  1  0.20398315  0.40796630  0.28227903  1
  La  La41  1  0.40796630  0.20398315  0.78227903  1
  La  La42  1  0.20398315  0.79601685  0.28227903  1
  La  La43  1  0.59203370  0.79601685  0.28227903  1
  La  La44  1  0.66666700  0.33333300  0.64534795  1
  La  La45  1  0.33333300  0.66666700  0.14534795  1
  Cd  Cd46  1  -0.00000000  -0.00000000  0.74928065  1
  Cd  Cd47  1  -0.00000000  -0.00000000  0.24928065  1
  Cd  Cd48  1  0.10597722  0.21195444  0.86285280  1
  Cd  Cd49  1  0.10597722  0.89402278  0.86285280  1
  Cd  Cd50  1  0.89402278  0.78804556  0.36285280  1
  Cd  Cd51  1  0.78804556  0.89402278  0.86285280  1
  Cd  Cd52  1  0.89402278  0.10597722  0.36285280  1
  Cd  Cd53  1  0.21195444  0.10597722  0.36285280  1
  Ni  Ni54  1  0.52046151  0.04092303  0.71026695  1
  Ni  Ni55  1  0.52046151  0.47953849  0.71026695  1
  Ni  Ni56  1  0.47953849  0.95907697  0.21026695  1
  Ni  Ni57  1  0.95907697  0.47953849  0.71026695  1
  Ni  Ni58  1  0.47953849  0.52046151  0.21026695  1
  Ni  Ni59  1  0.04092303  0.52046151  0.21026695  1
  Ni  Ni60  1  0.66666700  0.33333300  0.86437889  1
  Ni  Ni61  1  0.33333300  0.66666700  0.36437889  1
  Ni  Ni62  1  0.14319651  0.28639301  0.56400387  1
  Ni  Ni63  1  0.14319651  0.85680349  0.56400387  1
  Ni  Ni64  1  0.85680349  0.71360699  0.06400387  1
  Ni  Ni65  1  0.71360699  0.85680349  0.56400387  1
  Ni  Ni66  1  0.85680349  0.14319651  0.06400387  1
  Ni  Ni67  1  0.28639301  0.14319651  0.06400387  1
