# generated using pymatgen
data_Cs2Pr10Os2I17
_symmetry_space_group_name_H-M   'P 1'
_cell_length_a   10.13862524
_cell_length_b   11.86199441
_cell_length_c   11.86199441
_cell_angle_alpha   108.08568289
_cell_angle_beta   93.49453926
_cell_angle_gamma   93.49453926
_symmetry_Int_Tables_number   1
_chemical_formula_structural   Cs2Pr10Os2I17
_chemical_formula_sum   'Cs2 Pr10 Os2 I17'
_cell_volume   1348.76600224
_cell_formula_units_Z   1
loop_
 _symmetry_equiv_pos_site_id
 _symmetry_equiv_pos_as_xyz
  1  'x, y, z'
loop_
 _atom_site_type_symbol
 _atom_site_label
 _atom_site_symmetry_multiplicity
 _atom_site_fract_x
 _atom_site_fract_y
 _atom_site_fract_z
 _atom_site_occupancy
  Cs  Cs0  1  0.00000000  0.67430745  0.32569255  1
  Cs  Cs1  1  0.00000000  0.32569255  0.67430745  1
  Pr  Pr2  1  0.57276981  0.70757589  0.00635084  1
  Pr  Pr3  1  0.42723019  0.29242411  0.99364916  1
  Pr  Pr4  1  0.42723019  0.99364916  0.29242411  1
  Pr  Pr5  1  0.57276981  0.00635084  0.70757589  1
  Pr  Pr6  1  0.44453663  0.67122895  0.67122895  1
  Pr  Pr7  1  0.55546337  0.32877105  0.32877105  1
  Pr  Pr8  1  0.31829525  0.93642206  0.93642206  1
  Pr  Pr9  1  0.68170475  0.06357794  0.06357794  1
  Pr  Pr10  1  0.81737689  0.79283931  0.79283931  1
  Pr  Pr11  1  0.18262311  0.20716069  0.20716069  1
  Os  Os12  1  0.56978818  0.85942737  0.85942737  1
  Os  Os13  1  0.43021182  0.14057263  0.14057263  1
  I  I14  1  0.85971352  0.61647156  0.94979147  1
  I  I15  1  0.14028648  0.38352844  0.05020853  1
  I  I16  1  0.14028648  0.05020853  0.38352844  1
  I  I17  1  0.85971352  0.94979147  0.61647156  1
  I  I18  1  0.57869433  0.52651740  0.18943074  1
  I  I19  1  0.42130567  0.47348260  0.81056926  1
  I  I20  1  0.42130567  0.81056926  0.47348260  1
  I  I21  1  0.57869433  0.18943074  0.52651740  1
  I  I22  1  0.71726787  0.56386850  0.56386850  1
  I  I23  1  0.28273213  0.43613150  0.43613150  1
  I  I24  1  0.72364377  0.24663454  0.89975699  1
  I  I25  1  0.27635623  0.75336546  0.10024301  1
  I  I26  1  0.27635623  0.10024301  0.75336546  1
  I  I27  1  0.72364377  0.89975699  0.24663454  1
  I  I28  1  0.86738486  0.28916696  0.28916696  1
  I  I29  1  0.13261514  0.71083304  0.71083304  1
  I  I30  1  0.00000000  0.00000000  0.00000000  1
