# generated using pymatgen
data_Cs2Li14Pb3O14
_symmetry_space_group_name_H-M   'P 1'
_cell_length_a   7.39925674
_cell_length_b   8.18930661
_cell_length_c   8.59750859
_cell_angle_alpha   118.44145267
_cell_angle_beta   115.48748946
_cell_angle_gamma   90.00000000
_symmetry_Int_Tables_number   1
_chemical_formula_structural   Cs2Li14Pb3O14
_chemical_formula_sum   'Cs2 Li14 Pb3 O14'
_cell_volume   399.48331892
_cell_formula_units_Z   1
loop_
 _symmetry_equiv_pos_site_id
 _symmetry_equiv_pos_as_xyz
  1  'x, y, z'
loop_
 _atom_site_type_symbol
 _atom_site_label
 _atom_site_symmetry_multiplicity
 _atom_site_fract_x
 _atom_site_fract_y
 _atom_site_fract_z
 _atom_site_occupancy
  Cs  Cs0  1  0.76292419  0.50000000  0.00000000  1
  Cs  Cs1  1  0.23707581  0.50000000  0.00000000  1
  Li  Li2  1  0.22787123  0.87467877  0.45574245  1
  Li  Li3  1  0.77212877  0.12532123  0.54425755  1
  Li  Li4  1  0.22787123  0.58106368  0.45574245  1
  Li  Li5  1  0.77212877  0.41893632  0.54425755  1
  Li  Li6  1  0.50000000  0.15730335  1.00000000  1
  Li  Li7  1  0.50000000  0.84269665  0.00000000  1
  Li  Li8  1  0.86243256  0.98254150  0.27095018  1
  Li  Li9  1  0.13756744  0.01745850  0.72904982  1
  Li  Li10  1  0.40851762  0.28840868  0.27095018  1
  Li  Li11  1  0.13756744  0.71159132  0.72904982  1
  Li  Li12  1  0.59148238  0.71159132  0.72904982  1
  Li  Li13  1  0.86243256  0.28840868  0.27095018  1
  Li  Li14  1  0.59148238  0.01745850  0.72904982  1
  Li  Li15  1  0.40851762  0.98254150  0.27095018  1
  Pb  Pb16  1  0.27100196  0.27100196  0.54200392  1
  Pb  Pb17  1  0.72899804  0.72899804  0.45799608  1
  Pb  Pb18  1  0.00000000  0.00000000  0.00000000  1
  O  O19  1  0.70411580  0.00000000  0.00000000  1
  O  O20  1  0.29588420  0.00000000  0.00000000  1
  O  O21  1  0.95843191  0.25067725  0.50135450  1
  O  O22  1  0.04156809  0.74932275  0.49864550  1
  O  O23  1  0.54292259  0.25067725  0.50135450  1
  O  O24  1  0.45707741  0.74932275  0.49864550  1
  O  O25  1  0.12758543  0.94520960  0.25517085  1
  O  O26  1  0.87241457  0.05479040  0.74482915  1
  O  O27  1  0.12758543  0.30996126  0.25517085  1
  O  O28  1  0.87241457  0.69003874  0.74482915  1
  O  O29  1  0.36874532  0.14890366  0.73749064  1
  O  O30  1  0.63125468  0.85109634  0.26250936  1
  O  O31  1  0.36874532  0.58858698  0.73749064  1
  O  O32  1  0.63125468  0.41141302  0.26250936  1
