# generated using pymatgen
data_ZnBiAsO5
_symmetry_space_group_name_H-M   'P 1'
_cell_length_a   8.13134795
_cell_length_b   7.25542056
_cell_length_c   8.99937974
_cell_angle_alpha   89.99993745
_cell_angle_beta   89.99890395
_cell_angle_gamma   90.00042615
_symmetry_Int_Tables_number   1
_chemical_formula_structural   ZnBiAsO5
_chemical_formula_sum   'Zn4 Bi4 As4 O20'
_cell_volume   530.93054910
_cell_formula_units_Z   4
loop_
 _symmetry_equiv_pos_site_id
 _symmetry_equiv_pos_as_xyz
  1  'x, y, z'
loop_
 _atom_site_type_symbol
 _atom_site_label
 _atom_site_symmetry_multiplicity
 _atom_site_fract_x
 _atom_site_fract_y
 _atom_site_fract_z
 _atom_site_occupancy
  Zn  Zn0  1  0.00603598  0.69864183  0.06831177  1
  Zn  Zn1  1  0.49396897  0.30135776  0.56830491  1
  Zn  Zn2  1  0.50602116  0.80135820  0.93168904  1
  Zn  Zn3  1  0.99397393  0.19863689  0.43168805  1
  Bi  Bi4  1  0.99891123  0.48831337  0.73515751  1
  Bi  Bi5  1  0.50108541  0.51168476  0.23515592  1
  Bi  Bi6  1  0.49890820  0.01168560  0.26483648  1
  Bi  Bi7  1  0.00110240  0.98831416  0.76484282  1
  As  As8  1  0.62008423  0.26039310  0.89924881  1
  As  As9  1  0.87991111  0.73960579  0.39925080  1
  As  As10  1  0.12008118  0.23960322  0.10074764  1
  As  As11  1  0.37992401  0.76039832  0.60074595  1
  O  O12  1  0.80463347  0.24748295  0.80046071  1
  O  O13  1  0.69535998  0.75252203  0.30047907  1
  O  O14  1  0.30462492  0.25251998  0.19954080  1
  O  O15  1  0.19537731  0.74748556  0.69953841  1
  O  O16  1  0.46182861  0.28576382  0.77470929  1
  O  O17  1  0.03815573  0.71422722  0.27472369  1
  O  O18  1  0.96182782  0.21422430  0.22528393  1
  O  O19  1  0.53817509  0.78575534  0.72528344  1
  O  O20  1  0.59500552  0.06033145  0.00075093  1
  O  O21  1  0.90499025  0.93967439  0.50076292  1
  O  O22  1  0.09501067  0.43966889  0.99924533  1
  O  O23  1  0.40498821  0.56032866  0.49924184  1
  O  O24  1  0.62701736  0.45077306  0.01280820  1
  O  O25  1  0.87296522  0.54923259  0.51282711  1
  O  O26  1  0.12703121  0.04923042  0.98718522  1
  O  O27  1  0.37299015  0.95077231  0.48719173  1
  O  O28  1  0.90125180  0.74852445  0.88780816  1
  O  O29  1  0.59875579  0.25148508  0.38779856  1
  O  O30  1  0.40123281  0.75147932  0.11219341  1
  O  O31  1  0.09876828  0.24852817  0.61218652  1
