# generated using pymatgen
data_Cs2Hg3(GeS4)2
_symmetry_space_group_name_H-M   'P 1'
_cell_length_a   6.72539409
_cell_length_b   8.09707387
_cell_length_c   9.44745820
_cell_angle_alpha   108.01991337
_cell_angle_beta   92.35219611
_cell_angle_gamma   106.68853378
_symmetry_Int_Tables_number   1
_chemical_formula_structural   Cs2Hg3(GeS4)2
_chemical_formula_sum   'Cs2 Hg3 Ge2 S8'
_cell_volume   463.84104096
_cell_formula_units_Z   1
loop_
 _symmetry_equiv_pos_site_id
 _symmetry_equiv_pos_as_xyz
  1  'x, y, z'
loop_
 _atom_site_type_symbol
 _atom_site_label
 _atom_site_symmetry_multiplicity
 _atom_site_fract_x
 _atom_site_fract_y
 _atom_site_fract_z
 _atom_site_occupancy
  Cs  Cs0  1  0.61039129  0.45889680  0.24246305  1
  Cs  Cs1  1  0.38960871  0.54110320  0.75753695  1
  Hg  Hg2  1  0.81707149  0.07022026  0.38749771  1
  Hg  Hg3  1  0.18292851  0.92977974  0.61250229  1
  Hg  Hg4  1  -0.00000000  -0.00000000  -0.00000000  1
  Ge  Ge5  1  0.24062791  0.84521806  0.24218759  1
  Ge  Ge6  1  0.75937209  0.15478194  0.75781241  1
  S  S7  1  0.44329468  0.13324123  0.83420236  1
  S  S8  1  0.55670532  0.86675877  0.16579764  1
  S  S9  1  0.16662093  0.66107616  0.38015993  1
  S  S10  1  0.83337907  0.33892384  0.61984007  1
  S  S11  1  0.98438202  0.28150297  0.97755347  1
  S  S12  1  0.01561798  0.71849703  0.02244653  1
  S  S13  1  0.21654180  0.12023772  0.37140549  1
  S  S14  1  0.78345820  0.87976228  0.62859451  1
