# generated using pymatgen
data_CsCe(PO3)4
_symmetry_space_group_name_H-M   'P 1'
_cell_length_a   7.29682634
_cell_length_b   8.95508378
_cell_length_c   9.36012750
_cell_angle_alpha   90.00000000
_cell_angle_beta   90.00000000
_cell_angle_gamma   99.59019193
_symmetry_Int_Tables_number   1
_chemical_formula_structural   CsCe(PO3)4
_chemical_formula_sum   'Cs2 Ce2 P8 O24'
_cell_volume   603.07755508
_cell_formula_units_Z   2
loop_
 _symmetry_equiv_pos_site_id
 _symmetry_equiv_pos_as_xyz
  1  'x, y, z'
loop_
 _atom_site_type_symbol
 _atom_site_label
 _atom_site_symmetry_multiplicity
 _atom_site_fract_x
 _atom_site_fract_y
 _atom_site_fract_z
 _atom_site_occupancy
  Cs  Cs0  1  0.82694000  0.82515089  0.29996127  1
  Cs  Cs1  1  0.17306000  0.17484911  0.79996127  1
  Ce  Ce2  1  0.29732695  0.69696480  0.96572106  1
  Ce  Ce3  1  0.70267305  0.30303520  0.46572106  1
  P  P4  1  0.80649717  0.77284547  0.88992388  1
  P  P5  1  0.19350283  0.22715453  0.38992388  1
  P  P6  1  0.44007086  0.62392352  0.57440223  1
  P  P7  1  0.55992914  0.37607648  0.07440223  1
  P  P8  1  0.58217148  0.92690190  0.68939812  1
  P  P9  1  0.41782852  0.07309810  0.18939812  1
  P  P10  1  0.85465795  0.45769088  0.83961000  1
  P  P11  1  0.14534205  0.54230912  0.33961000  1
  O  O12  1  0.57727875  0.53033840  0.51957047  1
  O  O13  1  0.42272125  0.46966160  0.01957047  1
  O  O14  1  0.71199040  0.36626652  0.95209297  1
  O  O15  1  0.28800960  0.63373348  0.45209297  1
  O  O16  1  0.77756756  0.61240373  0.80577163  1
  O  O17  1  0.22243244  0.38759627  0.30577163  1
  O  O18  1  0.83658535  0.36563177  0.70520774  1
  O  O19  1  0.16341465  0.63436823  0.20520774  1
  O  O20  1  0.99313848  0.18213136  0.43307008  1
  O  O21  1  0.00686152  0.81786864  0.93307008  1
  O  O22  1  0.35115893  0.59327100  0.71778904  1
  O  O23  1  0.64884107  0.40672900  0.21778904  1
  O  O24  1  0.42578228  0.90796052  0.79552418  1
  O  O25  1  0.57421772  0.09203948  0.29552418  1
  O  O26  1  0.54197393  0.80017587  0.56468817  1
  O  O27  1  0.45802607  0.19982413  0.06468817  1
  O  O28  1  0.77196692  0.88478218  0.76085586  1
  O  O29  1  0.22803308  0.11521782  0.26085586  1
  O  O30  1  0.65584681  0.76683155  0.00014208  1
  O  O31  1  0.34415319  0.23316845  0.50014208  1
  O  O32  1  0.64098503  0.07464557  0.61592402  1
  O  O33  1  0.35901497  0.92535443  0.11592402  1
  O  O34  1  0.95915625  0.50801882  0.41128720  1
  O  O35  1  0.04084375  0.49198118  0.91128720  1
