# generated using pymatgen
data_Gd2Sc3Si4
_symmetry_space_group_name_H-M   'P 1'
_cell_length_a   6.94474134
_cell_length_b   7.27162898
_cell_length_c   13.81985145
_cell_angle_alpha   90.00000000
_cell_angle_beta   90.00000000
_cell_angle_gamma   90.00000000
_symmetry_Int_Tables_number   1
_chemical_formula_structural   Gd2Sc3Si4
_chemical_formula_sum   'Gd8 Sc12 Si16'
_cell_volume   697.89672687
_cell_formula_units_Z   4
loop_
 _symmetry_equiv_pos_site_id
 _symmetry_equiv_pos_as_xyz
  1  'x, y, z'
loop_
 _atom_site_type_symbol
 _atom_site_label
 _atom_site_symmetry_multiplicity
 _atom_site_fract_x
 _atom_site_fract_y
 _atom_site_fract_z
 _atom_site_occupancy
  Gd  Gd0  1  0.99040638  0.82625019  0.40325655  1
  Gd  Gd1  1  0.00959362  0.17374981  0.59674345  1
  Gd  Gd2  1  0.50959362  0.32625019  0.59674345  1
  Gd  Gd3  1  0.00959362  0.17374981  0.90325655  1
  Gd  Gd4  1  0.49040638  0.67374981  0.40325655  1
  Gd  Gd5  1  0.99040638  0.82625019  0.09674345  1
  Gd  Gd6  1  0.49040638  0.67374981  0.09674345  1
  Gd  Gd7  1  0.50959362  0.32625019  0.90325655  1
  Sc  Sc8  1  0.83837862  0.49503290  0.75000000  1
  Sc  Sc9  1  0.16162138  0.50496710  0.25000000  1
  Sc  Sc10  1  0.66162138  0.99503290  0.25000000  1
  Sc  Sc11  1  0.33837862  0.00496710  0.75000000  1
  Sc  Sc12  1  0.67226502  0.82466884  0.87628806  1
  Sc  Sc13  1  0.32773498  0.17533116  0.12371194  1
  Sc  Sc14  1  0.82773498  0.32466884  0.12371194  1
  Sc  Sc15  1  0.32773498  0.17533116  0.37628806  1
  Sc  Sc16  1  0.17226502  0.67533116  0.87628806  1
  Sc  Sc17  1  0.67226502  0.82466884  0.62371194  1
  Sc  Sc18  1  0.17226502  0.67533116  0.62371194  1
  Sc  Sc19  1  0.82773498  0.32466884  0.37628806  1
  Si  Si20  1  0.96652836  0.87987547  0.75000000  1
  Si  Si21  1  0.03347164  0.12012453  0.25000000  1
  Si  Si22  1  0.53347164  0.37987547  0.25000000  1
  Si  Si23  1  0.46652836  0.62012453  0.75000000  1
  Si  Si24  1  0.71443382  0.12240104  0.75000000  1
  Si  Si25  1  0.28556618  0.87759896  0.25000000  1
  Si  Si26  1  0.78556618  0.62240104  0.25000000  1
  Si  Si27  1  0.21443382  0.37759896  0.75000000  1
  Si  Si28  1  0.84524884  0.53614715  0.96127932  1
  Si  Si29  1  0.15475116  0.46385285  0.03872068  1
  Si  Si30  1  0.65475116  0.03614715  0.03872068  1
  Si  Si31  1  0.15475116  0.46385285  0.46127932  1
  Si  Si32  1  0.34524884  0.96385285  0.96127932  1
  Si  Si33  1  0.84524884  0.53614715  0.53872068  1
  Si  Si34  1  0.34524884  0.96385285  0.53872068  1
  Si  Si35  1  0.65475116  0.03614715  0.46127932  1
