# generated using pymatgen
data_Ce2Ni12P5
_symmetry_space_group_name_H-M   'P 1'
_cell_length_a   3.66210832
_cell_length_b   10.80768775
_cell_length_c   13.11628783
_cell_angle_alpha   107.92141343
_cell_angle_beta   90.00000000
_cell_angle_gamma   90.00000000
_symmetry_Int_Tables_number   1
_chemical_formula_structural   Ce2Ni12P5
_chemical_formula_sum   'Ce4 Ni24 P10'
_cell_volume   493.94015532
_cell_formula_units_Z   2
loop_
 _symmetry_equiv_pos_site_id
 _symmetry_equiv_pos_as_xyz
  1  'x, y, z'
loop_
 _atom_site_type_symbol
 _atom_site_label
 _atom_site_symmetry_multiplicity
 _atom_site_fract_x
 _atom_site_fract_y
 _atom_site_fract_z
 _atom_site_occupancy
  Ce  Ce0  1  0.75000000  0.27916331  0.31684559  1
  Ce  Ce1  1  0.25000000  0.72083669  0.68315441  1
  Ce  Ce2  1  0.75000000  0.24652612  0.81227555  1
  Ce  Ce3  1  0.25000000  0.75347388  0.18772445  1
  Ni  Ni4  1  0.75000000  0.83792892  0.86130098  1
  Ni  Ni5  1  0.25000000  0.16207108  0.13869902  1
  Ni  Ni6  1  0.75000000  0.28788080  0.56080536  1
  Ni  Ni7  1  0.25000000  0.71211920  0.43919464  1
  Ni  Ni8  1  0.75000000  0.07092624  0.98373509  1
  Ni  Ni9  1  0.25000000  0.92907376  0.01626491  1
  Ni  Ni10  1  0.75000000  0.06549084  0.55306660  1
  Ni  Ni11  1  0.25000000  0.93450916  0.44693340  1
  Ni  Ni12  1  0.75000000  0.59496257  0.30409170  1
  Ni  Ni13  1  0.25000000  0.40503743  0.69590830  1
  Ni  Ni14  1  0.75000000  0.58156105  0.99090213  1
  Ni  Ni15  1  0.25000000  0.41843895  0.00909787  1
  Ni  Ni16  1  0.75000000  0.58050152  0.49180294  1
  Ni  Ni17  1  0.25000000  0.41949848  0.50819706  1
  Ni  Ni18  1  0.75000000  0.29822446  0.08244763  1
  Ni  Ni19  1  0.25000000  0.70177554  0.91755237  1
  Ni  Ni20  1  0.75000000  0.99473823  0.34068380  1
  Ni  Ni21  1  0.25000000  0.00526177  0.65931620  1
  Ni  Ni22  1  0.75000000  0.83943872  0.56252678  1
  Ni  Ni23  1  0.25000000  0.16056128  0.43747322  1
  Ni  Ni24  1  0.75000000  0.98993733  0.15230742  1
  Ni  Ni25  1  0.25000000  0.01006267  0.84769258  1
  Ni  Ni26  1  0.75000000  0.56559501  0.79692456  1
  Ni  Ni27  1  0.25000000  0.43440499  0.20307544  1
  P  P28  1  0.75000000  0.50956716  0.12882726  1
  P  P29  1  0.25000000  0.49043284  0.87117274  1
  P  P30  1  0.75000000  0.79971902  0.01780189  1
  P  P31  1  0.25000000  0.20028098  0.98219811  1
  P  P32  1  0.75000000  0.49617620  0.62279643  1
  P  P33  1  0.25000000  0.50382380  0.37720357  1
  P  P34  1  0.75000000  0.81035514  0.38692789  1
  P  P35  1  0.25000000  0.18964486  0.61307211  1
  P  P36  1  0.75000000  0.95127312  0.74099557  1
  P  P37  1  0.25000000  0.04872688  0.25900443  1
