# generated using pymatgen
data_Ba6Y2Al4O15
_symmetry_space_group_name_H-M   'P 1'
_cell_length_a   5.97011669
_cell_length_b   7.95398671
_cell_length_c   18.55933838
_cell_angle_alpha   91.69708573
_cell_angle_beta   90.00000000
_cell_angle_gamma   90.00000000
_symmetry_Int_Tables_number   1
_chemical_formula_structural   Ba6Y2Al4O15
_chemical_formula_sum   'Ba12 Y4 Al8 O30'
_cell_volume   880.92641587
_cell_formula_units_Z   2
loop_
 _symmetry_equiv_pos_site_id
 _symmetry_equiv_pos_as_xyz
  1  'x, y, z'
loop_
 _atom_site_type_symbol
 _atom_site_label
 _atom_site_symmetry_multiplicity
 _atom_site_fract_x
 _atom_site_fract_y
 _atom_site_fract_z
 _atom_site_occupancy
  Ba  Ba0  1  0.75822148  0.50198963  0.41765387  1
  Ba  Ba1  1  0.24177852  0.49801037  0.58234613  1
  Ba  Ba2  1  0.75822148  0.49801037  0.08234613  1
  Ba  Ba3  1  0.24177852  0.50198963  0.91765387  1
  Ba  Ba4  1  0.74535874  0.96937238  0.41047288  1
  Ba  Ba5  1  0.25464126  0.03062762  0.58952712  1
  Ba  Ba6  1  0.74535874  0.03062762  0.08952712  1
  Ba  Ba7  1  0.25464126  0.96937238  0.91047288  1
  Ba  Ba8  1  0.72604841  -0.00000000  0.75000000  1
  Ba  Ba9  1  0.27395159  -0.00000000  0.25000000  1
  Ba  Ba10  1  0.67058428  0.50000000  0.75000000  1
  Ba  Ba11  1  0.32941572  0.50000000  0.25000000  1
  Y  Y12  1  0.74688099  0.75175436  0.58966159  1
  Y  Y13  1  0.25311901  0.24824564  0.41033841  1
  Y  Y14  1  0.74688099  0.24824564  0.91033841  1
  Y  Y15  1  0.25311901  0.75175436  0.08966159  1
  Al  Al16  1  0.74937322  0.75229375  0.94409435  1
  Al  Al17  1  0.25062678  0.24770625  0.05590565  1
  Al  Al18  1  0.74937322  0.24770625  0.55590565  1
  Al  Al19  1  0.25062678  0.75229375  0.44409435  1
  Al  Al20  1  0.77117573  0.77968859  0.23200540  1
  Al  Al21  1  0.22882427  0.22031141  0.76799460  1
  Al  Al22  1  0.77117573  0.22031141  0.26799460  1
  Al  Al23  1  0.22882427  0.77968859  0.73200540  1
  O  O24  1  0.20885192  -0.00000000  0.75000000  1
  O  O25  1  0.79114808  -0.00000000  0.25000000  1
  O  O26  1  0.49758799  0.76394904  0.49928695  1
  O  O27  1  0.50241201  0.23605096  0.50071305  1
  O  O28  1  0.49758799  0.23605096  0.00071305  1
  O  O29  1  0.50241201  0.76394904  0.99928695  1
  O  O30  1  0.76016217  0.94293003  0.89399954  1
  O  O31  1  0.23983783  0.05706997  0.10600046  1
  O  O32  1  0.76016217  0.05706997  0.60600046  1
  O  O33  1  0.23983783  0.94293003  0.39399954  1
  O  O34  1  0.01244210  0.76216093  0.50415704  1
  O  O35  1  0.98755790  0.23783907  0.49584296  1
  O  O36  1  0.01244210  0.23783907  0.99584296  1
  O  O37  1  0.98755790  0.76216093  0.00415704  1
  O  O38  1  0.31390932  0.69251022  0.81297609  1
  O  O39  1  0.68609068  0.30748978  0.18702391  1
  O  O40  1  0.31390932  0.30748978  0.68702391  1
  O  O41  1  0.68609068  0.69251022  0.31297609  1
  O  O42  1  0.45048440  0.75339687  0.66698392  1
  O  O43  1  0.54951560  0.24660313  0.33301608  1
  O  O44  1  0.45048440  0.24660313  0.83301608  1
  O  O45  1  0.54951560  0.75339687  0.16698392  1
  O  O46  1  0.97121948  0.72978795  0.68862586  1
  O  O47  1  0.02878052  0.27021205  0.31137414  1
  O  O48  1  0.97121948  0.27021205  0.81137414  1
  O  O49  1  0.02878052  0.72978795  0.18862586  1
  O  O50  1  0.75371656  0.54007695  0.90779468  1
  O  O51  1  0.24628344  0.45992305  0.09220532  1
  O  O52  1  0.75371656  0.45992305  0.59220532  1
  O  O53  1  0.24628344  0.54007695  0.40779468  1
