# generated using pymatgen
data_Ba5Ho2ZrAl2O13
_symmetry_space_group_name_H-M   'P 1'
_cell_length_a   6.03317210
_cell_length_b   6.03317210
_cell_length_c   25.19068873
_cell_angle_alpha   90.00000000
_cell_angle_beta   90.00000000
_cell_angle_gamma   119.99999061
_symmetry_Int_Tables_number   1
_chemical_formula_structural   Ba5Ho2ZrAl2O13
_chemical_formula_sum   'Ba10 Ho4 Zr2 Al4 O26'
_cell_volume   794.07613296
_cell_formula_units_Z   2
loop_
 _symmetry_equiv_pos_site_id
 _symmetry_equiv_pos_as_xyz
  1  'x, y, z'
loop_
 _atom_site_type_symbol
 _atom_site_label
 _atom_site_symmetry_multiplicity
 _atom_site_fract_x
 _atom_site_fract_y
 _atom_site_fract_z
 _atom_site_occupancy
  Ba  Ba0  1  0.66666700  0.33333300  0.45752147  1
  Ba  Ba1  1  0.33333300  0.66666700  0.54247853  1
  Ba  Ba2  1  0.33333300  0.66666700  0.95752147  1
  Ba  Ba3  1  0.66666700  0.33333300  0.04247853  1
  Ba  Ba4  1  0.00000000  0.00000000  0.86167987  1
  Ba  Ba5  1  0.00000000  0.00000000  0.13832013  1
  Ba  Ba6  1  0.00000000  0.00000000  0.36167987  1
  Ba  Ba7  1  0.00000000  0.00000000  0.63832013  1
  Ba  Ba8  1  0.66666700  0.33333300  0.75000000  1
  Ba  Ba9  1  0.33333300  0.66666700  0.25000000  1
  Ho  Ho10  1  0.66666700  0.33333300  0.89628768  1
  Ho  Ho11  1  0.33333300  0.66666700  0.10371232  1
  Ho  Ho12  1  0.33333300  0.66666700  0.39628768  1
  Ho  Ho13  1  0.66666700  0.33333300  0.60371232  1
  Zr  Zr14  1  0.00000000  0.00000000  0.00000000  1
  Zr  Zr15  1  0.00000000  0.00000000  0.50000000  1
  Al  Al16  1  0.66666700  0.33333300  0.31881458  1
  Al  Al17  1  0.33333300  0.66666700  0.68118542  1
  Al  Al18  1  0.33333300  0.66666700  0.81881458  1
  Al  Al19  1  0.66666700  0.33333300  0.18118542  1
  O  O20  1  0.49455382  0.50544618  0.84158128  1
  O  O21  1  0.50544618  0.49455382  0.15841872  1
  O  O22  1  0.01089237  0.50544618  0.84158128  1
  O  O23  1  0.50544618  0.49455382  0.34158128  1
  O  O24  1  0.98910763  0.49455382  0.15841872  1
  O  O25  1  0.49455382  0.50544618  0.65841872  1
  O  O26  1  0.49455382  0.98910763  0.84158128  1
  O  O27  1  0.98910763  0.49455382  0.34158128  1
  O  O28  1  0.50544618  0.01089237  0.15841872  1
  O  O29  1  0.01089237  0.50544618  0.65841872  1
  O  O30  1  0.50544618  0.01089237  0.34158128  1
  O  O31  1  0.49455382  0.98910763  0.65841872  1
  O  O32  1  0.83780425  0.16219575  0.94927076  1
  O  O33  1  0.16219575  0.83780425  0.05072924  1
  O  O34  1  0.32439151  0.16219575  0.94927076  1
  O  O35  1  0.16219575  0.83780425  0.44927076  1
  O  O36  1  0.67560849  0.83780425  0.05072924  1
  O  O37  1  0.83780425  0.16219575  0.55072924  1
  O  O38  1  0.83780425  0.67560849  0.94927076  1
  O  O39  1  0.67560849  0.83780425  0.44927076  1
  O  O40  1  0.16219575  0.32439151  0.05072924  1
  O  O41  1  0.32439151  0.16219575  0.55072924  1
  O  O42  1  0.16219575  0.32439151  0.44927076  1
  O  O43  1  0.83780425  0.67560849  0.55072924  1
  O  O44  1  0.66666700  0.33333300  0.25000000  1
  O  O45  1  0.33333300  0.66666700  0.75000000  1
