# generated using pymatgen
data_Ba5Mn3O12F
_symmetry_space_group_name_H-M   'P 1'
_cell_length_a   7.93673787
_cell_length_b   10.57936719
_cell_length_c   10.57936719
_cell_angle_alpha   120.00000169
_cell_angle_beta   90.00000000
_cell_angle_gamma   90.00000000
_symmetry_Int_Tables_number   1
_chemical_formula_structural   Ba5Mn3O12F
_chemical_formula_sum   'Ba10 Mn6 O24 F2'
_cell_volume   769.29346478
_cell_formula_units_Z   2
loop_
 _symmetry_equiv_pos_site_id
 _symmetry_equiv_pos_as_xyz
  1  'x, y, z'
loop_
 _atom_site_type_symbol
 _atom_site_label
 _atom_site_symmetry_multiplicity
 _atom_site_fract_x
 _atom_site_fract_y
 _atom_site_fract_z
 _atom_site_occupancy
  Ba  Ba0  1  0.00219158  0.66666700  0.33333300  1
  Ba  Ba1  1  0.99780842  0.33333300  0.66666700  1
  Ba  Ba2  1  0.50219158  0.33333300  0.66666700  1
  Ba  Ba3  1  0.49780842  0.66666700  0.33333300  1
  Ba  Ba4  1  0.75000000  0.75670839  0.00822404  1
  Ba  Ba5  1  0.25000000  0.24329161  0.99177596  1
  Ba  Ba6  1  0.75000000  0.25151565  0.24329161  1
  Ba  Ba7  1  0.25000000  0.74848435  0.75670839  1
  Ba  Ba8  1  0.75000000  0.99177596  0.74848435  1
  Ba  Ba9  1  0.25000000  0.00822404  0.25151565  1
  Mn  Mn10  1  0.75000000  0.60151235  0.62981119  1
  Mn  Mn11  1  0.25000000  0.39848765  0.37018881  1
  Mn  Mn12  1  0.75000000  0.02829884  0.39848765  1
  Mn  Mn13  1  0.25000000  0.97170116  0.60151235  1
  Mn  Mn14  1  0.75000000  0.37018881  0.97170116  1
  Mn  Mn15  1  0.25000000  0.62981119  0.02829884  1
  O  O16  1  0.75000000  0.84233095  0.32556591  1
  O  O17  1  0.25000000  0.15766905  0.67443409  1
  O  O18  1  0.75000000  0.48323496  0.15766905  1
  O  O19  1  0.25000000  0.51676504  0.84233095  1
  O  O20  1  0.75000000  0.67443409  0.51676504  1
  O  O21  1  0.25000000  0.32556591  0.48323496  1
  O  O22  1  0.75000000  0.41317805  0.53627688  1
  O  O23  1  0.25000000  0.58682195  0.46372312  1
  O  O24  1  0.75000000  0.12309883  0.58682195  1
  O  O25  1  0.25000000  0.87690117  0.41317805  1
  O  O26  1  0.75000000  0.46372312  0.87690117  1
  O  O27  1  0.25000000  0.53627688  0.12309883  1
  O  O28  1  0.92271901  0.65670451  0.74279337  1
  O  O29  1  0.07728099  0.34329549  0.25720663  1
  O  O30  1  0.92271901  0.08608886  0.34329549  1
  O  O31  1  0.42271901  0.34329549  0.25720663  1
  O  O32  1  0.07728099  0.91391114  0.65670451  1
  O  O33  1  0.57728099  0.65670451  0.74279337  1
  O  O34  1  0.92271901  0.25720663  0.91391114  1
  O  O35  1  0.42271901  0.91391114  0.65670451  1
  O  O36  1  0.07728099  0.74279337  0.08608886  1
  O  O37  1  0.57728099  0.08608886  0.34329549  1
  O  O38  1  0.42271901  0.74279337  0.08608886  1
  O  O39  1  0.57728099  0.25720663  0.91391114  1
  F  F40  1  0.75000000  0.00000000  -0.00000000  1
  F  F41  1  0.25000000  0.00000000  -0.00000000  1
