# generated using pymatgen
data_CaHfTlF7
_symmetry_space_group_name_H-M   'P 1'
_cell_length_a   6.63536009
_cell_length_b   6.63536009
_cell_length_c   8.60434918
_cell_angle_alpha   90.00000000
_cell_angle_beta   90.00000000
_cell_angle_gamma   116.76337544
_symmetry_Int_Tables_number   1
_chemical_formula_structural   CaHfTlF7
_chemical_formula_sum   'Ca2 Hf2 Tl2 F14'
_cell_volume   338.24946709
_cell_formula_units_Z   2
loop_
 _symmetry_equiv_pos_site_id
 _symmetry_equiv_pos_as_xyz
  1  'x, y, z'
loop_
 _atom_site_type_symbol
 _atom_site_label
 _atom_site_symmetry_multiplicity
 _atom_site_fract_x
 _atom_site_fract_y
 _atom_site_fract_z
 _atom_site_occupancy
  Ca  Ca0  1  0.30948503  0.69051497  0.75000000  1
  Ca  Ca1  1  0.69051497  0.30948503  0.25000000  1
  Hf  Hf2  1  0.69305668  0.30694332  0.75000000  1
  Hf  Hf3  1  0.30694332  0.69305668  0.25000000  1
  Tl  Tl4  1  0.00000000  0.00000000  -0.00000000  1
  Tl  Tl5  1  0.00000000  0.00000000  0.50000000  1
  F  F6  1  0.35113323  0.06626116  0.75000000  1
  F  F7  1  0.64886677  0.93373884  0.25000000  1
  F  F8  1  0.93373884  0.64886677  0.75000000  1
  F  F9  1  0.06626116  0.35113323  0.25000000  1
  F  F10  1  0.51235083  0.48764917  0.75000000  1
  F  F11  1  0.48764917  0.51235083  0.25000000  1
  F  F12  1  0.70279775  0.29720225  0.98414697  1
  F  F13  1  0.29720225  0.70279775  0.01585303  1
  F  F14  1  0.29720225  0.70279775  0.48414697  1
  F  F15  1  0.70279775  0.29720225  0.51585303  1
  F  F16  1  0.67117481  0.97948737  0.75000000  1
  F  F17  1  0.32882519  0.02051263  0.25000000  1
  F  F18  1  0.02051263  0.32882519  0.75000000  1
  F  F19  1  0.97948737  0.67117481  0.25000000  1
