# generated using pymatgen
data_Mg2TaWO6
_symmetry_space_group_name_H-M   'P 1'
_cell_length_a   5.29965580
_cell_length_b   5.67122397
_cell_length_c   7.76252474
_cell_angle_alpha   95.31509581
_cell_angle_beta   133.06400870
_cell_angle_gamma   117.85480773
_symmetry_Int_Tables_number   1
_chemical_formula_structural   Mg2TaWO6
_chemical_formula_sum   'Mg2 Ta1 W1 O6'
_cell_volume   116.13210675
_cell_formula_units_Z   1
loop_
 _symmetry_equiv_pos_site_id
 _symmetry_equiv_pos_as_xyz
  1  'x, y, z'
loop_
 _atom_site_type_symbol
 _atom_site_label
 _atom_site_symmetry_multiplicity
 _atom_site_fract_x
 _atom_site_fract_y
 _atom_site_fract_z
 _atom_site_occupancy
  Mg  Mg0  1  0.99845505  0.56130806  0.20967259  1
  Mg  Mg1  1  0.99823904  0.57019173  0.70507119  1
  Ta  Ta2  1  0.99851283  0.98016908  0.50018857  1
  W  W3  1  0.99838658  0.97883798  0.00075129  1
  O  O4  1  0.28037722  0.08989077  0.40421830  1
  O  O5  1  0.70887392  0.79652515  0.59535584  1
  O  O6  1  0.70170854  0.50010557  0.29869609  1
  O  O7  1  0.58506140  0.08666107  0.88490998  1
  O  O8  1  0.35261539  0.80814733  0.12228851  1
  O  O9  1  0.36238804  0.45391825  0.76845365  1
