# generated using pymatgen
data_Ba5Re3IO15
_symmetry_space_group_name_H-M   'P 1'
_cell_length_a   7.99262860
_cell_length_b   11.22968467
_cell_length_c   11.22968467
_cell_angle_alpha   119.99999465
_cell_angle_beta   90.00000000
_cell_angle_gamma   90.00000000
_symmetry_Int_Tables_number   1
_chemical_formula_structural   Ba5Re3IO15
_chemical_formula_sum   'Ba10 Re6 I2 O30'
_cell_volume   872.88174469
_cell_formula_units_Z   2
loop_
 _symmetry_equiv_pos_site_id
 _symmetry_equiv_pos_as_xyz
  1  'x, y, z'
loop_
 _atom_site_type_symbol
 _atom_site_label
 _atom_site_symmetry_multiplicity
 _atom_site_fract_x
 _atom_site_fract_y
 _atom_site_fract_z
 _atom_site_occupancy
  Ba  Ba0  1  0.76917658  0.27278280  0.27278280  1
  Ba  Ba1  1  0.76917658  1.00000000  0.72721720  1
  Ba  Ba2  1  0.26917658  0.72721720  0.72721720  1
  Ba  Ba3  1  0.26917658  0.00000000  0.27278280  1
  Ba  Ba4  1  0.76917658  0.72721720  1.00000000  1
  Ba  Ba5  1  0.26917658  0.27278280  0.00000000  1
  Ba  Ba6  1  0.52948249  0.66666700  0.33333300  1
  Ba  Ba7  1  0.02948249  0.33333300  0.66666700  1
  Ba  Ba8  1  0.02948249  0.66666700  0.33333300  1
  Ba  Ba9  1  0.52948249  0.33333300  0.66666700  1
  Re  Re10  1  0.82521862  0.60883171  0.60883171  1
  Re  Re11  1  0.82521862  1.00000000  0.39116829  1
  Re  Re12  1  0.32521862  0.39116829  0.39116829  1
  Re  Re13  1  0.32521862  0.00000000  0.60883171  1
  Re  Re14  1  0.82521862  0.39116829  1.00000000  1
  Re  Re15  1  0.32521862  0.60883171  0.00000000  1
  I  I16  1  0.00371245  0.00000000  -0.00000000  1
  I  I17  1  0.50371245  0.00000000  -0.00000000  1
  O  O18  1  0.64728809  0.70090579  0.70090579  1
  O  O19  1  0.64728809  1.00000000  0.29909421  1
  O  O20  1  0.14728809  0.29909421  0.29909421  1
  O  O21  1  0.14728809  0.00000000  0.70090579  1
  O  O22  1  0.64728809  0.29909421  1.00000000  1
  O  O23  1  0.14728809  0.70090579  0.00000000  1
  O  O24  1  0.78599472  0.86988251  0.44598428  1
  O  O25  1  0.78599472  0.57610176  0.13011749  1
  O  O26  1  0.28599472  0.13011749  0.55401572  1
  O  O27  1  0.28599472  0.57610176  0.44598428  1
  O  O28  1  0.78599472  0.55401572  0.42389824  1
  O  O29  1  0.28599472  0.42389824  0.86988251  1
  O  O30  1  0.28599472  0.55401572  0.13011749  1
  O  O31  1  0.78599472  0.42389824  0.55401572  1
  O  O32  1  0.28599472  0.44598428  0.57610176  1
  O  O33  1  0.78599472  0.44598428  0.86988251  1
  O  O34  1  0.28599472  0.86988251  0.42389824  1
  O  O35  1  0.78599472  0.13011749  0.57610176  1
  O  O36  1  0.96451740  0.86914185  0.25895458  1
  O  O37  1  0.96451740  0.38981272  0.13085815  1
  O  O38  1  0.46451740  0.13085815  0.74104542  1
  O  O39  1  0.46451740  0.38981272  0.25895458  1
  O  O40  1  0.96451740  0.74104542  0.61018728  1
  O  O41  1  0.46451740  0.61018728  0.86914185  1
  O  O42  1  0.46451740  0.74104542  0.13085815  1
  O  O43  1  0.96451740  0.61018728  0.74104542  1
  O  O44  1  0.46451740  0.25895458  0.38981272  1
  O  O45  1  0.96451740  0.25895458  0.86914185  1
  O  O46  1  0.46451740  0.86914185  0.61018728  1
  O  O47  1  0.96451740  0.13085815  0.38981272  1
