# generated using pymatgen
data_Zr4O
_symmetry_space_group_name_H-M   'P 1'
_cell_length_a   5.66019933
_cell_length_b   5.66115915
_cell_length_c   10.95195791
_cell_angle_alpha   74.97536042
_cell_angle_beta   90.01558188
_cell_angle_gamma   59.98400358
_symmetry_Int_Tables_number   1
_chemical_formula_structural   Zr4O
_chemical_formula_sum   'Zr12 O3'
_cell_volume   289.91817288
_cell_formula_units_Z   3
loop_
 _symmetry_equiv_pos_site_id
 _symmetry_equiv_pos_as_xyz
  1  'x, y, z'
loop_
 _atom_site_type_symbol
 _atom_site_label
 _atom_site_symmetry_multiplicity
 _atom_site_fract_x
 _atom_site_fract_y
 _atom_site_fract_z
 _atom_site_occupancy
  Zr  Zr0  1  0.45679094  0.41600766  0.37297613  1
  Zr  Zr1  1  0.96333478  0.41003467  0.87485997  1
  Zr  Zr2  1  0.12668256  0.08435222  0.37296212  1
  Zr  Zr3  1  0.62629239  0.08858998  0.87481650  1
  Zr  Zr4  1  0.78861977  0.75414608  0.37290691  1
  Zr  Zr5  1  0.28471946  0.75192036  0.87479503  1
  Zr  Zr6  1  0.37354693  0.91509883  0.12787173  1
  Zr  Zr7  1  0.87391480  0.91091622  0.62599465  1
  Zr  Zr8  1  0.04349747  0.58348571  0.12785304  1
  Zr  Zr9  1  0.53697775  0.58944447  0.62595161  1
  Zr  Zr10  1  0.71171714  0.24523703  0.12792272  1
  Zr  Zr11  1  0.21557712  0.24747371  0.62601808  1
  O  O12  1  0.25011616  0.49976418  0.75035605  1
  O  O13  1  0.49979707  0.00032412  0.49966334  1
  O  O14  1  0.00044866  0.99920476  0.00105212  1
