# generated using pymatgen
data_Zr5(Te2P)2
_symmetry_space_group_name_H-M   'P 1'
_cell_length_a   3.82720528
_cell_length_b   3.82720513
_cell_length_c   21.16045805
_cell_angle_alpha   84.81427176
_cell_angle_beta   90.00333105
_cell_angle_gamma   120.03899583
_symmetry_Int_Tables_number   1
_chemical_formula_structural   Zr5(Te2P)2
_chemical_formula_sum   'Zr5 Te4 P2'
_cell_volume   266.85160215
_cell_formula_units_Z   1
loop_
 _symmetry_equiv_pos_site_id
 _symmetry_equiv_pos_as_xyz
  1  'x, y, z'
loop_
 _atom_site_type_symbol
 _atom_site_label
 _atom_site_symmetry_multiplicity
 _atom_site_fract_x
 _atom_site_fract_y
 _atom_site_fract_z
 _atom_site_occupancy
  Zr  Zr0  1  0.18696888  0.37397632  0.43905479  1
  Zr  Zr1  1  0.69053659  0.38115429  0.92830912  1
  Zr  Zr2  1  0.31303112  0.62602368  0.06094521  1
  Zr  Zr3  1  0.80946341  0.61884571  0.57169088  1
  Zr  Zr4  1  0.25000000  0.50000000  0.25000000  1
  Te  Te5  1  0.88641484  0.77232976  0.34125540  1
  Te  Te6  1  0.38799414  0.77549916  0.83650670  1
  Te  Te7  1  0.61358516  0.22767024  0.15874460  1
  Te  Te8  1  0.11200586  0.22450084  0.66349330  1
  P  P9  1  0.00153293  0.00299134  0.99547573  1
  P  P10  1  0.49846707  0.99700866  0.50452427  1
