# generated using pymatgen
data_Ce3C2Br3
_symmetry_space_group_name_H-M   'P 1'
_cell_length_a   10.15743401
_cell_length_b   10.15743401
_cell_length_c   16.84735885
_cell_angle_alpha   90.00000000
_cell_angle_beta   90.00000000
_cell_angle_gamma   112.23592819
_symmetry_Int_Tables_number   1
_chemical_formula_structural   Ce3C2Br3
_chemical_formula_sum   'Ce24 C16 Br24'
_cell_volume   1608.93647033
_cell_formula_units_Z   8
loop_
 _symmetry_equiv_pos_site_id
 _symmetry_equiv_pos_as_xyz
  1  'x, y, z'
loop_
 _atom_site_type_symbol
 _atom_site_label
 _atom_site_symmetry_multiplicity
 _atom_site_fract_x
 _atom_site_fract_y
 _atom_site_fract_z
 _atom_site_occupancy
  Ce  Ce0  1  0.51680510  0.02431511  0.87444114  1
  Ce  Ce1  1  0.48319490  0.97568489  0.37444114  1
  Ce  Ce2  1  0.97568489  0.48319490  0.62555886  1
  Ce  Ce3  1  0.02431511  0.51680510  0.12555886  1
  Ce  Ce4  1  0.87465588  0.12534412  0.75000000  1
  Ce  Ce5  1  0.12534412  0.87465588  0.25000000  1
  Ce  Ce6  1  0.82204771  0.10420219  0.98420861  1
  Ce  Ce7  1  0.17795229  0.89579781  0.48420861  1
  Ce  Ce8  1  0.89579781  0.17795229  0.51579139  1
  Ce  Ce9  1  0.10420219  0.82204771  0.01579139  1
  Ce  Ce10  1  0.72485026  0.75533464  0.89534808  1
  Ce  Ce11  1  0.27514974  0.24466536  0.39534808  1
  Ce  Ce12  1  0.24466536  0.27514974  0.60465192  1
  Ce  Ce13  1  0.75533464  0.72485026  0.10465192  1
  Ce  Ce14  1  0.51809711  0.05220681  0.60589229  1
  Ce  Ce15  1  0.48190289  0.94779319  0.10589229  1
  Ce  Ce16  1  0.94779319  0.48190289  0.89410771  1
  Ce  Ce17  1  0.05220681  0.51809711  0.39410771  1
  Ce  Ce18  1  0.38925616  0.64338119  0.99669504  1
  Ce  Ce19  1  0.61074384  0.35661881  0.49669504  1
  Ce  Ce20  1  0.35661881  0.61074384  0.50330496  1
  Ce  Ce21  1  0.64338119  0.38925616  0.00330496  1
  Ce  Ce22  1  0.66370964  0.33629036  0.75000000  1
  Ce  Ce23  1  0.33629036  0.66370964  0.25000000  1
  C  C24  1  0.35701438  0.16217718  0.52528213  1
  C  C25  1  0.64298562  0.83782282  0.02528213  1
  C  C26  1  0.83782282  0.64298562  0.97471787  1
  C  C27  1  0.16217718  0.35701438  0.47471787  1
  C  C28  1  0.77654455  0.21263979  0.85017766  1
  C  C29  1  0.22345545  0.78736021  0.35017766  1
  C  C30  1  0.78736021  0.22345545  0.64982234  1
  C  C31  1  0.21263979  0.77654455  0.14982234  1
  C  C32  1  0.71413711  0.27112879  0.90696586  1
  C  C33  1  0.28586289  0.72887121  0.40696586  1
  C  C34  1  0.72887121  0.28586289  0.59303414  1
  C  C35  1  0.27112879  0.71413711  0.09303414  1
  C  C36  1  0.58302868  0.89864648  0.96827260  1
  C  C37  1  0.41697132  0.10135352  0.46827260  1
  C  C38  1  0.10135352  0.41697132  0.53172740  1
  C  C39  1  0.89864648  0.58302868  0.03172740  1
  Br  Br40  1  0.23389388  0.74592459  0.86950418  1
  Br  Br41  1  0.76610612  0.25407541  0.36950418  1
  Br  Br42  1  0.25407541  0.76610612  0.63049582  1
  Br  Br43  1  0.74592459  0.23389388  0.13049582  1
  Br  Br44  1  0.48498563  0.47413504  0.86869350  1
  Br  Br45  1  0.51501437  0.52586496  0.36869350  1
  Br  Br46  1  0.52586496  0.51501437  0.63130650  1
  Br  Br47  1  0.47413504  0.48498563  0.13130650  1
  Br  Br48  1  0.64263430  0.88100784  0.50229731  1
  Br  Br49  1  0.35736570  0.11899216  0.00229731  1
  Br  Br50  1  0.11899216  0.35736570  0.99770269  1
  Br  Br51  1  0.88100784  0.64263430  0.49770269  1
  Br  Br52  1  0.60291975  0.86535114  0.74253420  1
  Br  Br53  1  0.39708025  0.13464886  0.24253420  1
  Br  Br54  1  0.13464886  0.39708025  0.75746580  1
  Br  Br55  1  0.86535114  0.60291975  0.25746580  1
  Br  Br56  1  0.35988095  0.12764321  0.74190467  1
  Br  Br57  1  0.64011905  0.87235679  0.24190467  1
  Br  Br58  1  0.87235679  0.64011905  0.75809533  1
  Br  Br59  1  0.12764321  0.35988095  0.25809533  1
  Br  Br60  1  0.99057323  0.00282393  0.38209355  1
  Br  Br61  1  0.00942677  0.99717607  0.88209355  1
  Br  Br62  1  0.99717607  0.00942677  0.11790645  1
  Br  Br63  1  0.00282393  0.99057323  0.61790645  1
