# generated using pymatgen
data_Al3Te3Br
_symmetry_space_group_name_H-M   'P 1'
_cell_length_a   4.14205766
_cell_length_b   11.23288344
_cell_length_c   20.22916739
_cell_angle_alpha   90.00000000
_cell_angle_beta   90.00000000
_cell_angle_gamma   90.00000000
_symmetry_Int_Tables_number   1
_chemical_formula_structural   Al3Te3Br
_chemical_formula_sum   'Al12 Te12 Br4'
_cell_volume   941.20754658
_cell_formula_units_Z   4
loop_
 _symmetry_equiv_pos_site_id
 _symmetry_equiv_pos_as_xyz
  1  'x, y, z'
loop_
 _atom_site_type_symbol
 _atom_site_label
 _atom_site_symmetry_multiplicity
 _atom_site_fract_x
 _atom_site_fract_y
 _atom_site_fract_z
 _atom_site_occupancy
  Al  Al0  1  0.75000000  0.83123394  0.50717815  1
  Al  Al1  1  0.25000000  0.16876606  0.49282185  1
  Al  Al2  1  0.25000000  0.66876606  0.00717815  1
  Al  Al3  1  0.75000000  0.33123394  0.99282185  1
  Al  Al4  1  0.75000000  0.95144186  0.39980758  1
  Al  Al5  1  0.25000000  0.04855814  0.60019242  1
  Al  Al6  1  0.25000000  0.54855814  0.89980758  1
  Al  Al7  1  0.75000000  0.45144186  0.10019242  1
  Al  Al8  1  0.75000000  0.84025751  0.86712182  1
  Al  Al9  1  0.25000000  0.15974249  0.13287818  1
  Al  Al10  1  0.25000000  0.65974249  0.36712182  1
  Al  Al11  1  0.75000000  0.34025751  0.63287818  1
  Te  Te12  1  0.75000000  0.77205423  0.31040177  1
  Te  Te13  1  0.25000000  0.22794577  0.68959823  1
  Te  Te14  1  0.25000000  0.72794577  0.81040177  1
  Te  Te15  1  0.75000000  0.27205423  0.18959823  1
  Te  Te16  1  0.75000000  0.82495204  0.99866994  1
  Te  Te17  1  0.25000000  0.17504796  0.00133006  1
  Te  Te18  1  0.25000000  0.67504796  0.49866994  1
  Te  Te19  1  0.75000000  0.32495204  0.50133006  1
  Te  Te20  1  0.75000000  0.90579744  0.63342282  1
  Te  Te21  1  0.25000000  0.09420256  0.36657718  1
  Te  Te22  1  0.25000000  0.59420256  0.13342282  1
  Te  Te23  1  0.75000000  0.40579744  0.86657718  1
  Br  Br24  1  0.75000000  0.53703036  0.66611415  1
  Br  Br25  1  0.25000000  0.46296964  0.33388585  1
  Br  Br26  1  0.25000000  0.96296964  0.16611415  1
  Br  Br27  1  0.75000000  0.03703036  0.83388585  1
