# generated using pymatgen
data_Ba3CeIr2O9
_symmetry_space_group_name_H-M   'P 1'
_cell_length_a   5.98867265
_cell_length_b   5.98867265
_cell_length_c   14.76048371
_cell_angle_alpha   90.00000000
_cell_angle_beta   90.00000000
_cell_angle_gamma   119.99999838
_symmetry_Int_Tables_number   1
_chemical_formula_structural   Ba3CeIr2O9
_chemical_formula_sum   'Ba6 Ce2 Ir4 O18'
_cell_volume   458.45042336
_cell_formula_units_Z   2
loop_
 _symmetry_equiv_pos_site_id
 _symmetry_equiv_pos_as_xyz
  1  'x, y, z'
loop_
 _atom_site_type_symbol
 _atom_site_label
 _atom_site_symmetry_multiplicity
 _atom_site_fract_x
 _atom_site_fract_y
 _atom_site_fract_z
 _atom_site_occupancy
  Ba  Ba0  1  0.66666700  0.33333300  0.90349969  1
  Ba  Ba1  1  0.33333300  0.66666700  0.09650031  1
  Ba  Ba2  1  0.33333300  0.66666700  0.40349969  1
  Ba  Ba3  1  0.66666700  0.33333300  0.59650031  1
  Ba  Ba4  1  0.00000000  0.00000000  0.75000000  1
  Ba  Ba5  1  0.00000000  0.00000000  0.25000000  1
  Ce  Ce6  1  0.00000000  0.00000000  -0.00000000  1
  Ce  Ce7  1  0.00000000  0.00000000  0.50000000  1
  Ir  Ir8  1  0.66666700  0.33333300  0.33507445  1
  Ir  Ir9  1  0.33333300  0.66666700  0.66492555  1
  Ir  Ir10  1  0.33333300  0.66666700  0.83507445  1
  Ir  Ir11  1  0.66666700  0.33333300  0.16492555  1
  O  O12  1  0.49163702  0.50836298  0.75000000  1
  O  O13  1  0.50836298  0.49163702  0.25000000  1
  O  O14  1  0.01672595  0.50836298  0.75000000  1
  O  O15  1  0.98327405  0.49163702  0.25000000  1
  O  O16  1  0.49163702  0.98327405  0.75000000  1
  O  O17  1  0.50836298  0.01672595  0.25000000  1
  O  O18  1  0.82462199  0.17537801  0.41334573  1
  O  O19  1  0.17537801  0.82462199  0.58665427  1
  O  O20  1  0.35075603  0.17537801  0.41334573  1
  O  O21  1  0.17537801  0.82462199  0.91334573  1
  O  O22  1  0.64924397  0.82462199  0.58665427  1
  O  O23  1  0.82462199  0.17537801  0.08665427  1
  O  O24  1  0.82462199  0.64924397  0.41334573  1
  O  O25  1  0.64924397  0.82462199  0.91334573  1
  O  O26  1  0.17537801  0.35075603  0.58665427  1
  O  O27  1  0.35075603  0.17537801  0.08665427  1
  O  O28  1  0.17537801  0.35075603  0.91334573  1
  O  O29  1  0.82462199  0.64924397  0.08665427  1
