# generated using pymatgen
data_Ba2CaV2FeF14
_symmetry_space_group_name_H-M   'P 1'
_cell_length_a   5.45613392
_cell_length_b   7.47917080
_cell_length_c   15.24320062
_cell_angle_alpha   91.29780620
_cell_angle_beta   90.00000000
_cell_angle_gamma   111.39252645
_symmetry_Int_Tables_number   1
_chemical_formula_structural   Ba2CaV2FeF14
_chemical_formula_sum   'Ba4 Ca2 V4 Fe2 F28'
_cell_volume   579.00728352
_cell_formula_units_Z   2
loop_
 _symmetry_equiv_pos_site_id
 _symmetry_equiv_pos_as_xyz
  1  'x, y, z'
loop_
 _atom_site_type_symbol
 _atom_site_label
 _atom_site_symmetry_multiplicity
 _atom_site_fract_x
 _atom_site_fract_y
 _atom_site_fract_z
 _atom_site_occupancy
  Ba  Ba0  1  0.64479119  0.38078031  0.62184803  1
  Ba  Ba1  1  0.35520881  0.61921969  0.37815197  1
  Ba  Ba2  1  0.26401089  0.61921969  0.87815197  1
  Ba  Ba3  1  0.73598911  0.38078031  0.12184803  1
  Ca  Ca4  1  0.94625648  -0.00000000  0.75000000  1
  Ca  Ca5  1  0.05374352  0.00000000  0.25000000  1
  V  V6  1  0.61964129  0.24007788  0.87627973  1
  V  V7  1  0.38035871  0.75992212  0.12372027  1
  V  V8  1  0.37956340  0.75992212  0.62372027  1
  V  V9  1  0.62043660  0.24007788  0.37627973  1
  Fe  Fe10  1  -0.00000000  -0.00000000  -0.00000000  1
  Fe  Fe11  1  -0.00000000  -0.00000000  0.50000000  1
  F  F12  1  0.34134241  0.24966095  0.79580678  1
  F  F13  1  0.65865759  0.75033905  0.20419322  1
  F  F14  1  0.09168146  0.75033905  0.70419322  1
  F  F15  1  0.90831854  0.24966095  0.29580678  1
  F  F16  1  0.55221261  0.67677946  0.72337847  1
  F  F17  1  0.44778739  0.32322054  0.27662153  1
  F  F18  1  0.87543315  0.32322054  0.77662153  1
  F  F19  1  0.12456685  0.67677946  0.22337847  1
  F  F20  1  0.39990527  0.17030560  0.98404307  1
  F  F21  1  0.60009473  0.82969440  0.01595693  1
  F  F22  1  0.22959967  0.82969440  0.51595693  1
  F  F23  1  0.77040033  0.17030560  0.48404307  1
  F  F24  1  0.58249792  0.97927823  0.84246325  1
  F  F25  1  0.41750208  0.02072177  0.15753675  1
  F  F26  1  0.60321969  0.02072177  0.65753675  1
  F  F27  1  0.39678031  0.97927823  0.34246325  1
  F  F28  1  0.66869909  0.74303779  0.54673666  1
  F  F29  1  0.33130091  0.25696221  0.45326334  1
  F  F30  1  0.92566129  0.25696221  0.95326334  1
  F  F31  1  0.07433871  0.74303779  0.04673666  1
  F  F32  1  0.85671903  0.89035097  0.37991520  1
  F  F33  1  0.14328097  0.10964903  0.62008480  1
  F  F34  1  0.96636806  0.10964903  0.12008480  1
  F  F35  1  0.03363194  0.89035097  0.87991520  1
  F  F36  1  0.69355908  0.50545474  0.90988564  1
  F  F37  1  0.30644092  0.49454526  0.09011436  1
  F  F38  1  0.18810434  0.49454526  0.59011436  1
  F  F39  1  0.81189566  0.50545474  0.40988564  1
