# generated using pymatgen
data_Ba2La2Mn4O11
_symmetry_space_group_name_H-M   'P 1'
_cell_length_a   3.92200197
_cell_length_b   8.26672405
_cell_length_c   8.91067404
_cell_angle_alpha   117.63688395
_cell_angle_beta   90.00000000
_cell_angle_gamma   90.00000000
_symmetry_Int_Tables_number   1
_chemical_formula_structural   Ba2La2Mn4O11
_chemical_formula_sum   'Ba2 La2 Mn4 O11'
_cell_volume   255.94051050
_cell_formula_units_Z   1
loop_
 _symmetry_equiv_pos_site_id
 _symmetry_equiv_pos_as_xyz
  1  'x, y, z'
loop_
 _atom_site_type_symbol
 _atom_site_label
 _atom_site_symmetry_multiplicity
 _atom_site_fract_x
 _atom_site_fract_y
 _atom_site_fract_z
 _atom_site_occupancy
  Ba  Ba0  1  0.50000000  0.50000000  0.50000000  1
  Ba  Ba1  1  0.50000000  -0.00000000  0.50000000  1
  La  La2  1  0.50000000  0.23111971  1.00000000  1
  La  La3  1  0.50000000  0.76888029  0.00000000  1
  Mn  Mn4  1  0.00000000  0.38002075  0.76004151  1
  Mn  Mn5  1  -0.00000000  0.61997925  0.23995849  1
  Mn  Mn6  1  0.00000000  0.12468421  0.24936842  1
  Mn  Mn7  1  -0.00000000  0.87531579  0.75063158  1
  O  O8  1  0.50000000  0.11598428  0.23196856  1
  O  O9  1  0.50000000  0.88401572  0.76803144  1
  O  O10  1  -0.00000000  0.37276960  0.21045155  1
  O  O11  1  -0.00000000  0.62723040  0.78954845  1
  O  O12  1  0.00000000  0.83768194  0.21045155  1
  O  O13  1  0.00000000  0.16231806  0.78954845  1
  O  O14  1  0.50000000  0.40720384  0.81440767  1
  O  O15  1  0.50000000  0.59279616  0.18559233  1
  O  O16  1  -0.00000000  -0.00000000  -0.00000000  1
  O  O17  1  0.00000000  0.24735030  0.49470059  1
  O  O18  1  -0.00000000  0.75264970  0.50529941  1
