# generated using pymatgen
data_Al3Sb7S8(BrCl6)2
_symmetry_space_group_name_H-M   'P 1'
_cell_length_a   12.31235964
_cell_length_b   17.44573634
_cell_length_c   18.12675594
_cell_angle_alpha   90.00000000
_cell_angle_beta   90.00000000
_cell_angle_gamma   90.00000000
_symmetry_Int_Tables_number   1
_chemical_formula_structural   Al3Sb7S8(BrCl6)2
_chemical_formula_sum   'Al12 Sb28 S32 Br8 Cl48'
_cell_volume   3893.59418527
_cell_formula_units_Z   4
loop_
 _symmetry_equiv_pos_site_id
 _symmetry_equiv_pos_as_xyz
  1  'x, y, z'
loop_
 _atom_site_type_symbol
 _atom_site_label
 _atom_site_symmetry_multiplicity
 _atom_site_fract_x
 _atom_site_fract_y
 _atom_site_fract_z
 _atom_site_occupancy
  Al  Al0  1  0.25527013  0.50861849  0.12284843  1
  Al  Al1  1  0.24472987  0.49138151  0.62284843  1
  Al  Al2  1  0.74472987  0.00861849  0.37715157  1
  Al  Al3  1  0.75527013  0.99138151  0.87715157  1
  Al  Al4  1  0.24338493  0.22403931  0.36492229  1
  Al  Al5  1  0.25661507  0.77596069  0.86492229  1
  Al  Al6  1  0.75661507  0.72403931  0.13507771  1
  Al  Al7  1  0.74338493  0.27596069  0.63507771  1
  Al  Al8  1  0.73994045  0.29487660  0.14360238  1
  Al  Al9  1  0.76005955  0.70512340  0.64360238  1
  Al  Al10  1  0.26005955  0.79487660  0.35639762  1
  Al  Al11  1  0.23994045  0.20512340  0.85639762  1
  Sb  Sb12  1  0.52561981  0.11205881  0.21136612  1
  Sb  Sb13  1  0.97438019  0.88794119  0.71136612  1
  Sb  Sb14  1  0.47438019  0.61205881  0.28863388  1
  Sb  Sb15  1  0.02561981  0.38794119  0.78863388  1
  Sb  Sb16  1  0.03154335  0.61337515  0.38572596  1
  Sb  Sb17  1  0.46845665  0.38662485  0.88572596  1
  Sb  Sb18  1  0.96845665  0.11337515  0.11427404  1
  Sb  Sb19  1  0.53154335  0.88662485  0.61427404  1
  Sb  Sb20  1  0.44644286  0.08208032  0.52103704  1
  Sb  Sb21  1  0.05355714  0.91791968  0.02103704  1
  Sb  Sb22  1  0.55355714  0.58208032  0.97896296  1
  Sb  Sb23  1  0.94644286  0.41791968  0.47896296  1
  Sb  Sb24  1  0.45972270  0.10282699  0.01765855  1
  Sb  Sb25  1  0.04027730  0.89717301  0.51765855  1
  Sb  Sb26  1  0.54027730  0.60282699  0.48234145  1
  Sb  Sb27  1  0.95972270  0.39717301  0.98234145  1
  Sb  Sb28  1  0.25430493  0.01539369  0.15302187  1
  Sb  Sb29  1  0.24569507  0.98460631  0.65302187  1
  Sb  Sb30  1  0.74569507  0.51539369  0.34697813  1
  Sb  Sb31  1  0.75430493  0.48460631  0.84697813  1
  Sb  Sb32  1  0.46442817  0.41233305  0.38119344  1
  Sb  Sb33  1  0.03557183  0.58766695  0.88119344  1
  Sb  Sb34  1  0.53557183  0.91233305  0.11880656  1
  Sb  Sb35  1  0.96442817  0.08766695  0.61880656  1
  Sb  Sb36  1  0.02117843  0.41979361  0.28747918  1
  Sb  Sb37  1  0.47882157  0.58020639  0.78747918  1
  Sb  Sb38  1  0.97882157  0.91979361  0.21252082  1
  Sb  Sb39  1  0.52117843  0.08020639  0.71252082  1
  S  S40  1  0.03971599  0.02444589  0.73122752  1
  S  S41  1  0.46028401  0.97555411  0.23122752  1
  S  S42  1  0.96028401  0.52444589  0.76877248  1
  S  S43  1  0.53971599  0.47555411  0.26877248  1
  S  S44  1  0.12984083  0.05630939  0.03846512  1
  S  S45  1  0.37015917  0.94369061  0.53846512  1
  S  S46  1  0.87015917  0.55630939  0.46153488  1
  S  S47  1  0.62984083  0.44369061  0.96153488  1
  S  S48  1  0.35439977  0.12426534  0.63757586  1
  S  S49  1  0.14560023  0.87573466  0.13757586  1
  S  S50  1  0.64560023  0.62426534  0.86242414  1
  S  S51  1  0.85439977  0.37573466  0.36242414  1
  S  S52  1  0.11475584  0.44315336  0.40774737  1
  S  S53  1  0.38524416  0.55684664  0.90774737  1
  S  S54  1  0.88524416  0.94315336  0.09225263  1
  S  S55  1  0.61475584  0.05684664  0.59225263  1
  S  S56  1  0.36236069  0.15169148  0.13170343  1
  S  S57  1  0.13763931  0.84830852  0.63170343  1
  S  S58  1  0.63763931  0.65169148  0.36829657  1
  S  S59  1  0.86236069  0.34830852  0.86829657  1
  S  S60  1  0.04205263  0.05598754  0.22952471  1
  S  S61  1  0.45794737  0.94401246  0.72952471  1
  S  S62  1  0.95794737  0.55598754  0.27047529  1
  S  S63  1  0.54205263  0.44401246  0.77047529  1
  S  S64  1  0.12546608  0.03093972  0.54072623  1
  S  S65  1  0.37453392  0.96906028  0.04072623  1
  S  S66  1  0.87453392  0.53093972  0.95927377  1
  S  S67  1  0.62546608  0.46906028  0.45927377  1
  S  S68  1  0.62392725  0.08134990  0.09475949  1
  S  S69  1  0.87607275  0.91865010  0.59475949  1
  S  S70  1  0.37607275  0.58134990  0.40524051  1
  S  S71  1  0.12392725  0.41865010  0.90524051  1
  Br  Br72  1  0.08166721  0.20633255  0.63836818  1
  Br  Br73  1  0.41833279  0.79366745  0.13836818  1
  Br  Br74  1  0.91833279  0.70633255  0.86163182  1
  Br  Br75  1  0.58166721  0.29366745  0.36163182  1
  Br  Br76  1  0.07932483  0.23762685  0.13215399  1
  Br  Br77  1  0.42067517  0.76237315  0.63215399  1
  Br  Br78  1  0.92067517  0.73762685  0.36784601  1
  Br  Br79  1  0.57932483  0.26237315  0.86784601  1
  Cl  Cl80  1  0.30559414  0.11131516  0.33258609  1
  Cl  Cl81  1  0.19440586  0.88868484  0.83258609  1
  Cl  Cl82  1  0.69440586  0.61131516  0.16741391  1
  Cl  Cl83  1  0.80559414  0.38868484  0.66741391  1
  Cl  Cl84  1  0.24647730  0.50340749  0.24383966  1
  Cl  Cl85  1  0.25352270  0.49659251  0.74383966  1
  Cl  Cl86  1  0.75352270  0.00340749  0.25616034  1
  Cl  Cl87  1  0.74647730  0.99659251  0.75616034  1
  Cl  Cl88  1  0.30788832  0.09182047  0.83483548  1
  Cl  Cl89  1  0.19211168  0.90817953  0.33483548  1
  Cl  Cl90  1  0.69211168  0.59182047  0.66516452  1
  Cl  Cl91  1  0.80788832  0.40817953  0.16516452  1
  Cl  Cl92  1  0.34801512  0.60988078  0.09806322  1
  Cl  Cl93  1  0.15198488  0.39011922  0.59806322  1
  Cl  Cl94  1  0.65198488  0.10988078  0.40193678  1
  Cl  Cl95  1  0.84801512  0.89011922  0.90193678  1
  Cl  Cl96  1  0.79181330  0.25972190  0.03454856  1
  Cl  Cl97  1  0.70818670  0.74027810  0.53454856  1
  Cl  Cl98  1  0.20818670  0.75972190  0.46545144  1
  Cl  Cl99  1  0.29181330  0.24027810  0.96545144  1
  Cl  Cl100  1  0.33161823  0.41028843  0.07639745  1
  Cl  Cl101  1  0.16838177  0.58971157  0.57639745  1
  Cl  Cl102  1  0.66838177  0.91028843  0.42360255  1
  Cl  Cl103  1  0.83161823  0.08971157  0.92360255  1
  Cl  Cl104  1  0.20004958  0.71295546  0.27649613  1
  Cl  Cl105  1  0.29995042  0.28704454  0.77649613  1
  Cl  Cl106  1  0.79995042  0.21295546  0.22350387  1
  Cl  Cl107  1  0.70004958  0.78704454  0.72350387  1
  Cl  Cl108  1  0.56572620  0.29751151  0.14621627  1
  Cl  Cl109  1  0.93427380  0.70248849  0.64621627  1
  Cl  Cl110  1  0.43427380  0.79751151  0.35378373  1
  Cl  Cl111  1  0.06572620  0.20248849  0.85378373  1
  Cl  Cl112  1  0.31273442  0.25245569  0.47092220  1
  Cl  Cl113  1  0.18726558  0.74754431  0.97092220  1
  Cl  Cl114  1  0.68726558  0.75245569  0.02907780  1
  Cl  Cl115  1  0.81273442  0.24754431  0.52907780  1
  Cl  Cl116  1  0.29670120  0.30661592  0.28287041  1
  Cl  Cl117  1  0.20329880  0.69338408  0.78287041  1
  Cl  Cl118  1  0.70329880  0.80661592  0.21712959  1
  Cl  Cl119  1  0.79670120  0.19338408  0.71712959  1
  Cl  Cl120  1  0.06933461  0.22364630  0.36974124  1
  Cl  Cl121  1  0.43066539  0.77635370  0.86974124  1
  Cl  Cl122  1  0.93066539  0.72364630  0.13025876  1
  Cl  Cl123  1  0.56933461  0.27635370  0.63025876  1
  Cl  Cl124  1  0.08886330  0.51973078  0.08393795  1
  Cl  Cl125  1  0.41113670  0.48026922  0.58393795  1
  Cl  Cl126  1  0.91113670  0.01973078  0.41606205  1
  Cl  Cl127  1  0.58886330  0.98026922  0.91606205  1
