# generated using pymatgen
data_ZnMoAsO5
_symmetry_space_group_name_H-M   'P 1'
_cell_length_a   7.89962391
_cell_length_b   6.65026078
_cell_length_c   8.56672033
_cell_angle_alpha   89.99726065
_cell_angle_beta   90.10300056
_cell_angle_gamma   89.99450790
_symmetry_Int_Tables_number   1
_chemical_formula_structural   ZnMoAsO5
_chemical_formula_sum   'Zn4 Mo4 As4 O20'
_cell_volume   450.04814548
_cell_formula_units_Z   4
loop_
 _symmetry_equiv_pos_site_id
 _symmetry_equiv_pos_as_xyz
  1  'x, y, z'
loop_
 _atom_site_type_symbol
 _atom_site_label
 _atom_site_symmetry_multiplicity
 _atom_site_fract_x
 _atom_site_fract_y
 _atom_site_fract_z
 _atom_site_occupancy
  Zn  Zn0  1  0.03348741  0.75174350  0.06279963  1
  Zn  Zn1  1  0.48358783  0.25153044  0.55978906  1
  Zn  Zn2  1  0.51732716  0.75194068  0.94002433  1
  Zn  Zn3  1  0.96691312  0.25140545  0.43774656  1
  Mo  Mo4  1  0.99935428  0.50000797  0.75107788  1
  Mo  Mo5  1  0.49996945  0.50161460  0.24992609  1
  Mo  Mo6  1  0.50019364  0.00152125  0.24986696  1
  Mo  Mo7  1  0.00028824  0.99994587  0.74923012  1
  As  As8  1  0.63696989  0.25260528  0.91431186  1
  As  As9  1  0.86169197  0.74695533  0.41448226  1
  As  As10  1  0.13846457  0.24721772  0.08573807  1
  As  As11  1  0.36259154  0.75231051  0.58535593  1
  O  O12  1  0.83476738  0.25001415  0.82410938  1
  O  O13  1  0.66625389  0.75104102  0.31873148  1
  O  O14  1  0.33429538  0.25113450  0.18066064  1
  O  O15  1  0.16464051  0.74990450  0.67544743  1
  O  O16  1  0.47844532  0.25774088  0.77957843  1
  O  O17  1  0.02331683  0.73270139  0.28399036  1
  O  O18  1  0.97729923  0.23280918  0.21668882  1
  O  O19  1  0.52099717  0.75749429  0.72016721  1
  O  O20  1  0.62294603  0.03632840  0.02406747  1
  O  O21  1  0.87190396  0.96348716  0.52431050  1
  O  O22  1  0.12775884  0.46373489  0.97600533  1
  O  O23  1  0.37696931  0.53603416  0.47565265  1
  O  O24  1  0.62559802  0.46820616  0.02534426  1
  O  O25  1  0.86566829  0.53365808  0.52880665  1
  O  O26  1  0.13390077  0.03390562  0.97147009  1
  O  O27  1  0.37432539  0.96790459  0.47429779  1
  O  O28  1  0.90194903  0.75118440  0.87288256  1
  O  O29  1  0.60790466  0.25134689  0.36803037  1
  O  O30  1  0.39232351  0.75144178  0.13166267  1
  O  O31  1  0.09789738  0.25113133  0.62774615  1
