# generated using pymatgen
data_Zr2NiS4
_symmetry_space_group_name_H-M   'P 1'
_cell_length_a   3.69131505
_cell_length_b   6.90641304
_cell_length_c   6.32069579
_cell_angle_alpha   62.88400996
_cell_angle_beta   90.00088449
_cell_angle_gamma   105.50349409
_symmetry_Int_Tables_number   1
_chemical_formula_structural   Zr2NiS4
_chemical_formula_sum   'Zr2 Ni1 S4'
_cell_volume   136.80705113
_cell_formula_units_Z   1
loop_
 _symmetry_equiv_pos_site_id
 _symmetry_equiv_pos_as_xyz
  1  'x, y, z'
loop_
 _atom_site_type_symbol
 _atom_site_label
 _atom_site_symmetry_multiplicity
 _atom_site_fract_x
 _atom_site_fract_y
 _atom_site_fract_z
 _atom_site_occupancy
  Zr  Zr0  1  0.50080110  0.00153847  0.49566383  1
  Zr  Zr1  1  0.99729149  0.99460512  0.00909035  1
  Ni  Ni2  1  0.32399744  0.64798306  0.34271374  1
  S  S3  1  0.62632273  0.25232125  0.04083491  1
  S  S4  1  0.12760663  0.25500090  0.53687674  1
  S  S5  1  0.37301501  0.74647924  0.95450202  1
  S  S6  1  0.86851561  0.73707195  0.46946840  1
