# generated using pymatgen
data_YbZnGa
_symmetry_space_group_name_H-M   'P 1'
_cell_length_a   4.51268128
_cell_length_b   5.75435782
_cell_length_c   5.69253580
_cell_angle_alpha   95.74650242
_cell_angle_beta   113.35134319
_cell_angle_gamma   66.91414752
_symmetry_Int_Tables_number   1
_chemical_formula_structural   YbZnGa
_chemical_formula_sum   'Yb2 Zn2 Ga2'
_cell_volume   124.57756891
_cell_formula_units_Z   2
loop_
 _symmetry_equiv_pos_site_id
 _symmetry_equiv_pos_as_xyz
  1  'x, y, z'
loop_
 _atom_site_type_symbol
 _atom_site_label
 _atom_site_symmetry_multiplicity
 _atom_site_fract_x
 _atom_site_fract_y
 _atom_site_fract_z
 _atom_site_occupancy
  Yb  Yb0  1  0.75264880  0.71141637  0.21671397  1
  Yb  Yb1  1  0.24735120  0.28858363  0.78328603  1
  Zn  Zn2  1  0.54861367  0.28598649  0.38321384  1
  Zn  Zn3  1  0.45138633  0.71401351  0.61678616  1
  Ga  Ga4  1  0.04797327  0.11697489  0.21292144  1
  Ga  Ga5  1  0.95202673  0.88302511  0.78707856  1
