# generated using pymatgen
data_Zr3AlFe8
_symmetry_space_group_name_H-M   'P 1'
_cell_length_a   4.92199078
_cell_length_b   4.92199079
_cell_length_c   8.52875396
_cell_angle_alpha   73.22866424
_cell_angle_beta   90.00000000
_cell_angle_gamma   120.00000005
_symmetry_Int_Tables_number   1
_chemical_formula_structural   Zr3AlFe8
_chemical_formula_sum   'Zr3 Al1 Fe8'
_cell_volume   168.71144442
_cell_formula_units_Z   1
loop_
 _symmetry_equiv_pos_site_id
 _symmetry_equiv_pos_as_xyz
  1  'x, y, z'
loop_
 _atom_site_type_symbol
 _atom_site_label
 _atom_site_symmetry_multiplicity
 _atom_site_fract_x
 _atom_site_fract_y
 _atom_site_fract_z
 _atom_site_occupancy
  Zr  Zr0  1  0.37546906  0.75093813  0.87359281  1
  Zr  Zr1  1  0.99621056  0.99242112  0.01136832  1
  Zr  Zr2  1  0.50309899  0.00619798  0.49070303  1
  Al  Al3  1  0.87442121  0.74884242  0.37673637  1
  Fe  Fe4  1  0.43614087  0.37294592  0.19091320  1
  Fe  Fe5  1  0.93756619  0.37895745  0.68347636  1
  Fe  Fe6  1  0.43614087  0.87228175  0.19091320  1
  Fe  Fe7  1  0.93756619  0.87513238  0.68347636  1
  Fe  Fe8  1  0.18769671  0.37539343  0.43690986  1
  Fe  Fe9  1  0.68749302  0.37498605  0.93752093  1
  Fe  Fe10  1  0.93680505  0.37294592  0.19091320  1
  Fe  Fe11  1  0.44139126  0.37895745  0.68347636  1
