# generated using pymatgen
data_Yb4Pt3Au
_symmetry_space_group_name_H-M   'P 1'
_cell_length_a   4.44619157
_cell_length_b   5.65302399
_cell_length_c   7.21158544
_cell_angle_alpha   90.06970068
_cell_angle_beta   90.00000000
_cell_angle_gamma   90.00000000
_symmetry_Int_Tables_number   1
_chemical_formula_structural   Yb4Pt3Au
_chemical_formula_sum   'Yb4 Pt3 Au1'
_cell_volume   181.25893810
_cell_formula_units_Z   1
loop_
 _symmetry_equiv_pos_site_id
 _symmetry_equiv_pos_as_xyz
  1  'x, y, z'
loop_
 _atom_site_type_symbol
 _atom_site_label
 _atom_site_symmetry_multiplicity
 _atom_site_fract_x
 _atom_site_fract_y
 _atom_site_fract_z
 _atom_site_occupancy
  Yb  Yb0  1  0.25000000  0.35369242  0.69122820  1
  Yb  Yb1  1  0.25000000  0.14686841  0.17950222  1
  Yb  Yb2  1  0.75000000  0.63894499  0.30524641  1
  Yb  Yb3  1  0.75000000  0.85839257  0.82570955  1
  Pt  Pt4  1  0.25000000  0.65412702  0.03808988  1
  Pt  Pt5  1  0.75000000  0.15404488  0.46327985  1
  Pt  Pt6  1  0.75000000  0.34838581  0.95961600  1
  Au  Au7  1  0.25000000  0.84554391  0.53732789  1
