# generated using pymatgen
data_Zr5Co19P12
_symmetry_space_group_name_H-M   'P 1'
_cell_length_a   3.60618527
_cell_length_b   11.83291516
_cell_length_c   11.83301257
_cell_angle_alpha   60.01091323
_cell_angle_beta   89.99892111
_cell_angle_gamma   90.00101868
_symmetry_Int_Tables_number   1
_chemical_formula_structural   Zr5Co19P12
_chemical_formula_sum   'Zr5 Co19 P12'
_cell_volume   437.33425114
_cell_formula_units_Z   1
loop_
 _symmetry_equiv_pos_site_id
 _symmetry_equiv_pos_as_xyz
  1  'x, y, z'
loop_
 _atom_site_type_symbol
 _atom_site_label
 _atom_site_symmetry_multiplicity
 _atom_site_fract_x
 _atom_site_fract_y
 _atom_site_fract_z
 _atom_site_occupancy
  Zr  Zr0  1  0.00034112  0.33333168  0.33336068  1
  Zr  Zr1  1  0.00034118  0.66664250  0.66667616  1
  Zr  Zr2  1  0.50633516  0.99991561  0.18459400  1
  Zr  Zr3  1  0.50624445  0.18456487  0.81543825  1
  Zr  Zr4  1  0.50633583  0.81539819  0.00008807  1
  Co  Co5  1  0.00171524  0.19780071  0.17914312  1
  Co  Co6  1  0.00174184  0.17906477  0.62305364  1
  Co  Co7  1  0.00176640  0.62298572  0.19789722  1
  Co  Co8  1  0.00171565  0.82085348  0.80220282  1
  Co  Co9  1  0.00174179  0.37694724  0.82094143  1
  Co  Co10  1  0.00176574  0.80210589  0.37701343  1
  Co  Co11  1  0.50347062  0.99997160  0.71518314  1
  Co  Co12  1  0.50345970  0.71526849  0.28473270  1
  Co  Co13  1  0.50346919  0.28481607  0.00003010  1
  Co  Co14  1  0.00012207  0.00004293  0.54813990  1
  Co  Co15  1  0.00009402  0.54815938  0.45183711  1
  Co  Co16  1  0.00012166  0.45186839  0.99995346  1
  Co  Co17  1  0.50056412  0.12746134  0.35590404  1
  Co  Co18  1  0.50057766  0.35595041  0.51659006  1
  Co  Co19  1  0.50056230  0.51664831  0.12741881  1
  Co  Co20  1  0.50056374  0.64409226  0.87253782  1
  Co  Co21  1  0.50057753  0.48341069  0.64404510  1
  Co  Co22  1  0.50056265  0.87257875  0.48334668  1
  Co  Co23  1  0.00421297  0.00005834  0.99993174  1
  P  P24  1  0.00517019  0.99998491  0.82229913  1
  P  P25  1  0.00520692  0.82237598  0.17762327  1
  P  P26  1  0.00517151  0.17770360  0.00001480  1
  P  P27  1  0.50087936  0.31645480  0.16594013  1
  P  P28  1  0.50088938  0.16588497  0.51768638  1
  P  P29  1  0.50090507  0.51771958  0.31646744  1
  P  P30  1  0.50087882  0.83404778  0.68355303  1
  P  P31  1  0.50088971  0.48230294  0.83412844  1
  P  P32  1  0.50090571  0.68352712  0.48228719  1
  P  P33  1  0.00157502  0.99998305  0.36197393  1
  P  P34  1  0.00155135  0.36195430  0.63804767  1
  P  P35  1  0.00157431  0.63802333  0.00001909  1
