# generated using pymatgen
data_Zn(SnO2)2
_symmetry_space_group_name_H-M   'P 1'
_cell_length_a   6.26789485
_cell_length_b   6.34549751
_cell_length_c   28.78214540
_cell_angle_alpha   63.81757163
_cell_angle_beta   65.54673782
_cell_angle_gamma   59.59983259
_symmetry_Int_Tables_number   1
_chemical_formula_structural   Zn(SnO2)2
_chemical_formula_sum   'Zn8 Sn16 O32'
_cell_volume   858.74567054
_cell_formula_units_Z   8
loop_
 _symmetry_equiv_pos_site_id
 _symmetry_equiv_pos_as_xyz
  1  'x, y, z'
loop_
 _atom_site_type_symbol
 _atom_site_label
 _atom_site_symmetry_multiplicity
 _atom_site_fract_x
 _atom_site_fract_y
 _atom_site_fract_z
 _atom_site_occupancy
  Zn  Zn0  1  0.08489190  0.07082618  0.06823796  1
  Zn  Zn1  1  0.99641130  0.49453116  0.12860347  1
  Zn  Zn2  1  0.09793347  0.05212094  0.32450506  1
  Zn  Zn3  1  0.97415124  0.46899296  0.39702561  1
  Zn  Zn4  1  0.91072434  0.48041958  0.65713726  1
  Zn  Zn5  1  0.48934936  0.50206713  0.50173737  1
  Zn  Zn6  1  0.98493420  0.52089872  0.86829896  1
  Zn  Zn7  1  0.48071407  0.49641699  0.75672766  1
  Sn  Sn8  1  0.51031931  0.50063297  0.12272723  1
  Sn  Sn9  1  0.46405756  0.48161118  0.26828182  1
  Sn  Sn10  1  0.51032954  0.99779351  0.12274542  1
  Sn  Sn11  1  0.13665153  0.11335702  0.53416293  1
  Sn  Sn12  1  0.50955622  0.48465563  0.38286396  1
  Sn  Sn13  1  0.88708480  0.88286947  0.21172580  1
  Sn  Sn14  1  0.12413586  0.13973657  0.77417465  1
  Sn  Sn15  1  0.50962266  0.97449070  0.38285241  1
  Sn  Sn16  1  0.49908092  0.50922138  0.62166970  1
  Sn  Sn17  1  0.85927219  0.85787611  0.48132228  1
  Sn  Sn18  1  0.49902915  0.00535089  0.62165809  1
  Sn  Sn19  1  0.49364594  0.02555905  0.86430924  1
  Sn  Sn20  1  0.49360197  0.52356733  0.86431447  1
  Sn  Sn21  1  0.86283746  0.88427304  0.71720178  1
  Sn  Sn22  1  0.45964751  0.50372554  0.00808863  1
  Sn  Sn23  1  0.87418634  0.91110243  0.95082444  1
  O  O24  1  0.26787022  0.24084727  0.06939382  1
  O  O25  1  0.29904913  0.27462363  0.16280247  1
  O  O26  1  0.26788922  0.71324956  0.06938931  1
  O  O27  1  0.71680612  0.25042360  0.07052093  1
  O  O28  1  0.28062808  0.78020755  0.16463161  1
  O  O29  1  0.28445030  0.21226727  0.32677776  1
  O  O30  1  0.77871831  0.26893316  0.16766082  1
  O  O31  1  0.29500005  0.26330656  0.41957765  1
  O  O32  1  0.28435190  0.69633681  0.32679774  1
  O  O33  1  0.72505433  0.71785991  0.08476136  1
  O  O34  1  0.72712464  0.21770670  0.33441762  1
  O  O35  1  0.77884179  0.78151582  0.16764941  1
  O  O36  1  0.37897398  0.21261352  0.54951015  1
  O  O37  1  0.27901339  0.75881273  0.42584078  1
  O  O38  1  0.73122128  0.27122790  0.43868077  1
  O  O39  1  0.26457965  0.31032487  0.65371400  1
  O  O40  1  0.37887233  0.71052783  0.54954751  1
  O  O41  1  0.74104888  0.68694104  0.34633169  1
  O  O42  1  0.75111595  0.18675092  0.59392266  1
  O  O43  1  0.73087907  0.74264161  0.43877950  1
  O  O44  1  0.24211870  0.83165164  0.64866935  1
  O  O45  1  0.26635371  0.27014741  0.80822996  1
  O  O46  1  0.65660357  0.30880917  0.69209609  1
  O  O47  1  0.28085315  0.30068399  0.90437877  1
  O  O48  1  0.26637839  0.73079260  0.80823583  1
  O  O49  1  0.75419977  0.68430214  0.59440226  1
  O  O50  1  0.70454514  0.27058755  0.81361213  1
  O  O51  1  0.65660902  0.76612017  0.69211430  1
  O  O52  1  0.26978455  0.80552163  0.90475040  1
  O  O53  1  0.75961402  0.30327233  0.90928328  1
  O  O54  1  0.70962547  0.74912627  0.82304442  1
  O  O55  1  0.75966303  0.79976635  0.90927844  1
