# generated using pymatgen
data_Yb(AlFe)6
_symmetry_space_group_name_H-M   'P 1'
_cell_length_a   4.98609483
_cell_length_b   6.54156217
_cell_length_c   6.54156217
_cell_angle_alpha   99.00853594
_cell_angle_beta   112.40238149
_cell_angle_gamma   67.59761851
_symmetry_Int_Tables_number   1
_chemical_formula_structural   Yb(AlFe)6
_chemical_formula_sum   'Yb1 Al6 Fe6'
_cell_volume   182.35911265
_cell_formula_units_Z   1
loop_
 _symmetry_equiv_pos_site_id
 _symmetry_equiv_pos_as_xyz
  1  'x, y, z'
loop_
 _atom_site_type_symbol
 _atom_site_label
 _atom_site_symmetry_multiplicity
 _atom_site_fract_x
 _atom_site_fract_y
 _atom_site_fract_z
 _atom_site_occupancy
  Yb  Yb0  1  -0.00000000  0.00000000  0.00000000  1
  Al  Al1  1  0.65503712  0.34496288  0.65503712  1
  Al  Al2  1  0.34496288  0.65503712  0.34496288  1
  Al  Al3  1  0.00000000  0.33215423  0.33215423  1
  Al  Al4  1  -0.00000000  0.66784577  0.66784577  1
  Al  Al5  1  0.69214417  0.80785583  0.19214417  1
  Al  Al6  1  0.30785583  0.19214417  0.80785583  1
  Fe  Fe7  1  0.50000000  0.00000000  0.50000000  1
  Fe  Fe8  1  -0.00000000  0.00000000  0.50000000  1
  Fe  Fe9  1  0.50000000  0.50000000  0.00000000  1
  Fe  Fe10  1  -0.00000000  0.50000000  0.00000000  1
  Fe  Fe11  1  0.50000000  0.75759816  0.75759816  1
  Fe  Fe12  1  0.50000000  0.24240184  0.24240184  1
