# generated using pymatgen
data_Yb2Ge3Pd
_symmetry_space_group_name_H-M   'P 1'
_cell_length_a   4.04202101
_cell_length_b   4.33524095
_cell_length_c   7.40967800
_cell_angle_alpha   89.73380604
_cell_angle_beta   90.00000000
_cell_angle_gamma   90.00000000
_symmetry_Int_Tables_number   1
_chemical_formula_structural   Yb2Ge3Pd
_chemical_formula_sum   'Yb2 Ge3 Pd1'
_cell_volume   129.83938673
_cell_formula_units_Z   1
loop_
 _symmetry_equiv_pos_site_id
 _symmetry_equiv_pos_as_xyz
  1  'x, y, z'
loop_
 _atom_site_type_symbol
 _atom_site_label
 _atom_site_symmetry_multiplicity
 _atom_site_fract_x
 _atom_site_fract_y
 _atom_site_fract_z
 _atom_site_occupancy
  Yb  Yb0  1  -0.00000000  0.00036185  0.00767559  1
  Yb  Yb1  1  -0.00000000  0.49970036  0.49341692  1
  Ge  Ge2  1  0.50000000  0.50208067  0.83536750  1
  Ge  Ge3  1  0.50000000  0.49976196  0.16789075  1
  Ge  Ge4  1  0.50000000  0.99772814  0.66516882  1
  Pd  Pd5  1  0.50000000  0.00016701  0.33048041  1
