# generated using pymatgen
data_Y5Co19P12
_symmetry_space_group_name_H-M   'P 1'
_cell_length_a   3.67708240
_cell_length_b   12.01192038
_cell_length_c   12.01185045
_cell_angle_alpha   120.00019006
_cell_angle_beta   90.00011010
_cell_angle_gamma   89.99977964
_symmetry_Int_Tables_number   1
_chemical_formula_structural   Y5Co19P12
_chemical_formula_sum   'Y5 Co19 P12'
_cell_volume   459.46826827
_cell_formula_units_Z   1
loop_
 _symmetry_equiv_pos_site_id
 _symmetry_equiv_pos_as_xyz
  1  'x, y, z'
loop_
 _atom_site_type_symbol
 _atom_site_label
 _atom_site_symmetry_multiplicity
 _atom_site_fract_x
 _atom_site_fract_y
 _atom_site_fract_z
 _atom_site_occupancy
  Y  Y0  1  0.00009081  0.33333859  0.66676021  1
  Y  Y1  1  0.00009081  0.66657838  0.33323979  1
  Y  Y2  1  0.50296901  0.81244664  0.00000000  1
  Y  Y3  1  0.50296036  0.18753328  0.18748002  1
  Y  Y4  1  0.50296036  0.00005326  0.81251998  1
  Co  Co5  1  0.00087825  0.17775133  0.37782290  1
  Co  Co6  1  0.00087108  0.20006567  0.82225693  1
  Co  Co7  1  0.00087422  0.62215034  0.79991140  1
  Co  Co8  1  0.00087825  0.79992842  0.62217710  1
  Co  Co9  1  0.00087108  0.37780874  0.17774307  1
  Co  Co10  1  0.00087422  0.82223894  0.20008860  1
  Co  Co11  1  0.00053702  0.44744681  1.00000000  1
  Co  Co12  1  0.00053908  0.55253763  0.55254508  1
  Co  Co13  1  0.00053908  -0.00000745  0.44745492  1
  Co  Co14  1  0.50033698  0.35837792  0.48363318  1
  Co  Co15  1  0.50032754  0.12527161  0.64163839  1
  Co  Co16  1  0.50033601  0.51637265  0.87476017  1
  Co  Co17  1  0.50033698  0.87474474  0.51636682  1
  Co  Co18  1  0.50032754  0.48363322  0.35836161  1
  Co  Co19  1  0.50033601  0.64161248  0.12523983  1
  Co  Co20  1  0.50235482  0.28517246  1.00000000  1
  Co  Co21  1  0.50235553  0.71484301  0.71485810  1
  Co  Co22  1  0.50235553  -0.00001509  0.28514190  1
  Co  Co23  1  0.00835208  0.00000728  0.00000000  1
  P  P24  1  0.00077702  0.63161295  0.00000000  1
  P  P25  1  0.00077392  0.36837507  0.36837411  1
  P  P26  1  0.00077392  0.00000096  0.63162589  1
  P  P27  1  0.50039322  0.16578400  0.47998307  1
  P  P28  1  0.50038692  0.31418549  0.83419602  1
  P  P29  1  0.50039032  0.52005865  0.68586938  1
  P  P30  1  0.50039322  0.68580093  0.52001693  1
  P  P31  1  0.50038692  0.47998947  0.16580398  1
  P  P32  1  0.50039032  0.83418927  0.31413062  1
  P  P33  1  0.00298938  0.18099899  1.00000000  1
  P  P34  1  0.00299611  0.81900687  0.81900039  1
  P  P35  1  0.00299611  0.00000648  0.18099961  1
