# generated using pymatgen
data_Y2AsS
_symmetry_space_group_name_H-M   'P 1'
_cell_length_a   4.03940475
_cell_length_b   4.03940475
_cell_length_c   6.92792655
_cell_angle_alpha   73.05038870
_cell_angle_beta   90.00000000
_cell_angle_gamma   120.00000000
_symmetry_Int_Tables_number   1
_chemical_formula_structural   Y2AsS
_chemical_formula_sum   'Y2 As1 S1'
_cell_volume   92.18326412
_cell_formula_units_Z   1
loop_
 _symmetry_equiv_pos_site_id
 _symmetry_equiv_pos_as_xyz
  1  'x, y, z'
loop_
 _atom_site_type_symbol
 _atom_site_label
 _atom_site_symmetry_multiplicity
 _atom_site_fract_x
 _atom_site_fract_y
 _atom_site_fract_z
 _atom_site_occupancy
  Y  Y0  1  0.24932481  0.49864961  0.25202558  1
  Y  Y1  1  0.75067519  0.50135039  0.74797442  1
  As  As2  1  -0.00000000  -0.00000000  -0.00000000  1
  S  S3  1  0.50000000  -0.00000000  0.50000000  1
