# generated using pymatgen
data_Zn3Co4(SbO6)2
_symmetry_space_group_name_H-M   'P 1'
_cell_length_a   6.23024727
_cell_length_b   8.68297138
_cell_length_c   10.54709818
_cell_angle_alpha   66.28515743
_cell_angle_beta   73.56443294
_cell_angle_gamma   92.33609936
_symmetry_Int_Tables_number   1
_chemical_formula_structural   Zn3Co4(SbO6)2
_chemical_formula_sum   'Zn6 Co8 Sb4 O24'
_cell_volume   493.22068159
_cell_formula_units_Z   2
loop_
 _symmetry_equiv_pos_site_id
 _symmetry_equiv_pos_as_xyz
  1  'x, y, z'
loop_
 _atom_site_type_symbol
 _atom_site_label
 _atom_site_symmetry_multiplicity
 _atom_site_fract_x
 _atom_site_fract_y
 _atom_site_fract_z
 _atom_site_occupancy
  Zn  Zn0  1  0.22942106  0.14636876  0.98638136  1
  Zn  Zn1  1  0.55683906  0.45636607  0.33131735  1
  Zn  Zn2  1  0.89164853  0.81117800  0.66357992  1
  Zn  Zn3  1  0.77649394  0.87696693  0.00201565  1
  Zn  Zn4  1  0.10391194  0.18696424  0.34695164  1
  Zn  Zn5  1  0.44168547  0.52215600  0.66975408  1
  Co  Co6  1  0.49914009  0.00294990  0.50084683  1
  Co  Co7  1  0.83419291  0.33038310  0.83248617  1
  Co  Co8  1  0.33959103  0.83789176  0.82175816  1
  Co  Co9  1  0.66666700  0.16666700  0.16666700  1
  Co  Co10  1  0.99374197  0.49544124  0.51157484  1
  Co  Co11  1  0.00167111  0.49562639  0.99019286  1
  Co  Co12  1  0.33166189  0.83770661  0.34314014  1
  Co  Co13  1  0.66666700  0.16666700  0.66666700  1
  Sb  Sb14  1  0.16666700  0.66666700  0.16666700  1
  Sb  Sb15  1  0.50724029  0.49827169  0.99320576  1
  Sb  Sb16  1  0.82609271  0.83506131  0.34012724  1
  Sb  Sb17  1  0.16666700  0.16666700  0.66666700  1
  O  O18  1  0.66195159  0.42691914  0.14551806  1
  O  O19  1  0.99204390  0.75231995  0.48495025  1
  O  O20  1  0.32326487  0.08283111  0.81922869  1
  O  O21  1  0.81474356  0.58059669  0.84295091  1
  O  O22  1  0.14869999  0.89627848  0.17761750  1
  O  O23  1  0.47904860  0.24351591  0.51306776  1
  O  O24  1  0.96863097  0.26109645  0.99965239  1
  O  O25  1  0.30182591  0.59815503  0.32663560  1
  O  O26  1  0.63927844  0.93328213  0.66319305  1
  O  O27  1  0.49815745  0.26446419  0.00318674  1
  O  O28  1  0.85048889  0.59975395  0.32346346  1
  O  O29  1  0.17051528  0.93557505  0.66500653  1
  O  O30  1  0.34128910  0.58101305  0.84838275  1
  O  O31  1  0.67138241  0.90641486  0.18781594  1
  O  O32  1  0.01006813  0.25050189  0.51410431  1
  O  O33  1  0.18463401  0.43705552  0.15571650  1
  O  O34  1  0.51858944  0.75273631  0.49038209  1
  O  O35  1  0.85428440  0.08981709  0.82026524  1
  O  O36  1  0.03150709  0.73517797  0.00669740  1
  O  O37  1  0.36470203  0.07223655  0.33368061  1
  O  O38  1  0.69405556  0.40005187  0.67014095  1
  O  O39  1  0.48284411  0.73357905  0.00986954  1
  O  O40  1  0.83517555  0.06886881  0.33014626  1
  O  O41  1  0.16281872  0.39775895  0.66832747  1
