# generated using pymatgen
data_Mg(AgO2)2
_symmetry_space_group_name_H-M   'P 1'
_cell_length_a   6.31463235
_cell_length_b   6.33881140
_cell_length_c   6.33918185
_cell_angle_alpha   90.01005255
_cell_angle_beta   120.11850299
_cell_angle_gamma   120.11252779
_symmetry_Int_Tables_number   1
_chemical_formula_structural   Mg(AgO2)2
_chemical_formula_sum   'Mg2 Ag4 O8'
_cell_volume   178.77706216
_cell_formula_units_Z   2
loop_
 _symmetry_equiv_pos_site_id
 _symmetry_equiv_pos_as_xyz
  1  'x, y, z'
loop_
 _atom_site_type_symbol
 _atom_site_label
 _atom_site_symmetry_multiplicity
 _atom_site_fract_x
 _atom_site_fract_y
 _atom_site_fract_z
 _atom_site_occupancy
  Mg  Mg0  1  0.25004397  0.12490809  0.87501668  1
  Mg  Mg1  1  0.75001856  0.87531740  0.12509875  1
  Ag  Ag2  1  0.50008888  0.00006234  0.50005549  1
  Ag  Ag3  1  0.49976670  0.49987269  0.49992377  1
  Ag  Ag4  1  -0.00005444  0.49995178  0.00000800  1
  Ag  Ag5  1  0.00002929  0.49994699  0.49999049  1
  O  O6  1  0.05759406  0.80115906  0.19717843  1
  O  O7  1  0.44220301  0.80287107  0.74350605  1
  O  O8  1  0.44240770  0.63969297  0.19897312  1
  O  O9  1  0.94231615  0.74339636  0.63961950  1
  O  O10  1  0.55766454  0.36029878  0.80105804  1
  O  O11  1  0.55774780  0.19703515  0.25645082  1
  O  O12  1  0.05782669  0.25667489  0.36040167  1
  O  O13  1  0.94234807  0.19881243  0.80272121  1
