# generated using pymatgen
data_Y3ErTi4(SiO9)2
_symmetry_space_group_name_H-M   'P 1'
_cell_length_a   4.91621405
_cell_length_b   11.25264188
_cell_length_c   12.39848221
_cell_angle_alpha   90.00000000
_cell_angle_beta   95.69688980
_cell_angle_gamma   90.00000000
_symmetry_Int_Tables_number   1
_chemical_formula_structural   Y3ErTi4(SiO9)2
_chemical_formula_sum   'Y6 Er2 Ti8 Si4 O36'
_cell_volume   682.50131447
_cell_formula_units_Z   2
loop_
 _symmetry_equiv_pos_site_id
 _symmetry_equiv_pos_as_xyz
  1  'x, y, z'
loop_
 _atom_site_type_symbol
 _atom_site_label
 _atom_site_symmetry_multiplicity
 _atom_site_fract_x
 _atom_site_fract_y
 _atom_site_fract_z
 _atom_site_occupancy
  Y  Y0  1  0.55445123  0.64100816  0.93083170  1
  Y  Y1  1  0.94554877  0.14100816  0.06916830  1
  Y  Y2  1  0.51403660  0.36229174  0.42163283  1
  Y  Y3  1  0.98596340  0.86229174  0.57836717  1
  Y  Y4  1  0.48592444  0.63776029  0.57802008  1
  Y  Y5  1  0.01407556  0.13776029  0.42197992  1
  Er  Er6  1  0.44327691  0.35928707  0.06921286  1
  Er  Er7  1  0.05672309  0.85928707  0.93078714  1
  Ti  Ti8  1  0.30052212  0.16315245  0.85024711  1
  Ti  Ti9  1  0.19947788  0.66315245  0.14975289  1
  Ti  Ti10  1  0.69943283  0.83665166  0.14950865  1
  Ti  Ti11  1  0.80056717  0.33665166  0.85049135  1
  Ti  Ti12  1  0.66637281  0.16416585  0.63954925  1
  Ti  Ti13  1  0.83362719  0.66416585  0.36045075  1
  Ti  Ti14  1  0.33346276  0.83589820  0.36049482  1
  Ti  Ti15  1  0.16653724  0.33589820  0.63950518  1
  Si  Si16  1  0.92904242  0.40557334  0.24701106  1
  Si  Si17  1  0.57095758  0.90557334  0.75298894  1
  Si  Si18  1  0.07060705  0.59467792  0.75262193  1
  Si  Si19  1  0.42939295  0.09467792  0.24737807  1
  O  O20  1  0.49606569  0.16025193  0.13420180  1
  O  O21  1  0.00393431  0.66025193  0.86579820  1
  O  O22  1  0.50033504  0.84119747  0.86600831  1
  O  O23  1  0.99966496  0.34119747  0.13399169  1
  O  O24  1  0.33415440  0.21167208  0.55313457  1
  O  O25  1  0.16584560  0.71167208  0.44686543  1
  O  O26  1  0.66588044  0.78837286  0.44683682  1
  O  O27  1  0.83411956  0.28837286  0.55316318  1
  O  O28  1  0.17018497  0.05049956  0.93298596  1
  O  O29  1  0.32981503  0.55049956  0.06701404  1
  O  O30  1  0.83115817  0.94733438  0.06541597  1
  O  O31  1  0.66884183  0.44733438  0.93458403  1
  O  O32  1  0.59395180  0.40039607  0.24494772  1
  O  O33  1  0.90604820  0.90039607  0.75505228  1
  O  O34  1  0.40542874  0.59900876  0.75353996  1
  O  O35  1  0.09457126  0.09900876  0.24646004  1
  O  O36  1  0.48002439  0.05034935  0.74610961  1
  O  O37  1  0.01997561  0.55034935  0.25389039  1
  O  O38  1  0.52052634  0.94993989  0.25360379  1
  O  O39  1  0.97947366  0.44993989  0.74639621  1
  O  O40  1  0.63184191  0.21148269  0.93545104  1
  O  O41  1  0.86815809  0.71148269  0.06454896  1
  O  O42  1  0.36625073  0.78888852  0.06396009  1
  O  O43  1  0.13374927  0.28888852  0.93603991  1
  O  O44  1  0.80471723  0.04804016  0.56282591  1
  O  O45  1  0.69528277  0.54804016  0.43717409  1
  O  O46  1  0.19535386  0.95185843  0.43736309  1
  O  O47  1  0.30464614  0.45185843  0.56263691  1
  O  O48  1  0.56520941  0.16378904  0.35647176  1
  O  O49  1  0.93479059  0.66378904  0.64352824  1
  O  O50  1  0.43558082  0.83640813  0.64371424  1
  O  O51  1  0.06441918  0.33640813  0.35628576  1
  O  O52  1  0.48268212  0.29204247  0.74461435  1
  O  O53  1  0.01731788  0.79204247  0.25538565  1
  O  O54  1  0.51729952  0.70800152  0.25518582  1
  O  O55  1  0.98270048  0.20800152  0.74481418  1
