# generated using pymatgen
data_Yb2P7Rh12
_symmetry_space_group_name_H-M   'P 1'
_cell_length_a   3.86653352
_cell_length_b   9.59376023
_cell_length_c   9.59289975
_cell_angle_alpha   119.97150688
_cell_angle_beta   90.00311577
_cell_angle_gamma   89.99679374
_symmetry_Int_Tables_number   1
_chemical_formula_structural   Yb2P7Rh12
_chemical_formula_sum   'Yb2 P7 Rh12'
_cell_volume   308.25902311
_cell_formula_units_Z   1
loop_
 _symmetry_equiv_pos_site_id
 _symmetry_equiv_pos_as_xyz
  1  'x, y, z'
loop_
 _atom_site_type_symbol
 _atom_site_label
 _atom_site_symmetry_multiplicity
 _atom_site_fract_x
 _atom_site_fract_y
 _atom_site_fract_z
 _atom_site_occupancy
  Yb  Yb0  1  0.74962850  0.33329863  0.66665875  1
  Yb  Yb1  1  0.25037150  0.66670137  0.33334125  1
  P  P2  1  0.50000000  -0.00000000  0.00000000  1
  P  P3  1  0.75373387  0.88297982  0.59510530  1
  P  P4  1  0.75366518  0.40491143  0.28795165  1
  P  P5  1  0.75363016  0.71208377  0.11703377  1
  P  P6  1  0.24626613  0.11702018  0.40489470  1
  P  P7  1  0.24633482  0.59508857  0.71204835  1
  P  P8  1  0.24636984  0.28791623  0.88296623  1
  Rh  Rh9  1  0.75153977  0.61766754  0.55293824  1
  Rh  Rh10  1  0.75160033  0.44702195  0.06477240  1
  Rh  Rh11  1  0.75158199  0.93524810  0.38225386  1
  Rh  Rh12  1  0.24846023  0.38233246  0.44706176  1
  Rh  Rh13  1  0.24839967  0.55297805  0.93522760  1
  Rh  Rh14  1  0.24841801  0.06475190  0.61774614  1
  Rh  Rh15  1  0.74860464  0.11148196  0.85034979  1
  Rh  Rh16  1  0.74862534  0.14974321  0.26112239  1
  Rh  Rh17  1  0.74860303  0.73883852  0.88852974  1
  Rh  Rh18  1  0.25139536  0.88851804  0.14965021  1
  Rh  Rh19  1  0.25137466  0.85025679  0.73887761  1
  Rh  Rh20  1  0.25139697  0.26116148  0.11147026  1
