# generated using pymatgen
data_Y2FeSbO7
_symmetry_space_group_name_H-M   'P 1'
_cell_length_a   7.30951678
_cell_length_b   7.29061444
_cell_length_c   7.35912811
_cell_angle_alpha   90.00000000
_cell_angle_beta   59.77522531
_cell_angle_gamma   119.91449293
_symmetry_Int_Tables_number   1
_chemical_formula_structural   Y2FeSbO7
_chemical_formula_sum   'Y4 Fe2 Sb2 O14'
_cell_volume   276.72232923
_cell_formula_units_Z   2
loop_
 _symmetry_equiv_pos_site_id
 _symmetry_equiv_pos_as_xyz
  1  'x, y, z'
loop_
 _atom_site_type_symbol
 _atom_site_label
 _atom_site_symmetry_multiplicity
 _atom_site_fract_x
 _atom_site_fract_y
 _atom_site_fract_z
 _atom_site_occupancy
  Y  Y0  1  0.50000000  0.50000000  0.00000000  1
  Y  Y1  1  0.50000000  -0.00000000  0.00000000  1
  Y  Y2  1  -0.00000000  -0.00000000  0.50000000  1
  Y  Y3  1  -0.00000000  -0.00000000  0.00000000  1
  Fe  Fe4  1  0.50000000  -0.00000000  0.50000000  1
  Fe  Fe5  1  0.50000000  0.50000000  0.50000000  1
  Sb  Sb6  1  -0.00000000  0.50000000  0.00000000  1
  Sb  Sb7  1  -0.00000000  0.50000000  0.50000000  1
  O  O8  1  0.84031220  0.42015610  0.82984390  1
  O  O9  1  0.67539996  0.83769998  0.41230002  1
  O  O10  1  0.25181207  0.42136943  0.40979196  1
  O  O11  1  0.25181207  0.83044263  0.83839597  1
  O  O12  1  0.25181207  0.83044263  0.40979196  1
  O  O13  1  0.25181207  0.42136943  0.83839597  1
  O  O14  1  0.15968780  0.57984390  0.17015610  1
  O  O15  1  0.32460004  0.16230002  0.58769998  1
  O  O16  1  0.74818793  0.57863057  0.59020804  1
  O  O17  1  0.74818793  0.16955737  0.16160403  1
  O  O18  1  0.74818793  0.16955737  0.59020804  1
  O  O19  1  0.74818793  0.57863057  0.16160403  1
  O  O20  1  0.25444856  0.12722428  0.12277572  1
  O  O21  1  0.74555144  0.87277572  0.87722428  1
