# generated using pymatgen
data_Y2P7Rh12
_symmetry_space_group_name_H-M   'P 1'
_cell_length_a   3.88690249
_cell_length_b   9.61904872
_cell_length_c   9.62263242
_cell_angle_alpha   119.99050710
_cell_angle_beta   90.00630534
_cell_angle_gamma   89.99826208
_symmetry_Int_Tables_number   1
_chemical_formula_structural   Y2P7Rh12
_chemical_formula_sum   'Y2 P7 Rh12'
_cell_volume   311.60314311
_cell_formula_units_Z   1
loop_
 _symmetry_equiv_pos_site_id
 _symmetry_equiv_pos_as_xyz
  1  'x, y, z'
loop_
 _atom_site_type_symbol
 _atom_site_label
 _atom_site_symmetry_multiplicity
 _atom_site_fract_x
 _atom_site_fract_y
 _atom_site_fract_z
 _atom_site_occupancy
  Y  Y0  1  0.74944442  0.33345407  0.66671372  1
  Y  Y1  1  0.25055558  0.66654593  0.33328628  1
  P  P2  1  0.50000000  0.00000000  -0.00000000  1
  P  P3  1  0.75340738  0.88161967  0.59493321  1
  P  P4  1  0.75315417  0.40499795  0.28664595  1
  P  P5  1  0.75337346  0.71344142  0.11850915  1
  P  P6  1  0.24659262  0.11838033  0.40506679  1
  P  P7  1  0.24684583  0.59500205  0.71335405  1
  P  P8  1  0.24662654  0.28655858  0.88149085  1
  Rh  Rh9  1  0.75072042  0.61853106  0.55047395  1
  Rh  Rh10  1  0.75077649  0.44946070  0.06791290  1
  Rh  Rh11  1  0.75066320  0.93215483  0.38155259  1
  Rh  Rh12  1  0.24927958  0.38146894  0.44952605  1
  Rh  Rh13  1  0.24922351  0.55053930  0.93208710  1
  Rh  Rh14  1  0.24933680  0.06784517  0.61844741  1
  Rh  Rh15  1  0.74977874  0.11073353  0.84930388  1
  Rh  Rh16  1  0.74977732  0.15057360  0.26131617  1
  Rh  Rh17  1  0.75000144  0.73865927  0.88944272  1
  Rh  Rh18  1  0.25022126  0.88926647  0.15069612  1
  Rh  Rh19  1  0.25022268  0.84942640  0.73868383  1
  Rh  Rh20  1  0.24999856  0.26134073  0.11055728  1
