# generated using pymatgen
data_V3Cr3Si2
_symmetry_space_group_name_H-M   'P 1'
_cell_length_a   4.60313236
_cell_length_b   4.60313236
_cell_length_c   4.60313236
_cell_angle_alpha   89.93544148
_cell_angle_beta   90.06455852
_cell_angle_gamma   90.06455852
_symmetry_Int_Tables_number   1
_chemical_formula_structural   V3Cr3Si2
_chemical_formula_sum   'V3 Cr3 Si2'
_cell_volume   97.53479205
_cell_formula_units_Z   1
loop_
 _symmetry_equiv_pos_site_id
 _symmetry_equiv_pos_as_xyz
  1  'x, y, z'
loop_
 _atom_site_type_symbol
 _atom_site_label
 _atom_site_symmetry_multiplicity
 _atom_site_fract_x
 _atom_site_fract_y
 _atom_site_fract_z
 _atom_site_occupancy
  V  V0  1  0.49995140  0.25000000  -0.00004860  1
  V  V1  1  0.75000000  -0.00004860  0.50004860  1
  V  V2  1  0.00004860  0.50004860  0.25000000  1
  Cr  Cr3  1  0.49985132  0.75000000  0.99985132  1
  Cr  Cr4  1  0.25000000  0.99985132  0.50014868  1
  Cr  Cr5  1  0.00014868  0.50014868  0.75000000  1
  Si  Si6  1  0.49965866  0.50034134  0.50034134  1
  Si  Si7  1  0.00034134  0.99965866  0.99965866  1
