# generated using pymatgen
data_TiNb3(AlC)2
_symmetry_space_group_name_H-M   'P 1'
_cell_length_a   3.11810802
_cell_length_b   3.11922219
_cell_length_c   13.86074492
_cell_angle_alpha   90.00000000
_cell_angle_beta   90.00028974
_cell_angle_gamma   59.98817902
_symmetry_Int_Tables_number   1
_chemical_formula_structural   TiNb3(AlC)2
_chemical_formula_sum   'Ti1 Nb3 Al2 C2'
_cell_volume   116.73549432
_cell_formula_units_Z   1
loop_
 _symmetry_equiv_pos_site_id
 _symmetry_equiv_pos_as_xyz
  1  'x, y, z'
loop_
 _atom_site_type_symbol
 _atom_site_label
 _atom_site_symmetry_multiplicity
 _atom_site_fract_x
 _atom_site_fract_y
 _atom_site_fract_z
 _atom_site_occupancy
  Ti  Ti0  1  0.33332094  0.33333953  0.58519032  1
  Nb  Nb1  1  0.66674492  0.66662754  0.41210926  1
  Nb  Nb2  1  0.66668264  0.66665868  0.08948820  1
  Nb  Nb3  1  0.33331275  0.33334363  0.91034048  1
  Al  Al4  1  0.33338085  0.33330958  0.25024889  1
  Al  Al5  1  0.66662302  0.66668849  0.74843715  1
  C  C6  1  -0.00006311  0.00003155  0.50433793  1
  C  C7  1  -0.00000200  0.00000100  0.99984776  1
