# generated using pymatgen
data_CaV2O4
_symmetry_space_group_name_H-M   'P 1'
_cell_length_a   3.09546011
_cell_length_b   5.18938580
_cell_length_c   10.11168791
_cell_angle_alpha   90.00000000
_cell_angle_beta   90.00000000
_cell_angle_gamma   107.35246988
_symmetry_Int_Tables_number   1
_chemical_formula_structural   CaV2O4
_chemical_formula_sum   'Ca2 V4 O8'
_cell_volume   155.03699182
_cell_formula_units_Z   2
loop_
 _symmetry_equiv_pos_site_id
 _symmetry_equiv_pos_as_xyz
  1  'x, y, z'
loop_
 _atom_site_type_symbol
 _atom_site_label
 _atom_site_symmetry_multiplicity
 _atom_site_fract_x
 _atom_site_fract_y
 _atom_site_fract_z
 _atom_site_occupancy
  Ca  Ca0  1  0.38563516  0.77126932  0.75000000  1
  Ca  Ca1  1  0.61436484  0.22873068  0.25000000  1
  V  V2  1  0.86781884  0.73563767  0.06992804  1
  V  V3  1  0.13218116  0.26436233  0.93007196  1
  V  V4  1  0.86781884  0.73563767  0.43007196  1
  V  V5  1  0.13218116  0.26436233  0.56992804  1
  O  O6  1  0.23158500  0.46317100  0.39315873  1
  O  O7  1  0.76841500  0.53682900  0.60684127  1
  O  O8  1  0.76841500  0.53682900  0.89315873  1
  O  O9  1  0.23158500  0.46317100  0.10684127  1
  O  O10  1  0.93323848  0.86647895  0.25000000  1
  O  O11  1  0.06676152  0.13352105  0.75000000  1
  O  O12  1  0.50000000  -0.00000000  -0.00000000  1
  O  O13  1  0.50000000  -0.00000000  0.50000000  1
