# generated using pymatgen
data_TiTl2(TeO4)3
_symmetry_space_group_name_H-M   'P 1'
_cell_length_a   7.27323383
_cell_length_b   7.23764230
_cell_length_c   7.27323383
_cell_angle_alpha   89.97980123
_cell_angle_beta   59.96322247
_cell_angle_gamma   120.10244941
_symmetry_Int_Tables_number   1
_chemical_formula_structural   TiTl2(TeO4)3
_chemical_formula_sum   'Ti1 Tl2 Te3 O12'
_cell_volume   270.11164037
_cell_formula_units_Z   1
loop_
 _symmetry_equiv_pos_site_id
 _symmetry_equiv_pos_as_xyz
  1  'x, y, z'
loop_
 _atom_site_type_symbol
 _atom_site_label
 _atom_site_symmetry_multiplicity
 _atom_site_fract_x
 _atom_site_fract_y
 _atom_site_fract_z
 _atom_site_occupancy
  Ti  Ti0  1  0.50412065  0.00000000  0.49587935  1
  Tl  Tl1  1  0.28145622  0.10394390  0.10649082  1
  Tl  Tl2  1  0.78956528  0.89605610  0.82248768  1
  Te  Te3  1  0.50018065  0.49923380  0.49902591  1
  Te  Te4  1  0.00174029  0.50076620  0.99905314  1
  Te  Te5  1  0.00172212  0.50000000  0.49827788  1
  O  O6  1  0.63030222  0.81080210  0.43640585  1
  O  O7  1  0.85140544  0.42316616  0.82389485  1
  O  O8  1  0.24691796  0.81315814  0.81937624  1
  O  O9  1  0.24565684  0.41955822  0.42859065  1
  O  O10  1  0.24756422  0.42153443  0.82487733  1
  O  O11  1  0.24450056  0.81234556  0.43542295  1
  O  O12  1  0.36746563  0.18684186  0.56624018  1
  O  O13  1  0.15185113  0.58044178  0.17390138  1
  O  O14  1  0.75279205  0.18919790  0.18049988  1
  O  O15  1  0.75293899  0.57683384  0.57176072  1
  O  O16  1  0.75358824  0.57846557  0.17397021  1
  O  O17  1  0.75223149  0.18765444  0.56784499  1
