# generated using pymatgen
data_Ti6P2O
_symmetry_space_group_name_H-M   'P 1'
_cell_length_a   3.29268651
_cell_length_b   5.18558528
_cell_length_c   7.73342113
_cell_angle_alpha   88.72366217
_cell_angle_beta   90.00000000
_cell_angle_gamma   71.48913038
_symmetry_Int_Tables_number   1
_chemical_formula_structural   Ti6P2O
_chemical_formula_sum   'Ti6 P2 O1'
_cell_volume   125.17828168
_cell_formula_units_Z   1
loop_
 _symmetry_equiv_pos_site_id
 _symmetry_equiv_pos_as_xyz
  1  'x, y, z'
loop_
 _atom_site_type_symbol
 _atom_site_label
 _atom_site_symmetry_multiplicity
 _atom_site_fract_x
 _atom_site_fract_y
 _atom_site_fract_z
 _atom_site_occupancy
  Ti  Ti0  1  0.55523345  0.88953309  0.24071386  1
  Ti  Ti1  1  0.44476655  0.11046691  0.75928614  1
  Ti  Ti2  1  0.86273460  0.27453080  0.45254366  1
  Ti  Ti3  1  0.13726540  0.72546920  0.54745634  1
  Ti  Ti4  1  0.86082409  0.27835183  0.05579110  1
  Ti  Ti5  1  0.13917591  0.72164817  0.94420890  1
  P  P6  1  0.25128189  0.49743623  0.24796135  1
  P  P7  1  0.74871811  0.50256377  0.75203865  1
  O  O8  1  0.50000000  -0.00000000  0.50000000  1
