# generated using pymatgen
data_TlInF6
_symmetry_space_group_name_H-M   'P 1'
_cell_length_a   5.68033544
_cell_length_b   5.68033589
_cell_length_c   5.97030811
_cell_angle_alpha   89.99999996
_cell_angle_beta   61.59405694
_cell_angle_gamma   120.00000256
_symmetry_Int_Tables_number   1
_chemical_formula_structural   TlInF6
_chemical_formula_sum   'Tl1 In1 F6'
_cell_volume   139.40676973
_cell_formula_units_Z   1
loop_
 _symmetry_equiv_pos_site_id
 _symmetry_equiv_pos_as_xyz
  1  'x, y, z'
loop_
 _atom_site_type_symbol
 _atom_site_label
 _atom_site_symmetry_multiplicity
 _atom_site_fract_x
 _atom_site_fract_y
 _atom_site_fract_z
 _atom_site_occupancy
  Tl  Tl0  1  0.00000000  0.50000000  0.50000000  1
  In  In1  1  0.00000000  0.00000000  0.00000000  1
  F  F2  1  0.48957189  0.35274207  0.75575354  1
  F  F3  1  0.10741664  0.75467457  0.75575354  1
  F  F4  1  0.89150439  0.13682982  0.75575354  1
  F  F5  1  0.89258336  0.24532543  0.24424646  1
  F  F6  1  0.10849561  0.86317018  0.24424646  1
  F  F7  1  0.51042811  0.64725793  0.24424646  1
