# generated using pymatgen
data_Ti8Al15Rh7
_symmetry_space_group_name_H-M   'P 1'
_cell_length_a   8.65784022
_cell_length_b   8.65784022
_cell_length_c   8.65784022
_cell_angle_alpha   89.98685302
_cell_angle_beta   59.92217864
_cell_angle_gamma   119.90707182
_symmetry_Int_Tables_number   1
_chemical_formula_structural   Ti8Al15Rh7
_chemical_formula_sum   'Ti8 Al15 Rh7'
_cell_volume   458.94650399
_cell_formula_units_Z   1
loop_
 _symmetry_equiv_pos_site_id
 _symmetry_equiv_pos_as_xyz
  1  'x, y, z'
loop_
 _atom_site_type_symbol
 _atom_site_label
 _atom_site_symmetry_multiplicity
 _atom_site_fract_x
 _atom_site_fract_y
 _atom_site_fract_z
 _atom_site_occupancy
  Ti  Ti0  1  0.57262998  0.28356773  0.71721343  1
  Ti  Ti1  1  0.99921884  0.71015659  0.71721343  1
  Ti  Ti2  1  0.00000000  0.28999558  0.71000442  1
  Ti  Ti3  1  0.42737002  0.71015659  0.28906225  1
  Ti  Ti4  1  0.00078116  0.28356773  0.28906225  1
  Ti  Ti5  1  0.00000000  0.71604780  0.28395220  1
  Ti  Ti6  1  0.24370886  0.12097979  0.63531135  1
  Ti  Ti7  1  0.75629114  0.12097979  0.12272907  1
  Al  Al8  1  0.00000000  0.50183158  0.49816842  1
  Al  Al9  1  0.69133536  0.34674759  0.96191705  1
  Al  Al10  1  0.30866464  0.34674759  0.34458777  1
  Al  Al11  1  0.30438529  0.95802575  0.34635954  1
  Al  Al12  1  0.69561471  0.34925517  0.34635954  1
  Al  Al13  1  0.30688470  0.65426048  0.03885483  1
  Al  Al14  1  0.69311530  0.65426048  0.65262422  1
  Al  Al15  1  0.69010601  0.03631085  0.65379515  1
  Al  Al16  1  0.30989399  0.65609884  0.65379515  1
  Al  Al17  1  0.75779854  0.63608122  0.12171732  1
  Al  Al18  1  0.24220146  0.12048413  0.12171732  1
  Al  Al19  1  0.75609977  0.87822208  0.36567815  1
  Al  Al20  1  0.24390023  0.87822208  0.87787768  1
  Al  Al21  1  0.24296137  0.36480785  0.87815351  1
  Al  Al22  1  0.75703863  0.87888512  0.87815351  1
  Rh  Rh23  1  0.00164287  0.00154652  0.49964504  1
  Rh  Rh24  1  0.49880845  0.49871209  0.49964504  1
  Rh  Rh25  1  0.50000000  0.00228067  0.49771933  1
  Rh  Rh26  1  0.99835713  0.49871209  0.00009635  1
  Rh  Rh27  1  0.50119155  0.00154652  0.00009635  1
  Rh  Rh28  1  0.50000000  0.50093764  0.99906236  1
  Rh  Rh29  1  0.00000000  0.00057203  0.99942797  1
