# generated using pymatgen
data_Tl5Sb10As3S22
_symmetry_space_group_name_H-M   'P 1'
_cell_length_a   7.65609850
_cell_length_b   8.86158698
_cell_length_c   17.99660625
_cell_angle_alpha   103.46539658
_cell_angle_beta   91.46618866
_cell_angle_gamma   109.77051571
_symmetry_Int_Tables_number   1
_chemical_formula_structural   Tl5Sb10As3S22
_chemical_formula_sum   'Tl5 Sb10 As3 S22'
_cell_volume   1110.13892493
_cell_formula_units_Z   1
loop_
 _symmetry_equiv_pos_site_id
 _symmetry_equiv_pos_as_xyz
  1  'x, y, z'
loop_
 _atom_site_type_symbol
 _atom_site_label
 _atom_site_symmetry_multiplicity
 _atom_site_fract_x
 _atom_site_fract_y
 _atom_site_fract_z
 _atom_site_occupancy
  Tl  Tl0  1  0.68354338  0.75103428  0.62299367  1
  Tl  Tl1  1  0.31610101  0.25118439  0.37792886  1
  Tl  Tl2  1  0.22926597  0.64717025  0.18519978  1
  Tl  Tl3  1  0.76872500  0.35805076  0.81469207  1
  Tl  Tl4  1  0.79791079  0.93201839  0.97529327  1
  Sb  Sb5  1  0.28642444  0.77868878  0.81086569  1
  Sb  Sb6  1  0.71046952  0.22288256  0.19143249  1
  Sb  Sb7  1  0.16670692  0.79754604  0.59600372  1
  Sb  Sb8  1  0.83887052  0.20583654  0.40524186  1
  Sb  Sb9  1  0.41401279  0.79489362  0.41179703  1
  Sb  Sb10  1  0.57824152  0.20380360  0.58925633  1
  Sb  Sb11  1  0.76162160  0.82453055  0.20835327  1
  Sb  Sb12  1  0.24124781  0.18138882  0.79778777  1
  Sb  Sb13  1  0.31424058  0.07075431  0.01809704  1
  Sb  Sb14  1  0.86406316  0.67142547  0.39284553  1
  As  As15  1  0.13917257  0.33274659  0.61870098  1
  As  As16  1  0.26350112  0.54822343  0.96722197  1
  As  As17  1  0.75051468  0.44524336  0.02896192  1
  S  S18  1  0.91308588  0.71944522  0.09176958  1
  S  S19  1  0.07139400  0.27331021  0.90834190  1
  S  S20  1  0.44402101  0.96345203  0.68892641  1
  S  S21  1  0.56544975  0.04032202  0.30949762  1
  S  S22  1  0.48472513  0.38079545  0.08955869  1
  S  S23  1  0.49848228  0.58353361  0.89679204  1
  S  S24  1  0.01429402  0.85820003  0.30839877  1
  S  S25  1  0.99588916  0.14929095  0.68963629  1
  S  S26  1  0.09184437  0.68451555  0.91561158  1
  S  S27  1  0.91552185  0.32366732  0.08794496  1
  S  S28  1  0.05203328  0.55015498  0.67983942  1
  S  S29  1  0.96365452  0.44463169  0.32224591  1
  S  S30  1  0.54507487  0.57736564  0.32754237  1
  S  S31  1  0.44327699  0.41965903  0.67054002  1
  S  S32  1  0.71878820  0.96510871  0.48781783  1
  S  S33  1  0.27505934  0.03190485  0.51206146  1
  S  S34  1  0.48249141  0.94755377  0.09314354  1
  S  S35  1  0.49762497  0.07817579  0.90762996  1
  S  S36  1  0.69417139  0.38417701  0.49090954  1
  S  S37  1  0.30622690  0.61653238  0.50799526  1
  S  S38  1  0.03041982  0.89409746  0.79532283  1
  S  S39  1  0.96193746  0.10048459  0.19690078  1
