# generated using pymatgen
data_Th7Se12
_symmetry_space_group_name_H-M   'P 1'
_cell_length_a   4.12302671
_cell_length_b   11.72313672
_cell_length_c   11.72313672
_cell_angle_alpha   120.00000284
_cell_angle_beta   90.00000000
_cell_angle_gamma   90.00000000
_symmetry_Int_Tables_number   1
_chemical_formula_structural   Th7Se12
_chemical_formula_sum   'Th7 Se12'
_cell_volume   490.72075596
_cell_formula_units_Z   1
loop_
 _symmetry_equiv_pos_site_id
 _symmetry_equiv_pos_as_xyz
  1  'x, y, z'
loop_
 _atom_site_type_symbol
 _atom_site_label
 _atom_site_symmetry_multiplicity
 _atom_site_fract_x
 _atom_site_fract_y
 _atom_site_fract_z
 _atom_site_occupancy
  Th  Th0  1  0.75000000  0.00000000  -0.00000000  1
  Th  Th1  1  0.75000000  0.71789969  0.56436501  1
  Th  Th2  1  0.75000000  0.43563499  0.15353468  1
  Th  Th3  1  0.75000000  0.84646532  0.28210031  1
  Th  Th4  1  0.25000000  0.28631606  0.44346258  1
  Th  Th5  1  0.25000000  0.55653742  0.84285348  1
  Th  Th6  1  0.25000000  0.15714652  0.71368394  1
  Se  Se7  1  0.75000000  0.00514028  0.75237181  1
  Se  Se8  1  0.75000000  0.24762819  0.25276848  1
  Se  Se9  1  0.75000000  0.74723152  0.99485972  1
  Se  Se10  1  0.25000000  0.99534143  0.21228192  1
  Se  Se11  1  0.25000000  0.78771808  0.78305951  1
  Se  Se12  1  0.25000000  0.21694049  0.00465857  1
  Se  Se13  1  0.75000000  0.37489771  0.86184046  1
  Se  Se14  1  0.75000000  0.13815954  0.51305725  1
  Se  Se15  1  0.75000000  0.48694275  0.62510229  1
  Se  Se16  1  0.25000000  0.61827812  0.14015962  1
  Se  Se17  1  0.25000000  0.85984038  0.47811850  1
  Se  Se18  1  0.25000000  0.52188150  0.38172188  1
