# generated using pymatgen
data_Ti13Al9Co8
_symmetry_space_group_name_H-M   'P 1'
_cell_length_a   8.44950914
_cell_length_b   8.44950914
_cell_length_c   8.48061913
_cell_angle_alpha   90.00000000
_cell_angle_beta   60.12127442
_cell_angle_gamma   120.00000000
_symmetry_Int_Tables_number   1
_chemical_formula_structural   Ti13Al9Co8
_chemical_formula_sum   'Ti13 Al9 Co8'
_cell_volume   428.91297378
_cell_formula_units_Z   1
loop_
 _symmetry_equiv_pos_site_id
 _symmetry_equiv_pos_as_xyz
  1  'x, y, z'
loop_
 _atom_site_type_symbol
 _atom_site_label
 _atom_site_symmetry_multiplicity
 _atom_site_fract_x
 _atom_site_fract_y
 _atom_site_fract_z
 _atom_site_occupancy
  Ti  Ti0  1  0.58968334  0.79484167  0.20475445  1
  Ti  Ti1  1  0.00040388  0.20556221  0.20475445  1
  Ti  Ti2  1  0.00040388  0.79484167  0.20475445  1
  Ti  Ti3  1  0.39913777  0.19956889  0.78905629  1
  Ti  Ti4  1  0.01137483  0.81180594  0.78905629  1
  Ti  Ti5  1  0.01137483  0.19956889  0.78905629  1
  Ti  Ti6  1  0.23947327  0.61973664  0.14079009  1
  Ti  Ti7  1  0.75890011  0.61945138  0.62164850  1
  Ti  Ti8  1  0.75890011  0.13944873  0.62164850  1
  Ti  Ti9  1  0.23890277  0.61945138  0.62164850  1
  Ti  Ti10  1  0.68120562  0.15795304  0.16084134  1
  Ti  Ti11  1  0.68120562  0.52325258  0.16084134  1
  Ti  Ti12  1  0.31590607  0.15795304  0.16084134  1
  Al  Al13  1  0.68212460  0.84106230  0.47681310  1
  Al  Al14  1  0.32055909  0.83819496  0.84124595  1
  Al  Al15  1  0.32055909  0.48236413  0.84124595  1
  Al  Al16  1  0.67638993  0.83819496  0.84124595  1
  Al  Al17  1  0.76228341  0.38114170  0.85657489  1
  Al  Al18  1  0.23517042  0.38102120  0.38380839  1
  Al  Al19  1  0.23517042  0.85414922  0.38380839  1
  Al  Al20  1  0.76204239  0.38102120  0.38380839  1
  Al  Al21  1  0.33834004  0.16917002  0.49248994  1
  Co  Co22  1  0.99331313  0.99665657  0.50332061  1
  Co  Co23  1  0.50002283  0.50336626  0.50332061  1
  Co  Co24  1  0.50002283  0.99665657  0.50332061  1
  Co  Co25  1  0.00066515  0.50033257  0.00177403  1
  Co  Co26  1  0.49789340  0.99756082  0.00177403  1
  Co  Co27  1  0.49789340  0.50033257  0.00177403  1
  Co  Co28  1  0.99769019  0.49884509  0.50346472  1
  Co  Co29  1  0.99298760  0.99649380  0.01051860  1
