# generated using pymatgen
data_Ti2Sb2Pb4O13
_symmetry_space_group_name_H-M   'P 1'
_cell_length_a   7.46992182
_cell_length_b   7.47094565
_cell_length_c   7.47054277
_cell_angle_alpha   89.94320764
_cell_angle_beta   59.84600134
_cell_angle_gamma   119.76953514
_symmetry_Int_Tables_number   1
_chemical_formula_structural   Ti2Sb2Pb4O13
_chemical_formula_sum   'Ti2 Sb2 Pb4 O13'
_cell_volume   294.99204775
_cell_formula_units_Z   1
loop_
 _symmetry_equiv_pos_site_id
 _symmetry_equiv_pos_as_xyz
  1  'x, y, z'
loop_
 _atom_site_type_symbol
 _atom_site_label
 _atom_site_symmetry_multiplicity
 _atom_site_fract_x
 _atom_site_fract_y
 _atom_site_fract_z
 _atom_site_occupancy
  Ti  Ti0  1  0.25122580  0.62601580  0.12279539  1
  Ti  Ti1  1  0.74878738  0.62591680  0.62519506  1
  Sb  Sb2  1  0.74968877  0.12471114  0.62497957  1
  Sb  Sb3  1  0.25030452  0.62533621  0.62497500  1
  Pb  Pb4  1  0.25464515  0.12717805  0.61823066  1
  Pb  Pb5  1  0.74549003  0.12710514  0.12739803  1
  Pb  Pb6  1  0.74672625  0.61996363  0.12669895  1
  Pb  Pb7  1  0.25322525  0.12650824  0.12679105  1
  O  O8  1  0.88595545  0.94217408  0.55781630  1
  O  O9  1  0.50011533  0.55628494  0.55781780  1
  O  O10  1  0.49995545  0.94670915  0.55333295  1
  O  O11  1  0.11405732  0.55624078  0.94384003  1
  O  O12  1  0.49993758  0.94213870  0.94379358  1
  O  O13  1  0.49996502  0.56179922  0.93819176  1
  O  O14  1  -0.00008441  0.00042634  -0.00036094  1
  O  O15  1  0.39184698  0.69619163  0.30435721  1
  O  O16  1  0.99940728  0.30378467  0.30438178  1
  O  O17  1  0.00000346  0.69116121  0.30887252  1
  O  O18  1  0.60816514  0.30375196  0.69560596  1
  O  O19  1  0.00060669  0.69625915  0.69564190  1
  O  O20  1  -0.00002445  0.30034316  0.69964544  1
