# generated using pymatgen
data_TePb3(BrO2)2
_symmetry_space_group_name_H-M   'P 1'
_cell_length_a   5.70537398
_cell_length_b   5.69237791
_cell_length_c   7.19212843
_cell_angle_alpha   90.00000000
_cell_angle_beta   66.63170300
_cell_angle_gamma   90.00000000
_symmetry_Int_Tables_number   1
_chemical_formula_structural   TePb3(BrO2)2
_chemical_formula_sum   'Te1 Pb3 Br2 O4'
_cell_volume   214.42023499
_cell_formula_units_Z   1
loop_
 _symmetry_equiv_pos_site_id
 _symmetry_equiv_pos_as_xyz
  1  'x, y, z'
loop_
 _atom_site_type_symbol
 _atom_site_label
 _atom_site_symmetry_multiplicity
 _atom_site_fract_x
 _atom_site_fract_y
 _atom_site_fract_z
 _atom_site_occupancy
  Te  Te0  1  0.18705558  -0.00000000  0.62588884  1
  Pb  Pb1  1  0.85707239  0.00000000  0.28585523  1
  Pb  Pb2  1  0.35212564  0.50000000  0.29574872  1
  Pb  Pb3  1  0.64676415  0.50000000  0.70647170  1
  Br  Br4  1  0.50520535  0.00000000  0.98958931  1
  Br  Br5  1  -0.00140751  0.50000000  0.00281502  1
  O  O6  1  0.01771168  0.23131694  0.50327280  1
  O  O7  1  0.47901553  0.76868306  0.50327280  1
  O  O8  1  0.47901553  0.23131694  0.50327280  1
  O  O9  1  0.01771168  0.76868306  0.50327280  1
