# generated using pymatgen
data_Th4C3
_symmetry_space_group_name_H-M   'P 1'
_cell_length_a   3.74997948
_cell_length_b   3.74997948
_cell_length_c   12.70619631
_cell_angle_alpha   81.51415953
_cell_angle_beta   98.48584047
_cell_angle_gamma   120.00000000
_symmetry_Int_Tables_number   1
_chemical_formula_structural   Th4C3
_chemical_formula_sum   'Th4 C3'
_cell_volume   152.47758625
_cell_formula_units_Z   1
loop_
 _symmetry_equiv_pos_site_id
 _symmetry_equiv_pos_as_xyz
  1  'x, y, z'
loop_
 _atom_site_type_symbol
 _atom_site_label
 _atom_site_symmetry_multiplicity
 _atom_site_fract_x
 _atom_site_fract_y
 _atom_site_fract_z
 _atom_site_occupancy
  Th  Th0  1  0.24856512  0.75143488  0.74569535  1
  Th  Th1  1  0.50143488  0.49856512  0.50430465  1
  Th  Th2  1  0.99493774  0.00506226  0.98481322  1
  Th  Th3  1  0.75506226  0.24493774  0.26518678  1
  C  C4  1  0.12139450  0.87860550  0.36418350  1
  C  C5  1  0.87500000  0.12500000  0.62500000  1
  C  C6  1  0.62860550  0.37139450  0.88581650  1
