# generated using pymatgen
data_TiH8(OF2)3
_symmetry_space_group_name_H-M   'P 1'
_cell_length_a   6.67356703
_cell_length_b   8.28923563
_cell_length_c   13.14278675
_cell_angle_alpha   90.00000000
_cell_angle_beta   90.00000000
_cell_angle_gamma   90.00000000
_symmetry_Int_Tables_number   1
_chemical_formula_structural   TiH8(OF2)3
_chemical_formula_sum   'Ti4 H32 O12 F24'
_cell_volume   727.04279218
_cell_formula_units_Z   4
loop_
 _symmetry_equiv_pos_site_id
 _symmetry_equiv_pos_as_xyz
  1  'x, y, z'
loop_
 _atom_site_type_symbol
 _atom_site_label
 _atom_site_symmetry_multiplicity
 _atom_site_fract_x
 _atom_site_fract_y
 _atom_site_fract_z
 _atom_site_occupancy
  Ti  Ti0  1  0.63688796  0.25011114  0.68124688  1
  Ti  Ti1  1  0.86311204  0.25011114  0.18124688  1
  Ti  Ti2  1  0.36311204  0.75011114  0.31875312  1
  Ti  Ti3  1  0.13688796  0.75011114  0.81875312  1
  H  H4  1  0.57047090  0.60365805  0.88182161  1
  H  H5  1  0.93748647  0.90238973  0.38704349  1
  H  H6  1  0.42952910  0.10365805  0.11817839  1
  H  H7  1  0.06251353  0.40238973  0.61295651  1
  H  H8  1  0.43748647  0.40238973  0.11295651  1
  H  H9  1  0.07047090  0.10365805  0.61817839  1
  H  H10  1  0.56251353  0.90238973  0.88704349  1
  H  H11  1  0.92952910  0.60365805  0.38182161  1
  H  H12  1  0.65647589  0.42071835  0.88944235  1
  H  H13  1  0.85390658  0.08388368  0.39708276  1
  H  H14  1  0.34352411  0.92071835  0.11055765  1
  H  H15  1  0.14609342  0.58388368  0.60291724  1
  H  H16  1  0.35390658  0.58388368  0.10291724  1
  H  H17  1  0.15647589  0.92071835  0.61055765  1
  H  H18  1  0.64609342  0.08388368  0.89708276  1
  H  H19  1  0.84352411  0.42071835  0.38944235  1
  H  H20  1  0.55719730  0.75110087  0.54365460  1
  H  H21  1  0.94280270  0.75110087  0.04365460  1
  H  H22  1  0.44280270  0.25110087  0.45634540  1
  H  H23  1  0.05719730  0.25110087  0.95634540  1
  H  H24  1  0.65539489  0.64736492  0.64116737  1
  H  H25  1  0.84497915  0.85335670  0.14193768  1
  H  H26  1  0.34460511  0.14736492  0.35883263  1
  H  H27  1  0.15502085  0.35335670  0.85806232  1
  H  H28  1  0.34497915  0.35335670  0.35806232  1
  H  H29  1  0.15539489  0.14736492  0.85883263  1
  H  H30  1  0.65502085  0.85335670  0.64193768  1
  H  H31  1  0.84460511  0.64736492  0.14116737  1
  H  H32  1  0.51159407  0.50213877  0.99473651  1
  H  H33  1  0.48840593  0.00213877  0.00526349  1
  H  H34  1  0.01159407  0.00213877  0.50526349  1
  H  H35  1  0.98840593  0.50213877  0.49473651  1
  O  O36  1  0.62846941  0.52127920  0.92898108  1
  O  O37  1  0.88462802  0.98356592  0.43572542  1
  O  O38  1  0.37153059  0.02127920  0.07101892  1
  O  O39  1  0.11537198  0.48356592  0.56427458  1
  O  O40  1  0.38462802  0.48356592  0.06427458  1
  O  O41  1  0.12846941  0.02127920  0.57101892  1
  O  O42  1  0.61537198  0.98356592  0.93572542  1
  O  O43  1  0.87153059  0.52127920  0.42898108  1
  O  O44  1  0.66294074  0.75080342  0.59956737  1
  O  O45  1  0.83705926  0.75080342  0.09956737  1
  O  O46  1  0.33705926  0.25080342  0.40043263  1
  O  O47  1  0.16294074  0.25080342  0.90043263  1
  F  F48  1  0.68964217  0.25266754  0.82706635  1
  F  F49  1  0.81035783  0.25266754  0.32706635  1
  F  F50  1  0.31035783  0.75266754  0.17293365  1
  F  F51  1  0.18964217  0.75266754  0.67293365  1
  F  F52  1  0.65118173  0.47832633  0.68470216  1
  F  F53  1  0.85159412  0.02240394  0.18639190  1
  F  F54  1  0.34881827  0.97832633  0.31529784  1
  F  F55  1  0.14840588  0.52240394  0.81360810  1
  F  F56  1  0.35159412  0.52240394  0.31360810  1
  F  F57  1  0.15118173  0.97832633  0.81529784  1
  F  F58  1  0.64840588  0.02240394  0.68639190  1
  F  F59  1  0.84881827  0.47832633  0.18470216  1
  F  F60  1  0.92636534  0.24882993  0.65927313  1
  F  F61  1  0.57363466  0.24882993  0.15927313  1
  F  F62  1  0.07363466  0.74882993  0.34072687  1
  F  F63  1  0.42636534  0.74882993  0.84072687  1
  F  F64  1  0.60196386  0.25005331  0.53806157  1
  F  F65  1  0.89803614  0.25005331  0.03806157  1
  F  F66  1  0.39803614  0.75005331  0.46193843  1
  F  F67  1  0.10196386  0.75005331  0.96193843  1
  F  F68  1  0.36934267  0.25134818  0.70429857  1
  F  F69  1  0.13065733  0.25134818  0.20429857  1
  F  F70  1  0.63065733  0.75134818  0.29570143  1
  F  F71  1  0.86934267  0.75134818  0.79570143  1
