# generated using pymatgen
data_TbHo3Fe8
_symmetry_space_group_name_H-M   'P 1'
_cell_length_a   5.10912280
_cell_length_b   5.10912281
_cell_length_c   8.83991073
_cell_angle_alpha   73.20307695
_cell_angle_beta   90.00000000
_cell_angle_gamma   119.99999995
_symmetry_Int_Tables_number   1
_chemical_formula_structural   TbHo3Fe8
_chemical_formula_sum   'Tb1 Ho3 Fe8'
_cell_volume   188.38117073
_cell_formula_units_Z   1
loop_
 _symmetry_equiv_pos_site_id
 _symmetry_equiv_pos_as_xyz
  1  'x, y, z'
loop_
 _atom_site_type_symbol
 _atom_site_label
 _atom_site_symmetry_multiplicity
 _atom_site_fract_x
 _atom_site_fract_y
 _atom_site_fract_z
 _atom_site_occupancy
  Tb  Tb0  1  0.87493258  0.74986516  0.37520227  1
  Ho  Ho1  1  0.37499105  0.74998209  0.87502686  1
  Ho  Ho2  1  0.00016746  0.00033491  0.99949763  1
  Ho  Ho3  1  0.49990341  0.99980681  0.50028978  1
  Fe  Fe4  1  0.43756035  0.37596434  0.18647531  1
  Fe  Fe5  1  0.93760611  0.37393122  0.68846267  1
  Fe  Fe6  1  0.43756035  0.87512069  0.18647531  1
  Fe  Fe7  1  0.93760611  0.87521223  0.68846267  1
  Fe  Fe8  1  0.18726948  0.37453896  0.43819156  1
  Fe  Fe9  1  0.68767401  0.37534803  0.93697796  1
  Fe  Fe10  1  0.93840399  0.37596434  0.18647531  1
  Fe  Fe11  1  0.43632511  0.37393122  0.68846267  1
