# generated using pymatgen
data_Tb2MnSbO7
_symmetry_space_group_name_H-M   'P 1'
_cell_length_a   7.33561928
_cell_length_b   7.14810430
_cell_length_c   7.48596556
_cell_angle_alpha   90.00000000
_cell_angle_beta   59.31967045
_cell_angle_gamma   119.15794934
_symmetry_Int_Tables_number   1
_chemical_formula_structural   Tb2MnSbO7
_chemical_formula_sum   'Tb4 Mn2 Sb2 O14'
_cell_volume   278.19029552
_cell_formula_units_Z   2
loop_
 _symmetry_equiv_pos_site_id
 _symmetry_equiv_pos_as_xyz
  1  'x, y, z'
loop_
 _atom_site_type_symbol
 _atom_site_label
 _atom_site_symmetry_multiplicity
 _atom_site_fract_x
 _atom_site_fract_y
 _atom_site_fract_z
 _atom_site_occupancy
  Tb  Tb0  1  0.50000000  0.00000000  0.50000000  1
  Tb  Tb1  1  0.50000000  0.50000000  0.50000000  1
  Tb  Tb2  1  -0.00000000  0.50000000  -0.00000000  1
  Tb  Tb3  1  0.00000000  0.50000000  0.50000000  1
  Mn  Mn4  1  0.50000000  0.50000000  -0.00000000  1
  Mn  Mn5  1  0.50000000  0.00000000  -0.00000000  1
  Sb  Sb6  1  -0.00000000  0.00000000  0.50000000  1
  Sb  Sb7  1  -0.00000000  0.00000000  -0.00000000  1
  O  O8  1  0.75391749  0.37695875  0.37304125  1
  O  O9  1  0.24608251  0.62304125  0.62695875  1
  O  O10  1  0.84413022  0.92206511  0.32793489  1
  O  O11  1  0.66264126  0.33132063  0.91867937  1
  O  O12  1  0.25146291  0.91834091  0.90659426  1
  O  O13  1  0.25146291  0.33312200  0.34194283  1
  O  O14  1  0.25146291  0.33312200  0.90659426  1
  O  O15  1  0.25146291  0.91834091  0.34194283  1
  O  O16  1  0.15586978  0.07793489  0.67206511  1
  O  O17  1  0.33735874  0.66867937  0.08132063  1
  O  O18  1  0.74853709  0.08165909  0.09340574  1
  O  O19  1  0.74853709  0.66687800  0.65805717  1
  O  O20  1  0.74853709  0.66687800  0.09340574  1
  O  O21  1  0.74853709  0.08165909  0.65805717  1
