# generated using pymatgen
data_Tb14(P8Ir11)3
_symmetry_space_group_name_H-M   'P 1'
_cell_length_a   3.94918254
_cell_length_b   12.03746625
_cell_length_c   25.04648773
_cell_angle_alpha   84.97655599
_cell_angle_beta   85.47827626
_cell_angle_gamma   80.55869437
_symmetry_Int_Tables_number   1
_chemical_formula_structural   Tb14(P8Ir11)3
_chemical_formula_sum   'Tb14 P24 Ir33'
_cell_volume   1167.50268367
_cell_formula_units_Z   1
loop_
 _symmetry_equiv_pos_site_id
 _symmetry_equiv_pos_as_xyz
  1  'x, y, z'
loop_
 _atom_site_type_symbol
 _atom_site_label
 _atom_site_symmetry_multiplicity
 _atom_site_fract_x
 _atom_site_fract_y
 _atom_site_fract_z
 _atom_site_occupancy
  Tb  Tb0  1  0.58095782  0.46540587  0.37267850  1
  Tb  Tb1  1  0.58288443  0.96162662  0.87260451  1
  Tb  Tb2  1  0.41700684  0.03853265  0.12745367  1
  Tb  Tb3  1  0.41732952  0.53800208  0.62733888  1
  Tb  Tb4  1  0.77017666  0.11341871  0.34622796  1
  Tb  Tb5  1  0.76619002  0.62345744  0.84416252  1
  Tb  Tb6  1  0.23422636  0.37579537  0.15575191  1
  Tb  Tb7  1  0.23408617  0.87632922  0.65549845  1
  Tb  Tb8  1  0.49864857  0.75119102  0.25151183  1
  Tb  Tb9  1  0.49996172  0.25011559  0.74996098  1
  Tb  Tb10  1  0.63167728  0.73504390  0.00160154  1
  Tb  Tb11  1  0.63301430  0.23288167  0.50108972  1
  Tb  Tb12  1  0.36918618  0.76502339  0.49660425  1
  Tb  Tb13  1  0.36854332  0.26461568  0.99829767  1
  P  P14  1  0.63315112  0.52257288  0.21112487  1
  P  P15  1  0.63395781  0.02147727  0.71060710  1
  P  P16  1  0.36661435  0.97701213  0.28975917  1
  P  P17  1  0.36612457  0.47839964  0.78935122  1
  P  P18  1  0.11484301  0.68585930  0.08445468  1
  P  P19  1  0.11527032  0.18524310  0.58421625  1
  P  P20  1  0.88230267  0.82223568  0.41315899  1
  P  P21  1  0.88508759  0.31408298  0.91574185  1
  P  P22  1  0.98561490  0.86282089  0.16594931  1
  P  P23  1  0.98525865  0.36407689  0.66540582  1
  P  P24  1  0.01152422  0.63961844  0.33733312  1
  P  P25  1  0.01482286  0.13582731  0.83452698  1
  P  P26  1  0.76608221  0.40960172  0.05823386  1
  P  P27  1  0.76667997  0.90947037  0.55716970  1
  P  P28  1  0.23928797  0.07970873  0.44171533  1
  P  P29  1  0.23377650  0.59046838  0.94197862  1
  P  P30  1  0.93807508  0.08608985  0.03775999  1
  P  P31  1  0.93849579  0.58644826  0.53656017  1
  P  P32  1  0.06386888  0.41037168  0.46189056  1
  P  P33  1  0.06166015  0.91409786  0.96258185  1
  P  P34  1  0.81116401  0.18817117  0.18950080  1
  P  P35  1  0.81192846  0.68714343  0.68899964  1
  P  P36  1  0.18812985  0.31331659  0.31042371  1
  P  P37  1  0.18806878  0.81290496  0.81095748  1
  Ir  Ir38  1  0.77953284  0.97889770  0.46203662  1
  Ir  Ir39  1  0.78081506  0.47450053  0.96386936  1
  Ir  Ir40  1  0.21911499  0.52553459  0.03623544  1
  Ir  Ir41  1  0.22072673  0.02141330  0.53713325  1
  Ir  Ir42  1  0.09088442  0.64255043  0.17568072  1
  Ir  Ir43  1  0.09099497  0.14262432  0.67538573  1
  Ir  Ir44  1  0.90540997  0.86742772  0.32175234  1
  Ir  Ir45  1  0.90867025  0.35788061  0.82477889  1
  Ir  Ir46  1  0.44892972  0.72852068  0.37361989  1
  Ir  Ir47  1  0.45879496  0.21295033  0.86945974  1
  Ir  Ir48  1  0.54105694  0.78712158  0.13076454  1
  Ir  Ir49  1  0.54118464  0.28716752  0.63046319  1
  Ir  Ir50  1  0.16605740  0.26477024  0.40311496  1
  Ir  Ir51  1  0.16164663  0.77277234  0.90393439  1
  Ir  Ir52  1  0.83802503  0.22750150  0.09644843  1
  Ir  Ir53  1  0.83856814  0.72708374  0.59577999  1
  Ir  Ir54  1  0.11063147  0.50525958  0.27347749  1
  Ir  Ir55  1  0.11197680  0.00422258  0.77182383  1
  Ir  Ir56  1  0.88815522  0.99715634  0.22653321  1
  Ir  Ir57  1  0.88806321  0.49586431  0.72800926  1
  Ir  Ir58  1  0.70546310  0.33201470  0.25705911  1
  Ir  Ir59  1  0.70455456  0.83339687  0.75749401  1
  Ir  Ir60  1  0.29646125  0.16344842  0.24362908  1
  Ir  Ir61  1  0.29523605  0.66665124  0.74287667  1
  Ir  Ir62  1  0.50023885  0.99968437  0.99983793  1
  Ir  Ir63  1  0.50152892  0.49787303  0.49906912  1
  Ir  Ir64  1  0.97422254  0.61496880  0.43658611  1
  Ir  Ir65  1  0.97288157  0.11635438  0.93788247  1
  Ir  Ir66  1  0.02716749  0.88357104  0.06209399  1
  Ir  Ir67  1  0.02709293  0.38376011  0.56205404  1
  Ir  Ir68  1  0.33437661  0.44412814  0.88711864  1
  Ir  Ir69  1  0.66536931  0.55606394  0.11319744  1
  Ir  Ir70  1  0.66560851  0.05579129  0.61299169  1
