# generated using pymatgen
data_TaCu3(SeS)2
_symmetry_space_group_name_H-M   'P 1'
_cell_length_a   5.61812335
_cell_length_b   5.61812335
_cell_length_c   5.61486635
_cell_angle_alpha   90.00000000
_cell_angle_beta   90.00000000
_cell_angle_gamma   91.12025485
_symmetry_Int_Tables_number   1
_chemical_formula_structural   TaCu3(SeS)2
_chemical_formula_sum   'Ta1 Cu3 Se2 S2'
_cell_volume   177.18989333
_cell_formula_units_Z   1
loop_
 _symmetry_equiv_pos_site_id
 _symmetry_equiv_pos_as_xyz
  1  'x, y, z'
loop_
 _atom_site_type_symbol
 _atom_site_label
 _atom_site_symmetry_multiplicity
 _atom_site_fract_x
 _atom_site_fract_y
 _atom_site_fract_z
 _atom_site_occupancy
  Ta  Ta0  1  0.00000000  -0.00000000  0.00054879  1
  Cu  Cu1  1  -0.00000000  0.50000000  0.98625579  1
  Cu  Cu2  1  0.50000000  0.00000000  0.98625579  1
  Cu  Cu3  1  -0.00000000  0.00000000  0.50610134  1
  Se  Se4  1  0.74360122  0.74360122  0.25154232  1
  Se  Se5  1  0.25639878  0.25639878  0.25154232  1
  S  S6  1  0.76410388  0.23589612  0.75887682  1
  S  S7  1  0.23589612  0.76410388  0.75887682  1
