# generated using pymatgen
data_TaTiAlC
_symmetry_space_group_name_H-M   'P 1'
_cell_length_a   3.08777009
_cell_length_b   3.08783706
_cell_length_c   13.83834959
_cell_angle_alpha   89.99940131
_cell_angle_beta   89.99978663
_cell_angle_gamma   59.99990737
_symmetry_Int_Tables_number   1
_chemical_formula_structural   TaTiAlC
_chemical_formula_sum   'Ta2 Ti2 Al2 C2'
_cell_volume   114.26516599
_cell_formula_units_Z   2
loop_
 _symmetry_equiv_pos_site_id
 _symmetry_equiv_pos_as_xyz
  1  'x, y, z'
loop_
 _atom_site_type_symbol
 _atom_site_label
 _atom_site_symmetry_multiplicity
 _atom_site_fract_x
 _atom_site_fract_y
 _atom_site_fract_z
 _atom_site_occupancy
  Ta  Ta0  1  0.33332684  0.33333853  0.59044454  1
  Ta  Ta1  1  0.66667316  0.66666147  0.40955546  1
  Ti  Ti2  1  0.66667062  0.66666476  0.08281380  1
  Ti  Ti3  1  0.33332938  0.33333524  0.91718620  1
  Al  Al4  1  0.33334879  0.33332550  0.24559471  1
  Al  Al5  1  0.66665121  0.66667450  0.75440529  1
  C  C6  1  -0.00000000  0.00000000  0.50000000  1
  C  C7  1  -0.00000000  0.00000000  -0.00000000  1
