# generated using pymatgen
data_Sr2Li7CuN4
_symmetry_space_group_name_H-M   'P 1'
_cell_length_a   3.74405836
_cell_length_b   3.85584667
_cell_length_c   13.90759829
_cell_angle_alpha   82.03178559
_cell_angle_beta   82.26423481
_cell_angle_gamma   90.00000000
_symmetry_Int_Tables_number   1
_chemical_formula_structural   Sr2Li7CuN4
_chemical_formula_sum   'Sr2 Li7 Cu1 N4'
_cell_volume   196.99359250
_cell_formula_units_Z   1
loop_
 _symmetry_equiv_pos_site_id
 _symmetry_equiv_pos_as_xyz
  1  'x, y, z'
loop_
 _atom_site_type_symbol
 _atom_site_label
 _atom_site_symmetry_multiplicity
 _atom_site_fract_x
 _atom_site_fract_y
 _atom_site_fract_z
 _atom_site_occupancy
  Sr  Sr0  1  0.87519869  0.62519869  0.24960263  1
  Sr  Sr1  1  0.12556509  0.37556509  0.74886982  1
  Li  Li2  1  0.02019808  0.27019808  0.95960383  1
  Li  Li3  1  0.77204092  0.52204092  0.45591816  1
  Li  Li4  1  0.97747533  0.72747533  0.04504935  1
  Li  Li5  1  0.22864250  0.47864250  0.54271501  1
  Li  Li6  1  0.30372064  0.05372064  0.39255871  1
  Li  Li7  1  0.44712152  0.19712152  0.10575696  1
  Li  Li8  1  0.69654970  0.94654970  0.60690060  1
  Cu  Cu9  1  0.55463017  0.80463017  0.89073965  1
  N  N10  1  0.30699616  0.55699616  0.38600768  1
  N  N11  1  0.05665213  0.80665213  0.88669575  1
  N  N12  1  0.69301747  0.44301747  0.61396507  1
  N  N13  1  0.94219161  0.19219161  0.11561679  1
