# generated using pymatgen
data_Sr2PtAu
_symmetry_space_group_name_H-M   'P 1'
_cell_length_a   4.35739274
_cell_length_b   4.60457564
_cell_length_c   6.12512287
_cell_angle_alpha   90.00000000
_cell_angle_beta   69.16375191
_cell_angle_gamma   90.00000000
_symmetry_Int_Tables_number   1
_chemical_formula_structural   Sr2PtAu
_chemical_formula_sum   'Sr2 Pt1 Au1'
_cell_volume   114.85695146
_cell_formula_units_Z   1
loop_
 _symmetry_equiv_pos_site_id
 _symmetry_equiv_pos_as_xyz
  1  'x, y, z'
loop_
 _atom_site_type_symbol
 _atom_site_label
 _atom_site_symmetry_multiplicity
 _atom_site_fract_x
 _atom_site_fract_y
 _atom_site_fract_z
 _atom_site_occupancy
  Sr  Sr0  1  0.86075237  0.75000000  0.27849526  1
  Sr  Sr1  1  0.13874092  0.25000000  0.72251817  1
  Pt  Pt2  1  0.57541680  0.75000000  0.84916640  1
  Au  Au3  1  0.42508992  0.25000000  0.14982017  1
