# generated using pymatgen
data_Sr10Mg5Mo4WO30
_symmetry_space_group_name_H-M   'P 1'
_cell_length_a   5.64543485
_cell_length_b   23.38010826
_cell_length_c   5.65944739
_cell_angle_alpha   90.37498999
_cell_angle_beta   60.06658867
_cell_angle_gamma   96.93153074
_symmetry_Int_Tables_number   1
_chemical_formula_structural   Sr10Mg5Mo4WO30
_chemical_formula_sum   'Sr10 Mg5 Mo4 W1 O30'
_cell_volume   641.36716388
_cell_formula_units_Z   1
loop_
 _symmetry_equiv_pos_site_id
 _symmetry_equiv_pos_as_xyz
  1  'x, y, z'
loop_
 _atom_site_type_symbol
 _atom_site_label
 _atom_site_symmetry_multiplicity
 _atom_site_fract_x
 _atom_site_fract_y
 _atom_site_fract_z
 _atom_site_occupancy
  Sr  Sr0  1  0.10059568  0.14949154  0.94966083  1
  Sr  Sr1  1  0.90108846  0.35075739  0.54953483  1
  Sr  Sr2  1  0.70076501  0.55012270  0.14959616  1
  Sr  Sr3  1  0.50073847  0.75012195  0.74963357  1
  Sr  Sr4  1  0.30074978  0.95008512  0.34960601  1
  Sr  Sr5  1  0.69891154  0.04924261  0.65046517  1
  Sr  Sr6  1  0.49940432  0.25050846  0.25033917  1
  Sr  Sr7  1  0.29925022  0.44991488  0.85039399  1
  Sr  Sr8  1  0.09926153  0.64987805  0.45036643  1
  Sr  Sr9  1  0.89923499  0.84987730  0.05040384  1
  Mg  Mg10  1  0.40004685  0.10025422  0.29993794  1
  Mg  Mg11  1  0.19995315  0.29974578  0.90006206  1
  Mg  Mg12  1  0.00004001  0.50007316  0.49996912  1
  Mg  Mg13  1  0.80000000  0.70000000  0.10000000  1
  Mg  Mg14  1  0.59995999  0.89992684  0.70003088  1
  Mo  Mo15  1  -0.00000475  0.99995652  0.00000908  1
  Mo  Mo16  1  0.60000475  0.40004348  0.19999092  1
  Mo  Mo17  1  0.39997755  0.59997964  0.80000296  1
  Mo  Mo18  1  0.20002245  0.80002036  0.39999704  1
  W  W19  1  0.80000000  0.20000000  0.60000000  1
  O  O20  1  0.22797750  0.04075695  0.13287180  1
  O  O21  1  0.02882122  0.24082967  0.73325762  1
  O  O22  1  0.82802929  0.44089894  0.33288267  1
  O  O23  1  0.62805951  0.64083011  0.93291178  1
  O  O24  1  0.42801509  0.84077797  0.53289380  1
  O  O25  1  0.57117878  0.15917033  0.46674238  1
  O  O26  1  0.37202250  0.35924305  0.06712820  1
  O  O27  1  0.17198491  0.55922203  0.66710620  1
  O  O28  1  0.97194049  0.75916989  0.26708822  1
  O  O29  1  0.77197071  0.95910106  0.86711733  1
  O  O30  1  0.58423031  0.15357074  0.94556403  1
  O  O31  1  0.38497887  0.35374594  0.54464252  1
  O  O32  1  0.18499688  0.55370977  0.14466534  1
  O  O33  1  0.98489685  0.75367247  0.74478551  1
  O  O34  1  0.78490360  0.95363085  0.34481216  1
  O  O35  1  0.21502113  0.04625406  0.65535748  1
  O  O36  1  0.01576969  0.24642926  0.25443597  1
  O  O37  1  0.81509640  0.44636915  0.85518784  1
  O  O38  1  0.61510315  0.64632753  0.45521449  1
  O  O39  1  0.41500312  0.84629023  0.05533466  1
  O  O40  1  0.74586258  0.05708536  0.14574963  1
  O  O41  1  0.54612314  0.25753269  0.74585366  1
  O  O42  1  0.34600255  0.45724903  0.34570124  1
  O  O43  1  0.14606889  0.65723048  0.94569179  1
  O  O44  1  0.94613279  0.85719405  0.54562986  1
  O  O45  1  0.05387686  0.14246731  0.45414634  1
  O  O46  1  0.85413742  0.34291464  0.05425037  1
  O  O47  1  0.65386721  0.54280595  0.65437014  1
  O  O48  1  0.45393111  0.74276952  0.25430821  1
  O  O49  1  0.25399745  0.94275097  0.85429876  1
