# generated using pymatgen
data_Sr2LiB10H3O19
_symmetry_space_group_name_H-M   'P 1'
_cell_length_a   6.70814350
_cell_length_b   11.18071523
_cell_length_c   11.46880529
_cell_angle_alpha   72.29970667
_cell_angle_beta   107.16467237
_cell_angle_gamma   72.63982021
_symmetry_Int_Tables_number   1
_chemical_formula_structural   Sr2LiB10H3O19
_chemical_formula_sum   'Sr4 Li2 B20 H6 O38'
_cell_volume   708.22318959
_cell_formula_units_Z   2
loop_
 _symmetry_equiv_pos_site_id
 _symmetry_equiv_pos_as_xyz
  1  'x, y, z'
loop_
 _atom_site_type_symbol
 _atom_site_label
 _atom_site_symmetry_multiplicity
 _atom_site_fract_x
 _atom_site_fract_y
 _atom_site_fract_z
 _atom_site_occupancy
  Sr  Sr0  1  0.68985609  0.98944117  0.37633713  1
  Sr  Sr1  1  0.31343838  0.01364867  0.62374940  1
  Sr  Sr2  1  0.73290029  0.45595778  0.90486157  1
  Sr  Sr3  1  0.26440592  0.53563014  0.09052697  1
  Li  Li4  1  0.50005530  0.01133271  0.99158063  1
  Li  Li5  1  0.23600571  0.87562375  0.08537827  1
  B  B6  1  0.20149173  0.50215989  0.81191522  1
  B  B7  1  0.79782052  0.49895232  0.18649762  1
  B  B8  1  0.37793022  0.26393072  0.99557139  1
  B  B9  1  0.62077367  0.73634785  0.00262322  1
  B  B10  1  0.24562607  0.30253702  0.75725386  1
  B  B11  1  0.74828311  0.70005041  0.24124037  1
  B  B12  1  0.33948100  0.70157545  0.35512724  1
  B  B13  1  0.66887492  0.29391202  0.64864581  1
  B  B14  1  0.13952345  0.14770121  0.07669862  1
  B  B15  1  0.85751694  0.85721721  0.92584968  1
  B  B16  1  0.22063476  0.95903858  0.29867342  1
  B  B17  1  0.78320706  0.04158990  0.70279152  1
  B  B18  1  0.81563554  0.69022692  0.69905160  1
  B  B19  1  0.18314379  0.30976201  0.30094057  1
  B  B20  1  0.39236316  0.77808617  0.53790453  1
  B  B21  1  0.60556203  0.22221998  0.46327946  1
  B  B22  1  0.12724433  0.72556231  0.64619058  1
  B  B23  1  0.87030676  0.27572236  0.35335328  1
  B  B24  1  0.81775101  0.13235449  0.14184871  1
  B  B25  1  0.18481180  0.86552478  0.85441827  1
  H  H26  1  0.11149876  0.32709217  0.57050961  1
  H  H27  1  0.88983312  0.67496335  0.42764084  1
  H  H28  1  0.43830762  0.50361740  0.38488703  1
  H  H29  1  0.56305864  0.49281794  0.61518332  1
  H  H30  1  0.04320897  0.10907152  0.90891408  1
  H  H31  1  0.90039055  0.87783497  0.10020458  1
  O  O32  1  0.58931734  0.72332615  0.67035601  1
  O  O33  1  0.40966519  0.27624968  0.32999954  1
  O  O34  1  0.35658447  0.59900092  0.30869965  1
  O  O35  1  0.64877530  0.39868049  0.69255878  1
  O  O36  1  0.97968839  0.57796140  0.81887018  1
  O  O37  1  0.02000949  0.42295106  0.18181843  1
  O  O38  1  0.41629321  0.66665947  0.49122044  1
  O  O39  1  0.57960753  0.33259528  0.51027495  1
  O  O40  1  0.88931784  0.76187001  0.60984145  1
  O  O41  1  0.10845977  0.23807444  0.38925236  1
  O  O42  1  0.17487531  0.06288306  0.99840958  1
  O  O43  1  0.82632995  0.94034341  0.00379964  1
  O  O44  1  0.28627802  0.60681730  0.75745773  1
  O  O45  1  0.71204800  0.39554565  0.24246355  1
  O  O46  1  0.59121921  0.16295917  0.11892107  1
  O  O47  1  0.41149631  0.83522526  0.87787782  1
  O  O48  1  0.20437878  0.24968359  0.66027372  1
  O  O49  1  0.79392471  0.75240771  0.33795934  1
  O  O50  1  0.17518077  0.81560469  0.56056823  1
  O  O51  1  0.82238341  0.18567416  0.43886218  1
  O  O52  1  0.88876203  0.20203408  0.05391178  1
  O  O53  1  0.11939103  0.80273409  0.95191376  1
  O  O54  1  0.14724491  0.44271613  0.71554468  1
  O  O55  1  0.85095844  0.56126118  0.28107743  1
  O  O56  1  0.37958546  0.21153801  0.88870321  1
  O  O57  1  0.60104478  0.79318387  0.10923096  1
  O  O58  1  0.97280431  0.02560209  0.26821995  1
  O  O59  1  0.02905505  0.96703871  0.72822765  1
  O  O60  1  0.17715086  0.27159711  0.02377021  1
  O  O61  1  0.82689289  0.73102403  0.98212984  1
  O  O62  1  0.37581995  0.40425997  0.94702317  1
  O  O63  1  0.62469360  0.59666452  0.05117879  1
  O  O64  1  0.37307158  0.90575732  0.44232385  1
  O  O65  1  0.62643440  0.09397986  0.55894970  1
  O  O66  1  0.24698178  0.83596538  0.26099268  1
  O  O67  1  0.77406605  0.15935459  0.74098668  1
  O  O68  1  0.28877872  0.05440517  0.22003381  1
  O  O69  1  0.71598995  0.94536779  0.78304882  1
