# generated using pymatgen
data_SrMg2(GaN2)2
_symmetry_space_group_name_H-M   'P 1'
_cell_length_a   3.36722124
_cell_length_b   6.15521133
_cell_length_c   6.19578225
_cell_angle_alpha   94.22691871
_cell_angle_beta   105.76752901
_cell_angle_gamma   74.12580852
_symmetry_Int_Tables_number   1
_chemical_formula_structural   SrMg2(GaN2)2
_chemical_formula_sum   'Sr1 Mg2 Ga2 N4'
_cell_volume   118.86874094
_cell_formula_units_Z   1
loop_
 _symmetry_equiv_pos_site_id
 _symmetry_equiv_pos_as_xyz
  1  'x, y, z'
loop_
 _atom_site_type_symbol
 _atom_site_label
 _atom_site_symmetry_multiplicity
 _atom_site_fract_x
 _atom_site_fract_y
 _atom_site_fract_z
 _atom_site_occupancy
  Sr  Sr0  1  0.99505481  0.00985423  -0.00003615  1
  Mg  Mg1  1  0.82320643  0.54186023  0.18827310  1
  Mg  Mg2  1  0.62992181  0.19329903  0.45314265  1
  Ga  Ga3  1  0.19150343  0.44353614  0.82654300  1
  Ga  Ga4  1  0.36002354  0.82815279  0.54819987  1
  N  N5  1  0.58939057  0.63686417  0.81564532  1
  N  N6  1  0.39991422  0.34529059  0.14511902  1
  N  N7  1  0.76588478  0.83640872  0.36817829  1
  N  N8  1  0.24510040  0.16473410  0.65493490  1
