# generated using pymatgen
data_SrPrCoRuO6
_symmetry_space_group_name_H-M   'P 1'
_cell_length_a   5.61239585
_cell_length_b   5.66262858
_cell_length_c   7.92762303
_cell_angle_alpha   90.00000000
_cell_angle_beta   90.11349144
_cell_angle_gamma   90.00000000
_symmetry_Int_Tables_number   1
_chemical_formula_structural   SrPrCoRuO6
_chemical_formula_sum   'Sr2 Pr2 Co2 Ru2 O12'
_cell_volume   251.94660473
_cell_formula_units_Z   2
loop_
 _symmetry_equiv_pos_site_id
 _symmetry_equiv_pos_as_xyz
  1  'x, y, z'
loop_
 _atom_site_type_symbol
 _atom_site_label
 _atom_site_symmetry_multiplicity
 _atom_site_fract_x
 _atom_site_fract_y
 _atom_site_fract_z
 _atom_site_occupancy
  Sr  Sr0  1  0.50510903  0.96539152  0.75064598  1
  Sr  Sr1  1  0.00510903  0.53460848  0.25064598  1
  Pr  Pr2  1  0.48958799  0.04767328  0.24818134  1
  Pr  Pr3  1  0.98958799  0.45232672  0.74818134  1
  Co  Co4  1  0.49966683  0.50409461  -0.00016728  1
  Co  Co5  1  0.99966683  0.99590539  0.49983272  1
  Ru  Ru6  1  0.49961228  0.50192827  0.50022975  1
  Ru  Ru7  1  -0.00038772  0.99807173  0.00022975  1
  O  O8  1  0.41487977  0.51230575  0.74296372  1
  O  O9  1  0.91487977  0.98769425  0.24296372  1
  O  O10  1  0.56427348  0.47933596  0.25686065  1
  O  O11  1  0.06427348  0.02066404  0.75686065  1
  O  O12  1  0.30219096  0.78876179  0.45681188  1
  O  O13  1  0.80219096  0.71123821  0.95681188  1
  O  O14  1  0.71293428  0.22461859  0.53802344  1
  O  O15  1  0.21293428  0.27538141  0.03802344  1
  O  O16  1  0.78691253  0.70045554  0.54239299  1
  O  O17  1  0.28691253  0.79954446  0.04239299  1
  O  O18  1  0.22483285  0.28695162  0.46405752  1
  O  O19  1  0.72483285  0.21304838  0.96405752  1
