# generated using pymatgen
data_Sr10Mg5Mo3(WO15)2
_symmetry_space_group_name_H-M   'P 1'
_cell_length_a   5.66025809
_cell_length_b   20.37760586
_cell_length_c   5.68195233
_cell_angle_alpha   97.89971005
_cell_angle_beta   90.41224540
_cell_angle_gamma   82.05978992
_symmetry_Int_Tables_number   1
_chemical_formula_structural   Sr10Mg5Mo3(WO15)2
_chemical_formula_sum   'Sr10 Mg5 Mo3 W2 O30'
_cell_volume   642.88126361
_cell_formula_units_Z   1
loop_
 _symmetry_equiv_pos_site_id
 _symmetry_equiv_pos_as_xyz
  1  'x, y, z'
loop_
 _atom_site_type_symbol
 _atom_site_label
 _atom_site_symmetry_multiplicity
 _atom_site_fract_x
 _atom_site_fract_y
 _atom_site_fract_z
 _atom_site_occupancy
  Sr  Sr0  1  0.34923963  0.30036103  0.15045557  1
  Sr  Sr1  1  0.74926500  0.49963027  0.75014354  1
  Sr  Sr2  1  0.14913920  0.70048080  0.35038969  1
  Sr  Sr3  1  0.54902599  0.90130276  0.95075241  1
  Sr  Sr4  1  0.94918892  0.10055914  0.55056128  1
  Sr  Sr5  1  0.85081108  0.29944086  0.64943872  1
  Sr  Sr6  1  0.25097401  0.49869724  0.24924759  1
  Sr  Sr7  1  0.65086080  0.69951920  0.84961031  1
  Sr  Sr8  1  0.05073500  0.90036973  0.44985646  1
  Sr  Sr9  1  0.45076037  0.09963897  0.04954443  1
  Mg  Mg10  1  0.90000000  0.20000000  0.10000000  1
  Mg  Mg11  1  0.29997556  0.39996607  0.70005341  1
  Mg  Mg12  1  0.69998443  0.60000560  0.30004478  1
  Mg  Mg13  1  0.10001557  0.79999440  0.89995522  1
  Mg  Mg14  1  0.50002444  0.00003393  0.49994659  1
  Mo  Mo15  1  0.00008417  0.00001075  0.00006993  1
  Mo  Mo16  1  0.40000000  0.20000000  0.60000000  1
  Mo  Mo17  1  0.79991583  0.39998925  0.19993007  1
  W  W18  1  0.19993630  0.60001286  0.79996022  1
  W  W19  1  0.60006370  0.79998714  0.40003978  1
  O  O20  1  0.14128928  0.20113235  0.82588782  1
  O  O21  1  0.54133871  0.40100590  0.42589083  1
  O  O22  1  0.94080104  0.60100912  0.02589038  1
  O  O23  1  0.34074595  0.80127901  0.62600644  1
  O  O24  1  0.74128903  0.00127859  0.22601248  1
  O  O25  1  0.05871097  0.39872141  0.97398752  1
  O  O26  1  0.45925405  0.59872099  0.57399356  1
  O  O27  1  0.85919896  0.79899088  0.17410962  1
  O  O28  1  0.25866129  0.99899410  0.77410917  1
  O  O29  1  0.65871072  0.19886765  0.37411218  1
  O  O30  1  0.02074178  0.41250608  0.46147357  1
  O  O31  1  0.42067283  0.61274541  0.06213163  1
  O  O32  1  0.82049627  0.81307366  0.66248505  1
  O  O33  1  0.22053737  0.01283447  0.26182913  1
  O  O34  1  0.62057553  0.21271673  0.86168801  1
  O  O35  1  0.17942447  0.18728327  0.33831199  1
  O  O36  1  0.57946263  0.38716553  0.93817087  1
  O  O37  1  0.97950373  0.58692634  0.53751495  1
  O  O38  1  0.37932717  0.78725459  0.13786837  1
  O  O39  1  0.77925822  0.98749392  0.73852643  1
  O  O40  1  0.27740383  0.50294578  0.78818304  1
  O  O41  1  0.67730045  0.70337999  0.38833342  1
  O  O42  1  0.07681840  0.90371221  0.98811259  1
  O  O43  1  0.47692936  0.10343180  0.58801728  1
  O  O44  1  0.87693980  0.30326204  0.18795040  1
  O  O45  1  0.92306020  0.09673796  0.01204960  1
  O  O46  1  0.32307064  0.29656820  0.61198272  1
  O  O47  1  0.72318160  0.49628779  0.21188741  1
  O  O48  1  0.12269955  0.69662001  0.81166658  1
  O  O49  1  0.52259617  0.89705422  0.41181696  1
