# generated using pymatgen
data_Sr2LaMn2O7
_symmetry_space_group_name_H-M   'P 1'
_cell_length_a   3.93019792
_cell_length_b   3.93019792
_cell_length_c   10.46350053
_cell_angle_alpha   79.17527598
_cell_angle_beta   79.17527598
_cell_angle_gamma   90.00000000
_symmetry_Int_Tables_number   1
_chemical_formula_structural   Sr2LaMn2O7
_chemical_formula_sum   'Sr2 La1 Mn2 O7'
_cell_volume   155.81914990
_cell_formula_units_Z   1
loop_
 _symmetry_equiv_pos_site_id
 _symmetry_equiv_pos_as_xyz
  1  'x, y, z'
loop_
 _atom_site_type_symbol
 _atom_site_label
 _atom_site_symmetry_multiplicity
 _atom_site_fract_x
 _atom_site_fract_y
 _atom_site_fract_z
 _atom_site_occupancy
  Sr  Sr0  1  0.31661317  0.31661317  0.36677366  1
  Sr  Sr1  1  0.68338683  0.68338683  0.63322634  1
  La  La2  1  0.50000000  0.50000000  0.00000000  1
  Mn  Mn3  1  0.09812211  0.09812211  0.80375577  1
  Mn  Mn4  1  0.90187789  0.90187789  0.19624423  1
  O  O5  1  0.19405893  0.19405893  0.61188213  1
  O  O6  1  0.80594107  0.80594107  0.38811787  1
  O  O7  1  0.59167315  0.09167315  0.81665371  1
  O  O8  1  0.09167315  0.59167315  0.81665371  1
  O  O9  1  0.40832685  0.90832685  0.18334629  1
  O  O10  1  0.90832685  0.40832685  0.18334629  1
  O  O11  1  -0.00000000  -0.00000000  0.00000000  1
