# generated using pymatgen
data_SrCe3V4O16
_symmetry_space_group_name_H-M   'P 1'
_cell_length_a   6.51958401
_cell_length_b   7.41559755
_cell_length_c   7.41559755
_cell_angle_alpha   90.00000000
_cell_angle_beta   90.00000000
_cell_angle_gamma   90.00000000
_symmetry_Int_Tables_number   1
_chemical_formula_structural   SrCe3V4O16
_chemical_formula_sum   'Sr1 Ce3 V4 O16'
_cell_volume   358.51901165
_cell_formula_units_Z   1
loop_
 _symmetry_equiv_pos_site_id
 _symmetry_equiv_pos_as_xyz
  1  'x, y, z'
loop_
 _atom_site_type_symbol
 _atom_site_label
 _atom_site_symmetry_multiplicity
 _atom_site_fract_x
 _atom_site_fract_y
 _atom_site_fract_z
 _atom_site_occupancy
  Sr  Sr0  1  0.62500000  0.50000000  0.75000000  1
  Ce  Ce1  1  0.12500000  0.00000000  0.25000000  1
  Ce  Ce2  1  0.87314171  -0.00000000  0.75000000  1
  Ce  Ce3  1  0.37685829  0.50000000  0.25000000  1
  V  V4  1  0.87757248  0.50000000  0.25000000  1
  V  V5  1  0.37242752  -0.00000000  0.75000000  1
  V  V6  1  0.62500000  0.00000000  0.25000000  1
  V  V7  1  0.12500000  0.50000000  0.75000000  1
  O  O8  1  0.05113740  0.68315118  0.25000000  1
  O  O9  1  0.54857636  0.17303472  0.75000000  1
  O  O10  1  0.79833951  0.00000000  0.43009672  1
  O  O11  1  0.28599300  0.50000000  0.93841344  1
  O  O12  1  0.79833951  -0.00000000  0.06990328  1
  O  O13  1  0.28599300  0.50000000  0.56158656  1
  O  O14  1  0.05113740  0.31684882  0.25000000  1
  O  O15  1  0.54857636  0.82696528  0.75000000  1
  O  O16  1  0.45166049  0.81990328  0.25000000  1
  O  O17  1  0.96400700  0.31158656  0.75000000  1
  O  O18  1  0.70142364  0.50000000  0.07696528  1
  O  O19  1  0.19886260  0.00000000  0.56684882  1
  O  O20  1  0.70142364  0.50000000  0.42303472  1
  O  O21  1  0.19886260  -0.00000000  0.93315118  1
  O  O22  1  0.45166049  0.18009672  0.25000000  1
  O  O23  1  0.96400700  0.68841344  0.75000000  1
