# generated using pymatgen
data_CuH32W6(Cl6O11)2
_symmetry_space_group_name_H-M   'P 1'
_cell_length_a   8.86131644
_cell_length_b   9.61234031
_cell_length_c   13.04826988
_cell_angle_alpha   104.44230851
_cell_angle_beta   103.74906178
_cell_angle_gamma   94.93337340
_symmetry_Int_Tables_number   1
_chemical_formula_structural   CuH32W6(Cl6O11)2
_chemical_formula_sum   'Cu1 H32 W6 Cl12 O22'
_cell_volume   1032.91992260
_cell_formula_units_Z   1
loop_
 _symmetry_equiv_pos_site_id
 _symmetry_equiv_pos_as_xyz
  1  'x, y, z'
loop_
 _atom_site_type_symbol
 _atom_site_label
 _atom_site_symmetry_multiplicity
 _atom_site_fract_x
 _atom_site_fract_y
 _atom_site_fract_z
 _atom_site_occupancy
  Cu  Cu0  1  0.50000000  -0.00000000  0.50000000  1
  H  H1  1  0.44351010  0.16921638  0.37056320  1
  H  H2  1  0.55648990  0.83078362  0.62943680  1
  H  H3  1  0.62386615  0.13986912  0.39224018  1
  H  H4  1  0.37613385  0.86013088  0.60775982  1
  H  H5  1  0.19741504  0.94234297  0.39859363  1
  H  H6  1  0.80258496  0.05765703  0.60140637  1
  H  H7  1  0.22358854  0.08466043  0.50340750  1
  H  H8  1  0.77641146  0.91533957  0.49659250  1
  H  H9  1  0.94347863  0.82124414  0.39495075  1
  H  H10  1  0.05652137  0.17875586  0.60504925  1
  H  H11  1  0.79590311  0.71134912  0.36581303  1
  H  H12  1  0.20409689  0.28865088  0.63418697  1
  H  H13  1  0.96915546  0.89420174  0.82997873  1
  H  H14  1  0.03084454  0.10579826  0.17002127  1
  H  H15  1  0.08485612  0.84256853  0.75756548  1
  H  H16  1  0.91514388  0.15743147  0.24243452  1
  H  H17  1  0.67618473  0.67280068  0.72760554  1
  H  H18  1  0.32381527  0.32719932  0.27239446  1
  H  H19  1  0.69370222  0.62944887  0.60618180  1
  H  H20  1  0.30629778  0.37055113  0.39381820  1
  H  H21  1  0.21795585  0.66310372  0.58524800  1
  H  H22  1  0.78204415  0.33689628  0.41475200  1
  H  H23  1  0.10250760  0.77125427  0.56041779  1
  H  H24  1  0.89749240  0.22874573  0.43958221  1
  H  H25  1  -0.00046719  0.05637154  0.73470540  1
  H  H26  1  0.00046719  0.94362846  0.26529460  1
  H  H27  1  0.98974270  0.22531605  0.76262534  1
  H  H28  1  0.01025730  0.77468395  0.23737466  1
  H  H29  1  0.77596241  0.58712915  0.45824945  1
  H  H30  1  0.22403759  0.41287085  0.54175055  1
  H  H31  1  0.60640455  0.50210378  0.42583450  1
  H  H32  1  0.39359545  0.49789622  0.57416550  1
  W  W33  1  0.64646061  0.71271040  0.98303520  1
  W  W34  1  0.35353939  0.28728960  0.01696480  1
  W  W35  1  0.53907360  0.38523341  0.82630895  1
  W  W36  1  0.46092640  0.61476659  0.17369105  1
  W  W37  1  0.74914462  0.47192065  0.10648051  1
  W  W38  1  0.25085538  0.52807935  0.89351949  1
  Cl  Cl39  1  0.61748755  0.23221943  0.11267110  1
  Cl  Cl40  1  0.38251245  0.76778057  0.88732890  1
  Cl  Cl41  1  0.58436590  0.85278194  0.15565524  1
  Cl  Cl42  1  0.41563410  0.14721806  0.84434476  1
  Cl  Cl43  1  0.78959961  0.32223662  0.92816828  1
  Cl  Cl44  1  0.21040039  0.67776338  0.07183172  1
  Cl  Cl45  1  0.56977647  0.28935752  0.64604121  1
  Cl  Cl46  1  0.43022353  0.71064248  0.35395879  1
  Cl  Cl47  1  0.78351995  0.91353387  0.95033115  1
  Cl  Cl48  1  0.21648005  0.08646613  0.04966885  1
  Cl  Cl49  1  0.99543059  0.44694902  0.21560001  1
  Cl  Cl50  1  0.00456941  0.55305098  0.78439999  1
  O  O51  1  0.64453263  0.57977333  0.84066973  1
  O  O52  1  0.35546737  0.42022667  0.15933027  1
  O  O53  1  0.67583689  0.57712767  0.23181201  1
  O  O54  1  0.32416311  0.42287233  0.76818799  1
  O  O55  1  0.82388942  0.65055999  0.07393444  1
  O  O56  1  0.17611058  0.34944001  0.92606556  1
  O  O57  1  0.51426457  0.09579771  0.38550378  1
  O  O58  1  0.48573543  0.90420229  0.61449622  1
  O  O59  1  0.26921943  0.99739334  0.47215648  1
  O  O60  1  0.73078057  0.00260666  0.52784352  1
  O  O61  1  0.87181682  0.77827337  0.43179612  1
  O  O62  1  0.12818318  0.22172663  0.56820388  1
  O  O63  1  0.02797794  0.92167731  0.78140529  1
  O  O64  1  0.97202206  0.07832269  0.21859471  1
  O  O65  1  0.65699882  0.70169003  0.65909381  1
  O  O66  1  0.34300118  0.29830997  0.34090619  1
  O  O67  1  0.19821016  0.76370455  0.61322763  1
  O  O68  1  0.80178984  0.23629545  0.38677237  1
  O  O69  1  0.96880667  0.13748578  0.70102184  1
  O  O70  1  0.03119333  0.86251422  0.29897816  1
  O  O71  1  0.71265918  0.50959141  0.47325580  1
  O  O72  1  0.28734082  0.49040859  0.52674420  1
