# generated using pymatgen
data_SrCd6
_symmetry_space_group_name_H-M   'P 1'
_cell_length_a   14.03013461
_cell_length_b   14.03013461
_cell_length_c   14.03013461
_cell_angle_alpha   71.00132354
_cell_angle_beta   70.46434522
_cell_angle_gamma   109.88054749
_symmetry_Int_Tables_number   1
_chemical_formula_structural   SrCd6
_chemical_formula_sum   'Sr12 Cd72'
_cell_volume   2125.87399317
_cell_formula_units_Z   12
loop_
 _symmetry_equiv_pos_site_id
 _symmetry_equiv_pos_as_xyz
  1  'x, y, z'
loop_
 _atom_site_type_symbol
 _atom_site_label
 _atom_site_symmetry_multiplicity
 _atom_site_fract_x
 _atom_site_fract_y
 _atom_site_fract_z
 _atom_site_occupancy
  Sr  Sr0  1  0.70457227  0.51729907  0.18727320  1
  Sr  Sr1  1  0.29542773  0.48270093  0.81272680  1
  Sr  Sr2  1  0.70457227  0.89184547  0.81272680  1
  Sr  Sr3  1  0.29542773  0.10815453  0.18727320  1
  Sr  Sr4  1  0.81138155  0.30151588  0.88710257  1
  Sr  Sr5  1  0.18861845  0.69848412  0.11289743  1
  Sr  Sr6  1  0.18861845  0.30151588  0.50986567  1
  Sr  Sr7  1  0.81138155  0.69848412  0.49013433  1
  Sr  Sr8  1  0.48604889  0.18649787  0.70044898  1
  Sr  Sr9  1  0.51395111  0.81350213  0.29955102  1
  Sr  Sr10  1  0.11305316  0.81350213  0.70044898  1
  Sr  Sr11  1  0.88694684  0.18649787  0.29955102  1
  Cd  Cd12  1  0.00234516  0.67755407  0.99995752  1
  Cd  Cd13  1  0.32248841  0.32244593  0.67520891  1
  Cd  Cd14  1  0.67751159  0.00230268  0.00004248  1
  Cd  Cd15  1  0.99765484  0.99769732  0.32479109  1
  Cd  Cd16  1  0.99765484  0.32244593  0.00004248  1
  Cd  Cd17  1  0.67751159  0.67755407  0.32479109  1
  Cd  Cd18  1  0.32248841  0.99769732  0.99995752  1
  Cd  Cd19  1  0.00234516  0.00230268  0.67520891  1
  Cd  Cd20  1  0.90370897  0.64179383  0.26191514  1
  Cd  Cd21  1  0.09629103  0.35820617  0.73808486  1
  Cd  Cd22  1  0.90370897  0.16562411  0.73808486  1
  Cd  Cd23  1  0.09629103  0.83437589  0.26191514  1
  Cd  Cd24  1  0.76088528  0.09376414  0.14535058  1
  Cd  Cd25  1  0.23911472  0.90623586  0.85464942  1
  Cd  Cd26  1  0.23911472  0.09376414  0.66712113  1
  Cd  Cd27  1  0.76088528  0.90623586  0.33287887  1
  Cd  Cd28  1  0.34060286  0.24446280  0.90385995  1
  Cd  Cd29  1  0.65939714  0.75553720  0.09614005  1
  Cd  Cd30  1  0.85167725  0.75553720  0.90385995  1
  Cd  Cd31  1  0.14832275  0.24446280  0.09614005  1
  Cd  Cd32  1  0.65528228  0.25125433  0.40402794  1
  Cd  Cd33  1  0.34471772  0.74874567  0.59597206  1
  Cd  Cd34  1  0.65528228  0.05931022  0.59597206  1
  Cd  Cd35  1  0.34471772  0.94068978  0.40402794  1
  Cd  Cd36  1  0.59603630  0.34644886  0.05751484  1
  Cd  Cd37  1  0.40396370  0.65355114  0.94248516  1
  Cd  Cd38  1  0.40396370  0.34644886  0.24958743  1
  Cd  Cd39  1  0.59603630  0.65355114  0.75041257  1
  Cd  Cd40  1  0.74707141  0.40305450  0.65598308  1
  Cd  Cd41  1  0.25292859  0.59694550  0.34401692  1
  Cd  Cd42  1  0.94096242  0.59694550  0.65598308  1
  Cd  Cd43  1  0.05903758  0.40305450  0.34401692  1
  Cd  Cd44  1  0.00000000  0.58764459  0.41235541  1
  Cd  Cd45  1  -0.00000000  0.41235541  0.58764459  1
  Cd  Cd46  1  0.59298882  0.00000000  0.40701118  1
  Cd  Cd47  1  0.40701118  0.00000000  0.59298882  1
  Cd  Cd48  1  0.40641494  0.40641494  -0.00000000  1
  Cd  Cd49  1  0.59358506  0.59358506  -0.00000000  1
  Cd  Cd50  1  0.91944414  0.45501579  0.22273576  1
  Cd  Cd51  1  0.32224845  0.54498421  0.53557165  1
  Cd  Cd52  1  0.67775155  0.14217990  0.77726424  1
  Cd  Cd53  1  0.08055586  0.85782010  0.46442835  1
  Cd  Cd54  1  0.54040696  0.08135095  0.14119002  1
  Cd  Cd55  1  0.22254098  0.68159698  0.85880998  1
  Cd  Cd56  1  0.45959304  0.31840302  0.45905600  1
  Cd  Cd57  1  0.77745902  0.91864905  0.54094400  1
  Cd  Cd58  1  0.54203801  0.45883225  0.68326468  1
  Cd  Cd59  1  0.45796199  0.77469731  0.08320576  1
  Cd  Cd60  1  0.85790307  0.54116775  0.91679424  1
  Cd  Cd61  1  0.14209693  0.22530269  0.31673532  1
  Cd  Cd62  1  0.08055586  0.54498421  0.77726424  1
  Cd  Cd63  1  0.67775155  0.45501579  0.46442835  1
  Cd  Cd64  1  0.32224845  0.85782010  0.22273576  1
  Cd  Cd65  1  0.91944414  0.14217990  0.53557165  1
  Cd  Cd66  1  0.45959304  0.91864905  0.85880998  1
  Cd  Cd67  1  0.77745902  0.31840302  0.14119002  1
  Cd  Cd68  1  0.54040696  0.68159698  0.54094400  1
  Cd  Cd69  1  0.22254098  0.08135095  0.45905600  1
  Cd  Cd70  1  0.45796199  0.54116775  0.31673532  1
  Cd  Cd71  1  0.54203801  0.22530269  0.91679424  1
  Cd  Cd72  1  0.14209693  0.45883225  0.08320576  1
  Cd  Cd73  1  0.85790307  0.77469731  0.68326468  1
  Cd  Cd74  1  0.81313932  0.31313932  0.50000000  1
  Cd  Cd75  1  0.18686068  0.68686068  0.50000000  1
  Cd  Cd76  1  0.50000000  0.19171284  0.30828716  1
  Cd  Cd77  1  0.50000000  0.80828716  0.69171284  1
  Cd  Cd78  1  0.68731203  0.50000000  0.81268797  1
  Cd  Cd79  1  0.31268797  0.50000000  0.18731203  1
  Cd  Cd80  1  0.90887526  0.82188818  0.08698708  1
  Cd  Cd81  1  0.09112474  0.17811182  0.91301292  1
  Cd  Cd82  1  0.90887526  0.99586233  0.91301292  1
  Cd  Cd83  1  0.09112474  0.00413767  0.08698708  1
