# generated using pymatgen
data_Sn3TePb4O13
_symmetry_space_group_name_H-M   'P 1'
_cell_length_a   7.65076403
_cell_length_b   7.58533010
_cell_length_c   7.65076403
_cell_angle_alpha   90.00000000
_cell_angle_beta   59.43496630
_cell_angle_gamma   119.71748315
_symmetry_Int_Tables_number   1
_chemical_formula_structural   Sn3TePb4O13
_chemical_formula_sum   'Sn3 Te1 Pb4 O13'
_cell_volume   312.59367192
_cell_formula_units_Z   1
loop_
 _symmetry_equiv_pos_site_id
 _symmetry_equiv_pos_as_xyz
  1  'x, y, z'
loop_
 _atom_site_type_symbol
 _atom_site_label
 _atom_site_symmetry_multiplicity
 _atom_site_fract_x
 _atom_site_fract_y
 _atom_site_fract_z
 _atom_site_occupancy
  Sn  Sn0  1  0.50031924  0.00031769  0.50000155  1
  Sn  Sn1  1  0.50031924  0.50000155  0.50000155  1
  Sn  Sn2  1  0.00000310  0.50000155  0.00031769  1
  Te  Te3  1  0.99919052  0.49959526  0.49959526  1
  Pb  Pb4  1  0.49997202  0.50095032  0.99902170  1
  Pb  Pb5  1  0.49997202  0.99902170  0.99902170  1
  Pb  Pb6  1  0.99804339  0.99902170  0.50095032  1
  Pb  Pb7  1  0.99930984  0.99965492  0.99965492  1
  O  O8  1  0.65956112  0.82978056  0.42549999  1
  O  O9  1  0.85926192  0.42963096  0.80807675  1
  O  O10  1  0.25528055  0.82978056  0.82978056  1
  O  O11  1  0.23770771  0.42963096  0.42963096  1
  O  O12  1  0.25528055  0.42549999  0.82978056  1
  O  O13  1  0.23770771  0.80807675  0.42963096  1
  O  O14  1  0.34474190  0.17237095  0.57221998  1
  O  O15  1  0.13676673  0.56838336  0.19336947  1
  O  O16  1  0.74459094  0.17237095  0.17237095  1
  O  O17  1  0.76175284  0.56838336  0.56838336  1
  O  O18  1  0.74459094  0.57221998  0.17237095  1
  O  O19  1  0.76175284  0.19336947  0.56838336  1
  O  O20  1  0.25387489  0.12693744  0.12693744  1
