# generated using pymatgen
data_SmYS2
_symmetry_space_group_name_H-M   'P 1'
_cell_length_a   3.93114372
_cell_length_b   3.93114372
_cell_length_c   6.95775962
_cell_angle_alpha   73.59049648
_cell_angle_beta   90.00000000
_cell_angle_gamma   120.00000000
_symmetry_Int_Tables_number   1
_chemical_formula_structural   SmYS2
_chemical_formula_sum   'Sm1 Y1 S2'
_cell_volume   88.02526572
_cell_formula_units_Z   1
loop_
 _symmetry_equiv_pos_site_id
 _symmetry_equiv_pos_as_xyz
  1  'x, y, z'
loop_
 _atom_site_type_symbol
 _atom_site_label
 _atom_site_symmetry_multiplicity
 _atom_site_fract_x
 _atom_site_fract_y
 _atom_site_fract_z
 _atom_site_occupancy
  Sm  Sm0  1  -0.00000000  -0.00000000  0.00000000  1
  Y  Y1  1  0.50000000  -0.00000000  0.50000000  1
  S  S2  1  0.24650220  0.49300440  0.26049340  1
  S  S3  1  0.75349780  0.50699560  0.73950660  1
