# generated using pymatgen
data_Re2MoSe4
_symmetry_space_group_name_H-M   'P 1'
_cell_length_a   6.73349722
_cell_length_b   6.73369803
_cell_length_c   6.73587218
_cell_angle_alpha   93.61647393
_cell_angle_beta   93.39701035
_cell_angle_gamma   93.56037351
_symmetry_Int_Tables_number   1
_chemical_formula_structural   Re2MoSe4
_chemical_formula_sum   'Re4 Mo2 Se8'
_cell_volume   303.60455127
_cell_formula_units_Z   2
loop_
 _symmetry_equiv_pos_site_id
 _symmetry_equiv_pos_as_xyz
  1  'x, y, z'
loop_
 _atom_site_type_symbol
 _atom_site_label
 _atom_site_symmetry_multiplicity
 _atom_site_fract_x
 _atom_site_fract_y
 _atom_site_fract_z
 _atom_site_occupancy
  Re  Re0  1  0.58591215  0.45392800  0.76299882  1
  Re  Re1  1  0.54558957  0.23630026  0.41381340  1
  Re  Re2  1  0.23608506  0.41544341  0.54675671  1
  Re  Re3  1  0.41365898  0.54663956  0.23540420  1
  Mo  Mo4  1  0.45523972  0.76557161  0.58653238  1
  Mo  Mo5  1  0.76480334  0.58695528  0.45263330  1
  Se  Se6  1  0.26754757  0.62851282  0.87482248  1
  Se  Se7  1  0.62933358  0.87455461  0.26377747  1
  Se  Se8  1  0.87214495  0.26333651  0.63147530  1
  Se  Se9  1  0.72999240  0.36953643  0.12445925  1
  Se  Se10  1  0.37010133  0.13026316  0.73203315  1
  Se  Se11  1  0.12794049  0.73000559  0.37016870  1
  Se  Se12  1  0.78796562  0.78489044  0.79047916  1
  Se  Se13  1  0.21368526  0.21406232  0.21464569  1
