# generated using pymatgen
data_HgSBr
_symmetry_space_group_name_H-M   'P 1'
_cell_length_a   6.77315490
_cell_length_b   4.73814454
_cell_length_c   7.62195056
_cell_angle_alpha   90.00000000
_cell_angle_beta   111.38161917
_cell_angle_gamma   90.00000000
_symmetry_Int_Tables_number   1
_chemical_formula_structural   HgSBr
_chemical_formula_sum   'Hg2 S2 Br2'
_cell_volume   227.76958580
_cell_formula_units_Z   2
loop_
 _symmetry_equiv_pos_site_id
 _symmetry_equiv_pos_as_xyz
  1  'x, y, z'
loop_
 _atom_site_type_symbol
 _atom_site_label
 _atom_site_symmetry_multiplicity
 _atom_site_fract_x
 _atom_site_fract_y
 _atom_site_fract_z
 _atom_site_occupancy
  Hg  Hg0  1  0.14366663  0.25000000  0.25052554  1
  Hg  Hg1  1  0.85633337  0.75000000  0.74947446  1
  S  S2  1  0.46472180  0.25000000  0.51418007  1
  S  S3  1  0.53527820  0.75000000  0.48581993  1
  Br  Br4  1  0.76782436  0.25000000  0.02440219  1
  Br  Br5  1  0.23217564  0.75000000  0.97559781  1
