# generated using pymatgen
data_Sm6Al3Fe11
_symmetry_space_group_name_H-M   'P 1'
_cell_length_a   8.03701494
_cell_length_b   8.03701494
_cell_length_c   12.90088601
_cell_angle_alpha   71.85090072
_cell_angle_beta   71.85090072
_cell_angle_gamma   90.00000000
_symmetry_Int_Tables_number   1
_chemical_formula_structural   Sm6Al3Fe11
_chemical_formula_sum   'Sm12 Al6 Fe22'
_cell_volume   748.10456073
_cell_formula_units_Z   2
loop_
 _symmetry_equiv_pos_site_id
 _symmetry_equiv_pos_as_xyz
  1  'x, y, z'
loop_
 _atom_site_type_symbol
 _atom_site_label
 _atom_site_symmetry_multiplicity
 _atom_site_fract_x
 _atom_site_fract_y
 _atom_site_fract_z
 _atom_site_occupancy
  Sm  Sm0  1  0.35131364  0.85131364  0.63081333  1
  Sm  Sm1  1  0.01787304  0.51787304  0.63081333  1
  Sm  Sm2  1  0.51787304  0.35131364  0.63081333  1
  Sm  Sm3  1  0.85131364  0.01787304  0.63081333  1
  Sm  Sm4  1  0.64065469  0.14065469  0.37975137  1
  Sm  Sm5  1  0.97959394  0.47959394  0.37975137  1
  Sm  Sm6  1  0.47959394  0.64065469  0.37975137  1
  Sm  Sm7  1  0.14065469  0.97959394  0.37975137  1
  Sm  Sm8  1  0.39495960  0.39495960  0.21008080  1
  Sm  Sm9  1  0.89495960  0.89495960  0.21008080  1
  Sm  Sm10  1  0.60494472  0.60494472  0.79011056  1
  Sm  Sm11  1  0.10494472  0.10494472  0.79011056  1
  Al  Al12  1  0.75011569  0.75011569  0.49976861  1
  Al  Al13  1  0.25011569  0.25011569  0.49976861  1
  Al  Al14  1  0.52512908  0.02512908  0.18905124  1
  Al  Al15  1  0.28581968  0.78581968  0.18905124  1
  Al  Al16  1  0.78581968  0.52512908  0.18905124  1
  Al  Al17  1  0.02512908  0.28581968  0.18905124  1
  Fe  Fe18  1  0.23875359  0.73875359  0.88025431  1
  Fe  Fe19  1  0.88099210  0.38099210  0.88025431  1
  Fe  Fe20  1  0.38099210  0.23875359  0.88025431  1
  Fe  Fe21  1  0.73875359  0.88099210  0.88025431  1
  Fe  Fe22  1  0.76748683  0.26748683  0.11464910  1
  Fe  Fe23  1  0.11786407  0.61786407  0.11464910  1
  Fe  Fe24  1  0.61786407  0.76748683  0.11464910  1
  Fe  Fe25  1  0.26748683  0.11786407  0.11464910  1
  Fe  Fe26  1  0.71031872  0.56939688  0.99869411  1
  Fe  Fe27  1  0.29098717  0.43190901  0.99869411  1
  Fe  Fe28  1  0.79098717  0.06939688  0.99869411  1
  Fe  Fe29  1  0.21031872  0.93190901  0.99869411  1
  Fe  Fe30  1  0.56939688  0.29098717  0.99869411  1
  Fe  Fe31  1  0.43190901  0.71031872  0.99869411  1
  Fe  Fe32  1  0.06939688  0.21031872  0.99869411  1
  Fe  Fe33  1  0.93190901  0.79098717  0.99869411  1
  Fe  Fe34  1  0.00129824  0.50129824  0.99740352  1
  Fe  Fe35  1  0.50129824  0.00129824  0.99740352  1
  Fe  Fe36  1  0.48210280  0.98210280  0.80941068  1
  Fe  Fe37  1  0.70848652  0.20848652  0.80941068  1
  Fe  Fe38  1  0.20848652  0.48210280  0.80941068  1
  Fe  Fe39  1  0.98210280  0.70848652  0.80941068  1
