# generated using pymatgen
data_Sm8(Ga16Cu)3
_symmetry_space_group_name_H-M   'P 1'
_cell_length_a   6.10501223
_cell_length_b   6.10501223
_cell_length_c   30.72665209
_cell_angle_alpha   90.00000000
_cell_angle_beta   90.00000000
_cell_angle_gamma   90.00000000
_symmetry_Int_Tables_number   1
_chemical_formula_structural   Sm8(Ga16Cu)3
_chemical_formula_sum   'Sm8 Ga48 Cu3'
_cell_volume   1145.21840658
_cell_formula_units_Z   1
loop_
 _symmetry_equiv_pos_site_id
 _symmetry_equiv_pos_as_xyz
  1  'x, y, z'
loop_
 _atom_site_type_symbol
 _atom_site_label
 _atom_site_symmetry_multiplicity
 _atom_site_fract_x
 _atom_site_fract_y
 _atom_site_fract_z
 _atom_site_occupancy
  Sm  Sm0  1  0.75000000  0.25000000  0.12405692  1
  Sm  Sm1  1  0.75000000  0.25000000  0.62284429  1
  Sm  Sm2  1  0.25000000  0.75000000  0.12349176  1
  Sm  Sm3  1  0.25000000  0.75000000  0.62279452  1
  Sm  Sm4  1  0.25000000  0.75000000  0.37720548  1
  Sm  Sm5  1  0.25000000  0.75000000  0.87650824  1
  Sm  Sm6  1  0.75000000  0.25000000  0.37715571  1
  Sm  Sm7  1  0.75000000  0.25000000  0.87594308  1
  Ga  Ga8  1  0.50081802  0.00081802  0.45710180  1
  Ga  Ga9  1  0.50949000  0.00949000  0.95855715  1
  Ga  Ga10  1  0.00072255  0.99927745  0.45710714  1
  Ga  Ga11  1  0.99298745  0.00701255  0.95840611  1
  Ga  Ga12  1  0.49927745  0.50072255  0.45710714  1
  Ga  Ga13  1  0.50701255  0.49298745  0.95840611  1
  Ga  Ga14  1  0.99918198  0.49918198  0.45710180  1
  Ga  Ga15  1  0.99051000  0.49051000  0.95855715  1
  Ga  Ga16  1  0.50701255  0.00701255  0.04159389  1
  Ga  Ga17  1  0.49927745  0.99927745  0.54289286  1
  Ga  Ga18  1  0.99051000  0.00949000  0.04144285  1
  Ga  Ga19  1  0.99918198  0.00081802  0.54289820  1
  Ga  Ga20  1  0.50949000  0.49051000  0.04144285  1
  Ga  Ga21  1  0.50081802  0.49918198  0.54289820  1
  Ga  Ga22  1  0.99298745  0.49298745  0.04159389  1
  Ga  Ga23  1  0.00072255  0.50072255  0.54289286  1
  Ga  Ga24  1  0.57179198  0.07179198  0.21322332  1
  Ga  Ga25  1  0.57247164  0.07247164  0.71319400  1
  Ga  Ga26  1  0.07254997  0.92745003  0.21324210  1
  Ga  Ga27  1  0.07272360  0.92727640  0.71319217  1
  Ga  Ga28  1  0.42745003  0.57254997  0.21324210  1
  Ga  Ga29  1  0.42727640  0.57272360  0.71319217  1
  Ga  Ga30  1  0.92820802  0.42820802  0.21322332  1
  Ga  Ga31  1  0.92752836  0.42752836  0.71319400  1
  Ga  Ga32  1  0.42727640  0.92727640  0.28680783  1
  Ga  Ga33  1  0.42745003  0.92745003  0.78675790  1
  Ga  Ga34  1  0.92752836  0.07247164  0.28680600  1
  Ga  Ga35  1  0.92820802  0.07179198  0.78677668  1
  Ga  Ga36  1  0.57247164  0.42752836  0.28680600  1
  Ga  Ga37  1  0.57179198  0.42820802  0.78677668  1
  Ga  Ga38  1  0.07272360  0.57272360  0.28680783  1
  Ga  Ga39  1  0.07254997  0.57254997  0.78675790  1
  Ga  Ga40  1  0.25000000  0.25000000  0.08915785  1
  Ga  Ga41  1  0.25000000  0.25000000  0.58976042  1
  Ga  Ga42  1  0.75000000  0.75000000  0.08915785  1
  Ga  Ga43  1  0.75000000  0.75000000  0.58976042  1
  Ga  Ga44  1  0.75000000  0.75000000  0.41023958  1
  Ga  Ga45  1  0.75000000  0.75000000  0.91084215  1
  Ga  Ga46  1  0.25000000  0.25000000  0.41023958  1
  Ga  Ga47  1  0.25000000  0.25000000  0.91084215  1
  Ga  Ga48  1  0.25000000  0.25000000  0.16861025  1
  Ga  Ga49  1  0.25000000  0.25000000  0.66879474  1
  Ga  Ga50  1  0.75000000  0.75000000  0.16861025  1
  Ga  Ga51  1  0.75000000  0.75000000  0.66879474  1
  Ga  Ga52  1  0.75000000  0.75000000  0.33120526  1
  Ga  Ga53  1  0.75000000  0.75000000  0.83138975  1
  Ga  Ga54  1  0.25000000  0.25000000  0.33120526  1
  Ga  Ga55  1  0.25000000  0.25000000  0.83138975  1
  Cu  Cu56  1  0.75000000  0.25000000  0.50000000  1
  Cu  Cu57  1  0.25000000  0.75000000  -0.00000000  1
  Cu  Cu58  1  0.25000000  0.75000000  0.50000000  1
