# generated using pymatgen
data_SrCa3Mn4O12
_symmetry_space_group_name_H-M   'P 1'
_cell_length_a   7.64154892
_cell_length_b   7.63756708
_cell_length_c   7.63756708
_cell_angle_alpha   90.00000000
_cell_angle_beta   90.00000000
_cell_angle_gamma   90.00000000
_symmetry_Int_Tables_number   1
_chemical_formula_structural   SrCa3Mn4O12
_chemical_formula_sum   'Sr2 Ca6 Mn8 O24'
_cell_volume   445.75012436
_cell_formula_units_Z   2
loop_
 _symmetry_equiv_pos_site_id
 _symmetry_equiv_pos_as_xyz
  1  'x, y, z'
loop_
 _atom_site_type_symbol
 _atom_site_label
 _atom_site_symmetry_multiplicity
 _atom_site_fract_x
 _atom_site_fract_y
 _atom_site_fract_z
 _atom_site_occupancy
  Sr  Sr0  1  0.25000000  0.25000000  0.75000000  1
  Sr  Sr1  1  0.75000000  0.25000000  0.75000000  1
  Ca  Ca2  1  0.25000000  0.25000000  0.25000000  1
  Ca  Ca3  1  0.25000000  0.75000000  0.25000000  1
  Ca  Ca4  1  0.25000000  0.75000000  0.75000000  1
  Ca  Ca5  1  0.75000000  0.25000000  0.25000000  1
  Ca  Ca6  1  0.75000000  0.75000000  0.25000000  1
  Ca  Ca7  1  0.75000000  0.75000000  0.75000000  1
  Mn  Mn8  1  -0.00000000  0.99806945  0.00193055  1
  Mn  Mn9  1  -0.00000000  0.99806945  0.49806945  1
  Mn  Mn10  1  0.00000000  0.50193055  0.00193055  1
  Mn  Mn11  1  0.00000000  0.50193055  0.49806945  1
  Mn  Mn12  1  0.50000000  0.99806945  0.00193055  1
  Mn  Mn13  1  0.50000000  0.99806945  0.49806945  1
  Mn  Mn14  1  0.50000000  0.50193055  0.00193055  1
  Mn  Mn15  1  0.50000000  0.50193055  0.49806945  1
  O  O16  1  0.25000000  0.99516459  0.00483541  1
  O  O17  1  0.25000000  0.99516459  0.49516459  1
  O  O18  1  0.25000000  0.50483541  0.00483541  1
  O  O19  1  0.25000000  0.50483541  0.49516459  1
  O  O20  1  0.75000000  0.99516459  0.00483541  1
  O  O21  1  0.75000000  0.99516459  0.49516459  1
  O  O22  1  0.75000000  0.50483541  0.00483541  1
  O  O23  1  0.75000000  0.50483541  0.49516459  1
  O  O24  1  0.00000000  0.25000000  0.00865478  1
  O  O25  1  0.00000000  0.25000000  0.49134522  1
  O  O26  1  -0.00000000  0.75000000  0.00115547  1
  O  O27  1  -0.00000000  0.75000000  0.49884453  1
  O  O28  1  0.50000000  0.25000000  0.00865478  1
  O  O29  1  0.50000000  0.25000000  0.49134522  1
  O  O30  1  0.50000000  0.75000000  0.00115547  1
  O  O31  1  0.50000000  0.75000000  0.49884453  1
  O  O32  1  -0.00000000  0.99884453  0.25000000  1
  O  O33  1  -0.00000000  0.99134522  0.75000000  1
  O  O34  1  0.00000000  0.50115547  0.25000000  1
  O  O35  1  0.00000000  0.50865478  0.75000000  1
  O  O36  1  0.50000000  0.99884453  0.25000000  1
  O  O37  1  0.50000000  0.99134522  0.75000000  1
  O  O38  1  0.50000000  0.50115547  0.25000000  1
  O  O39  1  0.50000000  0.50865478  0.75000000  1
