# generated using pymatgen
data_Sc4Co3Sb4
_symmetry_space_group_name_H-M   'P 1'
_cell_length_a   4.29400668
_cell_length_b   6.87382548
_cell_length_c   7.32170159
_cell_angle_alpha   89.59138443
_cell_angle_beta   90.00000000
_cell_angle_gamma   90.00000000
_symmetry_Int_Tables_number   1
_chemical_formula_structural   Sc4Co3Sb4
_chemical_formula_sum   'Sc4 Co3 Sb4'
_cell_volume   216.10369722
_cell_formula_units_Z   1
loop_
 _symmetry_equiv_pos_site_id
 _symmetry_equiv_pos_as_xyz
  1  'x, y, z'
loop_
 _atom_site_type_symbol
 _atom_site_label
 _atom_site_symmetry_multiplicity
 _atom_site_fract_x
 _atom_site_fract_y
 _atom_site_fract_z
 _atom_site_occupancy
  Sc  Sc0  1  0.75000000  0.50098320  0.27688428  1
  Sc  Sc1  1  0.75000000  0.00399344  0.21777578  1
  Sc  Sc2  1  0.25000000  0.49990382  0.72117709  1
  Sc  Sc3  1  0.25000000  0.98959084  0.78433519  1
  Co  Co4  1  0.75000000  0.85264996  0.56944924  1
  Co  Co5  1  0.25000000  0.65167678  0.07023764  1
  Co  Co6  1  0.25000000  0.14613921  0.43178475  1
  Sb  Sb7  1  0.75000000  0.23292088  0.60141051  1
  Sb  Sb8  1  0.75000000  0.72888430  0.90648401  1
  Sb  Sb9  1  0.25000000  0.76953151  0.40104414  1
  Sb  Sb10  1  0.25000000  0.27642605  0.08911737  1
