# generated using pymatgen
data_Rb(IrO2)6
_symmetry_space_group_name_H-M   'P 1'
_cell_length_a   8.68391779
_cell_length_b   8.68391779
_cell_length_c   8.68391779
_cell_angle_alpha   72.29426445
_cell_angle_beta   66.93699314
_cell_angle_gamma   107.70573555
_symmetry_Int_Tables_number   1
_chemical_formula_structural   Rb(IrO2)6
_chemical_formula_sum   'Rb2 Ir12 O24'
_cell_volume   502.61414680
_cell_formula_units_Z   2
loop_
 _symmetry_equiv_pos_site_id
 _symmetry_equiv_pos_as_xyz
  1  'x, y, z'
loop_
 _atom_site_type_symbol
 _atom_site_label
 _atom_site_symmetry_multiplicity
 _atom_site_fract_x
 _atom_site_fract_y
 _atom_site_fract_z
 _atom_site_occupancy
  Rb  Rb0  1  0.22346858  0.00000000  0.77653142  1
  Rb  Rb1  1  0.77653142  -0.00000000  0.22346858  1
  Ir  Ir2  1  0.68486463  0.18681345  0.83081243  1
  Ir  Ir3  1  0.35147658  0.18705995  0.16441663  1
  Ir  Ir4  1  0.01762588  0.18681345  0.49805118  1
  Ir  Ir5  1  0.98237412  0.81318655  0.50194882  1
  Ir  Ir6  1  0.64852342  0.81294005  0.83558337  1
  Ir  Ir7  1  0.31513537  0.81318655  0.16918757  1
  Ir  Ir8  1  0.16441663  0.51589321  0.64852342  1
  Ir  Ir9  1  0.83081243  0.51567706  0.98237412  1
  Ir  Ir10  1  0.49805118  0.51567706  0.31513537  1
  Ir  Ir11  1  0.50194882  0.48432294  0.68486463  1
  Ir  Ir12  1  0.16918757  0.48432294  0.01762588  1
  Ir  Ir13  1  0.83558337  0.48410679  0.35147658  1
  O  O14  1  0.21152072  0.38682110  0.49099558  1
  O  O15  1  0.87781668  0.38682110  0.82469962  1
  O  O16  1  0.54475642  0.38855095  0.15620547  1
  O  O17  1  0.12218332  0.61317890  0.17530038  1
  O  O18  1  0.78847928  0.61317890  0.50900442  1
  O  O19  1  0.45524358  0.61144905  0.84379453  1
  O  O20  1  0.49099558  0.70251630  0.12218332  1
  O  O21  1  0.15620547  0.70096190  0.45524358  1
  O  O22  1  0.82469962  0.70251630  0.78847928  1
  O  O23  1  0.84379453  0.29903810  0.54475642  1
  O  O24  1  0.50900442  0.29748370  0.87781668  1
  O  O25  1  0.17530038  0.29748370  0.21152072  1
  O  O26  1  0.48951312  0.94836450  0.87397152  1
  O  O27  1  0.15545321  0.94928550  0.20616771  1
  O  O28  1  0.82233602  0.94836450  0.54114862  1
  O  O29  1  0.84454679  0.05071450  0.79383229  1
  O  O30  1  0.51048688  0.05163550  0.12602848  1
  O  O31  1  0.17766398  0.05163550  0.45885138  1
  O  O32  1  0.87397152  0.36348463  0.17766398  1
  O  O33  1  0.54114862  0.36348463  0.51048688  1
  O  O34  1  0.20616771  0.36162091  0.84454679  1
  O  O35  1  0.45885138  0.63651537  0.48951312  1
  O  O36  1  0.12602848  0.63651537  0.82233602  1
  O  O37  1  0.79383229  0.63837909  0.15545321  1
