# generated using pymatgen
data_PrY
_symmetry_space_group_name_H-M   'P 1'
_cell_length_a   3.66967034
_cell_length_b   3.66967047
_cell_length_c   17.79521326
_cell_angle_alpha   84.08180996
_cell_angle_beta   90.00000315
_cell_angle_gamma   119.99999092
_symmetry_Int_Tables_number   1
_chemical_formula_structural   PrY
_chemical_formula_sum   'Pr3 Y3'
_cell_volume   206.05724079
_cell_formula_units_Z   3
loop_
 _symmetry_equiv_pos_site_id
 _symmetry_equiv_pos_as_xyz
  1  'x, y, z'
loop_
 _atom_site_type_symbol
 _atom_site_label
 _atom_site_symmetry_multiplicity
 _atom_site_fract_x
 _atom_site_fract_y
 _atom_site_fract_z
 _atom_site_occupancy
  Pr  Pr0  1  0.00135810  0.00271620  0.99592570  1
  Pr  Pr1  1  0.49964978  0.99929957  0.50105065  1
  Pr  Pr2  1  0.61041891  0.22083782  0.16874327  1
  Y  Y3  1  0.11058064  0.22116128  0.66825808  1
  Y  Y4  1  0.88831634  0.77663268  0.33505098  1
  Y  Y5  1  0.38967623  0.77935245  0.83097132  1
