# generated using pymatgen
data_Re6Se7Br4
_symmetry_space_group_name_H-M   'P 1'
_cell_length_a   9.98638889
_cell_length_b   9.98638906
_cell_length_c   12.20908645
_cell_angle_alpha   90.00000000
_cell_angle_beta   65.85962068
_cell_angle_gamma   120.00000057
_symmetry_Int_Tables_number   1
_chemical_formula_structural   Re6Se7Br4
_chemical_formula_sum   'Re12 Se14 Br8'
_cell_volume   929.47504360
_cell_formula_units_Z   2
loop_
 _symmetry_equiv_pos_site_id
 _symmetry_equiv_pos_as_xyz
  1  'x, y, z'
loop_
 _atom_site_type_symbol
 _atom_site_label
 _atom_site_symmetry_multiplicity
 _atom_site_fract_x
 _atom_site_fract_y
 _atom_site_fract_z
 _atom_site_occupancy
  Re  Re0  1  0.08198973  0.69342903  0.39796907  1
  Re  Re1  1  0.21347023  0.52004121  0.39796907  1
  Re  Re2  1  0.90860190  0.38856070  0.39796907  1
  Re  Re3  1  0.90860190  0.02004121  0.89796907  1
  Re  Re4  1  0.21347023  0.19342903  0.89796907  1
  Re  Re5  1  0.08198973  0.88856070  0.89796907  1
  Re  Re6  1  0.91956825  0.30655749  0.59933850  1
  Re  Re7  1  0.78765075  0.48109326  0.59933850  1
  Re  Re8  1  0.09410401  0.61301075  0.59933850  1
  Re  Re9  1  0.09410401  0.98109326  0.09933850  1
  Re  Re10  1  0.78765075  0.80655749  0.09933850  1
  Re  Re11  1  0.91956825  0.11301075  0.09933850  1
  Se  Se12  1  0.78165637  0.55768019  0.40704810  1
  Se  Se13  1  0.36897571  0.81129553  0.40704810  1
  Se  Se14  1  0.03527172  0.22397619  0.40704810  1
  Se  Se15  1  0.03527172  0.31129553  0.90704810  1
  Se  Se16  1  0.36897571  0.05768019  0.90704810  1
  Se  Se17  1  0.78165637  0.72397619  0.90704810  1
  Se  Se18  1  0.21853547  0.44155676  0.59298693  1
  Se  Se19  1  0.63003437  0.18847760  0.59298693  1
  Se  Se20  1  0.96545631  0.77697871  0.59298693  1
  Se  Se21  1  0.96545631  0.68847760  0.09298693  1
  Se  Se22  1  0.63003437  0.94155676  0.09298693  1
  Se  Se23  1  0.21853547  0.27697871  0.09298693  1
  Se  Se24  1  0.19393272  0.59696636  0.20910092  1
  Se  Se25  1  0.19393272  0.09696636  0.70910092  1
  Br  Br26  1  0.77621177  0.24879804  0.24970417  1
  Br  Br27  1  0.22288111  0.97408306  0.24970417  1
  Br  Br28  1  0.50149779  0.52741372  0.24970417  1
  Br  Br29  1  0.50149779  0.47408306  0.74970417  1
  Br  Br30  1  0.22288111  0.74879804  0.74970417  1
  Br  Br31  1  0.77621177  0.02741372  0.74970417  1
  Br  Br32  1  0.80009480  0.40004740  0.79985779  1
  Br  Br33  1  0.80009480  0.90004740  0.29985779  1
