# generated using pymatgen
data_Sc4TaFe19P12
_symmetry_space_group_name_H-M   'P 1'
_cell_length_a   3.60744861
_cell_length_b   10.19555235
_cell_length_c   11.74567715
_cell_angle_alpha   89.51565546
_cell_angle_beta   90.00000000
_cell_angle_gamma   90.00000000
_symmetry_Int_Tables_number   1
_chemical_formula_structural   Sc4TaFe19P12
_chemical_formula_sum   'Sc4 Ta1 Fe19 P12'
_cell_volume   431.98976146
_cell_formula_units_Z   1
loop_
 _symmetry_equiv_pos_site_id
 _symmetry_equiv_pos_as_xyz
  1  'x, y, z'
loop_
 _atom_site_type_symbol
 _atom_site_label
 _atom_site_symmetry_multiplicity
 _atom_site_fract_x
 _atom_site_fract_y
 _atom_site_fract_z
 _atom_site_occupancy
  Sc  Sc0  1  0.25000000  0.57788865  0.70374435  1
  Sc  Sc1  1  0.25000000  0.91868375  0.20801747  1
  Sc  Sc2  1  0.75000000  0.42187781  0.29570207  1
  Sc  Sc3  1  0.75000000  0.08504666  0.79118759  1
  Ta  Ta4  1  0.25000000  0.70404114  0.98941969  1
  Fe  Fe5  1  0.25000000  0.21891899  0.17831200  1
  Fe  Fe6  1  0.25000000  0.27795643  0.67446815  1
  Fe  Fe7  1  0.75000000  0.78444035  0.81859891  1
  Fe  Fe8  1  0.75000000  0.72078078  0.33041724  1
  Fe  Fe9  1  0.25000000  0.87682166  0.69857692  1
  Fe  Fe10  1  0.25000000  0.62041702  0.20417164  1
  Fe  Fe11  1  0.75000000  0.12466419  0.29928899  1
  Fe  Fe12  1  0.75000000  0.37484087  0.79835924  1
  Fe  Fe13  1  0.25000000  0.40604166  0.48976021  1
  Fe  Fe14  1  0.25000000  0.09791476  0.98954122  1
  Fe  Fe15  1  0.75000000  0.59154196  0.51220507  1
  Fe  Fe16  1  0.75000000  0.90982155  0.00956480  1
  Fe  Fe17  1  0.25000000  0.45744452  0.93281794  1
  Fe  Fe18  1  0.25000000  0.03795459  0.43168629  1
  Fe  Fe19  1  0.75000000  0.53114669  0.06780449  1
  Fe  Fe20  1  0.75000000  0.96314556  0.56740397  1
  Fe  Fe21  1  0.25000000  0.79189788  0.48987957  1
  Fe  Fe22  1  0.75000000  0.29276826  0.01103826  1
  Fe  Fe23  1  0.75000000  0.20726399  0.51128199  1
  P  P24  1  0.25000000  0.42175209  0.11735218  1
  P  P25  1  0.25000000  0.07956068  0.61328995  1
  P  P26  1  0.75000000  0.57021711  0.87885190  1
  P  P27  1  0.75000000  0.92156900  0.38577795  1
  P  P28  1  0.25000000  0.26129232  0.86579797  1
  P  P29  1  0.25000000  0.24005330  0.37124609  1
  P  P30  1  0.75000000  0.73513191  0.14300364  1
  P  P31  1  0.75000000  0.75986551  0.62585474  1
  P  P32  1  0.25000000  0.59874109  0.39373246  1
  P  P33  1  0.25000000  0.91905768  0.88714983  1
  P  P34  1  0.75000000  0.39880730  0.60793214  1
  P  P35  1  0.75000000  0.10063233  0.10676312  1
