# generated using pymatgen
data_Rb2Ti(TeO4)3
_symmetry_space_group_name_H-M   'P 1'
_cell_length_a   7.23614250
_cell_length_b   7.26865899
_cell_length_c   7.23724740
_cell_angle_alpha   90.00000000
_cell_angle_beta   60.28260843
_cell_angle_gamma   120.14875947
_symmetry_Int_Tables_number   1
_chemical_formula_structural   Rb2Ti(TeO4)3
_chemical_formula_sum   'Rb2 Ti1 Te3 O12'
_cell_volume   269.70558551
_cell_formula_units_Z   1
loop_
 _symmetry_equiv_pos_site_id
 _symmetry_equiv_pos_as_xyz
  1  'x, y, z'
loop_
 _atom_site_type_symbol
 _atom_site_label
 _atom_site_symmetry_multiplicity
 _atom_site_fract_x
 _atom_site_fract_y
 _atom_site_fract_z
 _atom_site_occupancy
  Rb  Rb0  1  0.26773251  0.11605300  0.61984201  1
  Rb  Rb1  1  0.73226749  0.84832049  0.38015799  1
  Ti  Ti2  1  0.00000000  0.49809028  -0.00000000  1
  Te  Te3  1  0.50004974  0.49884262  0.00032935  1
  Te  Te4  1  0.49995026  0.99879288  0.99967065  1
  Te  Te5  1  0.00000000  0.49853270  0.50000000  1
  O  O6  1  0.65204036  0.82507468  0.92766401  1
  O  O7  1  0.86942796  0.43521390  0.31943321  1
  O  O8  1  0.25562077  0.43518080  0.93340966  1
  O  O9  1  0.25332488  0.82403755  0.32523636  1
  O  O10  1  0.25400606  0.81861052  0.93459807  1
  O  O11  1  0.25511920  0.42833617  0.32611152  1
  O  O12  1  0.34795964  0.17303433  0.07233599  1
  O  O13  1  0.13057204  0.56578594  0.68056679  1
  O  O14  1  0.74599394  0.56460446  0.06540193  1
  O  O15  1  0.74488080  0.17321697  0.67388848  1
  O  O16  1  0.74437923  0.17956003  0.06659034  1
  O  O17  1  0.74667512  0.57071267  0.67476364  1
