# generated using pymatgen
data_Sm8Ga21Ru11
_symmetry_space_group_name_H-M   'P 1'
_cell_length_a   5.66418024
_cell_length_b   11.42559560
_cell_length_c   11.42559560
_cell_angle_alpha   89.92683883
_cell_angle_beta   90.00000000
_cell_angle_gamma   90.00000000
_symmetry_Int_Tables_number   1
_chemical_formula_structural   Sm8Ga21Ru11
_chemical_formula_sum   'Sm8 Ga21 Ru11'
_cell_volume   739.42547230
_cell_formula_units_Z   1
loop_
 _symmetry_equiv_pos_site_id
 _symmetry_equiv_pos_as_xyz
  1  'x, y, z'
loop_
 _atom_site_type_symbol
 _atom_site_label
 _atom_site_symmetry_multiplicity
 _atom_site_fract_x
 _atom_site_fract_y
 _atom_site_fract_z
 _atom_site_occupancy
  Sm  Sm0  1  0.50134307  0.92488774  0.76301557  1
  Sm  Sm1  1  0.50134307  0.07511226  0.23698443  1
  Sm  Sm2  1  0.99942401  0.57574994  0.26352364  1
  Sm  Sm3  1  0.99942401  0.42425006  0.73647636  1
  Sm  Sm4  1  0.50057599  0.76352364  0.07574994  1
  Sm  Sm5  1  0.50057599  0.23647636  0.92425006  1
  Sm  Sm6  1  0.99865693  0.26301557  0.42488774  1
  Sm  Sm7  1  0.99865693  0.73698443  0.57511226  1
  Ga  Ga8  1  0.24456413  0.50000000  0.50000000  1
  Ga  Ga9  1  0.74440186  -0.00000000  0.00000000  1
  Ga  Ga10  1  0.75559814  0.50000000  0.50000000  1
  Ga  Ga11  1  0.25543587  -0.00000000  0.00000000  1
  Ga  Ga12  1  0.25000000  0.18366969  0.68366969  1
  Ga  Ga13  1  0.25000000  0.81633031  0.31633031  1
  Ga  Ga14  1  0.75000000  0.31983065  0.18016935  1
  Ga  Ga15  1  0.75000000  0.68016935  0.81983065  1
  Ga  Ga16  1  0.25000000  0.67989047  0.82010953  1
  Ga  Ga17  1  0.25000000  0.32010953  0.17989047  1
  Ga  Ga18  1  0.75000000  0.17955067  0.67955067  1
  Ga  Ga19  1  0.75000000  0.82044933  0.32044933  1
  Ga  Ga20  1  0.50830299  0.81117921  0.52644002  1
  Ga  Ga21  1  0.50830299  0.18882079  0.47355998  1
  Ga  Ga22  1  0.99974698  0.68593749  0.02575923  1
  Ga  Ga23  1  0.99974698  0.31406251  0.97424077  1
  Ga  Ga24  1  0.50025302  0.52575923  0.18593749  1
  Ga  Ga25  1  0.50025302  0.47424077  0.81406251  1
  Ga  Ga26  1  0.99169701  0.02644002  0.31117921  1
  Ga  Ga27  1  0.99169701  0.97355998  0.68882079  1
  Ga  Ga28  1  0.25000000  -0.00000000  0.50000000  1
  Ru  Ru29  1  0.49888846  0.62142616  0.64437160  1
  Ru  Ru30  1  0.49888846  0.37857384  0.35562840  1
  Ru  Ru31  1  0.00119832  0.87811344  0.14350292  1
  Ru  Ru32  1  0.00119832  0.12188656  0.85649708  1
  Ru  Ru33  1  0.49880168  0.64350292  0.37811344  1
  Ru  Ru34  1  0.49880168  0.35649708  0.62188656  1
  Ru  Ru35  1  0.00111154  0.14437160  0.12142616  1
  Ru  Ru36  1  0.00111154  0.85562840  0.87857384  1
  Ru  Ru37  1  0.75000000  0.50000000  0.00000000  1
  Ru  Ru38  1  0.25000000  0.50000000  0.00000000  1
  Ru  Ru39  1  0.75000000  -0.00000000  0.50000000  1
