# generated using pymatgen
data_Nd6Ge3S14
_symmetry_space_group_name_H-M   'P 1'
_cell_length_a   5.79921865
_cell_length_b   10.27441623
_cell_length_c   10.27436840
_cell_angle_alpha   59.99907189
_cell_angle_beta   89.99883242
_cell_angle_gamma   89.99964164
_symmetry_Int_Tables_number   1
_chemical_formula_structural   Nd6Ge3S14
_chemical_formula_sum   'Nd6 Ge3 S14'
_cell_volume   530.16169086
_cell_formula_units_Z   1
loop_
 _symmetry_equiv_pos_site_id
 _symmetry_equiv_pos_as_xyz
  1  'x, y, z'
loop_
 _atom_site_type_symbol
 _atom_site_label
 _atom_site_symmetry_multiplicity
 _atom_site_fract_x
 _atom_site_fract_y
 _atom_site_fract_z
 _atom_site_occupancy
  Nd  Nd0  1  0.24514600  0.23146750  0.12648364  1
  Nd  Nd1  1  0.24514593  0.64205956  0.23146391  1
  Nd  Nd2  1  0.24515056  0.12649251  0.64204399  1
  Nd  Nd3  1  0.75059326  0.76842219  0.87313916  1
  Nd  Nd4  1  0.75059184  0.35843121  0.76842180  1
  Nd  Nd5  1  0.75059808  0.87313850  0.35844290  1
  Ge  Ge6  1  0.82823197  0.33334399  0.33332188  1
  Ge  Ge7  1  0.33217962  0.66666560  0.66667029  1
  Ge  Ge8  1  0.48500153  0.99999989  -0.00000218  1
  S  S9  1  0.98522765  0.10558564  0.41301238  1
  S  S10  1  0.98522376  0.48140309  0.10557716  1
  S  S11  1  0.98523345  0.41301546  0.48140395  1
  S  S12  1  0.48781186  0.89434642  0.58681220  1
  S  S13  1  0.48781964  0.51882155  0.89436668  1
  S  S14  1  0.48782743  0.58680993  0.51883551  1
  S  S15  1  0.44948327  0.33333839  0.33332552  1
  S  S16  1  0.95233493  0.66666104  0.66667285  1
  S  S17  1  0.72642878  0.16356394  0.09179493  1
  S  S18  1  0.72642257  0.74464100  0.16358042  1
  S  S19  1  0.72641927  0.09178896  0.74463980  1
  S  S20  1  0.23670860  0.83381836  0.91026335  1
  S  S21  1  0.23671561  0.25591819  0.83381618  1
  S  S22  1  0.23670441  0.91026709  0.25591366  1
