# generated using pymatgen
data_Nd3(Ga2Si)2
_symmetry_space_group_name_H-M   'P 1'
_cell_length_a   4.19687991
_cell_length_b   4.28643128
_cell_length_c   21.91873750
_cell_angle_alpha   84.38864782
_cell_angle_beta   84.50624368
_cell_angle_gamma   90.00000000
_symmetry_Int_Tables_number   1
_chemical_formula_structural   Nd3(Ga2Si)2
_chemical_formula_sum   'Nd6 Ga8 Si4'
_cell_volume   390.60065110
_cell_formula_units_Z   2
loop_
 _symmetry_equiv_pos_site_id
 _symmetry_equiv_pos_as_xyz
  1  'x, y, z'
loop_
 _atom_site_type_symbol
 _atom_site_label
 _atom_site_symmetry_multiplicity
 _atom_site_fract_x
 _atom_site_fract_y
 _atom_site_fract_z
 _atom_site_occupancy
  Nd  Nd0  1  0.95821701  0.70821701  0.08356498  1
  Nd  Nd1  1  0.29079081  0.04079081  0.41841938  1
  Nd  Nd2  1  0.62415139  0.37415139  0.75169721  1
  Nd  Nd3  1  0.37630387  0.62630387  0.24739226  1
  Nd  Nd4  1  0.70916590  0.95916590  0.58166719  1
  Nd  Nd5  1  0.04120832  0.29120832  0.91758436  1
  Ga  Ga6  1  0.81996757  0.56996757  0.36006387  1
  Ga  Ga7  1  0.15313525  0.90313525  0.69373051  1
  Ga  Ga8  1  0.43082146  0.18082146  0.13835807  1
  Ga  Ga9  1  0.76396578  0.51396578  0.47206844  1
  Ga  Ga10  1  0.09703459  0.84703459  0.80592983  1
  Ga  Ga11  1  0.84747852  0.09747852  0.30504195  1
  Ga  Ga12  1  0.18060835  0.43060835  0.63878431  1
  Ga  Ga13  1  0.51367278  0.76367278  0.97265443  1
  Si  Si14  1  0.90271107  0.15271107  0.19457886  1
  Si  Si15  1  0.23560509  0.48560509  0.52878983  1
  Si  Si16  1  0.56897479  0.81897479  0.86204942  1
  Si  Si17  1  0.48618745  0.23618745  0.02762510  1
