# generated using pymatgen
data_Pr7In6Ni5Ge3
_symmetry_space_group_name_H-M   'P 1'
_cell_length_a   4.19782256
_cell_length_b   11.47145116
_cell_length_c   11.46686783
_cell_angle_alpha   120.00399682
_cell_angle_beta   90.00000000
_cell_angle_gamma   90.00000000
_symmetry_Int_Tables_number   1
_chemical_formula_structural   Pr7In6Ni5Ge3
_chemical_formula_sum   'Pr7 In6 Ni5 Ge3'
_cell_volume   478.18988332
_cell_formula_units_Z   1
loop_
 _symmetry_equiv_pos_site_id
 _symmetry_equiv_pos_as_xyz
  1  'x, y, z'
loop_
 _atom_site_type_symbol
 _atom_site_label
 _atom_site_symmetry_multiplicity
 _atom_site_fract_x
 _atom_site_fract_y
 _atom_site_fract_z
 _atom_site_occupancy
  Pr  Pr0  1  -0.00000000  -0.00010001  0.00000262  1
  Pr  Pr1  1  0.00000000  0.91659828  0.62095932  1
  Pr  Pr2  1  -0.00000000  0.37917008  0.29543124  1
  Pr  Pr3  1  -0.00000000  0.70439365  0.08330155  1
  Pr  Pr4  1  -0.00000000  0.07518106  0.37903407  1
  Pr  Pr5  1  0.00000000  0.62087524  0.69637442  1
  Pr  Pr6  1  -0.00000000  0.30421549  0.92503153  1
  In  In7  1  0.50000000  0.65178066  0.48572750  1
  In  In8  1  0.50000000  0.51432786  0.16614553  1
  In  In9  1  0.50000000  0.83386311  0.34811742  1
  In  In10  1  0.50000000  0.35576940  0.51965882  1
  In  In11  1  0.50000000  0.48027648  0.83588164  1
  In  In12  1  0.50000000  0.16393685  0.64448073  1
  Ni  Ni13  1  -0.00000000  0.66656244  0.33325358  1
  Ni  Ni14  1  -0.00000000  0.33344263  0.66678711  1
  Ni  Ni15  1  0.50000000  0.91676044  0.16330511  1
  Ni  Ni16  1  0.50000000  0.83660316  0.75348568  1
  Ni  Ni17  1  0.50000000  0.24639624  0.08328012  1
  Ge  Ge18  1  0.50000000  0.07825176  0.84636689  1
  Ge  Ge19  1  0.50000000  0.15338013  0.23170669  1
  Ge  Ge20  1  0.50000000  0.76831504  0.92166842  1
