# generated using pymatgen
data_PrGa2Ni3
_symmetry_space_group_name_H-M   'P 1'
_cell_length_a   4.15054765
_cell_length_b   8.91164154
_cell_length_c   8.91164174
_cell_angle_alpha   59.96185942
_cell_angle_beta   90.00000000
_cell_angle_gamma   90.00000000
_symmetry_Int_Tables_number   1
_chemical_formula_structural   PrGa2Ni3
_chemical_formula_sum   'Pr3 Ga6 Ni9'
_cell_volume   285.35430131
_cell_formula_units_Z   3
loop_
 _symmetry_equiv_pos_site_id
 _symmetry_equiv_pos_as_xyz
  1  'x, y, z'
loop_
 _atom_site_type_symbol
 _atom_site_label
 _atom_site_symmetry_multiplicity
 _atom_site_fract_x
 _atom_site_fract_y
 _atom_site_fract_z
 _atom_site_occupancy
  Pr  Pr0  1  0.50000000  0.33332229  0.33318381  1
  Pr  Pr1  1  0.50000000  0.66681619  0.66667771  1
  Pr  Pr2  1  -0.00000000  0.00000733  -0.00000733  1
  Ga  Ga3  1  0.50000000  0.72646143  0.27353857  1
  Ga  Ga4  1  0.50000000  0.27403422  -0.00000551  1
  Ga  Ga5  1  0.50000000  0.00000551  0.72596578  1
  Ga  Ga6  1  -0.00000000  0.48482016  0.51517984  1
  Ga  Ga7  1  0.00000000  0.51508097  0.00004636  1
  Ga  Ga8  1  -0.00000000  0.99995364  0.48491903  1
  Ni  Ni9  1  0.00000000  0.19317309  0.17561486  1
  Ni  Ni10  1  -0.00000000  0.17564450  0.63099615  1
  Ni  Ni11  1  -0.00000000  0.63088560  0.19343166  1
  Ni  Ni12  1  0.00000000  0.82438514  0.80682691  1
  Ni  Ni13  1  -0.00000000  0.36900385  0.82435550  1
  Ni  Ni14  1  -0.00000000  0.80656834  0.36911440  1
  Ni  Ni15  1  0.50000000  0.29197038  0.70802962  1
  Ni  Ni16  1  0.50000000  0.70785471  0.00008735  1
  Ni  Ni17  1  0.50000000  0.99991265  0.29214529  1
