# generated using pymatgen
data_Nd4CdSi3O13
_symmetry_space_group_name_H-M   'P 1'
_cell_length_a   7.01480531
_cell_length_b   9.65634598
_cell_length_c   9.65642798
_cell_angle_alpha   60.00037661
_cell_angle_beta   90.00000000
_cell_angle_gamma   90.00000000
_symmetry_Int_Tables_number   1
_chemical_formula_structural   Nd4CdSi3O13
_chemical_formula_sum   'Nd8 Cd2 Si6 O26'
_cell_volume   566.47040550
_cell_formula_units_Z   2
loop_
 _symmetry_equiv_pos_site_id
 _symmetry_equiv_pos_as_xyz
  1  'x, y, z'
loop_
 _atom_site_type_symbol
 _atom_site_label
 _atom_site_symmetry_multiplicity
 _atom_site_fract_x
 _atom_site_fract_y
 _atom_site_fract_z
 _atom_site_occupancy
  Nd  Nd0  1  0.50420736  0.66668998  0.66666018  1
  Nd  Nd1  1  0.00420736  0.33331002  0.33333982  1
  Nd  Nd2  1  0.75200911  0.75909659  0.00759184  1
  Nd  Nd3  1  0.75200486  0.23331657  0.75910975  1
  Nd  Nd4  1  0.75200369  0.00757805  0.23331534  1
  Nd  Nd5  1  0.25200911  0.24090341  0.99240816  1
  Nd  Nd6  1  0.25200486  0.76668343  0.24089025  1
  Nd  Nd7  1  0.25200369  0.99242195  0.76668466  1
  Cd  Cd8  1  0.50726529  0.33332995  0.33333379  1
  Cd  Cd9  1  0.00726529  0.66667005  0.66666621  1
  Si  Si10  1  0.75119403  0.97098154  0.62759422  1
  Si  Si11  1  0.75118983  0.40143522  0.97097610  1
  Si  Si12  1  0.75119218  0.62758466  0.40143084  1
  Si  Si13  1  0.25119403  0.02901846  0.37240578  1
  Si  Si14  1  0.25118983  0.59856478  0.02902390  1
  Si  Si15  1  0.25119218  0.37241534  0.59856916  1
  O  O16  1  0.76193618  0.87122063  0.53042672  1
  O  O17  1  0.76192911  0.59834770  0.87122514  1
  O  O18  1  0.76192649  0.53043225  0.59834469  1
  O  O19  1  0.26193618  0.12877937  0.46957328  1
  O  O20  1  0.26192911  0.40165230  0.12877486  1
  O  O21  1  0.26192649  0.46956775  0.40165531  1
  O  O22  1  0.56039739  0.90109758  0.74267128  1
  O  O23  1  0.56041086  0.35622771  0.90109983  1
  O  O24  1  0.56040208  0.74267353  0.35623177  1
  O  O25  1  0.06039739  0.09890242  0.25732872  1
  O  O26  1  0.06041086  0.64377229  0.09890017  1
  O  O27  1  0.06040208  0.25732647  0.64376823  1
  O  O28  1  0.42851773  0.07533679  0.24456801  1
  O  O29  1  0.42851027  0.68007829  0.07534747  1
  O  O30  1  0.42851138  0.24457485  0.68008133  1
  O  O31  1  0.92851773  0.92466321  0.75543199  1
  O  O32  1  0.92851027  0.31992171  0.92465253  1
  O  O33  1  0.92851138  0.75542515  0.31991867  1
  O  O34  1  0.73642750  0.99999782  0.00000311  1
  O  O35  1  0.23642750  0.00000218  0.99999689  1
  O  O36  1  0.74665283  0.16504228  0.51040615  1
  O  O37  1  0.74665519  0.32454266  0.16503779  1
  O  O38  1  0.74665665  0.51041637  0.32454193  1
  O  O39  1  0.24665283  0.83495772  0.48959385  1
  O  O40  1  0.24665519  0.67545734  0.83496221  1
  O  O41  1  0.24665665  0.48958363  0.67545807  1
