# generated using pymatgen
data_NdGePt
_symmetry_space_group_name_H-M   'P 1'
_cell_length_a   4.43208929
_cell_length_b   5.86802745
_cell_length_c   5.76278657
_cell_angle_alpha   95.02577757
_cell_angle_beta   112.61543578
_cell_angle_gamma   67.81196826
_symmetry_Int_Tables_number   1
_chemical_formula_structural   NdGePt
_chemical_formula_sum   'Nd2 Ge2 Pt2'
_cell_volume   127.81545829
_cell_formula_units_Z   2
loop_
 _symmetry_equiv_pos_site_id
 _symmetry_equiv_pos_as_xyz
  1  'x, y, z'
loop_
 _atom_site_type_symbol
 _atom_site_label
 _atom_site_symmetry_multiplicity
 _atom_site_fract_x
 _atom_site_fract_y
 _atom_site_fract_z
 _atom_site_occupancy
  Nd  Nd0  1  0.76313650  0.69147589  0.21774889  1
  Nd  Nd1  1  0.23686350  0.30852411  0.78225111  1
  Ge  Ge2  1  0.06363518  0.09809435  0.22536472  1
  Ge  Ge3  1  0.93636482  0.90190565  0.77463528  1
  Pt  Pt4  1  0.53909896  0.28061002  0.35880795  1
  Pt  Pt5  1  0.46090104  0.71938998  0.64119205  1
