# generated using pymatgen
data_Nd5Si9Au
_symmetry_space_group_name_H-M   'P 1'
_cell_length_a   4.17134184
_cell_length_b   4.24053646
_cell_length_c   35.61345259
_cell_angle_alpha   86.58684311
_cell_angle_beta   86.64260139
_cell_angle_gamma   90.00000000
_symmetry_Int_Tables_number   1
_chemical_formula_structural   Nd5Si9Au
_chemical_formula_sum   'Nd10 Si18 Au2'
_cell_volume   627.75606653
_cell_formula_units_Z   2
loop_
 _symmetry_equiv_pos_site_id
 _symmetry_equiv_pos_as_xyz
  1  'x, y, z'
loop_
 _atom_site_type_symbol
 _atom_site_label
 _atom_site_symmetry_multiplicity
 _atom_site_fract_x
 _atom_site_fract_y
 _atom_site_fract_z
 _atom_site_occupancy
  Nd  Nd0  1  0.95066692  0.45066692  0.09866616  1
  Nd  Nd1  1  0.34971057  0.84971057  0.30057886  1
  Nd  Nd2  1  0.75107102  0.25107102  0.49785796  1
  Nd  Nd3  1  0.14933924  0.64933924  0.70132152  1
  Nd  Nd4  1  0.54780965  0.04780965  0.90438070  1
  Nd  Nd5  1  0.00011258  0.00011258  0.99977484  1
  Nd  Nd6  1  0.40062931  0.40062931  0.19874138  1
  Nd  Nd7  1  0.80007791  0.80007791  0.39984418  1
  Nd  Nd8  1  0.20237202  0.20237202  0.59525596  1
  Nd  Nd9  1  0.60155929  0.60155929  0.79688142  1
  Si  Si10  1  0.46747861  0.96747861  0.06504278  1
  Si  Si11  1  0.86683048  0.36683048  0.26633904  1
  Si  Si12  1  0.26731023  0.76731023  0.46537954  1
  Si  Si13  1  0.66693810  0.16693810  0.66612379  1
  Si  Si14  1  0.06601200  0.56601200  0.86797599  1
  Si  Si15  1  0.91729662  0.91729662  0.16540677  1
  Si  Si16  1  0.31631622  0.31631622  0.36736755  1
  Si  Si17  1  0.71783733  0.71783733  0.56432534  1
  Si  Si18  1  0.11678386  0.11678386  0.76643228  1
  Si  Si19  1  0.51628038  0.51628038  0.96743924  1
  Si  Si20  1  0.43420443  0.93420443  0.13159115  1
  Si  Si21  1  0.83311159  0.33311159  0.33377682  1
  Si  Si22  1  0.23417162  0.73417162  0.53165675  1
  Si  Si23  1  0.63392943  0.13392943  0.73214114  1
  Si  Si24  1  0.03306452  0.53306452  0.93387096  1
  Si  Si25  1  0.48336803  0.48336803  0.03326394  1
  Si  Si26  1  0.88350795  0.88350795  0.23298409  1
  Si  Si27  1  0.28314833  0.28314833  0.43370335  1
  Au  Au28  1  0.68371934  0.68371934  0.63256132  1
  Au  Au29  1  0.08254242  0.08254242  0.83491517  1
