# generated using pymatgen
data_La5Sm3Co7CuO24
_symmetry_space_group_name_H-M   'P 1'
_cell_length_a   7.63239980
_cell_length_b   7.65897094
_cell_length_c   7.65897094
_cell_angle_alpha   89.84434189
_cell_angle_beta   90.04024132
_cell_angle_gamma   90.04024132
_symmetry_Int_Tables_number   1
_chemical_formula_structural   La5Sm3Co7CuO24
_chemical_formula_sum   'La5 Sm3 Co7 Cu1 O24'
_cell_volume   447.71344724
_cell_formula_units_Z   1
loop_
 _symmetry_equiv_pos_site_id
 _symmetry_equiv_pos_as_xyz
  1  'x, y, z'
loop_
 _atom_site_type_symbol
 _atom_site_label
 _atom_site_symmetry_multiplicity
 _atom_site_fract_x
 _atom_site_fract_y
 _atom_site_fract_z
 _atom_site_occupancy
  La  La0  1  0.24830269  0.24872867  0.25138144  1
  La  La1  1  0.24836987  0.24914366  0.74914366  1
  La  La2  1  0.24796398  0.75083691  0.25083691  1
  La  La3  1  0.24830269  0.75138144  0.74872867  1
  La  La4  1  0.75117820  0.75080757  0.25080757  1
  Sm  Sm5  1  0.75233700  0.24849822  0.25157683  1
  Sm  Sm6  1  0.75210402  0.24883245  0.74883245  1
  Sm  Sm7  1  0.75233700  0.75157683  0.74849822  1
  Co  Co8  1  0.99864817  0.00026084  0.99966429  1
  Co  Co9  1  0.99925848  0.00036577  0.50036577  1
  Co  Co10  1  0.99797543  0.49937630  0.99937630  1
  Co  Co11  1  0.99864817  0.49966429  0.50026084  1
  Co  Co12  1  0.50066135  0.00035565  0.00004349  1
  Co  Co13  1  0.50181156  0.00082156  0.50082156  1
  Co  Co14  1  0.50066135  0.50004349  0.50035565  1
  Cu  Cu15  1  0.50051500  0.49968649  0.99968649  1
  O  O16  1  0.24960396  0.99988663  0.99987424  1
  O  O17  1  0.24515977  0.99975165  0.49975165  1
  O  O18  1  0.24448931  0.49926301  0.99926301  1
  O  O19  1  0.24960396  0.49987424  0.49988663  1
  O  O20  1  0.75012605  0.00300262  0.99737311  1
  O  O21  1  0.75530716  0.00262972  0.50262972  1
  O  O22  1  0.75463079  0.49845959  0.99845959  1
  O  O23  1  0.75012605  0.49737311  0.50300262  1
  O  O24  1  0.99527454  0.24514704  0.99974347  1
  O  O25  1  0.99388205  0.24987812  0.50010237  1
  O  O26  1  0.99684479  0.75469650  0.99718017  1
  O  O27  1  0.99693006  0.75014277  0.50313962  1
  O  O28  1  0.50686489  0.24739595  0.00000526  1
  O  O29  1  0.50364589  0.25315514  0.50165374  1
  O  O30  1  0.50398677  0.75257399  0.99636823  1
  O  O31  1  0.50350998  0.74731769  0.50087924  1
  O  O32  1  0.99693006  0.00313962  0.25014277  1
  O  O33  1  0.99388205  0.00010237  0.74987812  1
  O  O34  1  0.99684479  0.49718017  0.25469650  1
  O  O35  1  0.99527454  0.49974347  0.74514704  1
  O  O36  1  0.50350998  0.00087924  0.24731769  1
  O  O37  1  0.50364589  0.00165374  0.75315514  1
  O  O38  1  0.50398677  0.49636823  0.25257399  1
  O  O39  1  0.50686489  0.50000526  0.74739595  1
