# generated using pymatgen
data_Na5SrNbAs4
_symmetry_space_group_name_H-M   'P 1'
_cell_length_a   7.55924389
_cell_length_b   9.59883277
_cell_length_c   9.61447775
_cell_angle_alpha   60.05381068
_cell_angle_beta   90.01755804
_cell_angle_gamma   90.03517332
_symmetry_Int_Tables_number   1
_chemical_formula_structural   Na5SrNbAs4
_chemical_formula_sum   'Na10 Sr2 Nb2 As8'
_cell_volume   604.48880803
_cell_formula_units_Z   2
loop_
 _symmetry_equiv_pos_site_id
 _symmetry_equiv_pos_as_xyz
  1  'x, y, z'
loop_
 _atom_site_type_symbol
 _atom_site_label
 _atom_site_symmetry_multiplicity
 _atom_site_fract_x
 _atom_site_fract_y
 _atom_site_fract_z
 _atom_site_occupancy
  Na  Na0  1  0.38427730  0.53132809  0.94167114  1
  Na  Na1  1  0.38434607  0.94132527  0.53073414  1
  Na  Na2  1  0.88427730  0.47299922  0.05832886  1
  Na  Na3  1  0.88434607  0.47205941  0.46926586  1
  Na  Na4  1  0.21646059  0.13843512  0.71590653  1
  Na  Na5  1  0.21222143  0.71356293  0.13798442  1
  Na  Na6  1  0.22000416  0.14492413  0.14241928  1
  Na  Na7  1  0.71646059  0.85434165  0.28409347  1
  Na  Na8  1  0.72000416  0.28734341  0.85758072  1
  Na  Na9  1  0.71222143  0.85154735  0.86201558  1
  Sr  Sr10  1  0.38933315  0.53126332  0.52854950  1
  Sr  Sr11  1  0.88933315  0.05981282  0.47145050  1
  Nb  Nb12  1  0.49953086  0.33272594  0.32995907  1
  Nb  Nb13  1  0.99953086  0.66268500  0.67004093  1
  As  As14  1  0.16889534  0.33359292  0.33592489  1
  As  As15  1  0.66889534  0.66951781  0.66407511  1
  As  As16  1  0.10384705  0.81016083  0.38209024  1
  As  As17  1  0.10645953  0.38046268  0.80903325  1
  As  As18  1  0.10062452  0.81150882  0.80714747  1
  As  As19  1  0.60384705  0.19225108  0.61790976  1
  As  As20  1  0.60062452  0.61865630  0.19285253  1
  As  As21  1  0.60645953  0.18949592  0.19096675  1
