# generated using pymatgen
data_La7SmMn6(FeO12)2
_symmetry_space_group_name_H-M   'P 1'
_cell_length_a   7.90359376
_cell_length_b   7.87718151
_cell_length_c   7.87718151
_cell_angle_alpha   90.00568755
_cell_angle_beta   90.00000000
_cell_angle_gamma   90.00000000
_symmetry_Int_Tables_number   1
_chemical_formula_structural   La7SmMn6(FeO12)2
_chemical_formula_sum   'La7 Sm1 Mn6 Fe2 O24'
_cell_volume   490.41789979
_cell_formula_units_Z   1
loop_
 _symmetry_equiv_pos_site_id
 _symmetry_equiv_pos_as_xyz
  1  'x, y, z'
loop_
 _atom_site_type_symbol
 _atom_site_label
 _atom_site_symmetry_multiplicity
 _atom_site_fract_x
 _atom_site_fract_y
 _atom_site_fract_z
 _atom_site_occupancy
  La  La0  1  0.25000000  0.25143193  0.25143193  1
  La  La1  1  0.25000000  0.25145454  0.74858442  1
  La  La2  1  0.25000000  0.74858442  0.25145454  1
  La  La3  1  0.25000000  0.74855826  0.74855826  1
  La  La4  1  0.75000000  0.25144256  0.74853582  1
  La  La5  1  0.75000000  0.74853582  0.25144256  1
  La  La6  1  0.75000000  0.74857099  0.74857099  1
  Sm  Sm7  1  0.75000000  0.25151711  0.25151711  1
  Mn  Mn8  1  0.99976395  0.00023551  0.49978005  1
  Mn  Mn9  1  0.99976395  0.49978005  0.00023551  1
  Mn  Mn10  1  0.99976650  0.49976074  0.49976074  1
  Mn  Mn11  1  0.50023605  0.00023551  0.49978005  1
  Mn  Mn12  1  0.50023605  0.49978005  0.00023551  1
  Mn  Mn13  1  0.50023350  0.49976074  0.49976074  1
  Fe  Fe14  1  0.99973441  0.00027369  0.00027369  1
  Fe  Fe15  1  0.50026559  0.00027369  0.00027369  1
  O  O16  1  0.25000000  0.00004240  0.00004240  1
  O  O17  1  0.25000000  0.00005217  0.49995226  1
  O  O18  1  0.25000000  0.49995226  0.00005217  1
  O  O19  1  0.25000000  0.49995175  0.49995175  1
  O  O20  1  0.75000000  0.00101265  0.00101265  1
  O  O21  1  0.75000000  0.00111650  0.49888053  1
  O  O22  1  0.75000000  0.49888053  0.00111650  1
  O  O23  1  0.75000000  0.49883563  0.49883563  1
  O  O24  1  0.99892770  0.25006276  0.00106936  1
  O  O25  1  0.99887155  0.24954087  0.49886769  1
  O  O26  1  0.99995763  0.74998174  0.00005157  1
  O  O27  1  0.99994974  0.75045136  0.49995490  1
  O  O28  1  0.50107230  0.25006276  0.00106936  1
  O  O29  1  0.50112845  0.24954087  0.49886769  1
  O  O30  1  0.50004237  0.74998174  0.00005157  1
  O  O31  1  0.50005026  0.75045136  0.49995490  1
  O  O32  1  0.99892770  0.00106936  0.25006276  1
  O  O33  1  0.99995763  0.00005157  0.74998174  1
  O  O34  1  0.99887155  0.49886769  0.24954087  1
  O  O35  1  0.99994974  0.49995490  0.75045136  1
  O  O36  1  0.50107230  0.00106936  0.25006276  1
  O  O37  1  0.50004237  0.00005157  0.74998174  1
  O  O38  1  0.50112845  0.49886769  0.24954087  1
  O  O39  1  0.50005026  0.49995490  0.75045136  1
