# generated using pymatgen
data_Na4Sr2TiAs4
_symmetry_space_group_name_H-M   'P 1'
_cell_length_a   7.62299733
_cell_length_b   9.62525635
_cell_length_c   9.64368055
_cell_angle_alpha   119.93306802
_cell_angle_beta   89.91638686
_cell_angle_gamma   90.17043724
_symmetry_Int_Tables_number   1
_chemical_formula_structural   Na4Sr2TiAs4
_chemical_formula_sum   'Na8 Sr4 Ti2 As8'
_cell_volume   613.19995448
_cell_formula_units_Z   2
loop_
 _symmetry_equiv_pos_site_id
 _symmetry_equiv_pos_as_xyz
  1  'x, y, z'
loop_
 _atom_site_type_symbol
 _atom_site_label
 _atom_site_symmetry_multiplicity
 _atom_site_fract_x
 _atom_site_fract_y
 _atom_site_fract_z
 _atom_site_occupancy
  Na  Na0  1  0.38397876  0.52800905  0.46953402  1
  Na  Na1  1  0.88397137  0.05849151  0.53049222  1
  Na  Na2  1  0.20924350  0.13379930  0.86202127  1
  Na  Na3  1  0.22313567  0.72367279  0.85484152  1
  Na  Na4  1  0.21872265  0.14461921  0.27802146  1
  Na  Na5  1  0.72315007  0.86882576  0.14516291  1
  Na  Na6  1  0.70927874  0.27182113  0.13803053  1
  Na  Na7  1  0.71878752  0.86657022  0.72195486  1
  Sr  Sr8  1  0.38822892  0.94456963  0.47721165  1
  Sr  Sr9  1  0.38701232  0.52227797  0.05759688  1
  Sr  Sr10  1  0.88823880  0.46737432  0.52281146  1
  Sr  Sr11  1  0.88699763  0.46467584  0.94239825  1
  Ti  Ti12  1  0.49789347  0.33640009  0.66352966  1
  Ti  Ti13  1  0.99796781  0.67282832  0.33643254  1
  As  As14  1  0.10669100  0.80614996  0.18900628  1
  As  As15  1  0.09608101  0.38420543  0.19089672  1
  As  As16  1  0.10035814  0.80708396  0.61671543  1
  As  As17  1  0.59606007  0.19333768  0.80907340  1
  As  As18  1  0.60667359  0.61713621  0.81097517  1
  As  As19  1  0.60038932  0.19039405  0.38331789  1
  As  As20  1  0.17095264  0.33466789  0.67159636  1
  As  As21  1  0.67098698  0.66308967  0.32837952  1
