# generated using pymatgen
data_Na3Yb(PO4)2
_symmetry_space_group_name_H-M   'P 1'
_cell_length_a   9.20883337
_cell_length_b   9.20883322
_cell_length_c   9.20883337
_cell_angle_alpha   62.24655892
_cell_angle_beta   62.24656161
_cell_angle_gamma   62.24655892
_symmetry_Int_Tables_number   1
_chemical_formula_structural   Na3Yb(PO4)2
_chemical_formula_sum   'Na9 Yb3 P6 O24'
_cell_volume   579.90137822
_cell_formula_units_Z   3
loop_
 _symmetry_equiv_pos_site_id
 _symmetry_equiv_pos_as_xyz
  1  'x, y, z'
loop_
 _atom_site_type_symbol
 _atom_site_label
 _atom_site_symmetry_multiplicity
 _atom_site_fract_x
 _atom_site_fract_y
 _atom_site_fract_z
 _atom_site_occupancy
  Na  Na0  1  0.49774702  0.49774702  0.49774702  1
  Na  Na1  1  0.00049904  0.00049904  0.00049904  1
  Na  Na2  1  0.60630487  0.25122468  0.89474533  1
  Na  Na3  1  0.25122468  0.89474533  0.60630487  1
  Na  Na4  1  0.89474533  0.60630487  0.25122468  1
  Na  Na5  1  0.73722531  0.11679635  0.38845821  1
  Na  Na6  1  0.11679635  0.38845821  0.73722531  1
  Na  Na7  1  0.38845821  0.73722531  0.11679635  1
  Na  Na8  1  0.34894742  0.34894742  0.34894742  1
  Yb  Yb9  1  0.85047190  0.85047190  0.85047190  1
  Yb  Yb10  1  0.64948087  0.64948087  0.64948087  1
  Yb  Yb11  1  0.15047912  0.15047912  0.15047912  1
  P  P12  1  0.93636091  0.25173795  0.56070830  1
  P  P13  1  0.25173795  0.56070830  0.93636091  1
  P  P14  1  0.56070830  0.93636091  0.25173795  1
  P  P15  1  0.75262670  0.44030270  0.05797169  1
  P  P16  1  0.44030270  0.05797169  0.75262670  1
  P  P17  1  0.05797169  0.75262670  0.44030270  1
  O  O18  1  0.97719000  0.19550646  0.40830539  1
  O  O19  1  0.19550646  0.40830539  0.97719000  1
  O  O20  1  0.40830539  0.97719000  0.19550646  1
  O  O21  1  0.69086622  0.47861873  0.90964528  1
  O  O22  1  0.47861873  0.90964528  0.69086622  1
  O  O23  1  0.90964528  0.69086622  0.47861873  1
  O  O24  1  0.01903128  0.81118118  0.59135562  1
  O  O25  1  0.81118118  0.59135562  0.01903128  1
  O  O26  1  0.59135562  0.01903128  0.81118118  1
  O  O27  1  0.31170902  0.52822198  0.08328744  1
  O  O28  1  0.52822198  0.08328744  0.31170902  1
  O  O29  1  0.08328744  0.31170902  0.52822198  1
  O  O30  1  0.23345955  0.60471965  0.42943553  1
  O  O31  1  0.60471965  0.42943553  0.23345955  1
  O  O32  1  0.42943553  0.23345955  0.60471965  1
  O  O33  1  0.09951048  0.73461757  0.92412878  1
  O  O34  1  0.73461757  0.92412878  0.09951048  1
  O  O35  1  0.92412878  0.09951048  0.73461757  1
  O  O36  1  0.76030646  0.39949989  0.57757130  1
  O  O37  1  0.39949989  0.57757130  0.76030646  1
  O  O38  1  0.57757130  0.76030646  0.39949989  1
  O  O39  1  0.90337970  0.26555815  0.07080599  1
  O  O40  1  0.26555815  0.07080599  0.90337970  1
  O  O41  1  0.07080599  0.90337970  0.26555815  1
