# generated using pymatgen
data_Nb3Al(PO4)6
_symmetry_space_group_name_H-M   'P 1'
_cell_length_a   8.70714673
_cell_length_b   8.70714673
_cell_length_c   8.95661128
_cell_angle_alpha   60.91715562
_cell_angle_beta   60.91715562
_cell_angle_gamma   60.00000432
_symmetry_Int_Tables_number   1
_chemical_formula_structural   Nb3Al(PO4)6
_chemical_formula_sum   'Nb3 Al1 P6 O24'
_cell_volume   486.70287829
_cell_formula_units_Z   1
loop_
 _symmetry_equiv_pos_site_id
 _symmetry_equiv_pos_as_xyz
  1  'x, y, z'
loop_
 _atom_site_type_symbol
 _atom_site_label
 _atom_site_symmetry_multiplicity
 _atom_site_fract_x
 _atom_site_fract_y
 _atom_site_fract_z
 _atom_site_occupancy
  Nb  Nb0  1  0.35864063  0.35864063  0.92407810  1
  Nb  Nb1  1  0.14080242  0.14080242  0.57759275  1
  Nb  Nb2  1  0.63974127  0.63974127  0.08077620  1
  Al  Al3  1  0.85768198  0.85768198  0.42695405  1
  P  P4  1  0.96636914  0.23732690  0.25372849  1
  P  P5  1  0.23732690  0.54257447  0.25372849  1
  P  P6  1  0.54257447  0.96636914  0.25372849  1
  P  P7  1  0.47797092  0.02845253  0.74217817  1
  P  P8  1  0.02845253  0.75139738  0.74217817  1
  P  P9  1  0.75139738  0.47797092  0.74217817  1
  O  O10  1  0.13660135  0.27411098  0.08406106  1
  O  O11  1  0.27411098  0.50522660  0.08406106  1
  O  O12  1  0.50522660  0.13660135  0.08406106  1
  O  O13  1  0.64428883  0.00099493  0.57762006  1
  O  O14  1  0.00099493  0.77709618  0.57762006  1
  O  O15  1  0.77709618  0.64428883  0.57762006  1
  O  O16  1  0.86192904  0.72426183  0.91736575  1
  O  O17  1  0.72426183  0.49644338  0.91736575  1
  O  O18  1  0.49644338  0.86192904  0.91736575  1
  O  O19  1  0.36236024  0.99576219  0.41755691  1
  O  O20  1  0.99576219  0.22432066  0.41755691  1
  O  O21  1  0.22432066  0.36236024  0.41755691  1
  O  O22  1  0.93667921  0.06938142  0.28003429  1
  O  O23  1  0.06938142  0.71390508  0.28003429  1
  O  O24  1  0.71390508  0.93667921  0.28003429  1
  O  O25  1  0.44040340  0.20678907  0.77438078  1
  O  O26  1  0.20678907  0.57842675  0.77438078  1
  O  O27  1  0.57842675  0.44040340  0.77438078  1
  O  O28  1  0.06057311  0.92109244  0.72456673  1
  O  O29  1  0.92109244  0.29376772  0.72456673  1
  O  O30  1  0.29376772  0.06057311  0.72456673  1
  O  O31  1  0.56174138  0.79307958  0.22544006  1
  O  O32  1  0.79307958  0.41973897  0.22544006  1
  O  O33  1  0.41973897  0.56174138  0.22544006  1
