# generated using pymatgen
data_Nb2FeCo3
_symmetry_space_group_name_H-M   'P 1'
_cell_length_a   4.80344754
_cell_length_b   4.80344754
_cell_length_c   7.68057899
_cell_angle_alpha   90.00000000
_cell_angle_beta   90.00000000
_cell_angle_gamma   120.04040328
_symmetry_Int_Tables_number   1
_chemical_formula_structural   Nb2FeCo3
_chemical_formula_sum   'Nb4 Fe2 Co6'
_cell_volume   153.41002386
_cell_formula_units_Z   2
loop_
 _symmetry_equiv_pos_site_id
 _symmetry_equiv_pos_as_xyz
  1  'x, y, z'
loop_
 _atom_site_type_symbol
 _atom_site_label
 _atom_site_symmetry_multiplicity
 _atom_site_fract_x
 _atom_site_fract_y
 _atom_site_fract_z
 _atom_site_occupancy
  Nb  Nb0  1  0.66659988  0.33340012  0.56374090  1
  Nb  Nb1  1  0.33340012  0.66659988  0.43625910  1
  Nb  Nb2  1  0.33340012  0.66659988  0.06374090  1
  Nb  Nb3  1  0.66659988  0.33340012  0.93625910  1
  Fe  Fe4  1  0.00000000  0.00000000  0.50000000  1
  Fe  Fe5  1  0.00000000  0.00000000  -0.00000000  1
  Co  Co6  1  0.16919953  0.33850629  0.75000000  1
  Co  Co7  1  0.16927062  0.83072938  0.75000000  1
  Co  Co8  1  0.66149371  0.83080047  0.75000000  1
  Co  Co9  1  0.83080047  0.66149371  0.25000000  1
  Co  Co10  1  0.83072938  0.16927062  0.25000000  1
  Co  Co11  1  0.33850629  0.16919953  0.25000000  1
