# generated using pymatgen
data_Na4Ge2PbS6
_symmetry_space_group_name_H-M   'P 1'
_cell_length_a   6.89806937
_cell_length_b   6.89806937
_cell_length_c   7.83642202
_cell_angle_alpha   98.44584041
_cell_angle_beta   98.44584041
_cell_angle_gamma   119.75738592
_symmetry_Int_Tables_number   1
_chemical_formula_structural   Na4Ge2PbS6
_chemical_formula_sum   'Na4 Ge2 Pb1 S6'
_cell_volume   309.53810154
_cell_formula_units_Z   1
loop_
 _symmetry_equiv_pos_site_id
 _symmetry_equiv_pos_as_xyz
  1  'x, y, z'
loop_
 _atom_site_type_symbol
 _atom_site_label
 _atom_site_symmetry_multiplicity
 _atom_site_fract_x
 _atom_site_fract_y
 _atom_site_fract_z
 _atom_site_occupancy
  Na  Na0  1  0.82122836  0.17877164  -0.00000000  1
  Na  Na1  1  0.17887955  0.82112045  -0.00000000  1
  Na  Na2  1  0.49991661  0.50008339  -0.00000000  1
  Na  Na3  1  0.66490379  0.33509621  0.50000000  1
  Ge  Ge4  1  0.05216641  0.05215892  0.66184198  1
  Ge  Ge5  1  0.94784108  0.94783359  0.33815802  1
  Pb  Pb6  1  0.33522729  0.66477271  0.50000000  1
  S  S7  1  0.08285235  0.39317751  0.75126461  1
  S  S8  1  0.39279876  0.08212888  0.75145781  1
  S  S9  1  0.91787112  0.60720124  0.24854219  1
  S  S10  1  0.60682249  0.91714765  0.24873539  1
  S  S11  1  0.77472380  0.77523161  0.75330274  1
  S  S12  1  0.22476839  0.22527620  0.24669726  1
