# generated using pymatgen
data_KNa7V7CrO20
_symmetry_space_group_name_H-M   'P 1'
_cell_length_a   10.89198320
_cell_length_b   11.18966539
_cell_length_c   16.53117134
_cell_angle_alpha   109.80162281
_cell_angle_beta   108.81809831
_cell_angle_gamma   90.02507911
_symmetry_Int_Tables_number   1
_chemical_formula_structural   KNa7V7CrO20
_chemical_formula_sum   'K4 Na28 V28 Cr4 O80'
_cell_volume   1780.65401364
_cell_formula_units_Z   4
loop_
 _symmetry_equiv_pos_site_id
 _symmetry_equiv_pos_as_xyz
  1  'x, y, z'
loop_
 _atom_site_type_symbol
 _atom_site_label
 _atom_site_symmetry_multiplicity
 _atom_site_fract_x
 _atom_site_fract_y
 _atom_site_fract_z
 _atom_site_occupancy
  K  K0  1  0.30572325  0.06370706  0.11185886  1
  K  K1  1  0.80466967  0.06421695  0.11240424  1
  K  K2  1  0.05674106  0.79541055  0.11304505  1
  K  K3  1  0.55557231  0.79699995  0.11400683  1
  Na  Na4  1  0.30408158  0.06754342  0.60741086  1
  Na  Na5  1  0.30113788  0.56605944  0.10447635  1
  Na  Na6  1  0.30378499  0.56751959  0.60755204  1
  Na  Na7  1  0.80429367  0.06769367  0.60755141  1
  Na  Na8  1  0.80318462  0.56483285  0.10436023  1
  Na  Na9  1  0.80425001  0.56742869  0.60767815  1
  Na  Na10  1  0.19754549  0.43403248  0.39389025  1
  Na  Na11  1  0.19608736  0.43340281  0.89300490  1
  Na  Na12  1  0.19752579  0.93315094  0.39511997  1
  Na  Na13  1  0.19837071  0.93309843  0.89361121  1
  Na  Na14  1  0.69772010  0.43400999  0.39405746  1
  Na  Na15  1  0.69945659  0.43443520  0.89415246  1
  Na  Na16  1  0.69754966  0.93315688  0.39518599  1
  Na  Na17  1  0.69708460  0.93342209  0.89280727  1
  Na  Na18  1  0.05365589  0.29067285  0.10508443  1
  Na  Na19  1  0.05422324  0.28988340  0.60759233  1
  Na  Na20  1  0.05428137  0.79009186  0.60770820  1
  Na  Na21  1  0.55311602  0.29017056  0.10463407  1
  Na  Na22  1  0.55441232  0.28960728  0.60737528  1
  Na  Na23  1  0.55407613  0.79015659  0.60745606  1
  Na  Na24  1  0.44765200  0.21198116  0.39514077  1
  Na  Na25  1  0.44815321  0.21060152  0.89361934  1
  Na  Na26  1  0.44750074  0.70968639  0.39369331  1
  Na  Na27  1  0.44556136  0.71062571  0.89293896  1
  Na  Na28  1  0.94761558  0.21210156  0.39523279  1
  Na  Na29  1  0.94912479  0.21184158  0.89347412  1
  Na  Na30  1  0.94766028  0.70983667  0.39387962  1
  Na  Na31  1  0.95045651  0.70925090  0.89367203  1
  V  V32  1  0.00671470  0.99984390  0.50053424  1
  V  V33  1  0.00642385  0.50061821  0.50039414  1
  V  V34  1  0.50651618  0.99965179  0.50017819  1
  V  V35  1  0.50203576  0.49729689  0.99670420  1
  V  V36  1  0.50614938  0.50023871  0.49984004  1
  V  V37  1  0.25378983  0.25031473  0.99732107  1
  V  V38  1  0.25672135  0.25064429  0.50058765  1
  V  V39  1  0.25634395  0.74973662  0.50013116  1
  V  V40  1  0.75585686  0.24938922  0.99657184  1
  V  V41  1  0.75685672  0.25073664  0.50078407  1
  V  V42  1  0.75039742  0.74503954  0.99097906  1
  V  V43  1  0.75627441  0.74966960  0.50010002  1
  V  V44  1  0.11090337  0.09585000  0.25417850  1
  V  V45  1  0.10411074  0.08964884  0.75025094  1
  V  V46  1  0.10417092  0.58624463  0.25020056  1
  V  V47  1  0.10331626  0.58731387  0.74927198  1
  V  V48  1  0.61113620  0.09603476  0.25444652  1
  V  V49  1  0.60367247  0.09019009  0.75016871  1
  V  V50  1  0.60424896  0.58616379  0.25038947  1
  V  V51  1  0.60221967  0.58613524  0.74809022  1
  V  V52  1  0.35390409  0.41350205  0.25038660  1
  V  V53  1  0.35432002  0.40956086  0.75029019  1
  V  V54  1  0.36120339  0.90939497  0.25483451  1
  V  V55  1  0.35407943  0.91155207  0.74970943  1
  V  V56  1  0.85368987  0.41375286  0.25027442  1
  V  V57  1  0.85468182  0.41021829  0.75080864  1
  V  V58  1  0.86151232  0.90942210  0.25502232  1
  V  V59  1  0.85347123  0.91168283  0.74961264  1
  Cr  Cr60  1  0.00142631  0.99882914  0.99513445  1
  Cr  Cr61  1  0.00588860  0.49839835  0.99771059  1
  Cr  Cr62  1  0.50053246  0.99766256  0.99514264  1
  Cr  Cr63  1  0.24554266  0.75216004  0.99358473  1
  O  O64  1  0.11901499  0.11259310  0.48959465  1
  O  O65  1  0.12618631  0.12837206  0.98664894  1
  O  O66  1  0.11901745  0.61238172  0.48901329  1
  O  O67  1  0.13067252  0.61626641  0.98270752  1
  O  O68  1  0.61903941  0.11259748  0.48966766  1
  O  O69  1  0.62716944  0.13259780  0.98767488  1
  O  O70  1  0.61904103  0.61241484  0.48899402  1
  O  O71  1  0.62987423  0.62142459  0.98550528  1
  O  O72  1  0.13976513  0.37257983  0.00802605  1
  O  O73  1  0.14370413  0.37234109  0.51181837  1
  O  O74  1  0.13098220  0.87243917  0.00319383  1
  O  O75  1  0.14435180  0.87170930  0.51189906  1
  O  O76  1  0.63396237  0.37979989  0.00694310  1
  O  O77  1  0.64372649  0.37230911  0.51188448  1
  O  O78  1  0.63451976  0.86624180  0.00021726  1
  O  O79  1  0.64427213  0.87168809  0.51180094  1
  O  O80  1  0.36888683  0.12693242  0.48931147  1
  O  O81  1  0.36896567  0.12516836  0.98592502  1
  O  O82  1  0.36900955  0.62669512  0.48903795  1
  O  O83  1  0.38125913  0.60536002  0.98665070  1
  O  O84  1  0.86895798  0.12704772  0.48950995  1
  O  O85  1  0.86800687  0.12689829  0.98600624  1
  O  O86  1  0.86908384  0.62672758  0.48914199  1
  O  O87  1  0.86776113  0.62113694  0.98562802  1
  O  O88  1  0.38104265  0.37302822  0.00789062  1
  O  O89  1  0.39419642  0.39002348  0.51175379  1
  O  O90  1  0.37877065  0.87018406  0.00183886  1
  O  O91  1  0.39369978  0.88957779  0.51195403  1
  O  O92  1  0.87762627  0.37511508  0.00774892  1
  O  O93  1  0.89426062  0.39006110  0.51178365  1
  O  O94  1  0.87448502  0.87007027  0.00096694  1
  O  O95  1  0.89371705  0.88957970  0.51196843  1
  O  O96  1  0.07257958  0.09502587  0.14014336  1
  O  O97  1  0.08284480  0.09980779  0.64187196  1
  O  O98  1  0.08146745  0.58314285  0.13852724  1
  O  O99  1  0.08238483  0.59957010  0.64121679  1
  O  O100  1  0.57469883  0.09423792  0.14039450  1
  O  O101  1  0.58287874  0.10000578  0.64195642  1
  O  O102  1  0.58334002  0.58351262  0.13904585  1
  O  O103  1  0.58229224  0.59940755  0.64085976  1
  O  O104  1  0.44237612  0.40028923  0.35788191  1
  O  O105  1  0.44267218  0.39770300  0.85743426  1
  O  O106  1  0.44721695  0.89448813  0.36161408  1
  O  O107  1  0.44395982  0.90296567  0.85747584  1
  O  O108  1  0.94212572  0.40014124  0.35751450  1
  O  O109  1  0.94099676  0.39934084  0.85851258  1
  O  O110  1  0.94749089  0.89462822  0.36180527  1
  O  O111  1  0.93954068  0.90294323  0.85786861  1
  O  O112  1  0.33116731  0.30252304  0.13916243  1
  O  O113  1  0.33273649  0.29169790  0.64148899  1
  O  O114  1  0.32505228  0.79642801  0.14214157  1
  O  O115  1  0.33265635  0.79160284  0.64153437  1
  O  O116  1  0.82910293  0.30393373  0.13788033  1
  O  O117  1  0.83288950  0.29183823  0.64203253  1
  O  O118  1  0.82516474  0.79740634  0.14197586  1
  O  O119  1  0.83260335  0.79166958  0.64159128  1
  O  O120  1  0.19687917  0.21676100  0.36106052  1
  O  O121  1  0.19106685  0.20930310  0.85786765  1
  O  O122  1  0.19221544  0.70747389  0.35774080  1
  O  O123  1  0.19082523  0.70650027  0.85603382  1
  O  O124  1  0.69699915  0.21702756  0.36134893  1
  O  O125  1  0.69039342  0.20976049  0.85883755  1
  O  O126  1  0.69237646  0.70753535  0.35788122  1
  O  O127  1  0.69039872  0.70505382  0.85582209  1
  O  O128  1  0.44995148  0.05859652  0.26338959  1
  O  O129  1  0.43285986  0.06072524  0.74954124  1
  O  O130  1  0.43303976  0.56319668  0.25158631  1
  O  O131  1  0.43251125  0.55918263  0.74982856  1
  O  O132  1  0.94990229  0.05871334  0.26348599  1
  O  O133  1  0.93289499  0.06068786  0.74985421  1
  O  O134  1  0.93318254  0.56331371  0.25193462  1
  O  O135  1  0.93258140  0.55916483  0.74975477  1
  O  O136  1  0.18317779  0.43782998  0.25216990  1
  O  O137  1  0.18305357  0.43874410  0.74978925  1
  O  O138  1  0.19969027  0.95595912  0.26357709  1
  O  O139  1  0.18328380  0.94064410  0.75035378  1
  O  O140  1  0.68350019  0.43793255  0.25258317  1
  O  O141  1  0.68273882  0.43899545  0.74957926  1
  O  O142  1  0.70021764  0.95637117  0.26402075  1
  O  O143  1  0.68261243  0.94132856  0.75001414  1
