# generated using pymatgen
data_MgGaCu
_symmetry_space_group_name_H-M   'P 1'
_cell_length_a   5.12014584
_cell_length_b   5.19702887
_cell_length_c   8.36690464
_cell_angle_alpha   90.00000000
_cell_angle_beta   90.00000000
_cell_angle_gamma   120.49209088
_symmetry_Int_Tables_number   1
_chemical_formula_structural   MgGaCu
_chemical_formula_sum   'Mg4 Ga4 Cu4'
_cell_volume   191.84830932
_cell_formula_units_Z   4
loop_
 _symmetry_equiv_pos_site_id
 _symmetry_equiv_pos_as_xyz
  1  'x, y, z'
loop_
 _atom_site_type_symbol
 _atom_site_label
 _atom_site_symmetry_multiplicity
 _atom_site_fract_x
 _atom_site_fract_y
 _atom_site_fract_z
 _atom_site_occupancy
  Mg  Mg0  1  0.66491916  0.33242905  0.56792309  1
  Mg  Mg1  1  0.32803095  0.66405665  0.44912836  1
  Mg  Mg2  1  0.32803095  0.66405665  0.05087164  1
  Mg  Mg3  1  0.66491916  0.33242905  0.93207691  1
  Ga  Ga4  1  0.67155250  0.83577020  0.75000000  1
  Ga  Ga5  1  0.82986596  0.66397388  0.25000000  1
  Ga  Ga6  1  0.82988391  0.16590960  0.25000000  1
  Ga  Ga7  1  0.33585316  0.16791651  0.25000000  1
  Cu  Cu8  1  0.00040536  0.00020601  0.49890485  1
  Cu  Cu9  1  0.00040536  0.00020601  0.00109515  1
  Cu  Cu10  1  0.17305622  0.33885857  0.75000000  1
  Cu  Cu11  1  0.17307731  0.83418783  0.75000000  1
