# generated using pymatgen
data_Mg3ScZn8
_symmetry_space_group_name_H-M   'P 1'
_cell_length_a   5.18408567
_cell_length_b   5.18368047
_cell_length_c   8.66893543
_cell_angle_alpha   89.94908758
_cell_angle_beta   90.05287948
_cell_angle_gamma   119.86335659
_symmetry_Int_Tables_number   1
_chemical_formula_structural   Mg3ScZn8
_chemical_formula_sum   'Mg3 Sc1 Zn8'
_cell_volume   202.02396695
_cell_formula_units_Z   1
loop_
 _symmetry_equiv_pos_site_id
 _symmetry_equiv_pos_as_xyz
  1  'x, y, z'
loop_
 _atom_site_type_symbol
 _atom_site_label
 _atom_site_symmetry_multiplicity
 _atom_site_fract_x
 _atom_site_fract_y
 _atom_site_fract_z
 _atom_site_occupancy
  Mg  Mg0  1  0.33321200  0.66679434  0.43879212  1
  Mg  Mg1  1  0.33333774  0.66666331  0.06044227  1
  Mg  Mg2  1  0.66673332  0.33327825  0.93434324  1
  Sc  Sc3  1  0.66668727  0.33331502  0.56065484  1
  Zn  Zn4  1  0.16937778  0.33879314  0.74951001  1
  Zn  Zn5  1  0.16948924  0.83048139  0.74942449  1
  Zn  Zn6  1  0.66121203  0.83064819  0.74951231  1
  Zn  Zn7  1  0.82969651  0.65938824  0.25034682  1
  Zn  Zn8  1  0.82961540  0.17041307  0.25034642  1
  Zn  Zn9  1  0.34059637  0.17026329  0.25034707  1
  Zn  Zn10  1  0.00012025  0.99989537  0.50149624  1
  Zn  Zn11  1  0.99992208  0.00006639  0.00478417  1
