# generated using pymatgen
data_Mg2Ni3As
_symmetry_space_group_name_H-M   'P 1'
_cell_length_a   5.03354610
_cell_length_b   4.74769481
_cell_length_c   5.03354610
_cell_angle_alpha   90.00000000
_cell_angle_beta   60.00000000
_cell_angle_gamma   122.01249674
_symmetry_Int_Tables_number   1
_chemical_formula_structural   Mg2Ni3As
_chemical_formula_sum   'Mg2 Ni3 As1'
_cell_volume   82.37823120
_cell_formula_units_Z   1
loop_
 _symmetry_equiv_pos_site_id
 _symmetry_equiv_pos_as_xyz
  1  'x, y, z'
loop_
 _atom_site_type_symbol
 _atom_site_label
 _atom_site_symmetry_multiplicity
 _atom_site_fract_x
 _atom_site_fract_y
 _atom_site_fract_z
 _atom_site_occupancy
  Mg  Mg0  1  0.74870098  0.37305147  0.37564951  1
  Mg  Mg1  1  0.25129902  0.62694853  0.62435049  1
  Ni  Ni2  1  0.50000000  0.00000000  0.00000000  1
  Ni  Ni3  1  0.00000000  0.00000000  0.50000000  1
  Ni  Ni4  1  0.00000000  0.00000000  0.00000000  1
  As  As5  1  0.50000000  0.50000000  0.00000000  1
