# generated using pymatgen
data_Na3H5(SeO4)4
_symmetry_space_group_name_H-M   'P 1'
_cell_length_a   6.02056348
_cell_length_b   7.38629685
_cell_length_c   9.17348039
_cell_angle_alpha   104.91410228
_cell_angle_beta   93.10050830
_cell_angle_gamma   105.58143233
_symmetry_Int_Tables_number   1
_chemical_formula_structural   Na3H5(SeO4)4
_chemical_formula_sum   'Na3 H5 Se4 O16'
_cell_volume   376.37042210
_cell_formula_units_Z   1
loop_
 _symmetry_equiv_pos_site_id
 _symmetry_equiv_pos_as_xyz
  1  'x, y, z'
loop_
 _atom_site_type_symbol
 _atom_site_label
 _atom_site_symmetry_multiplicity
 _atom_site_fract_x
 _atom_site_fract_y
 _atom_site_fract_z
 _atom_site_occupancy
  Na  Na0  1  0.80954274  0.63390504  0.08729451  1
  Na  Na1  1  0.19908870  0.37513861  0.92837071  1
  Na  Na2  1  0.97925676  0.99050037  0.49356885  1
  H  H3  1  0.41642711  0.12020549  0.13922874  1
  H  H4  1  0.57996739  0.87856014  0.86289614  1
  H  H5  1  0.85277353  0.62094143  0.62631012  1
  H  H6  1  0.15687437  0.39002840  0.37631432  1
  H  H7  1  0.48728355  0.02968507  0.51346850  1
  Se  Se8  1  0.67040992  0.33280586  0.68348404  1
  Se  Se9  1  0.33938724  0.68211334  0.32524332  1
  Se  Se10  1  0.79875838  0.14371330  0.15484624  1
  Se  Se11  1  0.19774869  0.85497702  0.84329495  1
  O  O12  1  0.88419365  0.32521791  0.07775680  1
  O  O13  1  0.10587232  0.67139549  0.91722164  1
  O  O14  1  0.97992152  0.16888369  0.30651800  1
  O  O15  1  0.02147970  0.83031731  0.68881298  1
  O  O16  1  0.53970710  0.15781047  0.23013161  1
  O  O17  1  0.45851511  0.84222872  0.77100648  1
  O  O18  1  0.43184783  0.15292258  0.57225402  1
  O  O19  1  0.56018940  0.86412777  0.43690228  1
  O  O20  1  0.73945127  0.92285050  0.03087973  1
  O  O21  1  0.25261759  0.07463579  0.96809335  1
  O  O22  1  0.57765132  0.43810479  0.83811028  1
  O  O23  1  0.42682951  0.57405889  0.16788982  1
  O  O24  1  0.73483313  0.48623544  0.56763136  1
  O  O25  1  0.27084076  0.52135318  0.43736238  1
  O  O26  1  0.88319962  0.23658958  0.70111036  1
  O  O27  1  0.11233178  0.76269381  0.30099846  1
