# generated using pymatgen
data_LiTbS2
_symmetry_space_group_name_H-M   'P 1'
_cell_length_a   3.92973899
_cell_length_b   3.92973899
_cell_length_c   6.59440135
_cell_angle_alpha   72.66487445
_cell_angle_beta   90.00000000
_cell_angle_gamma   120.00000000
_symmetry_Int_Tables_number   1
_chemical_formula_structural   LiTbS2
_chemical_formula_sum   'Li1 Tb1 S2'
_cell_volume   82.80864883
_cell_formula_units_Z   1
loop_
 _symmetry_equiv_pos_site_id
 _symmetry_equiv_pos_as_xyz
  1  'x, y, z'
loop_
 _atom_site_type_symbol
 _atom_site_label
 _atom_site_symmetry_multiplicity
 _atom_site_fract_x
 _atom_site_fract_y
 _atom_site_fract_z
 _atom_site_occupancy
  Li  Li0  1  0.00000000  0.00000000  0.00000000  1
  Tb  Tb1  1  0.50000000  0.00000000  0.50000000  1
  S  S2  1  0.25043160  0.50086320  0.24870520  1
  S  S3  1  0.74956840  0.49913680  0.75129480  1
