# generated using pymatgen
data_MnAg2Sn3S8
_symmetry_space_group_name_H-M   'P 1'
_cell_length_a   7.64063380
_cell_length_b   7.66115845
_cell_length_c   7.64578279
_cell_angle_alpha   59.93345875
_cell_angle_beta   60.17889330
_cell_angle_gamma   90.00000000
_symmetry_Int_Tables_number   1
_chemical_formula_structural   MnAg2Sn3S8
_chemical_formula_sum   'Mn1 Ag2 Sn3 S8'
_cell_volume   317.00393180
_cell_formula_units_Z   1
loop_
 _symmetry_equiv_pos_site_id
 _symmetry_equiv_pos_as_xyz
  1  'x, y, z'
loop_
 _atom_site_type_symbol
 _atom_site_label
 _atom_site_symmetry_multiplicity
 _atom_site_fract_x
 _atom_site_fract_y
 _atom_site_fract_z
 _atom_site_occupancy
  Mn  Mn0  1  -0.00000000  0.50000000  0.50000000  1
  Ag  Ag1  1  0.61784898  0.88168654  0.73662692  1
  Ag  Ag2  1  0.38215102  0.11831346  0.26337308  1
  Sn  Sn3  1  0.50000000  0.50000000  0.50000000  1
  Sn  Sn4  1  -0.00000000  0.50000000  0.00000000  1
  Sn  Sn5  1  -0.00000000  -0.00000000  0.00000000  1
  S  S6  1  0.78367521  0.26335466  0.97329068  1
  S  S7  1  0.24499609  0.25578034  0.98843932  1
  S  S8  1  0.76327818  0.28379048  0.47890684  1
  S  S9  1  0.76327818  0.73730268  0.47890684  1
  S  S10  1  0.21632479  0.73664534  0.02670932  1
  S  S11  1  0.75500391  0.74421966  0.01156068  1
  S  S12  1  0.23672182  0.71620952  0.52109316  1
  S  S13  1  0.23672182  0.26269732  0.52109316  1
