# generated using pymatgen
data_Mn2Bi3Sb3O14
_symmetry_space_group_name_H-M   'P 1'
_cell_length_a   7.55822486
_cell_length_b   7.41256627
_cell_length_c   7.55822486
_cell_angle_alpha   90.00000000
_cell_angle_beta   60.00000000
_cell_angle_gamma   120.65218126
_symmetry_Int_Tables_number   1
_chemical_formula_structural   Mn2Bi3Sb3O14
_chemical_formula_sum   'Mn2 Bi3 Sb3 O14'
_cell_volume   296.44284031
_cell_formula_units_Z   1
loop_
 _symmetry_equiv_pos_site_id
 _symmetry_equiv_pos_as_xyz
  1  'x, y, z'
loop_
 _atom_site_type_symbol
 _atom_site_label
 _atom_site_symmetry_multiplicity
 _atom_site_fract_x
 _atom_site_fract_y
 _atom_site_fract_z
 _atom_site_occupancy
  Mn  Mn0  1  0.50000000  0.00000000  0.50000000  1
  Mn  Mn1  1  0.50000000  0.50000000  -0.00000000  1
  Bi  Bi2  1  0.50000000  0.50000000  0.50000000  1
  Bi  Bi3  1  0.00000000  0.50000000  -0.00000000  1
  Bi  Bi4  1  0.00000000  0.50000000  0.50000000  1
  Sb  Sb5  1  0.50000000  0.00000000  -0.00000000  1
  Sb  Sb6  1  0.00000000  0.00000000  0.50000000  1
  Sb  Sb7  1  0.00000000  0.00000000  -0.00000000  1
  O  O8  1  0.86242997  0.94420783  0.31878501  1
  O  O9  1  0.68167380  0.32849929  0.90916310  1
  O  O10  1  0.26299284  0.94420783  0.91822215  1
  O  O11  1  0.23766239  0.32849929  0.35317451  1
  O  O12  1  0.23766239  0.32849929  0.90916310  1
  O  O13  1  0.26299284  0.94420783  0.31878501  1
  O  O14  1  0.13757003  0.05579217  0.68121499  1
  O  O15  1  0.31832620  0.67150071  0.09083690  1
  O  O16  1  0.73700716  0.05579217  0.08177785  1
  O  O17  1  0.76233761  0.67150071  0.64682549  1
  O  O18  1  0.76233761  0.67150071  0.09083690  1
  O  O19  1  0.73700716  0.05579217  0.68121499  1
  O  O20  1  0.72623666  0.33935499  0.38688167  1
  O  O21  1  0.27376334  0.66064501  0.61311833  1
