# generated using pymatgen
data_Na3As4H5O14
_symmetry_space_group_name_H-M   'P 1'
_cell_length_a   9.62951927
_cell_length_b   10.20534279
_cell_length_c   12.07528934
_cell_angle_alpha   90.00000000
_cell_angle_beta   90.00000000
_cell_angle_gamma   90.00000000
_symmetry_Int_Tables_number   1
_chemical_formula_structural   Na3As4H5O14
_chemical_formula_sum   'Na12 As16 H20 O56'
_cell_volume   1186.66941570
_cell_formula_units_Z   4
loop_
 _symmetry_equiv_pos_site_id
 _symmetry_equiv_pos_as_xyz
  1  'x, y, z'
loop_
 _atom_site_type_symbol
 _atom_site_label
 _atom_site_symmetry_multiplicity
 _atom_site_fract_x
 _atom_site_fract_y
 _atom_site_fract_z
 _atom_site_occupancy
  Na  Na0  1  0.12480351  0.17645189  0.35674801  1
  Na  Na1  1  0.13273571  0.33639026  0.64277944  1
  Na  Na2  1  0.36726429  0.16360974  0.14277944  1
  Na  Na3  1  0.37519649  0.32354811  0.85674801  1
  Na  Na4  1  0.86726429  0.83639026  0.64277944  1
  Na  Na5  1  0.87519649  0.67645189  0.35674801  1
  Na  Na6  1  0.62480351  0.82354811  0.85674801  1
  Na  Na7  1  0.63273571  0.66360974  0.14277944  1
  Na  Na8  1  0.24277359  0.78890567  0.25820554  1
  Na  Na9  1  0.25722641  0.71109433  0.75820554  1
  Na  Na10  1  0.74277359  0.21109433  0.75820554  1
  Na  Na11  1  0.75722641  0.28890567  0.25820554  1
  As  As12  1  0.04485445  0.03306347  0.10567762  1
  As  As13  1  0.04584118  0.46511308  0.89151778  1
  As  As14  1  0.45415882  0.03488692  0.39151778  1
  As  As15  1  0.45514555  0.46693653  0.60567762  1
  As  As16  1  0.95415882  0.96511308  0.89151778  1
  As  As17  1  0.95514555  0.53306347  0.10567762  1
  As  As18  1  0.54485445  0.96693653  0.60567762  1
  As  As19  1  0.54584118  0.53488692  0.39151778  1
  As  As20  1  0.72076534  0.03080983  0.06861534  1
  As  As21  1  0.71873059  0.45608586  0.92984076  1
  As  As22  1  0.78126941  0.04391414  0.42984076  1
  As  As23  1  0.77923466  0.46919017  0.56861534  1
  As  As24  1  0.28126941  0.95608586  0.92984076  1
  As  As25  1  0.27923466  0.53080983  0.06861534  1
  As  As26  1  0.22076534  0.96919017  0.56861534  1
  As  As27  1  0.21873059  0.54391414  0.42984076  1
  H  H28  1  0.08499733  0.25792126  0.11316483  1
  H  H29  1  0.08653722  0.24072647  0.88454411  1
  H  H30  1  0.41346278  0.25927353  0.38454411  1
  H  H31  1  0.41500267  0.24207874  0.61316483  1
  H  H32  1  0.91346278  0.74072647  0.88454411  1
  H  H33  1  0.91500267  0.75792126  0.11316483  1
  H  H34  1  0.58499733  0.74207874  0.61316483  1
  H  H35  1  0.58653722  0.75927353  0.38454411  1
  H  H36  1  0.97846925  0.94016046  0.28020728  1
  H  H37  1  0.98190689  0.56702905  0.72166033  1
  H  H38  1  0.51809311  0.93297095  0.22166033  1
  H  H39  1  0.52153075  0.55983954  0.78020728  1
  H  H40  1  0.01809311  0.06702905  0.72166033  1
  H  H41  1  0.02153075  0.44016046  0.28020728  1
  H  H42  1  0.47846925  0.05983954  0.78020728  1
  H  H43  1  0.48190689  0.43297095  0.22166033  1
  H  H44  1  0.61467438  0.22943943  0.01010162  1
  H  H45  1  0.88532562  0.27056057  0.51010162  1
  H  H46  1  0.38532562  0.72943943  0.01010162  1
  H  H47  1  0.11467438  0.77056057  0.51010162  1
  O  O48  1  0.11588686  0.18392733  0.16142074  1
  O  O49  1  0.11863670  0.31436712  0.83642296  1
  O  O50  1  0.38136330  0.18563288  0.33642296  1
  O  O51  1  0.38411314  0.31607267  0.66142074  1
  O  O52  1  0.88136330  0.81436712  0.83642296  1
  O  O53  1  0.88411314  0.68392733  0.16142074  1
  O  O54  1  0.61588686  0.81607267  0.66142074  1
  O  O55  1  0.61863670  0.68563288  0.33642296  1
  O  O56  1  0.64348206  0.89620519  0.11780248  1
  O  O57  1  0.63987302  0.59275974  0.88425178  1
  O  O58  1  0.86012698  0.90724026  0.38425178  1
  O  O59  1  0.85651794  0.60379481  0.61780248  1
  O  O60  1  0.36012698  0.09275974  0.88425178  1
  O  O61  1  0.35651794  0.39620519  0.11780248  1
  O  O62  1  0.14348206  0.10379481  0.61780248  1
  O  O63  1  0.13987302  0.40724026  0.38425178  1
  O  O64  1  0.86058079  0.09329884  0.14640842  1
  O  O65  1  0.86513208  0.40752271  0.85017838  1
  O  O66  1  0.63486792  0.09247729  0.35017838  1
  O  O67  1  0.63941921  0.40670116  0.64640842  1
  O  O68  1  0.13486792  0.90752271  0.85017838  1
  O  O69  1  0.13941921  0.59329884  0.14640842  1
  O  O70  1  0.36058079  0.90670116  0.64640842  1
  O  O71  1  0.36513208  0.59247729  0.35017838  1
  O  O72  1  0.60145073  0.15998952  0.07592975  1
  O  O73  1  0.61490576  0.32069757  0.92054488  1
  O  O74  1  0.88509424  0.17930243  0.42054488  1
  O  O75  1  0.89854927  0.34001048  0.57592975  1
  O  O76  1  0.38509424  0.82069757  0.92054488  1
  O  O77  1  0.39854927  0.65998952  0.07592975  1
  O  O78  1  0.10145073  0.84001048  0.57592975  1
  O  O79  1  0.11490576  0.67930243  0.42054488  1
  O  O80  1  0.22893284  0.97276288  0.06993186  1
  O  O81  1  0.23387564  0.52179505  0.92763223  1
  O  O82  1  0.26612436  0.97820495  0.42763223  1
  O  O83  1  0.27106716  0.52723712  0.56993186  1
  O  O84  1  0.76612436  0.02179505  0.92763223  1
  O  O85  1  0.77106716  0.47276288  0.06993186  1
  O  O86  1  0.72893284  0.02723712  0.56993186  1
  O  O87  1  0.73387564  0.47820495  0.42763223  1
  O  O88  1  0.06692670  0.94893499  0.23595963  1
  O  O89  1  0.07156456  0.55119976  0.76207177  1
  O  O90  1  0.42843544  0.94880024  0.26207177  1
  O  O91  1  0.43307330  0.55106501  0.73595963  1
  O  O92  1  0.92843544  0.05119976  0.76207177  1
  O  O93  1  0.93307330  0.44893499  0.23595963  1
  O  O94  1  0.56692670  0.05106501  0.73595963  1
  O  O95  1  0.57156456  0.44880024  0.26207177  1
  O  O96  1  0.96576764  0.89120188  0.03417606  1
  O  O97  1  0.97149259  0.60806254  0.96420638  1
  O  O98  1  0.52850741  0.89193746  0.46420638  1
  O  O99  1  0.53423236  0.60879812  0.53417606  1
  O  O100  1  0.02850741  0.10806254  0.96420638  1
  O  O101  1  0.03423236  0.39120188  0.03417606  1
  O  O102  1  0.46576764  0.10879812  0.53417606  1
  O  O103  1  0.47149259  0.39193746  0.46420638  1
