# generated using pymatgen
data_LaGa2Pt3
_symmetry_space_group_name_H-M   'P 1'
_cell_length_a   4.08547703
_cell_length_b   5.64646088
_cell_length_c   5.64649233
_cell_angle_alpha   119.99982446
_cell_angle_beta   90.00000000
_cell_angle_gamma   90.00000000
_symmetry_Int_Tables_number   1
_chemical_formula_structural   LaGa2Pt3
_chemical_formula_sum   'La1 Ga2 Pt3'
_cell_volume   112.80523112
_cell_formula_units_Z   1
loop_
 _symmetry_equiv_pos_site_id
 _symmetry_equiv_pos_as_xyz
  1  'x, y, z'
loop_
 _atom_site_type_symbol
 _atom_site_label
 _atom_site_symmetry_multiplicity
 _atom_site_fract_x
 _atom_site_fract_y
 _atom_site_fract_z
 _atom_site_occupancy
  La  La0  1  0.00000000  0.00005795  1.00000000  1
  Ga  Ga1  1  0.00000000  0.33329232  0.66669904  1
  Ga  Ga2  1  0.00000000  0.66659328  0.33330096  1
  Pt  Pt3  1  0.50000000  0.49998676  1.00000000  1
  Pt  Pt4  1  0.50000000  0.49999240  0.50001511  1
  Pt  Pt5  1  0.50000000  0.99997729  0.49998489  1
