# generated using pymatgen
data_La4B4I5
_symmetry_space_group_name_H-M   'P 1'
_cell_length_a   4.36081588
_cell_length_b   9.99765832
_cell_length_c   10.45510701
_cell_angle_alpha   107.92779785
_cell_angle_beta   90.00000000
_cell_angle_gamma   77.40301632
_symmetry_Int_Tables_number   1
_chemical_formula_structural   La4B4I5
_chemical_formula_sum   'La4 B4 I5'
_cell_volume   422.14158939
_cell_formula_units_Z   1
loop_
 _symmetry_equiv_pos_site_id
 _symmetry_equiv_pos_as_xyz
  1  'x, y, z'
loop_
 _atom_site_type_symbol
 _atom_site_label
 _atom_site_symmetry_multiplicity
 _atom_site_fract_x
 _atom_site_fract_y
 _atom_site_fract_z
 _atom_site_occupancy
  La  La0  1  0.48994622  0.02010755  0.25064646  1
  La  La1  1  0.50976178  0.98047644  0.74953465  1
  La  La2  1  0.86471135  0.27057729  0.06718690  1
  La  La3  1  0.13521411  0.72957178  0.93287424  1
  B  B4  1  0.31592645  0.99995147  0.99992008  1
  B  B5  1  0.68412208  0.99995147  0.99992008  1
  B  B6  1  0.00306418  0.99387165  0.90513397  1
  B  B7  1  0.99711288  0.00577425  0.09459532  1
  I  I8  1  0.31348168  0.37303663  0.31946778  1
  I  I9  1  0.68642050  0.62715900  0.68012582  1
  I  I10  1  0.67027478  0.65945044  0.14940521  1
  I  I11  1  0.32929567  0.34140866  0.85192156  1
  I  I12  1  0.98636832  0.02726337  0.50906793  1
