# generated using pymatgen
data_LaCe(SnRu)2
_symmetry_space_group_name_H-M   'P 1'
_cell_length_a   4.84637832
_cell_length_b   5.10474001
_cell_length_c   6.36380023
_cell_angle_alpha   101.64671841
_cell_angle_beta   67.61817598
_cell_angle_gamma   90.00000000
_symmetry_Int_Tables_number   1
_chemical_formula_structural   LaCe(SnRu)2
_chemical_formula_sum   'La1 Ce1 Sn2 Ru2'
_cell_volume   142.06516772
_cell_formula_units_Z   1
loop_
 _symmetry_equiv_pos_site_id
 _symmetry_equiv_pos_as_xyz
  1  'x, y, z'
loop_
 _atom_site_type_symbol
 _atom_site_label
 _atom_site_symmetry_multiplicity
 _atom_site_fract_x
 _atom_site_fract_y
 _atom_site_fract_z
 _atom_site_occupancy
  La  La0  1  0.87162657  0.31959122  0.25674686  1
  Ce  Ce1  1  0.13657907  0.67320493  0.72684187  1
  Sn  Sn2  1  0.41304697  0.80635920  0.17390607  1
  Sn  Sn3  1  0.58629688  0.19113211  0.82740623  1
  Ru  Ru4  1  0.18550232  0.15820749  0.62899537  1
  Ru  Ru5  1  0.80694820  0.85150506  0.38610361  1
