# generated using pymatgen
data_LuGa2Ni3
_symmetry_space_group_name_H-M   'P 1'
_cell_length_a   4.06560546
_cell_length_b   8.69695533
_cell_length_c   8.69695490
_cell_angle_alpha   60.03495884
_cell_angle_beta   90.00000000
_cell_angle_gamma   90.00000000
_symmetry_Int_Tables_number   1
_chemical_formula_structural   LuGa2Ni3
_chemical_formula_sum   'Lu3 Ga6 Ni9'
_cell_volume   266.40550850
_cell_formula_units_Z   3
loop_
 _symmetry_equiv_pos_site_id
 _symmetry_equiv_pos_as_xyz
  1  'x, y, z'
loop_
 _atom_site_type_symbol
 _atom_site_label
 _atom_site_symmetry_multiplicity
 _atom_site_fract_x
 _atom_site_fract_y
 _atom_site_fract_z
 _atom_site_occupancy
  Lu  Lu0  1  0.50000000  0.33329264  0.33322967  1
  Lu  Lu1  1  0.50000000  0.66677033  0.66670736  1
  Lu  Lu2  1  0.00000000  0.00001072  0.99998928  1
  Ga  Ga3  1  0.00000000  0.51489416  0.48510584  1
  Ga  Ga4  1  0.00000000  0.48503581  0.00003614  1
  Ga  Ga5  1  0.00000000  0.99996386  0.51496419  1
  Ga  Ga6  1  0.50000000  0.27116275  0.72883725  1
  Ga  Ga7  1  0.50000000  0.72882733  0.99991760  1
  Ga  Ga8  1  0.50000000  0.00008240  0.27117267  1
  Ni  Ni9  1  0.00000000  0.17673847  0.19573849  1
  Ni  Ni10  1  0.00000000  0.19564730  0.62775975  1
  Ni  Ni11  1  -0.00000000  0.62780396  0.17675404  1
  Ni  Ni12  1  -0.00000000  0.80426151  0.82326153  1
  Ni  Ni13  1  -0.00000000  0.37224025  0.80435270  1
  Ni  Ni14  1  -0.00000000  0.82324596  0.37219604  1
  Ni  Ni15  1  0.50000000  0.70461806  0.29538194  1
  Ni  Ni16  1  0.50000000  0.29533104  0.00002655  1
  Ni  Ni17  1  0.50000000  -0.00002655  0.70466896  1
