# generated using pymatgen
data_SrCa7Fe2(CoO4)6
_symmetry_space_group_name_H-M   'P 1'
_cell_length_a   7.60028452
_cell_length_b   7.60028452
_cell_length_c   7.64712034
_cell_angle_alpha   90.00000000
_cell_angle_beta   90.00000000
_cell_angle_gamma   89.90377412
_symmetry_Int_Tables_number   1
_chemical_formula_structural   SrCa7Fe2(CoO4)6
_chemical_formula_sum   'Sr1 Ca7 Fe2 Co6 O24'
_cell_volume   441.73011998
_cell_formula_units_Z   1
loop_
 _symmetry_equiv_pos_site_id
 _symmetry_equiv_pos_as_xyz
  1  'x, y, z'
loop_
 _atom_site_type_symbol
 _atom_site_label
 _atom_site_symmetry_multiplicity
 _atom_site_fract_x
 _atom_site_fract_y
 _atom_site_fract_z
 _atom_site_occupancy
  Sr  Sr0  1  0.75214067  0.24785933  0.75000000  1
  Ca  Ca1  1  0.24536363  0.24516764  0.25000000  1
  Ca  Ca2  1  0.24556572  0.24525874  0.75000000  1
  Ca  Ca3  1  0.24524781  0.75475219  0.25000000  1
  Ca  Ca4  1  0.24544730  0.75455270  0.75000000  1
  Ca  Ca5  1  0.75472544  0.24527456  0.25000000  1
  Ca  Ca6  1  0.75483236  0.75463637  0.25000000  1
  Ca  Ca7  1  0.75474126  0.75443428  0.75000000  1
  Fe  Fe8  1  0.00079494  0.99920506  0.00064363  1
  Fe  Fe9  1  0.00079494  0.99920506  0.49935637  1
  Co  Co10  1  0.00095925  0.50068476  0.00093065  1
  Co  Co11  1  0.00095925  0.50068476  0.49906935  1
  Co  Co12  1  0.49931524  0.99904075  0.00093065  1
  Co  Co13  1  0.49931524  0.99904075  0.49906935  1
  Co  Co14  1  0.49904886  0.50095114  0.00096264  1
  Co  Co15  1  0.49904886  0.50095114  0.49903736  1
  O  O16  1  0.25127926  0.99887705  0.00097729  1
  O  O17  1  0.25127926  0.99887705  0.49902271  1
  O  O18  1  0.24325562  0.50078930  0.00079076  1
  O  O19  1  0.24325562  0.50078930  0.49920924  1
  O  O20  1  0.74887120  0.99663651  0.00380911  1
  O  O21  1  0.74887120  0.99663651  0.49619089  1
  O  O22  1  0.75719049  0.50334367  0.00329141  1
  O  O23  1  0.75719049  0.50334367  0.49670859  1
  O  O24  1  0.00336349  0.25112880  0.00380911  1
  O  O25  1  0.00336349  0.25112880  0.49619089  1
  O  O26  1  0.00112295  0.74872074  0.00097729  1
  O  O27  1  0.00112295  0.74872074  0.49902271  1
  O  O28  1  0.49665633  0.24280951  0.00329141  1
  O  O29  1  0.49665633  0.24280951  0.49670859  1
  O  O30  1  0.49921070  0.75674438  0.00079076  1
  O  O31  1  0.49921070  0.75674438  0.49920924  1
  O  O32  1  0.00113436  0.99886564  0.25000000  1
  O  O33  1  0.00327062  0.99672938  0.75000000  1
  O  O34  1  0.00105100  0.50089885  0.25000000  1
  O  O35  1  0.00376240  0.50461468  0.75000000  1
  O  O36  1  0.49910115  0.99894900  0.25000000  1
  O  O37  1  0.49538532  0.99623760  0.75000000  1
  O  O38  1  0.49933507  0.50066493  0.25000000  1
  O  O39  1  0.49675927  0.50324073  0.75000000  1
