# generated using pymatgen
data_Li2GaCu3
_symmetry_space_group_name_H-M   'P 1'
_cell_length_a   4.93853160
_cell_length_b   4.93853160
_cell_length_c   4.85883694
_cell_angle_alpha   90.00000000
_cell_angle_beta   59.45592651
_cell_angle_gamma   120.00000000
_symmetry_Int_Tables_number   1
_chemical_formula_structural   Li2GaCu3
_chemical_formula_sum   'Li2 Ga1 Cu3'
_cell_volume   83.09829619
_cell_formula_units_Z   1
loop_
 _symmetry_equiv_pos_site_id
 _symmetry_equiv_pos_as_xyz
  1  'x, y, z'
loop_
 _atom_site_type_symbol
 _atom_site_label
 _atom_site_symmetry_multiplicity
 _atom_site_fract_x
 _atom_site_fract_y
 _atom_site_fract_z
 _atom_site_occupancy
  Li  Li0  1  0.49999456  0.74999728  0.75000817  1
  Li  Li1  1  0.00000544  0.00000272  -0.00000817  1
  Ga  Ga2  1  0.75000000  0.37500000  0.87500000  1
  Cu  Cu3  1  0.25000000  0.37500000  0.37500000  1
  Cu  Cu4  1  0.25000000  0.87500000  0.37500000  1
  Cu  Cu5  1  0.75000000  0.37500000  0.37500000  1
