# generated using pymatgen
data_LiGaBH3O5
_symmetry_space_group_name_H-M   'P 1'
_cell_length_a   4.87432868
_cell_length_b   4.86574947
_cell_length_c   12.84690741
_cell_angle_alpha   89.89324288
_cell_angle_beta   89.78686137
_cell_angle_gamma   59.94165172
_symmetry_Int_Tables_number   1
_chemical_formula_structural   LiGaBH3O5
_chemical_formula_sum   'Li2 Ga2 B2 H6 O10'
_cell_volume   263.71518000
_cell_formula_units_Z   2
loop_
 _symmetry_equiv_pos_site_id
 _symmetry_equiv_pos_as_xyz
  1  'x, y, z'
loop_
 _atom_site_type_symbol
 _atom_site_label
 _atom_site_symmetry_multiplicity
 _atom_site_fract_x
 _atom_site_fract_y
 _atom_site_fract_z
 _atom_site_occupancy
  Li  Li0  1  0.00020495  0.00061928  0.15524165  1
  Li  Li1  1  0.00082423  0.99938072  0.65524165  1
  Ga  Ga2  1  0.66663214  0.66663495  0.26778696  1
  Ga  Ga3  1  0.33326709  0.33336505  0.76778696  1
  B  B4  1  0.33281718  0.33348974  0.21751243  1
  B  B5  1  0.66630692  0.66651026  0.71751243  1
  H  H6  1  0.47222253  0.76386700  0.44021459  1
  H  H7  1  0.23608953  0.23613300  0.94021459  1
  H  H8  1  0.11181092  0.78555347  0.96600080  1
  H  H9  1  0.78538187  0.11234975  0.96604664  1
  H  H10  1  0.89736439  0.21444653  0.46600080  1
  H  H11  1  0.89773162  0.88765025  0.46604664  1
  O  O12  1  0.00014958  0.00090829  0.99694905  1
  O  O13  1  0.00105787  0.99909171  0.49694905  1
  O  O14  1  0.69034681  0.65622231  0.41210651  1
  O  O15  1  0.34656912  0.34377768  0.91210651  1
  O  O16  1  0.33907120  0.04667752  0.21664405  1
  O  O17  1  0.04643663  0.61377251  0.21724211  1
  O  O18  1  0.61247997  0.34039762  0.21614521  1
  O  O19  1  0.38574871  0.95332248  0.71664405  1
  O  O20  1  0.66020914  0.38622749  0.71724211  1
  O  O21  1  0.95287759  0.65960238  0.71614521  1
