# generated using pymatgen
data_Lu4Hf3O12
_symmetry_space_group_name_H-M   'P 1'
_cell_length_a   6.29437345
_cell_length_b   6.29425605
_cell_length_c   6.29551341
_cell_angle_alpha   99.62792644
_cell_angle_beta   99.36193687
_cell_angle_gamma   98.91156413
_symmetry_Int_Tables_number   1
_chemical_formula_structural   Lu4Hf3O12
_chemical_formula_sum   'Lu4 Hf3 O12'
_cell_volume   238.33987372
_cell_formula_units_Z   1
loop_
 _symmetry_equiv_pos_site_id
 _symmetry_equiv_pos_as_xyz
  1  'x, y, z'
loop_
 _atom_site_type_symbol
 _atom_site_label
 _atom_site_symmetry_multiplicity
 _atom_site_fract_x
 _atom_site_fract_y
 _atom_site_fract_z
 _atom_site_occupancy
  Lu  Lu0  1  0.85907229  0.38989492  0.69371206  1
  Lu  Lu1  1  0.60934354  0.31360216  0.13889834  1
  Lu  Lu2  1  0.31058946  0.13952177  0.60812853  1
  Lu  Lu3  1  0.13758420  0.61017394  0.30943778  1
  Hf  Hf4  1  0.00088214  0.99886263  0.99756064  1
  Hf  Hf5  1  0.38789380  0.68967576  0.85782243  1
  Hf  Hf6  1  0.69507276  0.86240086  0.38526400  1
  O  O7  1  0.68143513  0.90448016  0.05219177  1
  O  O8  1  0.90585791  0.04081950  0.67964411  1
  O  O9  1  0.06948517  0.68275446  0.92226332  1
  O  O10  1  0.31805434  0.07074046  0.94266969  1
  O  O11  1  0.06418118  0.94541946  0.32013510  1
  O  O12  1  0.94581600  0.31427570  0.07886236  1
  O  O13  1  0.18107366  0.43686818  0.59122597  1
  O  O14  1  0.43335430  0.60399485  0.17681064  1
  O  O15  1  0.58433833  0.16610902  0.42204790  1
  O  O16  1  0.81337544  0.58078344  0.42010553  1
  O  O17  1  0.56549730  0.43206914  0.82167634  1
  O  O18  1  0.43709306  0.81755359  0.58154348  1
