# generated using pymatgen
data_La4SnSb2
_symmetry_space_group_name_H-M   'P 1'
_cell_length_a   8.41094727
_cell_length_b   8.41094727
_cell_length_c   8.41094727
_cell_angle_alpha   70.42090573
_cell_angle_beta   70.74431188
_cell_angle_gamma   109.57909427
_symmetry_Int_Tables_number   1
_chemical_formula_structural   La4SnSb2
_chemical_formula_sum   'La8 Sn2 Sb4'
_cell_volume   458.04509163
_cell_formula_units_Z   2
loop_
 _symmetry_equiv_pos_site_id
 _symmetry_equiv_pos_as_xyz
  1  'x, y, z'
loop_
 _atom_site_type_symbol
 _atom_site_label
 _atom_site_symmetry_multiplicity
 _atom_site_fract_x
 _atom_site_fract_y
 _atom_site_fract_z
 _atom_site_occupancy
  La  La0  1  0.85444585  0.35481327  0.14487300  1
  La  La1  1  0.50031373  0.14518673  0.00036742  1
  La  La2  1  0.64555415  0.50068115  0.49963258  1
  La  La3  1  0.99968627  0.99931885  0.35512700  1
  La  La4  1  0.49963258  0.64518673  0.99968627  1
  La  La5  1  0.35512700  0.85481327  0.64555415  1
  La  La6  1  0.14487300  0.49931885  0.50031373  1
  La  La7  1  0.00036742  0.00068115  0.85444585  1
  Sn  Sn8  1  0.37500000  0.25000000  0.37500000  1
  Sn  Sn9  1  0.12500000  0.75000000  0.12500000  1
  Sb  Sb10  1  0.87465896  0.62465896  0.75000000  1
  Sb  Sb11  1  0.62534104  0.87534104  0.25000000  1
  Sb  Sb12  1  0.75000000  0.12465896  0.62534104  1
  Sb  Sb13  1  0.25000000  0.37534104  0.87465896  1
