# generated using pymatgen
data_KNa(MoO3)2
_symmetry_space_group_name_H-M   'P 1'
_cell_length_a   7.97038472
_cell_length_b   7.97038472
_cell_length_c   7.91316579
_cell_angle_alpha   90.00000000
_cell_angle_beta   90.00000000
_cell_angle_gamma   90.00000000
_symmetry_Int_Tables_number   1
_chemical_formula_structural   KNa(MoO3)2
_chemical_formula_sum   'K4 Na4 Mo8 O24'
_cell_volume   502.69994099
_cell_formula_units_Z   4
loop_
 _symmetry_equiv_pos_site_id
 _symmetry_equiv_pos_as_xyz
  1  'x, y, z'
loop_
 _atom_site_type_symbol
 _atom_site_label
 _atom_site_symmetry_multiplicity
 _atom_site_fract_x
 _atom_site_fract_y
 _atom_site_fract_z
 _atom_site_occupancy
  K  K0  1  0.25000000  0.25000000  0.25000000  1
  K  K1  1  0.25000000  0.75000000  0.25000000  1
  K  K2  1  0.75000000  0.25000000  0.25000000  1
  K  K3  1  0.75000000  0.75000000  0.25000000  1
  Na  Na4  1  0.25000000  0.25000000  0.75000000  1
  Na  Na5  1  0.25000000  0.75000000  0.75000000  1
  Na  Na6  1  0.75000000  0.25000000  0.75000000  1
  Na  Na7  1  0.75000000  0.75000000  0.75000000  1
  Mo  Mo8  1  0.00000000  -0.00000000  0.99810037  1
  Mo  Mo9  1  -0.00000000  0.00000000  0.50189963  1
  Mo  Mo10  1  0.00000000  0.50000000  0.99810037  1
  Mo  Mo11  1  -0.00000000  0.50000000  0.50189963  1
  Mo  Mo12  1  0.50000000  0.00000000  0.99810037  1
  Mo  Mo13  1  0.50000000  -0.00000000  0.50189963  1
  Mo  Mo14  1  0.50000000  0.50000000  0.99810037  1
  Mo  Mo15  1  0.50000000  0.50000000  0.50189963  1
  O  O16  1  0.25000000  -0.00000000  0.99590353  1
  O  O17  1  0.25000000  -0.00000000  0.50409647  1
  O  O18  1  0.25000000  0.50000000  0.99590353  1
  O  O19  1  0.25000000  0.50000000  0.50409647  1
  O  O20  1  0.75000000  0.00000000  0.99590353  1
  O  O21  1  0.75000000  -0.00000000  0.50409647  1
  O  O22  1  0.75000000  0.50000000  0.99590353  1
  O  O23  1  0.75000000  0.50000000  0.50409647  1
  O  O24  1  -0.00000000  0.25000000  0.99590353  1
  O  O25  1  0.00000000  0.25000000  0.50409647  1
  O  O26  1  -0.00000000  0.75000000  0.99590353  1
  O  O27  1  0.00000000  0.75000000  0.50409647  1
  O  O28  1  0.50000000  0.25000000  0.99590353  1
  O  O29  1  0.50000000  0.25000000  0.50409647  1
  O  O30  1  0.50000000  0.75000000  0.99590353  1
  O  O31  1  0.50000000  0.75000000  0.50409647  1
  O  O32  1  0.00000000  -0.00000000  0.25000000  1
  O  O33  1  0.00000000  0.00000000  0.75000000  1
  O  O34  1  -0.00000000  0.50000000  0.25000000  1
  O  O35  1  -0.00000000  0.50000000  0.75000000  1
  O  O36  1  0.50000000  -0.00000000  0.25000000  1
  O  O37  1  0.50000000  -0.00000000  0.75000000  1
  O  O38  1  0.50000000  0.50000000  0.25000000  1
  O  O39  1  0.50000000  0.50000000  0.75000000  1
