# generated using pymatgen
data_KMg3GaSi3(HO6)2
_symmetry_space_group_name_H-M   'P 1'
_cell_length_a   5.37700610
_cell_length_b   5.36900001
_cell_length_c   10.74985931
_cell_angle_alpha   94.66870513
_cell_angle_beta   94.89252209
_cell_angle_gamma   120.01261971
_symmetry_Int_Tables_number   1
_chemical_formula_structural   KMg3GaSi3(HO6)2
_chemical_formula_sum   'K1 Mg3 Ga1 Si3 H2 O12'
_cell_volume   264.96609917
_cell_formula_units_Z   1
loop_
 _symmetry_equiv_pos_site_id
 _symmetry_equiv_pos_as_xyz
  1  'x, y, z'
loop_
 _atom_site_type_symbol
 _atom_site_label
 _atom_site_symmetry_multiplicity
 _atom_site_fract_x
 _atom_site_fract_y
 _atom_site_fract_z
 _atom_site_occupancy
  K  K0  1  0.00781753  0.00834218  0.02475879  1
  Mg  Mg1  1  0.16315609  0.82854409  0.49558242  1
  Mg  Mg2  1  0.82944497  0.16382629  0.49605153  1
  Mg  Mg3  1  0.50321065  0.50248870  0.49588595  1
  Ga  Ga4  1  0.41026107  0.74424104  0.23559966  1
  Si  Si5  1  0.74223017  0.40848992  0.22964538  1
  Si  Si6  1  0.58805273  0.25657416  0.76094970  1
  Si  Si7  1  0.25146900  0.58661495  0.76084662  1
  H  H8  1  0.11096790  0.11110658  0.31442478  1
  H  H9  1  0.90121502  0.89153038  0.69299916  1
  O  O10  1  0.13603037  0.13675755  0.40574505  1
  O  O11  1  0.87109156  0.86473914  0.60190634  1
  O  O12  1  0.47345784  0.45129834  0.17374252  1
  O  O13  1  0.45950616  0.46132843  0.81814220  1
  O  O14  1  0.46720860  0.80268206  0.40750173  1
  O  O15  1  0.79551072  0.46105302  0.38701254  1
  O  O16  1  0.54123919  0.21096281  0.60900319  1
  O  O17  1  0.19552025  0.53188859  0.60894087  1
  O  O18  1  0.66065753  0.07844990  0.17242468  1
  O  O19  1  0.03365752  0.63814038  0.17249625  1
  O  O20  1  0.41871822  0.94007374  0.81647305  1
  O  O21  1  0.93957692  0.42086774  0.81986759  1
