# generated using pymatgen
data_KNa2WN3
_symmetry_space_group_name_H-M   'P 1'
_cell_length_a   6.30495369
_cell_length_b   12.21146094
_cell_length_c   12.53420819
_cell_angle_alpha   90.00000000
_cell_angle_beta   90.00000000
_cell_angle_gamma   90.00000000
_symmetry_Int_Tables_number   1
_chemical_formula_structural   KNa2WN3
_chemical_formula_sum   'K8 Na16 W8 N24'
_cell_volume   965.04247719
_cell_formula_units_Z   8
loop_
 _symmetry_equiv_pos_site_id
 _symmetry_equiv_pos_as_xyz
  1  'x, y, z'
loop_
 _atom_site_type_symbol
 _atom_site_label
 _atom_site_symmetry_multiplicity
 _atom_site_fract_x
 _atom_site_fract_y
 _atom_site_fract_z
 _atom_site_occupancy
  K  K0  1  0.37686010  0.24925010  0.69827674  1
  K  K1  1  0.62313990  0.74925010  0.30172326  1
  K  K2  1  0.37686010  0.74925010  0.80172326  1
  K  K3  1  0.62313990  0.24925010  0.19827674  1
  K  K4  1  0.94129804  0.49721783  0.01036812  1
  K  K5  1  0.05870196  0.99721783  0.98963188  1
  K  K6  1  0.05870196  0.49721783  0.51036812  1
  K  K7  1  0.94129804  0.99721783  0.48963188  1
  Na  Na8  1  0.84766067  0.24897237  0.61942592  1
  Na  Na9  1  0.15233933  0.74897237  0.38057408  1
  Na  Na10  1  0.84766067  0.74897237  0.88057408  1
  Na  Na11  1  0.15233933  0.24897237  0.11942592  1
  Na  Na12  1  0.51278254  0.37550483  0.96358852  1
  Na  Na13  1  0.48721746  0.87550483  0.03641148  1
  Na  Na14  1  0.54223276  0.62287364  0.53504389  1
  Na  Na15  1  0.45776724  0.12287364  0.46495611  1
  Na  Na16  1  0.45776724  0.62287364  0.03504389  1
  Na  Na17  1  0.54223276  0.12287364  0.96495611  1
  Na  Na18  1  0.48721746  0.37550483  0.46358852  1
  Na  Na19  1  0.51278254  0.87550483  0.53641148  1
  Na  Na20  1  0.23211299  0.50029570  0.76068504  1
  Na  Na21  1  0.76788701  0.00029570  0.23931496  1
  Na  Na22  1  0.76788701  0.50029570  0.26068504  1
  Na  Na23  1  0.23211299  0.00029570  0.73931496  1
  W  W24  1  0.97592579  0.25053809  0.88051871  1
  W  W25  1  0.02407421  0.75053809  0.11948129  1
  W  W26  1  0.97592579  0.75053809  0.61948129  1
  W  W27  1  0.02407421  0.25053809  0.38051871  1
  W  W28  1  0.72472171  0.49975239  0.74937683  1
  W  W29  1  0.27527829  0.99975239  0.25062317  1
  W  W30  1  0.27527829  0.49975239  0.24937683  1
  W  W31  1  0.72472171  0.99975239  0.75062317  1
  N  N32  1  0.91201537  0.38116194  0.79528715  1
  N  N33  1  0.08798463  0.88116194  0.20471285  1
  N  N34  1  0.90609830  0.61900470  0.70128065  1
  N  N35  1  0.09390170  0.11900470  0.29871935  1
  N  N36  1  0.09390170  0.61900470  0.20128065  1
  N  N37  1  0.90609830  0.11900470  0.79871935  1
  N  N38  1  0.08798463  0.38116194  0.29528715  1
  N  N39  1  0.91201537  0.88116194  0.70471285  1
  N  N40  1  0.82924516  0.25434590  0.00667862  1
  N  N41  1  0.17075484  0.75434590  0.99332138  1
  N  N42  1  0.82924516  0.75434590  0.49332138  1
  N  N43  1  0.17075484  0.25434590  0.50667862  1
  N  N44  1  0.54534719  0.45327790  0.64246230  1
  N  N45  1  0.45465281  0.95327790  0.35753770  1
  N  N46  1  0.56057951  0.54763570  0.86162958  1
  N  N47  1  0.43942049  0.04763570  0.13837042  1
  N  N48  1  0.43942049  0.54763570  0.36162958  1
  N  N49  1  0.56057951  0.04763570  0.63837042  1
  N  N50  1  0.45465281  0.45327790  0.14246230  1
  N  N51  1  0.54534719  0.95327790  0.85753770  1
  N  N52  1  0.25742024  0.24536891  0.91598093  1
  N  N53  1  0.74257976  0.74536891  0.08401907  1
  N  N54  1  0.25742024  0.74536891  0.58401907  1
  N  N55  1  0.74257976  0.24536891  0.41598093  1
