# generated using pymatgen
data_KCrSnS4
_symmetry_space_group_name_H-M   'P 1'
_cell_length_a   3.68375563
_cell_length_b   7.89862776
_cell_length_c   6.27876189
_cell_angle_alpha   74.48587216
_cell_angle_beta   90.00000647
_cell_angle_gamma   90.00000264
_symmetry_Int_Tables_number   1
_chemical_formula_structural   KCrSnS4
_chemical_formula_sum   'K1 Cr1 Sn1 S4'
_cell_volume   176.03429175
_cell_formula_units_Z   1
loop_
 _symmetry_equiv_pos_site_id
 _symmetry_equiv_pos_as_xyz
  1  'x, y, z'
loop_
 _atom_site_type_symbol
 _atom_site_label
 _atom_site_symmetry_multiplicity
 _atom_site_fract_x
 _atom_site_fract_y
 _atom_site_fract_z
 _atom_site_occupancy
  K  K0  1  0.50000000  0.49570592  0.65878920  1
  Cr  Cr1  1  0.50000000  0.00423315  0.50108651  1
  Sn  Sn2  1  1.00000000  0.99630567  0.00223367  1
  S  S3  1  0.00000000  0.82718798  0.41307769  1
  S  S4  1  0.50000000  0.81442837  0.87724425  1
  S  S5  1  1.00000000  0.17759058  0.59406143  1
  S  S6  1  0.50000000  0.18366832  0.12046724  1
