# generated using pymatgen
data_KNaCaMg5Si8(O11F)2
_symmetry_space_group_name_H-M   'P 1'
_cell_length_a   5.31987727
_cell_length_b   10.10378846
_cell_length_c   10.39431761
_cell_angle_alpha   60.92946593
_cell_angle_beta   82.94308161
_cell_angle_gamma   75.35928581
_symmetry_Int_Tables_number   1
_chemical_formula_structural   KNaCaMg5Si8(O11F)2
_chemical_formula_sum   'K1 Na1 Ca1 Mg5 Si8 O22 F2'
_cell_volume   472.46393962
_cell_formula_units_Z   1
loop_
 _symmetry_equiv_pos_site_id
 _symmetry_equiv_pos_as_xyz
  1  'x, y, z'
loop_
 _atom_site_type_symbol
 _atom_site_label
 _atom_site_symmetry_multiplicity
 _atom_site_fract_x
 _atom_site_fract_y
 _atom_site_fract_z
 _atom_site_occupancy
  K  K0  1  0.97494600  0.51387524  0.99847060  1
  Na  Na1  1  0.49999951  0.72338912  0.55287904  1
  Ca  Ca2  1  0.49999963  0.27640372  0.44664581  1
  Mg  Mg3  1  0.49982708  0.90935383  0.18192295  1
  Mg  Mg4  1  0.49972704  0.08913054  0.82261206  1
  Mg  Mg5  1  0.00012346  0.81841567  0.36325876  1
  Mg  Mg6  1  0.00005476  0.17755748  0.64509786  1
  Mg  Mg7  1  0.99984063  0.00013849  0.00055111  1
  Si  Si8  1  0.80466377  0.54486319  0.34352024  1
  Si  Si9  1  0.19535649  0.11221545  0.34292453  1
  Si  Si10  1  0.19633357  0.45753256  0.65671806  1
  Si  Si11  1  0.80370965  0.88627503  0.65622356  1
  Si  Si12  1  0.29907834  0.64086351  0.16930838  1
  Si  Si13  1  0.70102166  0.19021146  0.16905483  1
  Si  Si14  1  0.70005103  0.36078594  0.82976678  1
  Si  Si15  1  0.30004388  0.80979276  0.82958043  1
  O  O16  1  0.72864396  0.71372205  0.33531075  1
  O  O17  1  0.27111070  0.95109707  0.33539449  1
  O  O18  1  0.27544067  0.28795050  0.65902839  1
  O  O19  1  0.72438557  0.05305909  0.65912220  1
  O  O20  1  0.59083421  0.53925743  0.23725611  1
  O  O21  1  0.40991706  0.22332054  0.23768152  1
  O  O22  1  0.40714723  0.45631879  0.76589161  1
  O  O23  1  0.59363861  0.77756651  0.76630941  1
  O  O24  1  0.21895411  0.80518450  0.16990626  1
  O  O25  1  0.78102549  0.02504522  0.16984784  1
  O  O26  1  0.78157209  0.19521412  0.82908442  1
  O  O27  1  0.21848329  0.97581403  0.82901233  1
  O  O28  1  0.09694382  0.52466502  0.26101210  1
  O  O29  1  0.90260756  0.21440274  0.26131526  1
  O  O30  1  0.90807211  0.47135495  0.74153493  1
  O  O31  1  0.09152247  0.78719445  0.74180727  1
  O  O32  1  0.79694816  0.38740397  0.49393055  1
  O  O33  1  0.20287237  0.11849017  0.49395733  1
  O  O34  1  0.20074047  0.60797350  0.50232250  1
  O  O35  1  0.79900827  0.88947730  0.50234556  1
  O  O36  1  0.30516319  0.66609547  0.00006666  1
  O  O37  1  0.69647184  0.33391848  0.00007993  1
  F  F38  1  0.71355648  0.90031028  0.99961163  1
  F  F39  1  0.28716380  0.09935983  0.99963592  1
