# generated using pymatgen
data_KNi2H3(SeO5)2
_symmetry_space_group_name_H-M   'P 1'
_cell_length_a   5.59494623
_cell_length_b   5.59494623
_cell_length_c   8.00887504
_cell_angle_alpha   71.19170131
_cell_angle_beta   71.19170131
_cell_angle_gamma   70.91709812
_symmetry_Int_Tables_number   1
_chemical_formula_structural   KNi2H3(SeO5)2
_chemical_formula_sum   'K1 Ni2 H3 Se2 O10'
_cell_volume   217.57854657
_cell_formula_units_Z   1
loop_
 _symmetry_equiv_pos_site_id
 _symmetry_equiv_pos_as_xyz
  1  'x, y, z'
loop_
 _atom_site_type_symbol
 _atom_site_label
 _atom_site_symmetry_multiplicity
 _atom_site_fract_x
 _atom_site_fract_y
 _atom_site_fract_z
 _atom_site_occupancy
  K  K0  1  0.50028353  0.50028353  0.50080205  1
  Ni  Ni1  1  0.99185112  0.50050287  0.99862303  1
  Ni  Ni2  1  0.50050287  0.99185112  0.99862303  1
  H  H3  1  0.68261727  0.68261727  0.79839281  1
  H  H4  1  0.30793382  0.30793382  0.20910153  1
  H  H5  1  0.47615974  0.47615974  0.01364800  1
  Se  Se6  1  0.92214651  0.92214651  0.27336239  1
  Se  Se7  1  0.07642606  0.07642606  0.72699481  1
  O  O8  1  0.80443518  0.80443518  0.49062502  1
  O  O9  1  0.19439197  0.19439197  0.51041077  1
  O  O10  1  0.24854759  0.82160161  0.22203093  1
  O  O11  1  0.82160161  0.24854759  0.22203093  1
  O  O12  1  0.74953559  0.17643610  0.78001274  1
  O  O13  1  0.17643610  0.74953559  0.78001274  1
  O  O14  1  0.64533540  0.64533540  0.93051195  1
  O  O15  1  0.34554090  0.34554090  0.07606634  1
  O  O16  1  0.80784277  0.80784277  0.14661745  1
  O  O17  1  0.19141197  0.19141197  0.85313349  1
