# generated using pymatgen
data_KFeSn3O8
_symmetry_space_group_name_H-M   'P 1'
_cell_length_a   3.20921598
_cell_length_b   7.59565694
_cell_length_c   7.69198909
_cell_angle_alpha   92.56872497
_cell_angle_beta   102.04077114
_cell_angle_gamma   77.80418801
_symmetry_Int_Tables_number   1
_chemical_formula_structural   KFeSn3O8
_chemical_formula_sum   'K1 Fe1 Sn3 O8'
_cell_volume   179.23699910
_cell_formula_units_Z   1
loop_
 _symmetry_equiv_pos_site_id
 _symmetry_equiv_pos_as_xyz
  1  'x, y, z'
loop_
 _atom_site_type_symbol
 _atom_site_label
 _atom_site_symmetry_multiplicity
 _atom_site_fract_x
 _atom_site_fract_y
 _atom_site_fract_z
 _atom_site_occupancy
  K  K0  1  0.50091237  0.99628067  0.99810541  1
  Fe  Fe1  1  0.65057826  0.51347722  0.81463373  1
  Sn  Sn2  1  0.34235085  0.48502864  0.16973034  1
  Sn  Sn3  1  0.84026547  0.81159921  0.49213016  1
  Sn  Sn4  1  0.16385010  0.19269792  0.52039811  1
  O  O5  1  0.84823632  0.35005795  0.04653059  1
  O  O6  1  0.15089462  0.64442390  0.94621314  1
  O  O7  1  0.79920990  0.05046598  0.64888578  1
  O  O8  1  0.20352271  0.95332315  0.36036857  1
  O  O9  1  0.46115021  0.70476179  0.62706221  1
  O  O10  1  0.53980386  0.29350555  0.37311328  1
  O  O11  1  0.83467490  0.62269983  0.29204963  1
  O  O12  1  0.16455043  0.38167819  0.71077906  1
