# generated using pymatgen
data_La4GdSc15(BO3)20
_symmetry_space_group_name_H-M   'P 1'
_cell_length_a   7.83548674
_cell_length_b   7.83551831
_cell_length_c   18.94498180
_cell_angle_alpha   87.67518292
_cell_angle_beta   87.67513181
_cell_angle_gamma   78.40665321
_symmetry_Int_Tables_number   1
_chemical_formula_structural   La4GdSc15(BO3)20
_chemical_formula_sum   'La4 Gd1 Sc15 B20 O60'
_cell_volume   1137.83734026
_cell_formula_units_Z   1
loop_
 _symmetry_equiv_pos_site_id
 _symmetry_equiv_pos_as_xyz
  1  'x, y, z'
loop_
 _atom_site_type_symbol
 _atom_site_label
 _atom_site_symmetry_multiplicity
 _atom_site_fract_x
 _atom_site_fract_y
 _atom_site_fract_z
 _atom_site_occupancy
  La  La0  1  0.39989815  0.39987406  0.19970766  1
  La  La1  1  0.80002395  0.80003448  0.39997109  1
  La  La2  1  0.19997426  0.19998085  0.60003084  1
  La  La3  1  0.60011023  0.60012047  0.80029247  1
  Gd  Gd4  1  0.00003312  0.99998400  -0.00000282  1
  Sc  Sc5  1  0.16158069  0.70960439  0.58078215  1
  Sc  Sc6  1  0.56168958  0.10956859  0.78083414  1
  Sc  Sc7  1  0.96183913  0.50955819  0.98091595  1
  Sc  Sc8  1  0.36138327  0.90967499  0.18069914  1
  Sc  Sc9  1  0.76154536  0.30961170  0.38077640  1
  Sc  Sc10  1  0.69039303  0.23845292  0.61922348  1
  Sc  Sc11  1  0.09034011  0.63861480  0.81930096  1
  Sc  Sc12  1  0.49044943  0.03816004  0.01908333  1
  Sc  Sc13  1  0.89044473  0.43830987  0.21916582  1
  Sc  Sc14  1  0.29040623  0.83841875  0.41921833  1
  Sc  Sc15  1  0.34807305  0.25195363  0.39999149  1
  Sc  Sc16  1  0.74804780  0.65192861  0.60000496  1
  Sc  Sc17  1  0.14763156  0.05186949  0.80053492  1
  Sc  Sc18  1  0.54811057  0.45189319  -0.00000129  1
  Sc  Sc19  1  0.94812621  0.85237258  0.19946056  1
  B  B20  1  0.49999710  0.50000281  0.49999949  1
  B  B21  1  0.89999742  0.90005085  0.69999789  1
  B  B22  1  0.29982241  0.29979034  0.90007236  1
  B  B23  1  0.70020892  0.70017875  0.09992785  1
  B  B24  1  0.09994806  0.10000207  0.30000148  1
  B  B25  1  0.75192359  0.85078071  0.90045886  1
  B  B26  1  0.14922504  0.24807935  0.09953793  1
  B  B27  1  0.54998294  0.65000940  0.29997680  1
  B  B28  1  0.94996976  0.05003375  0.49999781  1
  B  B29  1  0.34999666  0.45002035  0.70001872  1
  B  B30  1  0.94002468  0.38996750  0.72003588  1
  B  B31  1  0.33768585  0.79084055  0.92044596  1
  B  B32  1  0.74141553  0.18934454  0.11912021  1
  B  B33  1  0.14001258  0.59005090  0.31995519  1
  B  B34  1  0.54003089  0.98999230  0.52001801  1
  B  B35  1  0.20917012  0.66231693  0.07955335  1
  B  B36  1  0.61004142  0.05997629  0.27996262  1
  B  B37  1  0.01001682  0.45997353  0.47998220  1
  B  B38  1  0.40995908  0.85999107  0.68004352  1
  B  B39  1  0.81066137  0.25858901  0.88087787  1
  O  O40  1  0.35967888  0.64032269  0.49999879  1
  O  O41  1  0.75959723  0.04027240  0.70001585  1
  O  O42  1  0.15972969  0.44032723  0.90015827  1
  O  O43  1  0.55967238  0.84027097  0.09984294  1
  O  O44  1  0.95972811  0.24040666  0.29998393  1
  O  O45  1  0.61222478  0.47195426  0.55612799  1
  O  O46  1  0.01212706  0.87222462  0.75617255  1
  O  O47  1  0.41243179  0.27166784  0.95607029  1
  O  O48  1  0.81212179  0.67199410  0.15614117  1
  O  O49  1  0.21219775  0.07193551  0.35611747  1
  O  O50  1  0.52804690  0.38777636  0.44387029  1
  O  O51  1  0.92806516  0.78780309  0.64388249  1
  O  O52  1  0.32800200  0.18788131  0.84385920  1
  O  O53  1  0.72833367  0.58756980  0.04392643  1
  O  O54  1  0.12777552  0.98787740  0.24382773  1
  O  O55  1  0.09019709  0.90980614  0.49999757  1
  O  O56  1  0.49025659  0.30977751  0.70003048  1
  O  O57  1  0.89011500  0.70857572  0.89979752  1
  O  O58  1  0.29142879  0.10988445  0.10019866  1
  O  O59  1  0.69022728  0.50974666  0.29996482  1
  O  O60  1  0.82790970  0.41799549  0.66391205  1
  O  O61  1  0.22830444  0.81757510  0.86346983  1
  O  O62  1  0.62634432  0.21864851  0.06401837  1
  O  O63  1  0.02785450  0.61819487  0.26382214  1
  O  O64  1  0.42784534  0.01804416  0.46392561  1
  O  O65  1  0.58201392  0.17209075  0.33608849  1
  O  O66  1  0.98196626  0.57215534  0.53607233  1
  O  O67  1  0.38181169  0.97214963  0.73617806  1
  O  O68  1  0.78136172  0.37366004  0.93598096  1
  O  O69  1  0.18243371  0.77169438  0.13652952  1
  O  O70  1  0.85046082  0.08287537  0.44053152  1
  O  O71  1  0.25048807  0.48282212  0.64053144  1
  O  O72  1  0.65046893  0.88373240  0.84141168  1
  O  O73  1  0.04949985  0.27652870  0.03968281  1
  O  O74  1  0.45052798  0.68275174  0.24051366  1
  O  O75  1  0.11728506  0.71279465  0.37169896  1
  O  O76  1  0.51729697  0.11282161  0.57170895  1
  O  O77  1  0.91726608  0.51286141  0.77168406  1
  O  O78  1  0.31021028  0.91468580  0.97225500  1
  O  O79  1  0.71860064  0.31071003  0.17153062  1
  O  O80  1  0.55933104  0.73138855  0.67879460  1
  O  O81  1  0.95987805  0.12852024  0.88161875  1
  O  O82  1  0.35736559  0.53204815  0.07821555  1
  O  O83  1  0.75950261  0.93146036  0.27858119  1
  O  O84  1  0.15930873  0.33134692  0.47873908  1
  O  O85  1  0.26861284  0.44067850  0.32120442  1
  O  O86  1  0.66865439  0.84070080  0.52125718  1
  O  O87  1  0.06853852  0.24050532  0.72141823  1
  O  O88  1  0.46795564  0.64264310  0.92178253  1
  O  O89  1  0.87148027  0.04013082  0.11838053  1
  O  O90  1  0.91712659  0.14953988  0.55946490  1
  O  O91  1  0.31725176  0.54947432  0.75948229  1
  O  O92  1  0.72347692  0.95049590  0.96031227  1
  O  O93  1  0.11627513  0.34953533  0.15858691  1
  O  O94  1  0.51718687  0.74951743  0.35946700  1
  O  O95  1  0.28721113  0.88271848  0.62830043  1
  O  O96  1  0.68929549  0.28140668  0.82846956  1
  O  O97  1  0.08532209  0.68979806  0.02774456  1
  O  O98  1  0.48714394  0.08273812  0.22831613  1
  O  O99  1  0.88718392  0.48270965  0.42828978  1
