# generated using pymatgen
data_KNbWO6
_symmetry_space_group_name_H-M   'P 1'
_cell_length_a   7.45641784
_cell_length_b   7.44400337
_cell_length_c   7.44944659
_cell_angle_alpha   90.00000000
_cell_angle_beta   60.03092252
_cell_angle_gamma   119.94493955
_symmetry_Int_Tables_number   1
_chemical_formula_structural   KNbWO6
_chemical_formula_sum   'K2 Nb2 W2 O12'
_cell_volume   292.75831457
_cell_formula_units_Z   2
loop_
 _symmetry_equiv_pos_site_id
 _symmetry_equiv_pos_as_xyz
  1  'x, y, z'
loop_
 _atom_site_type_symbol
 _atom_site_label
 _atom_site_symmetry_multiplicity
 _atom_site_fract_x
 _atom_site_fract_y
 _atom_site_fract_z
 _atom_site_occupancy
  K  K0  1  0.68983189  0.27295926  0.40508405  1
  K  K1  1  0.31016811  0.58312737  0.59491595  1
  Nb  Nb2  1  -0.00000000  0.98972343  0.50000000  1
  Nb  Nb3  1  -0.00000000  0.98972343  0.00000000  1
  W  W4  1  0.49136091  0.48738575  0.00431955  1
  W  W5  1  0.50863909  0.99602485  0.99568045  1
  O  O6  1  0.86948711  0.94303781  0.31525644  1
  O  O7  1  0.61677441  0.31001347  0.94161279  1
  O  O8  1  0.25676684  0.94250642  0.93873418  1
  O  O9  1  0.25419772  0.32147958  0.30747367  1
  O  O10  1  0.25419772  0.32147958  0.93832861  1
  O  O11  1  0.25676684  0.94250642  0.30449898  1
  O  O12  1  0.13051289  0.07355070  0.68474356  1
  O  O13  1  0.38322559  0.69323905  0.05838721  1
  O  O14  1  0.74580228  0.06728186  0.06167139  1
  O  O15  1  0.74323316  0.68573958  0.69550102  1
  O  O16  1  0.74323316  0.68573958  0.06126582  1
  O  O17  1  0.74580228  0.06728186  0.69252633  1
