# generated using pymatgen
data_Ho2P7Rh12
_symmetry_space_group_name_H-M   'P 1'
_cell_length_a   3.86321790
_cell_length_b   9.60211525
_cell_length_c   9.60439674
_cell_angle_alpha   59.99764281
_cell_angle_beta   89.99796857
_cell_angle_gamma   89.99558636
_symmetry_Int_Tables_number   1
_chemical_formula_structural   Ho2P7Rh12
_chemical_formula_sum   'Ho2 P7 Rh12'
_cell_volume   308.53648321
_cell_formula_units_Z   1
loop_
 _symmetry_equiv_pos_site_id
 _symmetry_equiv_pos_as_xyz
  1  'x, y, z'
loop_
 _atom_site_type_symbol
 _atom_site_label
 _atom_site_symmetry_multiplicity
 _atom_site_fract_x
 _atom_site_fract_y
 _atom_site_fract_z
 _atom_site_occupancy
  Ho  Ho0  1  0.74899749  0.33345311  0.33316539  1
  Ho  Ho1  1  0.25100251  0.66654689  0.66683461  1
  P  P2  1  0.50000000  0.00000000  -0.00000000  1
  P  P3  1  0.75313570  0.88122771  0.71357399  1
  P  P4  1  0.75325739  0.40527971  0.88107357  1
  P  P5  1  0.75362805  0.71368998  0.40534555  1
  P  P6  1  0.24686430  0.11877229  0.28642601  1
  P  P7  1  0.24674261  0.59472029  0.11892643  1
  P  P8  1  0.24637195  0.28631002  0.59465445  1
  Rh  Rh9  1  0.75092586  0.61828619  0.93076373  1
  Rh  Rh10  1  0.75075564  0.45072692  0.61817956  1
  Rh  Rh11  1  0.75091806  0.93077989  0.45091999  1
  Rh  Rh12  1  0.24907414  0.38171381  0.06923627  1
  Rh  Rh13  1  0.24924436  0.54927308  0.38182044  1
  Rh  Rh14  1  0.24908194  0.06922011  0.54908001  1
  Rh  Rh15  1  0.74902689  0.11154785  0.73840038  1
  Rh  Rh16  1  0.74937971  0.15046531  0.11140270  1
  Rh  Rh17  1  0.74944683  0.73802147  0.15043881  1
  Rh  Rh18  1  0.25097311  0.88845215  0.26159962  1
  Rh  Rh19  1  0.25062029  0.84953469  0.88859730  1
  Rh  Rh20  1  0.25055317  0.26197853  0.84956119  1
