# generated using pymatgen
data_EuZnGe
_symmetry_space_group_name_H-M   'P 1'
_cell_length_a   4.37951080
_cell_length_b   6.15328191
_cell_length_c   6.15328191
_cell_angle_alpha   75.32078666
_cell_angle_beta   69.15336036
_cell_angle_gamma   69.15336036
_symmetry_Int_Tables_number   1
_chemical_formula_structural   EuZnGe
_chemical_formula_sum   'Eu2 Zn2 Ge2'
_cell_volume   143.28737812
_cell_formula_units_Z   2
loop_
 _symmetry_equiv_pos_site_id
 _symmetry_equiv_pos_as_xyz
  1  'x, y, z'
loop_
 _atom_site_type_symbol
 _atom_site_label
 _atom_site_symmetry_multiplicity
 _atom_site_fract_x
 _atom_site_fract_y
 _atom_site_fract_z
 _atom_site_occupancy
  Eu  Eu0  1  0.50000000  0.50000000  0.50000000  1
  Eu  Eu1  1  -0.00000000  -0.00000000  0.00000000  1
  Zn  Zn2  1  0.25000000  0.41747247  0.08252753  1
  Zn  Zn3  1  0.75000000  0.58252753  0.91747247  1
  Ge  Ge4  1  0.25000000  0.08349004  0.41650996  1
  Ge  Ge5  1  0.75000000  0.91650996  0.58349004  1
