# generated using pymatgen
data_GeAsAu
_symmetry_space_group_name_H-M   'P 1'
_cell_length_a   4.94338091
_cell_length_b   4.94338091
_cell_length_c   6.41585916
_cell_angle_alpha   68.76417185
_cell_angle_beta   68.76417185
_cell_angle_gamma   79.98644261
_symmetry_Int_Tables_number   1
_chemical_formula_structural   GeAsAu
_chemical_formula_sum   'Ge2 As2 Au2'
_cell_volume   136.05071014
_cell_formula_units_Z   2
loop_
 _symmetry_equiv_pos_site_id
 _symmetry_equiv_pos_as_xyz
  1  'x, y, z'
loop_
 _atom_site_type_symbol
 _atom_site_label
 _atom_site_symmetry_multiplicity
 _atom_site_fract_x
 _atom_site_fract_y
 _atom_site_fract_z
 _atom_site_occupancy
  Ge  Ge0  1  0.93378246  0.19297448  0.33006179  1
  Ge  Ge1  1  0.30702552  0.56621754  0.16993821  1
  As  As2  1  0.06398838  0.80820040  0.66386183  1
  As  As3  1  0.69179960  0.43601162  0.83613817  1
  Au  Au4  1  0.50325922  0.49985517  0.49706381  1
  Au  Au5  1  0.00014483  0.99674078  0.00293619  1
