# generated using pymatgen
data_Hg11I2BrClO4
_symmetry_space_group_name_H-M   'P 1'
_cell_length_a   6.66227547
_cell_length_b   7.21835673
_cell_length_c   10.79396066
_cell_angle_alpha   99.86359184
_cell_angle_beta   93.21435324
_cell_angle_gamma   92.46442608
_symmetry_Int_Tables_number   1
_chemical_formula_structural   Hg11I2BrClO4
_chemical_formula_sum   'Hg11 I2 Br1 Cl1 O4'
_cell_volume   509.88069410
_cell_formula_units_Z   1
loop_
 _symmetry_equiv_pos_site_id
 _symmetry_equiv_pos_as_xyz
  1  'x, y, z'
loop_
 _atom_site_type_symbol
 _atom_site_label
 _atom_site_symmetry_multiplicity
 _atom_site_fract_x
 _atom_site_fract_y
 _atom_site_fract_z
 _atom_site_occupancy
  Hg  Hg0  1  0.05291534  0.13108077  0.65422604  1
  Hg  Hg1  1  0.94767423  0.87023864  0.34441609  1
  Hg  Hg2  1  0.84872105  0.37378709  0.80097397  1
  Hg  Hg3  1  0.15617405  0.63252587  0.19819145  1
  Hg  Hg4  1  0.67187250  0.46072222  0.12043935  1
  Hg  Hg5  1  0.32716620  0.54170802  0.88031241  1
  Hg  Hg6  1  0.49922344  0.99920879  0.49872785  1
  Hg  Hg7  1  0.86553647  0.85471303  0.98549168  1
  Hg  Hg8  1  0.13146802  0.14721583  0.01783187  1
  Hg  Hg9  1  0.72311887  0.29645101  0.31814005  1
  Hg  Hg10  1  0.27473056  0.70094737  0.68009495  1
  I  I11  1  0.76234529  0.65755779  0.59346669  1
  I  I12  1  0.23805149  0.34201582  0.40688479  1
  Br  Br13  1  0.49147252  0.11265155  0.84162905  1
  Cl  Cl14  1  0.51087096  0.87828689  0.15984053  1
  O  O15  1  0.71342310  0.57483851  0.94366035  1
  O  O16  1  0.28653252  0.42758079  0.05745958  1
  O  O17  1  0.22118936  0.90293254  0.54926044  1
  O  O18  1  0.77751402  0.09553747  0.44895286  1
