# generated using pymatgen
data_Hf2Al3Ag
_symmetry_space_group_name_H-M   'P 1'
_cell_length_a   5.33457345
_cell_length_b   5.33457345
_cell_length_c   5.28005731
_cell_angle_alpha   90.00000000
_cell_angle_beta   59.65786280
_cell_angle_gamma   120.00000000
_symmetry_Int_Tables_number   1
_chemical_formula_structural   Hf2Al3Ag
_chemical_formula_sum   'Hf2 Al3 Ag1'
_cell_volume   105.69578300
_cell_formula_units_Z   1
loop_
 _symmetry_equiv_pos_site_id
 _symmetry_equiv_pos_as_xyz
  1  'x, y, z'
loop_
 _atom_site_type_symbol
 _atom_site_label
 _atom_site_symmetry_multiplicity
 _atom_site_fract_x
 _atom_site_fract_y
 _atom_site_fract_z
 _atom_site_occupancy
  Hf  Hf0  1  0.50477611  0.75238806  0.74283583  1
  Hf  Hf1  1  0.99522389  0.99761194  0.00716417  1
  Al  Al2  1  0.25000000  0.37500000  0.37500000  1
  Al  Al3  1  0.25000000  0.87500000  0.37500000  1
  Al  Al4  1  0.75000000  0.37500000  0.37500000  1
  Ag  Ag5  1  0.75000000  0.37500000  0.87500000  1
