# generated using pymatgen
data_HfScGe4
_symmetry_space_group_name_H-M   'P 1'
_cell_length_a   3.80644386
_cell_length_b   3.85917381
_cell_length_c   7.76919299
_cell_angle_alpha   75.61928391
_cell_angle_beta   90.00000000
_cell_angle_gamma   90.00000000
_symmetry_Int_Tables_number   1
_chemical_formula_structural   HfScGe4
_chemical_formula_sum   'Hf1 Sc1 Ge4'
_cell_volume   110.55136155
_cell_formula_units_Z   1
loop_
 _symmetry_equiv_pos_site_id
 _symmetry_equiv_pos_as_xyz
  1  'x, y, z'
loop_
 _atom_site_type_symbol
 _atom_site_label
 _atom_site_symmetry_multiplicity
 _atom_site_fract_x
 _atom_site_fract_y
 _atom_site_fract_z
 _atom_site_occupancy
  Hf  Hf0  1  0.25000000  0.89556109  0.20887783  1
  Sc  Sc1  1  0.75000000  0.10328431  0.79343139  1
  Ge  Ge2  1  0.25000000  0.55943217  0.88113567  1
  Ge  Ge3  1  0.75000000  0.44048231  0.11903539  1
  Ge  Ge4  1  0.25000000  0.25114800  0.49770399  1
  Ge  Ge5  1  0.75000000  0.75009213  0.49981574  1
