# generated using pymatgen
data_HgPb4
_symmetry_space_group_name_H-M   'P 1'
_cell_length_a   3.52106357
_cell_length_b   3.52106357
_cell_length_c   14.61690342
_cell_angle_alpha   83.08221902
_cell_angle_beta   90.00000000
_cell_angle_gamma   120.00000000
_symmetry_Int_Tables_number   1
_chemical_formula_structural   HgPb4
_chemical_formula_sum   'Hg1 Pb4'
_cell_volume   155.41480517
_cell_formula_units_Z   1
loop_
 _symmetry_equiv_pos_site_id
 _symmetry_equiv_pos_as_xyz
  1  'x, y, z'
loop_
 _atom_site_type_symbol
 _atom_site_label
 _atom_site_symmetry_multiplicity
 _atom_site_fract_x
 _atom_site_fract_y
 _atom_site_fract_z
 _atom_site_occupancy
  Hg  Hg0  1  0.00000000  -0.00000000  0.00000000  1
  Pb  Pb1  1  0.60334715  0.20669431  0.18995854  1
  Pb  Pb2  1  0.20107362  0.40214724  0.39677914  1
  Pb  Pb3  1  0.79892638  0.59785276  0.60322086  1
  Pb  Pb4  1  0.39665285  0.79330569  0.81004146  1
