# generated using pymatgen
data_HoCo3P2
_symmetry_space_group_name_H-M   'P 1'
_cell_length_a   3.69360773
_cell_length_b   10.54847127
_cell_length_c   12.19093087
_cell_angle_alpha   90.00000000
_cell_angle_beta   90.00000000
_cell_angle_gamma   90.00000000
_symmetry_Int_Tables_number   1
_chemical_formula_structural   HoCo3P2
_chemical_formula_sum   'Ho6 Co18 P12'
_cell_volume   474.98201260
_cell_formula_units_Z   6
loop_
 _symmetry_equiv_pos_site_id
 _symmetry_equiv_pos_as_xyz
  1  'x, y, z'
loop_
 _atom_site_type_symbol
 _atom_site_label
 _atom_site_symmetry_multiplicity
 _atom_site_fract_x
 _atom_site_fract_y
 _atom_site_fract_z
 _atom_site_occupancy
  Ho  Ho0  1  0.75248069  0.25000000  0.47701353  1
  Ho  Ho1  1  0.25248069  0.75000000  0.52298647  1
  Ho  Ho2  1  0.25201279  0.93320718  0.79424780  1
  Ho  Ho3  1  0.25201279  0.56679282  0.79424780  1
  Ho  Ho4  1  0.75201279  0.06679282  0.20575220  1
  Ho  Ho5  1  0.75201279  0.43320718  0.20575220  1
  Co  Co6  1  0.75165545  0.25000000  0.01454268  1
  Co  Co7  1  0.25165545  0.75000000  0.98545732  1
  Co  Co8  1  0.25186770  0.45284086  0.56908352  1
  Co  Co9  1  0.25186770  0.04715914  0.56908352  1
  Co  Co10  1  0.75186770  0.54715914  0.43091648  1
  Co  Co11  1  0.75186770  0.95284086  0.43091648  1
  Co  Co12  1  0.25096081  0.87079969  0.29085676  1
  Co  Co13  1  0.25096081  0.62920031  0.29085676  1
  Co  Co14  1  0.75096081  0.12920031  0.70914324  1
  Co  Co15  1  0.75096081  0.37079969  0.70914324  1
  Co  Co16  1  0.25097357  0.41686236  0.00572444  1
  Co  Co17  1  0.25097357  0.08313764  0.00572444  1
  Co  Co18  1  0.75097357  0.58313764  0.99427556  1
  Co  Co19  1  0.75097357  0.91686236  0.99427556  1
  Co  Co20  1  0.25018331  0.25000000  0.84081382  1
  Co  Co21  1  0.75018331  0.75000000  0.15918618  1
  Co  Co22  1  0.25729214  0.25000000  0.29697306  1
  Co  Co23  1  0.75729214  0.75000000  0.70302694  1
  P  P24  1  0.25239221  0.43895140  0.38350994  1
  P  P25  1  0.25239221  0.06104860  0.38350994  1
  P  P26  1  0.75239221  0.56104860  0.61649006  1
  P  P27  1  0.75239221  0.93895140  0.61649006  1
  P  P28  1  0.25230102  0.25000000  0.11801730  1
  P  P29  1  0.75230102  0.75000000  0.88198270  1
  P  P30  1  0.25075998  0.90200971  0.10717476  1
  P  P31  1  0.25075998  0.59799029  0.10717476  1
  P  P32  1  0.75075998  0.09799029  0.89282524  1
  P  P33  1  0.75075998  0.40200971  0.89282524  1
  P  P34  1  0.25095328  0.25000000  0.65527121  1
  P  P35  1  0.75095328  0.75000000  0.34472879  1
