# generated using pymatgen
data_Fe3NiAs4
_symmetry_space_group_name_H-M   'P 1'
_cell_length_a   3.46857488
_cell_length_b   5.26278457
_cell_length_c   5.92296059
_cell_angle_alpha   89.77639198
_cell_angle_beta   90.00000000
_cell_angle_gamma   90.00000000
_symmetry_Int_Tables_number   1
_chemical_formula_structural   Fe3NiAs4
_chemical_formula_sum   'Fe3 Ni1 As4'
_cell_volume   108.11904549
_cell_formula_units_Z   1
loop_
 _symmetry_equiv_pos_site_id
 _symmetry_equiv_pos_as_xyz
  1  'x, y, z'
loop_
 _atom_site_type_symbol
 _atom_site_label
 _atom_site_symmetry_multiplicity
 _atom_site_fract_x
 _atom_site_fract_y
 _atom_site_fract_z
 _atom_site_occupancy
  Fe  Fe0  1  0.75000000  0.00037915  0.79989897  1
  Fe  Fe1  1  0.25000000  0.50333210  0.29339681  1
  Fe  Fe2  1  0.25000000  0.00278168  0.20072765  1
  Ni  Ni3  1  0.75000000  0.49716357  0.70067425  1
  As  As4  1  0.75000000  0.29253479  0.09182551  1
  As  As5  1  0.75000000  0.80403902  0.41309194  1
  As  As6  1  0.25000000  0.70829812  0.92059554  1
  As  As7  1  0.25000000  0.19147158  0.57978932  1
