# generated using pymatgen
data_K2GaP2H3(O4F)2
_symmetry_space_group_name_H-M   'P 1'
_cell_length_a   4.82796950
_cell_length_b   8.44929159
_cell_length_c   11.04063637
_cell_angle_alpha   90.00000000
_cell_angle_beta   94.21780456
_cell_angle_gamma   90.00000000
_symmetry_Int_Tables_number   1
_chemical_formula_structural   K2GaP2H3(O4F)2
_chemical_formula_sum   'K4 Ga2 P4 H6 O16 F4'
_cell_volume   449.16004266
_cell_formula_units_Z   2
loop_
 _symmetry_equiv_pos_site_id
 _symmetry_equiv_pos_as_xyz
  1  'x, y, z'
loop_
 _atom_site_type_symbol
 _atom_site_label
 _atom_site_symmetry_multiplicity
 _atom_site_fract_x
 _atom_site_fract_y
 _atom_site_fract_z
 _atom_site_occupancy
  K  K0  1  0.51301428  0.39664949  0.82862585  1
  K  K1  1  0.48698572  0.89664949  0.67137415  1
  K  K2  1  0.49281946  0.60585806  0.16655120  1
  K  K3  1  0.50718054  0.10585806  0.33344880  1
  Ga  Ga4  1  0.50017138  0.99642728  0.00034725  1
  Ga  Ga5  1  0.49982862  0.49642728  0.49965275  1
  P  P6  1  0.01907583  0.23166340  0.08388546  1
  P  P7  1  0.98092417  0.73166340  0.41611454  1
  P  P8  1  0.98184828  0.75885226  0.91925805  1
  P  P9  1  0.01815172  0.25885226  0.58074195  1
  H  H10  1  0.05739672  0.33787914  0.26951463  1
  H  H11  1  0.94260328  0.83787914  0.23048537  1
  H  H12  1  0.94582681  0.66252975  0.73085187  1
  H  H13  1  0.05417319  0.16252975  0.76914813  1
  H  H14  1  0.02037988  0.48320925  0.00267121  1
  H  H15  1  0.97962012  0.98320925  0.49732879  1
  O  O16  1  0.75628035  0.18432348  0.00742595  1
  O  O17  1  0.24371965  0.68432348  0.49257405  1
  O  O18  1  0.24474972  0.81149693  0.99426703  1
  O  O19  1  0.75525028  0.31149693  0.50573297  1
  O  O20  1  0.91476311  0.28333701  0.21262462  1
  O  O21  1  0.08523689  0.78333701  0.28737538  1
  O  O22  1  0.08717436  0.71647864  0.78762290  1
  O  O23  1  0.91282564  0.21647864  0.71237710  1
  O  O24  1  0.24464654  0.10670302  0.10626984  1
  O  O25  1  0.75535346  0.60670302  0.39373016  1
  O  O26  1  0.75598047  0.88579022  0.89789357  1
  O  O27  1  0.24401953  0.38579022  0.60210643  1
  O  O28  1  0.15571547  0.38087051  0.02770397  1
  O  O29  1  0.84428453  0.88087051  0.47229603  1
  O  O30  1  0.86062739  0.60692050  0.97240751  1
  O  O31  1  0.13937261  0.10692050  0.52759249  1
  F  F32  1  0.32412652  0.09135468  0.85311069  1
  F  F33  1  0.67587348  0.59135468  0.64688931  1
  F  F34  1  0.68144528  0.90865636  0.15073441  1
  F  F35  1  0.31855472  0.40865636  0.34926559  1
