# generated using pymatgen
data_K10NbInAs6
_symmetry_space_group_name_H-M   'P 1'
_cell_length_a   8.40710750
_cell_length_b   9.27829034
_cell_length_c   15.42831896
_cell_angle_alpha   91.36471167
_cell_angle_beta   90.00000000
_cell_angle_gamma   90.00000000
_symmetry_Int_Tables_number   1
_chemical_formula_structural   K10NbInAs6
_chemical_formula_sum   'K20 Nb2 In2 As12'
_cell_volume   1203.12281378
_cell_formula_units_Z   2
loop_
 _symmetry_equiv_pos_site_id
 _symmetry_equiv_pos_as_xyz
  1  'x, y, z'
loop_
 _atom_site_type_symbol
 _atom_site_label
 _atom_site_symmetry_multiplicity
 _atom_site_fract_x
 _atom_site_fract_y
 _atom_site_fract_z
 _atom_site_occupancy
  K  K0  1  0.50234358  0.68402829  0.58988705  1
  K  K1  1  0.99765642  0.18402829  0.08988705  1
  K  K2  1  0.48797612  0.31449273  0.40833247  1
  K  K3  1  0.01202388  0.81449273  0.90833247  1
  K  K4  1  0.66974673  0.08107093  0.24244959  1
  K  K5  1  0.83025327  0.58107093  0.74244959  1
  K  K6  1  0.32952180  0.91915683  0.75983742  1
  K  K7  1  0.17047820  0.41915683  0.25983742  1
  K  K8  1  0.51145463  0.70003127  0.24286660  1
  K  K9  1  0.98854537  0.20003127  0.74286660  1
  K  K10  1  0.47888803  0.30196047  0.76033843  1
  K  K11  1  0.02111197  0.80196047  0.26033843  1
  K  K12  1  0.17355926  0.42152564  0.58149697  1
  K  K13  1  0.32644074  0.92152564  0.08149697  1
  K  K14  1  0.82649043  0.57806261  0.41894558  1
  K  K15  1  0.67350957  0.07806261  0.91894558  1
  K  K16  1  0.99468104  0.15925355  0.42573093  1
  K  K17  1  0.50531896  0.65925355  0.92573093  1
  K  K18  1  0.02173216  0.84071087  0.57442743  1
  K  K19  1  0.47826784  0.34071087  0.07442743  1
  Nb  Nb20  1  0.62659940  0.07161901  0.57723781  1
  Nb  Nb21  1  0.87340060  0.57161901  0.07723781  1
  In  In22  1  0.36549722  0.92462238  0.41773912  1
  In  In23  1  0.13450278  0.42462238  0.91773912  1
  As  As24  1  0.32307955  0.08617804  0.57307671  1
  As  As25  1  0.17692045  0.58617804  0.07307671  1
  As  As26  1  0.69929262  0.92578834  0.43984007  1
  As  As27  1  0.80070738  0.42578834  0.93984007  1
  As  As28  1  0.28047581  0.07730399  0.27530408  1
  As  As29  1  0.21952419  0.57730399  0.77530408  1
  As  As30  1  0.71390863  0.94136513  0.71113167  1
  As  As31  1  0.78609137  0.44136513  0.21113167  1
  As  As32  1  0.25001321  0.64886844  0.42287496  1
  As  As33  1  0.24998679  0.14886844  0.92287496  1
  As  As34  1  0.74475204  0.32396147  0.57848310  1
  As  As35  1  0.75524796  0.82396147  0.07848310  1
