# generated using pymatgen
data_Gd2MnSbO7
_symmetry_space_group_name_H-M   'P 1'
_cell_length_a   7.37107378
_cell_length_b   7.19691087
_cell_length_c   7.52013142
_cell_angle_alpha   90.00000000
_cell_angle_beta   59.32877730
_cell_angle_gamma   119.22142586
_symmetry_Int_Tables_number   1
_chemical_formula_structural   Gd2MnSbO7
_chemical_formula_sum   'Gd4 Mn2 Sb2 O14'
_cell_volume   282.50163254
_cell_formula_units_Z   2
loop_
 _symmetry_equiv_pos_site_id
 _symmetry_equiv_pos_as_xyz
  1  'x, y, z'
loop_
 _atom_site_type_symbol
 _atom_site_label
 _atom_site_symmetry_multiplicity
 _atom_site_fract_x
 _atom_site_fract_y
 _atom_site_fract_z
 _atom_site_occupancy
  Gd  Gd0  1  0.50000000  0.50000000  -0.00000000  1
  Gd  Gd1  1  0.50000000  0.00000000  -0.00000000  1
  Gd  Gd2  1  0.00000000  0.00000000  0.50000000  1
  Gd  Gd3  1  0.00000000  0.00000000  -0.00000000  1
  Mn  Mn4  1  0.50000000  0.00000000  0.50000000  1
  Mn  Mn5  1  0.50000000  0.50000000  0.50000000  1
  Sb  Sb6  1  0.00000000  0.50000000  -0.00000000  1
  Sb  Sb7  1  -0.00000000  0.50000000  0.50000000  1
  O  O8  1  0.24547703  0.12273852  0.12726148  1
  O  O9  1  0.75452297  0.87726148  0.87273852  1
  O  O10  1  0.65996651  0.82998326  0.42001674  1
  O  O11  1  0.84505774  0.42252887  0.82747113  1
  O  O12  1  0.24945317  0.83080987  0.84080723  1
  O  O13  1  0.24945317  0.41864330  0.40973960  1
  O  O14  1  0.24945317  0.41864330  0.84080723  1
  O  O15  1  0.24945317  0.83080987  0.40973960  1
  O  O16  1  0.34003349  0.17001674  0.57998326  1
  O  O17  1  0.15494226  0.57747113  0.17252887  1
  O  O18  1  0.75054683  0.16919013  0.15919277  1
  O  O19  1  0.75054683  0.58135670  0.59026040  1
  O  O20  1  0.75054683  0.58135670  0.15919277  1
  O  O21  1  0.75054683  0.16919013  0.59026040  1
