# generated using pymatgen
data_K3Mn4P5H3O20
_symmetry_space_group_name_H-M   'P 1'
_cell_length_a   8.28025560
_cell_length_b   8.28025560
_cell_length_c   13.85213196
_cell_angle_alpha   79.54414810
_cell_angle_beta   79.54414810
_cell_angle_gamma   79.68222866
_symmetry_Int_Tables_number   1
_chemical_formula_structural   K3Mn4P5H3O20
_chemical_formula_sum   'K6 Mn8 P10 H6 O40'
_cell_volume   907.90724498
_cell_formula_units_Z   2
loop_
 _symmetry_equiv_pos_site_id
 _symmetry_equiv_pos_as_xyz
  1  'x, y, z'
loop_
 _atom_site_type_symbol
 _atom_site_label
 _atom_site_symmetry_multiplicity
 _atom_site_fract_x
 _atom_site_fract_y
 _atom_site_fract_z
 _atom_site_occupancy
  K  K0  1  0.99966269  0.00055486  0.25179134  1
  K  K1  1  0.00055486  0.99966269  0.75179134  1
  K  K2  1  0.30873793  0.16136273  0.41559429  1
  K  K3  1  0.83284715  0.68769410  0.08525255  1
  K  K4  1  0.68769410  0.83284715  0.58525255  1
  K  K5  1  0.16136273  0.30873793  0.91559429  1
  Mn  Mn6  1  0.95852206  0.52233383  0.33324381  1
  Mn  Mn7  1  0.47847695  0.04331853  0.16698886  1
  Mn  Mn8  1  0.04331853  0.47847695  0.66698886  1
  Mn  Mn9  1  0.52233383  0.95852206  0.83324381  1
  Mn  Mn10  1  0.49791332  0.50135636  0.49972416  1
  Mn  Mn11  1  0.50135636  0.49791332  0.99972416  1
  Mn  Mn12  1  0.64435286  0.35450055  0.75112510  1
  Mn  Mn13  1  0.35450055  0.64435286  0.25112510  1
  P  P14  1  0.62313381  0.37693301  0.25019079  1
  P  P15  1  0.37693301  0.62313381  0.75019079  1
  P  P16  1  0.85436661  0.26967883  0.53638013  1
  P  P17  1  0.73374622  0.14183119  0.96321076  1
  P  P18  1  0.14183119  0.73374622  0.46321076  1
  P  P19  1  0.26967883  0.85436661  0.03638013  1
  P  P20  1  0.65940374  0.79247937  0.34212242  1
  P  P21  1  0.20766560  0.34036486  0.15761632  1
  P  P22  1  0.34036486  0.20766560  0.65761632  1
  P  P23  1  0.79247937  0.65940374  0.84212242  1
  H  H24  1  0.65017233  0.06313824  0.33184259  1
  H  H25  1  0.93689170  0.34939353  0.16825781  1
  H  H26  1  0.34939353  0.93689170  0.66825781  1
  H  H27  1  0.06313824  0.65017233  0.83184259  1
  H  H28  1  0.98593824  0.01032622  0.50529261  1
  H  H29  1  0.01032622  0.98593824  0.00529261  1
  O  O30  1  0.65622464  0.65501679  0.43448817  1
  O  O31  1  0.34498597  0.34292833  0.06509824  1
  O  O32  1  0.34292833  0.34498597  0.56509824  1
  O  O33  1  0.65501679  0.65622464  0.93448817  1
  O  O34  1  0.86144134  0.32904184  0.63606153  1
  O  O35  1  0.66701616  0.13819088  0.86459269  1
  O  O36  1  0.13819088  0.66701616  0.36459269  1
  O  O37  1  0.32904184  0.86144134  0.13606153  1
  O  O38  1  0.50700151  0.82776087  0.28774109  1
  O  O39  1  0.17247153  0.49288997  0.21170320  1
  O  O40  1  0.49288997  0.17247153  0.71170320  1
  O  O41  1  0.82776087  0.50700151  0.78774109  1
  O  O42  1  0.66913555  0.95712848  0.38492305  1
  O  O43  1  0.04282382  0.33040811  0.11508527  1
  O  O44  1  0.33040811  0.04282382  0.61508527  1
  O  O45  1  0.95712848  0.66913555  0.88492305  1
  O  O46  1  0.89065175  0.07405138  0.55767809  1
  O  O47  1  0.92531811  0.10049943  0.94297548  1
  O  O48  1  0.10049943  0.92531811  0.44297548  1
  O  O49  1  0.07405138  0.89065175  0.05767809  1
  O  O50  1  0.80775281  0.38780774  0.25568097  1
  O  O51  1  0.61245427  0.19236284  0.24447422  1
  O  O52  1  0.19236284  0.61245427  0.74447422  1
  O  O53  1  0.38780774  0.80775281  0.75568097  1
  O  O54  1  0.67617942  0.31658386  0.51083758  1
  O  O55  1  0.68651579  0.32202624  0.98840990  1
  O  O56  1  0.32202624  0.68651579  0.48840990  1
  O  O57  1  0.31658386  0.67617942  0.01083758  1
  O  O58  1  0.82127367  0.74875107  0.27159667  1
  O  O59  1  0.25160219  0.17862958  0.22817831  1
  O  O60  1  0.17862958  0.25160219  0.72817831  1
  O  O61  1  0.74875107  0.82127367  0.77159667  1
  O  O62  1  0.50009665  0.43573682  0.34152853  1
  O  O63  1  0.56374710  0.49995857  0.15890687  1
  O  O64  1  0.49995857  0.56374710  0.65890687  1
  O  O65  1  0.43573682  0.50009665  0.84152853  1
  O  O66  1  0.98549087  0.33262583  0.45162060  1
  O  O67  1  0.66174695  0.01397385  0.04808600  1
  O  O68  1  0.01397385  0.66174695  0.54808600  1
  O  O69  1  0.33262583  0.98549087  0.95162060  1
