# generated using pymatgen
data_BaCoSO
_symmetry_space_group_name_H-M   'P 1'
_cell_length_a   4.03542078
_cell_length_b   6.17954434
_cell_length_c   6.76481187
_cell_angle_alpha   90.00000000
_cell_angle_beta   107.35345829
_cell_angle_gamma   90.00000000
_symmetry_Int_Tables_number   1
_chemical_formula_structural   BaCoSO
_chemical_formula_sum   'Ba2 Co2 S2 O2'
_cell_volume   161.01604922
_cell_formula_units_Z   2
loop_
 _symmetry_equiv_pos_site_id
 _symmetry_equiv_pos_as_xyz
  1  'x, y, z'
loop_
 _atom_site_type_symbol
 _atom_site_label
 _atom_site_symmetry_multiplicity
 _atom_site_fract_x
 _atom_site_fract_y
 _atom_site_fract_z
 _atom_site_occupancy
  Ba  Ba0  1  0.61362219  0.75000000  0.22724439  1
  Ba  Ba1  1  0.38637781  0.25000000  0.77275561  1
  Co  Co2  1  0.90563875  0.75000000  0.81127749  1
  Co  Co3  1  0.09436125  0.25000000  0.18872251  1
  S  S4  1  0.30956684  0.75000000  0.61913367  1
  S  S5  1  0.69043316  0.25000000  0.38086633  1
  O  O6  1  0.00000000  0.50000000  0.00000000  1
  O  O7  1  0.00000000  0.00000000  0.00000000  1
