# generated using pymatgen
data_Ho3(NiRu2)2
_symmetry_space_group_name_H-M   'P 1'
_cell_length_a   5.26685097
_cell_length_b   5.24688910
_cell_length_c   12.82648759
_cell_angle_alpha   90.36469739
_cell_angle_beta   91.43373942
_cell_angle_gamma   120.15264247
_symmetry_Int_Tables_number   1
_chemical_formula_structural   Ho3(NiRu2)2
_chemical_formula_sum   'Ho6 Ni4 Ru8'
_cell_volume   306.32401858
_cell_formula_units_Z   2
loop_
 _symmetry_equiv_pos_site_id
 _symmetry_equiv_pos_as_xyz
  1  'x, y, z'
loop_
 _atom_site_type_symbol
 _atom_site_label
 _atom_site_symmetry_multiplicity
 _atom_site_fract_x
 _atom_site_fract_y
 _atom_site_fract_z
 _atom_site_occupancy
  Ho  Ho0  1  0.33160190  0.67016317  0.91857325  1
  Ho  Ho1  1  0.99320769  0.99635807  0.24947775  1
  Ho  Ho2  1  0.66421737  0.33467528  0.58332070  1
  Ho  Ho3  1  0.33578263  0.66532472  0.66667930  1
  Ho  Ho4  1  0.00679231  0.00364193  0.00052225  1
  Ho  Ho5  1  0.66839810  0.32983683  0.33142675  1
  Ni  Ni6  1  0.50000000  0.50000000  0.12500000  1
  Ni  Ni7  1  0.16670129  0.83434000  0.45847105  1
  Ni  Ni8  1  0.83329871  0.16566000  0.79152895  1
  Ni  Ni9  1  0.50000000  0.00000000  0.12500000  1
  Ru  Ru10  1  0.16905612  0.33452918  0.45639664  1
  Ru  Ru11  1  0.83094388  0.66547082  0.79360336  1
  Ru  Ru12  1  0.32763267  0.66451202  0.28885480  1
  Ru  Ru13  1  0.00000000  0.00000000  0.62500000  1
  Ru  Ru14  1  0.67236733  0.33548798  0.96114520  1
  Ru  Ru15  1  0.00000000  0.50000000  0.12500000  1
  Ru  Ru16  1  0.66547090  0.83286548  0.45695738  1
  Ru  Ru17  1  0.33452910  0.16713452  0.79304262  1
