# generated using pymatgen
data_HfAlFe
_symmetry_space_group_name_H-M   'P 1'
_cell_length_a   5.04695632
_cell_length_b   5.04447184
_cell_length_c   8.23680480
_cell_angle_alpha   90.00000000
_cell_angle_beta   90.00000000
_cell_angle_gamma   60.48621360
_symmetry_Int_Tables_number   1
_chemical_formula_structural   HfAlFe
_chemical_formula_sum   'Hf4 Al4 Fe4'
_cell_volume   182.49108694
_cell_formula_units_Z   4
loop_
 _symmetry_equiv_pos_site_id
 _symmetry_equiv_pos_as_xyz
  1  'x, y, z'
loop_
 _atom_site_type_symbol
 _atom_site_label
 _atom_site_symmetry_multiplicity
 _atom_site_fract_x
 _atom_site_fract_y
 _atom_site_fract_z
 _atom_site_occupancy
  Hf  Hf0  1  0.33513484  0.33547100  0.55232999  1
  Hf  Hf1  1  0.67100852  0.67096650  0.42745765  1
  Hf  Hf2  1  0.67100852  0.67096650  0.07254235  1
  Hf  Hf3  1  0.33513484  0.33547100  0.94767001  1
  Al  Al4  1  0.99340898  0.99345805  0.49056512  1
  Al  Al5  1  0.99340898  0.99345805  0.00943488  1
  Al  Al6  1  0.83357344  0.34414330  0.75000000  1
  Al  Al7  1  0.34493766  0.83357167  0.75000000  1
  Fe  Fe8  1  0.83437659  0.83291279  0.75000000  1
  Fe  Fe9  1  0.17004386  0.64970290  0.25000000  1
  Fe  Fe10  1  0.64912329  0.17076712  0.25000000  1
  Fe  Fe11  1  0.16884048  0.16911113  0.25000000  1
