# generated using pymatgen
data_Eu2AlP3Pt7
_symmetry_space_group_name_H-M   'P 1'
_cell_length_a   4.08274387
_cell_length_b   4.08274387
_cell_length_c   13.88973606
_cell_angle_alpha   81.54863650
_cell_angle_beta   81.54863650
_cell_angle_gamma   90.00000000
_symmetry_Int_Tables_number   1
_chemical_formula_structural   Eu2AlP3Pt7
_chemical_formula_sum   'Eu2 Al1 P3 Pt7'
_cell_volume   226.46901430
_cell_formula_units_Z   1
loop_
 _symmetry_equiv_pos_site_id
 _symmetry_equiv_pos_as_xyz
  1  'x, y, z'
loop_
 _atom_site_type_symbol
 _atom_site_label
 _atom_site_symmetry_multiplicity
 _atom_site_fract_x
 _atom_site_fract_y
 _atom_site_fract_z
 _atom_site_occupancy
  Eu  Eu0  1  0.33459595  0.33459595  0.33080810  1
  Eu  Eu1  1  0.66540405  0.66540405  0.66919190  1
  Al  Al2  1  0.50000000  0.50000000  -0.00000000  1
  P  P3  1  0.11998329  0.11998329  0.76003342  1
  P  P4  1  0.88001671  0.88001671  0.23996658  1
  P  P5  1  0.25000000  0.75000000  0.50000000  1
  Pt  Pt6  1  0.57154907  0.07154907  0.85690186  1
  Pt  Pt7  1  0.07011093  0.57011093  0.85977814  1
  Pt  Pt8  1  0.42988907  0.92988907  0.14022186  1
  Pt  Pt9  1  0.92845093  0.42845093  0.14309814  1
  Pt  Pt10  1  0.20707657  0.20707657  0.58584685  1
  Pt  Pt11  1  0.79292343  0.79292343  0.41415315  1
  Pt  Pt12  1  -0.00000000  0.00000000  -0.00000000  1
