# generated using pymatgen
data_EuTa3O9
_symmetry_space_group_name_H-M   'P 1'
_cell_length_a   5.58797319
_cell_length_b   8.81960616
_cell_length_c   8.88080870
_cell_angle_alpha   113.40694267
_cell_angle_beta   71.66750864
_cell_angle_gamma   108.47669482
_symmetry_Int_Tables_number   1
_chemical_formula_structural   EuTa3O9
_chemical_formula_sum   'Eu2 Ta6 O18'
_cell_volume   371.90283006
_cell_formula_units_Z   2
loop_
 _symmetry_equiv_pos_site_id
 _symmetry_equiv_pos_as_xyz
  1  'x, y, z'
loop_
 _atom_site_type_symbol
 _atom_site_label
 _atom_site_symmetry_multiplicity
 _atom_site_fract_x
 _atom_site_fract_y
 _atom_site_fract_z
 _atom_site_occupancy
  Eu  Eu0  1  0.66699339  0.33367615  0.99969746  1
  Eu  Eu1  1  0.33300661  0.66632385  0.00030254  1
  Ta  Ta2  1  0.07738740  0.41257848  0.25766833  1
  Ta  Ta3  1  0.41565837  0.08381351  0.25247700  1
  Ta  Ta4  1  0.74942144  0.75992309  0.26125498  1
  Ta  Ta5  1  0.92261260  0.58742152  0.74233167  1
  Ta  Ta6  1  0.25057856  0.24007691  0.73874502  1
  Ta  Ta7  1  0.58434163  0.91618649  0.74752300  1
  O  O8  1  0.92516013  0.57497906  0.22436845  1
  O  O9  1  0.26909248  0.25156959  0.23284582  1
  O  O10  1  0.57581470  0.90335795  0.23265357  1
  O  O11  1  0.73090752  0.74843041  0.76715418  1
  O  O12  1  0.07483987  0.42502094  0.77563155  1
  O  O13  1  0.42418530  0.09664205  0.76734643  1
  O  O14  1  0.42578471  0.57471759  0.22353625  1
  O  O15  1  0.74998563  0.25122478  0.23196474  1
  O  O16  1  0.09512890  0.90310345  0.23176222  1
  O  O17  1  0.25001437  0.74877522  0.76803526  1
  O  O18  1  0.57421529  0.42528241  0.77646375  1
  O  O19  1  0.90487110  0.09689655  0.76823778  1
  O  O20  1  0.00000000  0.50000000  0.50000000  1
  O  O21  1  0.33381104  0.16609864  0.49829089  1
  O  O22  1  0.66618896  0.83390136  0.50170911  1
  O  O23  1  0.17248214  0.34536604  0.99994516  1
  O  O24  1  0.50000000  -0.00000000  -0.00000000  1
  O  O25  1  0.82751786  0.65463396  0.00005484  1
