# generated using pymatgen
data_Er2Ga3Cu
_symmetry_space_group_name_H-M   'P 1'
_cell_length_a   4.35708418
_cell_length_b   4.35708418
_cell_length_c   7.13786319
_cell_angle_alpha   90.00246608
_cell_angle_beta   89.99753392
_cell_angle_gamma   119.99719631
_symmetry_Int_Tables_number   1
_chemical_formula_structural   Er2Ga3Cu
_chemical_formula_sum   'Er2 Ga3 Cu1'
_cell_volume   117.35538454
_cell_formula_units_Z   1
loop_
 _symmetry_equiv_pos_site_id
 _symmetry_equiv_pos_as_xyz
  1  'x, y, z'
loop_
 _atom_site_type_symbol
 _atom_site_label
 _atom_site_symmetry_multiplicity
 _atom_site_fract_x
 _atom_site_fract_y
 _atom_site_fract_z
 _atom_site_occupancy
  Er  Er0  1  0.00002072  0.99997928  0.73038252  1
  Er  Er1  1  0.99996597  0.00003403  0.26088021  1
  Ga  Ga2  1  0.33334611  0.66665389  0.47702134  1
  Ga  Ga3  1  0.33332373  0.66667627  0.04568104  1
  Ga  Ga4  1  0.66665971  0.33334029  0.94901732  1
  Cu  Cu5  1  0.66668377  0.33331623  0.53701757  1
