# generated using pymatgen
data_Mn2FeWO6
_symmetry_space_group_name_H-M   'P 1'
_cell_length_a   5.35229758
_cell_length_b   5.35229758
_cell_length_c   5.66465589
_cell_angle_alpha   61.80790868
_cell_angle_beta   61.80790868
_cell_angle_gamma   59.99999783
_symmetry_Int_Tables_number   1
_chemical_formula_structural   Mn2FeWO6
_chemical_formula_sum   'Mn2 Fe1 W1 O6'
_cell_volume   117.78265401
_cell_formula_units_Z   1
loop_
 _symmetry_equiv_pos_site_id
 _symmetry_equiv_pos_as_xyz
  1  'x, y, z'
loop_
 _atom_site_type_symbol
 _atom_site_label
 _atom_site_symmetry_multiplicity
 _atom_site_fract_x
 _atom_site_fract_y
 _atom_site_fract_z
 _atom_site_occupancy
  Mn  Mn0  1  0.78188564  0.78188564  0.65434309  1
  Mn  Mn1  1  0.28000360  0.28000360  0.15998920  1
  Fe  Fe2  1  0.49988752  0.49988752  0.50033743  1
  W  W3  1  0.99363207  0.99363207  0.01910380  1
  O  O4  1  0.20895467  0.87316857  0.28733955  1
  O  O5  1  0.87316857  0.63053721  0.28733955  1
  O  O6  1  0.63053721  0.20895467  0.28733955  1
  O  O7  1  0.11078925  0.34875973  0.80421927  1
  O  O8  1  0.34875973  0.73623175  0.80421927  1
  O  O9  1  0.73623175  0.11078925  0.80421927  1
