# generated using pymatgen
data_CsSbTeO6
_symmetry_space_group_name_H-M   'P 1'
_cell_length_a   7.32879256
_cell_length_b   7.28737316
_cell_length_c   7.35557822
_cell_angle_alpha   90.00000000
_cell_angle_beta   59.87902462
_cell_angle_gamma   119.81322203
_symmetry_Int_Tables_number   1
_chemical_formula_structural   CsSbTeO6
_chemical_formula_sum   'Cs2 Sb2 Te2 O12'
_cell_volume   278.05679079
_cell_formula_units_Z   2
loop_
 _symmetry_equiv_pos_site_id
 _symmetry_equiv_pos_as_xyz
  1  'x, y, z'
loop_
 _atom_site_type_symbol
 _atom_site_label
 _atom_site_symmetry_multiplicity
 _atom_site_fract_x
 _atom_site_fract_y
 _atom_site_fract_z
 _atom_site_occupancy
  Cs  Cs0  1  0.75181462  0.37590731  0.37409269  1
  Cs  Cs1  1  0.24818538  0.62409269  0.62590731  1
  Sb  Sb2  1  0.50000000  0.50000000  -0.00000000  1
  Sb  Sb3  1  0.50000000  0.00000000  -0.00000000  1
  Te  Te4  1  0.00000000  0.00000000  0.50000000  1
  Te  Te5  1  0.00000000  0.00000000  -0.00000000  1
  O  O6  1  0.85843016  0.92921508  0.32078492  1
  O  O7  1  0.64781190  0.32390595  0.92609405  1
  O  O8  1  0.24535640  0.92844913  0.92727411  1
  O  O9  1  0.24535640  0.31690728  0.32736949  1
  O  O10  1  0.24535640  0.31690728  0.92727411  1
  O  O11  1  0.24535640  0.92844913  0.32736949  1
  O  O12  1  0.14156984  0.07078492  0.67921508  1
  O  O13  1  0.35218810  0.67609405  0.07390595  1
  O  O14  1  0.75464360  0.07155087  0.07272589  1
  O  O15  1  0.75464360  0.68309272  0.67263051  1
  O  O16  1  0.75464360  0.68309272  0.07272589  1
  O  O17  1  0.75464360  0.07155087  0.67263051  1
