# generated using pymatgen
data_Cu5SeCl5O4
_symmetry_space_group_name_H-M   'P 1'
_cell_length_a   6.32074460
_cell_length_b   9.41456277
_cell_length_c   9.66131897
_cell_angle_alpha   91.55061661
_cell_angle_beta   90.00000000
_cell_angle_gamma   90.00000000
_symmetry_Int_Tables_number   1
_chemical_formula_structural   Cu5SeCl5O4
_chemical_formula_sum   'Cu10 Se2 Cl10 O8'
_cell_volume   574.70603125
_cell_formula_units_Z   2
loop_
 _symmetry_equiv_pos_site_id
 _symmetry_equiv_pos_as_xyz
  1  'x, y, z'
loop_
 _atom_site_type_symbol
 _atom_site_label
 _atom_site_symmetry_multiplicity
 _atom_site_fract_x
 _atom_site_fract_y
 _atom_site_fract_z
 _atom_site_occupancy
  Cu  Cu0  1  0.25054360  0.12516760  0.98588240  1
  Cu  Cu1  1  0.75054360  0.87483240  0.01411760  1
  Cu  Cu2  1  0.25183999  0.71663726  0.50406727  1
  Cu  Cu3  1  0.75183999  0.28336274  0.49593273  1
  Cu  Cu4  1  0.25036617  0.89302333  0.22674403  1
  Cu  Cu5  1  0.75036617  0.10697667  0.77325597  1
  Cu  Cu6  1  0.50018770  0.00015095  0.50014869  1
  Cu  Cu7  1  0.00018770  0.99984905  0.49985131  1
  Cu  Cu8  1  0.38512799  0.40869115  0.79169864  1
  Cu  Cu9  1  0.88512799  0.59130885  0.20830136  1
  Se  Se10  1  0.75059363  0.75977350  0.68126838  1
  Se  Se11  1  0.25059363  0.24022650  0.31873162  1
  Cl  Cl12  1  0.24997206  0.50773105  0.60369598  1
  Cl  Cl13  1  0.74997206  0.49226895  0.39630402  1
  Cl  Cl14  1  0.25026128  0.87626405  0.99292947  1
  Cl  Cl15  1  0.75026128  0.12373595  0.00707053  1
  Cl  Cl16  1  0.25123174  0.12189698  0.75271162  1
  Cl  Cl17  1  0.75123174  0.87810302  0.24728838  1
  Cl  Cl18  1  0.23574491  0.64620103  0.25907291  1
  Cl  Cl19  1  0.73574491  0.35379897  0.74092709  1
  Cl  Cl20  1  0.25398393  0.36920863  0.99946118  1
  Cl  Cl21  1  0.75398393  0.63079137  0.00053882  1
  O  O22  1  0.25052246  0.91023377  0.42679975  1
  O  O23  1  0.75052246  0.08976623  0.57320025  1
  O  O24  1  0.75000873  0.89660946  0.80878756  1
  O  O25  1  0.25000873  0.10339054  0.19121244  1
  O  O26  1  0.53570030  0.81327387  0.58199484  1
  O  O27  1  0.03570030  0.18672613  0.41800516  1
  O  O28  1  0.46511554  0.18702971  0.41812185  1
  O  O29  1  0.96511554  0.81297029  0.58187815  1
