# generated using pymatgen
data_Dy3NiPd2
_symmetry_space_group_name_H-M   'P 1'
_cell_length_a   4.49258676
_cell_length_b   5.52677777
_cell_length_c   10.54500002
_cell_angle_alpha   96.97583243
_cell_angle_beta   90.00000000
_cell_angle_gamma   90.00000000
_symmetry_Int_Tables_number   1
_chemical_formula_structural   Dy3NiPd2
_chemical_formula_sum   'Dy6 Ni2 Pd4'
_cell_volume   259.88919420
_cell_formula_units_Z   2
loop_
 _symmetry_equiv_pos_site_id
 _symmetry_equiv_pos_as_xyz
  1  'x, y, z'
loop_
 _atom_site_type_symbol
 _atom_site_label
 _atom_site_symmetry_multiplicity
 _atom_site_fract_x
 _atom_site_fract_y
 _atom_site_fract_z
 _atom_site_occupancy
  Dy  Dy0  1  0.25000000  0.59585223  0.78374847  1
  Dy  Dy1  1  0.75000000  0.40414777  0.21625153  1
  Dy  Dy2  1  0.25000000  0.88874857  0.12374562  1
  Dy  Dy3  1  0.75000000  0.11125143  0.87625438  1
  Dy  Dy4  1  0.25000000  0.74119544  0.45626748  1
  Dy  Dy5  1  0.75000000  0.25880456  0.54373252  1
  Ni  Ni6  1  0.25000000  0.22522577  0.35963026  1
  Ni  Ni7  1  0.75000000  0.77477423  0.64036974  1
  Pd  Pd8  1  0.25000000  0.35375938  0.02807784  1
  Pd  Pd9  1  0.75000000  0.64624062  0.97192216  1
  Pd  Pd10  1  0.25000000  0.07629438  0.69400608  1
  Pd  Pd11  1  0.75000000  0.92370562  0.30599392  1
