# generated using pymatgen
data_DyGaCu
_symmetry_space_group_name_H-M   'P 1'
_cell_length_a   4.37501651
_cell_length_b   5.46205909
_cell_length_c   5.70115758
_cell_angle_alpha   95.78140949
_cell_angle_beta   112.56277100
_cell_angle_gamma   66.39109683
_symmetry_Int_Tables_number   1
_chemical_formula_structural   DyGaCu
_chemical_formula_sum   'Dy2 Ga2 Cu2'
_cell_volume   115.05449485
_cell_formula_units_Z   2
loop_
 _symmetry_equiv_pos_site_id
 _symmetry_equiv_pos_as_xyz
  1  'x, y, z'
loop_
 _atom_site_type_symbol
 _atom_site_label
 _atom_site_symmetry_multiplicity
 _atom_site_fract_x
 _atom_site_fract_y
 _atom_site_fract_z
 _atom_site_occupancy
  Dy  Dy0  1  0.74270929  0.71934016  0.20475874  1
  Dy  Dy1  1  0.25729071  0.28065984  0.79524126  1
  Ga  Ga2  1  0.55205065  0.28052334  0.38462463  1
  Ga  Ga3  1  0.44794935  0.71947666  0.61537537  1
  Cu  Cu4  1  0.04797288  0.11765917  0.21360493  1
  Cu  Cu5  1  0.95202712  0.88234083  0.78639507  1
