# generated using pymatgen
data_Dy2MnSbO7
_symmetry_space_group_name_H-M   'P 1'
_cell_length_a   7.32090992
_cell_length_b   7.13550365
_cell_length_c   7.47417407
_cell_angle_alpha   90.00000000
_cell_angle_beta   59.30502114
_cell_angle_gamma   119.16571395
_symmetry_Int_Tables_number   1
_chemical_formula_structural   Dy2MnSbO7
_chemical_formula_sum   'Dy4 Mn2 Sb2 O14'
_cell_volume   276.61291432
_cell_formula_units_Z   2
loop_
 _symmetry_equiv_pos_site_id
 _symmetry_equiv_pos_as_xyz
  1  'x, y, z'
loop_
 _atom_site_type_symbol
 _atom_site_label
 _atom_site_symmetry_multiplicity
 _atom_site_fract_x
 _atom_site_fract_y
 _atom_site_fract_z
 _atom_site_occupancy
  Dy  Dy0  1  0.50000000  0.00000000  0.50000000  1
  Dy  Dy1  1  0.50000000  0.50000000  0.50000000  1
  Dy  Dy2  1  0.00000000  0.50000000  -0.00000000  1
  Dy  Dy3  1  0.00000000  0.50000000  0.50000000  1
  Mn  Mn4  1  0.50000000  0.50000000  -0.00000000  1
  Mn  Mn5  1  0.50000000  0.00000000  -0.00000000  1
  Sb  Sb6  1  0.00000000  0.00000000  0.50000000  1
  Sb  Sb7  1  0.00000000  0.00000000  -0.00000000  1
  O  O8  1  0.75351390  0.37675695  0.37324305  1
  O  O9  1  0.24648610  0.62324305  0.62675695  1
  O  O10  1  0.84188608  0.92094304  0.32905696  1
  O  O11  1  0.66394272  0.33197136  0.91802864  1
  O  O12  1  0.25149071  0.91737365  0.90645361  1
  O  O13  1  0.25149071  0.33411707  0.34205567  1
  O  O14  1  0.25149071  0.33411707  0.90645361  1
  O  O15  1  0.25149071  0.91737365  0.34205567  1
  O  O16  1  0.15811392  0.07905696  0.67094304  1
  O  O17  1  0.33605728  0.66802864  0.08197136  1
  O  O18  1  0.74850929  0.08262635  0.09354639  1
  O  O19  1  0.74850929  0.66588293  0.65794433  1
  O  O20  1  0.74850929  0.66588293  0.09354639  1
  O  O21  1  0.74850929  0.08262635  0.65794433  1
