# generated using pymatgen
data_Cd2P2H10CCl2O11
_symmetry_space_group_name_H-M   'P 1'
_cell_length_a   5.71625923
_cell_length_b   9.72110564
_cell_length_c   12.53806037
_cell_angle_alpha   77.93970036
_cell_angle_beta   82.35999650
_cell_angle_gamma   75.06299922
_symmetry_Int_Tables_number   1
_chemical_formula_structural   Cd2P2H10CCl2O11
_chemical_formula_sum   'Cd4 P4 H20 C2 Cl4 O22'
_cell_volume   656.00860462
_cell_formula_units_Z   2
loop_
 _symmetry_equiv_pos_site_id
 _symmetry_equiv_pos_as_xyz
  1  'x, y, z'
loop_
 _atom_site_type_symbol
 _atom_site_label
 _atom_site_symmetry_multiplicity
 _atom_site_fract_x
 _atom_site_fract_y
 _atom_site_fract_z
 _atom_site_occupancy
  Cd  Cd0  1  0.63643185  0.06817100  0.74948094  1
  Cd  Cd1  1  0.36356815  0.93182900  0.25051906  1
  Cd  Cd2  1  0.24875763  0.59656414  0.58268674  1
  Cd  Cd3  1  0.75124237  0.40343586  0.41731326  1
  P  P4  1  0.64817977  0.74075423  0.68043960  1
  P  P5  1  0.35182023  0.25924577  0.31956040  1
  P  P6  1  0.81003825  0.39556284  0.68550136  1
  P  P7  1  0.18996175  0.60443716  0.31449864  1
  H  H8  1  0.11563476  0.19892159  0.82483727  1
  H  H9  1  0.88436524  0.80107841  0.17516273  1
  H  H10  1  0.26833186  0.14778455  0.93072602  1
  H  H11  1  0.73166814  0.85221545  0.06927398  1
  H  H12  1  0.95261615  0.91244794  0.92208531  1
  H  H13  1  0.04738385  0.08755206  0.07791469  1
  H  H14  1  0.76318918  0.04499635  0.96507556  1
  H  H15  1  0.23681082  0.95500365  0.03492444  1
  H  H16  1  0.12223780  0.04788868  0.62677605  1
  H  H17  1  0.87776220  0.95211132  0.37322395  1
  H  H18  1  0.00286592  0.91657167  0.61848378  1
  H  H19  1  0.99713408  0.08342833  0.38151622  1
  H  H20  1  0.25711211  0.24873895  0.62457260  1
  H  H21  1  0.74288789  0.75126105  0.37542740  1
  H  H22  1  0.44134792  0.17390204  0.53686046  1
  H  H23  1  0.55865208  0.82609796  0.46313954  1
  H  H24  1  0.28386545  0.73163141  0.98617158  1
  H  H25  1  0.71613455  0.26836859  0.01382842  1
  H  H26  1  0.37257614  0.83064597  0.87904294  1
  H  H27  1  0.62742386  0.16935403  0.12095706  1
  C  C28  1  0.67291129  0.55012814  0.76100480  1
  C  C29  1  0.32708871  0.44987186  0.23899520  1
  Cl  Cl30  1  0.83097799  0.52763820  0.87991872  1
  Cl  Cl31  1  0.16902201  0.47236180  0.12008128  1
  Cl  Cl32  1  0.36830309  0.53316103  0.81006417  1
  Cl  Cl33  1  0.63169691  0.46683897  0.18993583  1
  O  O34  1  0.28161179  0.16747067  0.85037130  1
  O  O35  1  0.71838821  0.83252933  0.14962870  1
  O  O36  1  0.77654905  0.96294475  0.92656615  1
  O  O37  1  0.22345095  0.03705525  0.07343385  1
  O  O38  1  0.96861380  0.01914398  0.62632396  1
  O  O39  1  0.03138620  0.98085602  0.37367604  1
  O  O40  1  0.36485376  0.15268611  0.61345026  1
  O  O41  1  0.63514624  0.84731389  0.38654974  1
  O  O42  1  0.25503740  0.83100468  0.94685035  1
  O  O43  1  0.74496260  0.16899532  0.05314965  1
  O  O44  1  0.55150368  0.84119619  0.76381425  1
  O  O45  1  0.44849632  0.15880381  0.23618575  1
  O  O46  1  0.90545001  0.75000214  0.63092171  1
  O  O47  1  0.09454999  0.24999786  0.36907829  1
  O  O48  1  0.47062344  0.75839269  0.59344535  1
  O  O49  1  0.52937656  0.24160731  0.40655465  1
  O  O50  1  0.63532761  0.42022106  0.59533530  1
  O  O51  1  0.36467239  0.57977894  0.40466470  1
  O  O52  1  0.06764415  0.40923348  0.63896206  1
  O  O53  1  0.93235585  0.59076652  0.36103794  1
  O  O54  1  0.81761724  0.25485746  0.76811893  1
  O  O55  1  0.18238276  0.74514254  0.23188107  1
