# generated using pymatgen
data_Gd2P7Rh12
_symmetry_space_group_name_H-M   'P 1'
_cell_length_a   3.88074469
_cell_length_b   9.64627324
_cell_length_c   9.63921562
_cell_angle_alpha   60.01902952
_cell_angle_beta   89.92037363
_cell_angle_gamma   90.02169357
_symmetry_Int_Tables_number   1
_chemical_formula_structural   Gd2P7Rh12
_chemical_formula_sum   'Gd2 P7 Rh12'
_cell_volume   312.55715973
_cell_formula_units_Z   1
loop_
 _symmetry_equiv_pos_site_id
 _symmetry_equiv_pos_as_xyz
  1  'x, y, z'
loop_
 _atom_site_type_symbol
 _atom_site_label
 _atom_site_symmetry_multiplicity
 _atom_site_fract_x
 _atom_site_fract_y
 _atom_site_fract_z
 _atom_site_occupancy
  Gd  Gd0  1  0.74902104  0.33339937  0.33325764  1
  Gd  Gd1  1  0.25097896  0.66660063  0.66674236  1
  P  P2  1  0.50000000  -0.00000000  0.00000000  1
  P  P3  1  0.75319394  0.88243008  0.71342159  1
  P  P4  1  0.75313469  0.40416743  0.88245051  1
  P  P5  1  0.75318781  0.71340373  0.40420172  1
  P  P6  1  0.24680606  0.11756992  0.28657841  1
  P  P7  1  0.24686531  0.59583257  0.11754949  1
  P  P8  1  0.24681219  0.28659627  0.59579828  1
  Rh  Rh9  1  0.75107555  0.61834703  0.93259642  1
  Rh  Rh10  1  0.75084763  0.44891202  0.61829096  1
  Rh  Rh11  1  0.75076598  0.93259806  0.44901768  1
  Rh  Rh12  1  0.24892445  0.38165297  0.06740358  1
  Rh  Rh13  1  0.24915237  0.55108798  0.38170904  1
  Rh  Rh14  1  0.24923402  0.06740194  0.55098232  1
  Rh  Rh15  1  0.74979904  0.11181464  0.73887991  1
  Rh  Rh16  1  0.74979779  0.14941043  0.11179360  1
  Rh  Rh17  1  0.75004207  0.73868150  0.14947581  1
  Rh  Rh18  1  0.25020096  0.88818536  0.26112009  1
  Rh  Rh19  1  0.25020221  0.85058957  0.88820640  1
  Rh  Rh20  1  0.24995793  0.26131850  0.85052419  1
