# generated using pymatgen
data_CoRhS4
_symmetry_space_group_name_H-M   'P 1'
_cell_length_a   5.63133518
_cell_length_b   5.62757608
_cell_length_c   5.63821419
_cell_angle_alpha   89.93469722
_cell_angle_beta   90.00000000
_cell_angle_gamma   90.00000000
_symmetry_Int_Tables_number   1
_chemical_formula_structural   CoRhS4
_chemical_formula_sum   'Co2 Rh2 S8'
_cell_volume   178.67921732
_cell_formula_units_Z   2
loop_
 _symmetry_equiv_pos_site_id
 _symmetry_equiv_pos_as_xyz
  1  'x, y, z'
loop_
 _atom_site_type_symbol
 _atom_site_label
 _atom_site_symmetry_multiplicity
 _atom_site_fract_x
 _atom_site_fract_y
 _atom_site_fract_z
 _atom_site_occupancy
  Co  Co0  1  0.50000000  -0.00000000  0.50000000  1
  Co  Co1  1  0.00000000  0.50000000  0.50000000  1
  Rh  Rh2  1  0.50000000  0.50000000  -0.00000000  1
  Rh  Rh3  1  0.00000000  -0.00000000  -0.00000000  1
  S  S4  1  0.89267592  0.39221793  0.11862057  1
  S  S5  1  0.39267592  0.10778207  0.88137943  1
  S  S6  1  0.11376835  0.88676014  0.39649052  1
  S  S7  1  0.61376835  0.61323986  0.60350948  1
  S  S8  1  0.10732408  0.60778207  0.88137943  1
  S  S9  1  0.60732408  0.89221793  0.11862057  1
  S  S10  1  0.88623165  0.11323986  0.60350948  1
  S  S11  1  0.38623165  0.38676014  0.39649052  1
