# generated using pymatgen
data_Cs2SiB4O9
_symmetry_space_group_name_H-M   'P 1'
_cell_length_a   6.87757651
_cell_length_b   6.76429464
_cell_length_c   6.93253916
_cell_angle_alpha   61.77517003
_cell_angle_beta   61.22646148
_cell_angle_gamma   91.72511693
_symmetry_Int_Tables_number   1
_chemical_formula_structural   Cs2SiB4O9
_chemical_formula_sum   'Cs2 Si1 B4 O9'
_cell_volume   234.80028115
_cell_formula_units_Z   1
loop_
 _symmetry_equiv_pos_site_id
 _symmetry_equiv_pos_as_xyz
  1  'x, y, z'
loop_
 _atom_site_type_symbol
 _atom_site_label
 _atom_site_symmetry_multiplicity
 _atom_site_fract_x
 _atom_site_fract_y
 _atom_site_fract_z
 _atom_site_occupancy
  Cs  Cs0  1  0.50681562  0.50681562  0.98636876  1
  Cs  Cs1  1  0.24586223  0.74586223  0.50827553  1
  Si  Si2  1  0.75663311  0.25663311  0.48673378  1
  B  B3  1  0.86146944  0.74777298  0.16553809  1
  B  B4  1  0.97299247  0.08668892  0.16553809  1
  B  B5  1  0.83529430  0.13192020  0.88335708  1
  B  B6  1  0.28134862  0.98472272  0.88335708  1
  O  O7  1  0.96378556  0.18179651  0.31918004  1
  O  O8  1  0.71703440  0.49902345  0.31918004  1
  O  O9  1  0.50558109  0.03597909  0.67502180  1
  O  O10  1  0.81939711  0.28899911  0.67502180  1
  O  O11  1  0.11678610  0.78024215  0.98749028  1
  O  O12  1  0.89572362  0.23226757  0.98749028  1
  O  O13  1  0.78912806  0.89423626  0.97849914  1
  O  O14  1  0.23237280  0.12726459  0.97849914  1
  O  O15  1  0.83587547  0.83587547  0.32824906  1
