# generated using pymatgen
data_CoNiP
_symmetry_space_group_name_H-M   'P 1'
_cell_length_a   3.33266018
_cell_length_b   5.79896273
_cell_length_c   5.79874964
_cell_angle_alpha   120.00121452
_cell_angle_beta   90.00000000
_cell_angle_gamma   90.00000000
_symmetry_Int_Tables_number   1
_chemical_formula_structural   CoNiP
_chemical_formula_sum   'Co3 Ni3 P3'
_cell_volume   97.05122566
_cell_formula_units_Z   3
loop_
 _symmetry_equiv_pos_site_id
 _symmetry_equiv_pos_as_xyz
  1  'x, y, z'
loop_
 _atom_site_type_symbol
 _atom_site_label
 _atom_site_symmetry_multiplicity
 _atom_site_fract_x
 _atom_site_fract_y
 _atom_site_fract_z
 _atom_site_occupancy
  Co  Co0  1  -0.00000000  0.26101774  1.00000000  1
  Co  Co1  1  -0.00000000  0.73897401  0.73896237  1
  Co  Co2  1  -0.00000000  0.00001164  0.26103763  1
  Ni  Ni3  1  0.50000000  0.60368535  1.00000000  1
  Ni  Ni4  1  0.50000000  0.39625273  0.39624936  1
  Ni  Ni5  1  0.50000000  0.00000337  0.60375064  1
  P  P6  1  -0.00000000  0.33332299  0.66672322  1
  P  P7  1  -0.00000000  0.66659977  0.33327678  1
  P  P8  1  0.50000000  0.00003239  0.00000000  1
