# generated using pymatgen
data_CoSi4Ni
_symmetry_space_group_name_H-M   'P 1'
_cell_length_a   3.81339560
_cell_length_b   3.81339561
_cell_length_c   6.60375925
_cell_angle_alpha   73.21811918
_cell_angle_beta   90.00000000
_cell_angle_gamma   120.00000006
_symmetry_Int_Tables_number   1
_chemical_formula_structural   CoSi4Ni
_chemical_formula_sum   'Co1 Si4 Ni1'
_cell_volume   78.40778533
_cell_formula_units_Z   1
loop_
 _symmetry_equiv_pos_site_id
 _symmetry_equiv_pos_as_xyz
  1  'x, y, z'
loop_
 _atom_site_type_symbol
 _atom_site_label
 _atom_site_symmetry_multiplicity
 _atom_site_fract_x
 _atom_site_fract_y
 _atom_site_fract_z
 _atom_site_occupancy
  Co  Co0  1  0.00000000  -0.00000000  -0.00000000  1
  Si  Si1  1  0.62668219  0.25336439  0.11995342  1
  Si  Si2  1  0.12331686  0.24663373  0.63004941  1
  Si  Si3  1  0.87668314  0.75336627  0.36995059  1
  Si  Si4  1  0.37331781  0.74663561  0.88004658  1
  Ni  Ni5  1  0.50000000  0.00000000  0.50000000  1
