# generated using pymatgen
data_K6InAs3
_symmetry_space_group_name_H-M   'P 1'
_cell_length_a   9.25551962
_cell_length_b   9.15430883
_cell_length_c   19.96008199
_cell_angle_alpha   95.02551760
_cell_angle_beta   94.02107071
_cell_angle_gamma   119.46270613
_symmetry_Int_Tables_number   1
_chemical_formula_structural   K6InAs3
_chemical_formula_sum   'K24 In4 As12'
_cell_volume   1454.25667029
_cell_formula_units_Z   4
loop_
 _symmetry_equiv_pos_site_id
 _symmetry_equiv_pos_as_xyz
  1  'x, y, z'
loop_
 _atom_site_type_symbol
 _atom_site_label
 _atom_site_symmetry_multiplicity
 _atom_site_fract_x
 _atom_site_fract_y
 _atom_site_fract_z
 _atom_site_occupancy
  K  K0  1  0.85346100  0.71537188  0.19850263  1
  K  K1  1  0.14653900  0.28462812  0.80149737  1
  K  K2  1  0.24426973  0.04458033  0.30414455  1
  K  K3  1  0.75573027  0.95541967  0.69585545  1
  K  K4  1  0.99277415  0.45494399  0.30545116  1
  K  K5  1  0.00722585  0.54505601  0.69454884  1
  K  K6  1  0.26545181  0.36984271  0.19350748  1
  K  K7  1  0.73454819  0.63015729  0.80649252  1
  K  K8  1  0.84657305  0.03197667  0.06868022  1
  K  K9  1  0.15342695  0.96802333  0.93131978  1
  K  K10  1  0.59726481  0.11545056  0.19586969  1
  K  K11  1  0.40273519  0.88454944  0.80413031  1
  K  K12  1  0.12858091  0.37853501  0.99479549  1
  K  K13  1  0.87141909  0.62146499  0.00520451  1
  K  K14  1  0.98673023  0.16424941  0.43081915  1
  K  K15  1  0.01326977  0.83575059  0.56918085  1
  K  K16  1  0.38112725  0.25275798  0.50230856  1
  K  K17  1  0.61887275  0.74724202  0.49769144  1
  K  K18  1  0.58029733  0.79423072  0.30297525  1
  K  K19  1  0.41970267  0.20576928  0.69702475  1
  K  K20  1  0.73140484  0.23050891  0.55484978  1
  K  K21  1  0.26859516  0.76949109  0.44515022  1
  K  K22  1  0.51748043  0.30285696  0.05576980  1
  K  K23  1  0.48251957  0.69714304  0.94423020  1
  In  In24  1  0.22453317  0.71746345  0.12489726  1
  In  In25  1  0.77546683  0.28253655  0.87510274  1
  In  In26  1  0.63909409  0.45580570  0.37459828  1
  In  In27  1  0.36090591  0.54419430  0.62540172  1
  As  As28  1  0.63015216  0.16291128  0.37981129  1
  As  As29  1  0.36984784  0.83708872  0.62018871  1
  As  As30  1  0.94036719  0.42541451  0.13115699  1
  As  As31  1  0.05963281  0.57458549  0.86884301  1
  As  As32  1  0.91050297  0.75922732  0.38147745  1
  As  As33  1  0.08949703  0.24077268  0.61852255  1
  As  As34  1  0.34209556  0.44471351  0.36958014  1
  As  As35  1  0.65790444  0.55528649  0.63041986  1
  As  As36  1  0.19149260  0.98740991  0.11955470  1
  As  As37  1  0.80850740  0.01259009  0.88044530  1
  As  As38  1  0.50654821  0.70767298  0.11816625  1
  As  As39  1  0.49345179  0.29232702  0.88183375  1
