# generated using pymatgen
data_Cs2LiV3F12
_symmetry_space_group_name_H-M   'P 1'
_cell_length_a   7.55103072
_cell_length_b   7.44508709
_cell_length_c   7.55103072
_cell_angle_alpha   90.00000000
_cell_angle_beta   60.00000000
_cell_angle_gamma   120.47185191
_symmetry_Int_Tables_number   1
_chemical_formula_structural   Cs2LiV3F12
_chemical_formula_sum   'Cs2 Li1 V3 F12'
_cell_volume   298.01131385
_cell_formula_units_Z   1
loop_
 _symmetry_equiv_pos_site_id
 _symmetry_equiv_pos_as_xyz
  1  'x, y, z'
loop_
 _atom_site_type_symbol
 _atom_site_label
 _atom_site_symmetry_multiplicity
 _atom_site_fract_x
 _atom_site_fract_y
 _atom_site_fract_z
 _atom_site_occupancy
  Cs  Cs0  1  0.77304751  0.40957127  0.36347624  1
  Cs  Cs1  1  0.22695249  0.59042873  0.63652376  1
  Li  Li2  1  0.50000000  0.50000000  0.00000000  1
  V  V3  1  0.50000000  0.00000000  0.00000000  1
  V  V4  1  -0.00000000  0.00000000  0.50000000  1
  V  V5  1  -0.00000000  0.00000000  0.00000000  1
  F  F6  1  0.86691674  0.93575434  0.31654163  1
  F  F7  1  0.63777907  0.30828803  0.93111046  1
  F  F8  1  0.25229597  0.93575434  0.93116240  1
  F  F9  1  0.23939850  0.30828803  0.32949104  1
  F  F10  1  0.23939850  0.30828803  0.93111046  1
  F  F11  1  0.25229597  0.93575434  0.31654163  1
  F  F12  1  0.13308326  0.06424566  0.68345837  1
  F  F13  1  0.36222093  0.69171197  0.06888954  1
  F  F14  1  0.74770403  0.06424566  0.06883760  1
  F  F15  1  0.76060150  0.69171197  0.67050896  1
  F  F16  1  0.76060150  0.69171197  0.06888954  1
  F  F17  1  0.74770403  0.06424566  0.68345837  1
