# generated using pymatgen
data_Cr4GaCuS8
_symmetry_space_group_name_H-M   'P 1'
_cell_length_a   7.06155626
_cell_length_b   7.06155626
_cell_length_c   7.06155626
_cell_angle_alpha   90.00000000
_cell_angle_beta   60.00000000
_cell_angle_gamma   120.00000000
_symmetry_Int_Tables_number   1
_chemical_formula_structural   Cr4GaCuS8
_chemical_formula_sum   'Cr4 Ga1 Cu1 S8'
_cell_volume   248.99250443
_cell_formula_units_Z   1
loop_
 _symmetry_equiv_pos_site_id
 _symmetry_equiv_pos_as_xyz
  1  'x, y, z'
loop_
 _atom_site_type_symbol
 _atom_site_label
 _atom_site_symmetry_multiplicity
 _atom_site_fract_x
 _atom_site_fract_y
 _atom_site_fract_z
 _atom_site_occupancy
  Cr  Cr0  1  0.49242318  0.48863477  0.00378841  1
  Cr  Cr1  1  0.49242318  0.00378841  0.00378841  1
  Cr  Cr2  1  0.00757682  0.00378841  0.48863477  1
  Cr  Cr3  1  0.00757682  0.00378841  0.00378841  1
  Ga  Ga4  1  0.25000000  0.62500000  0.62500000  1
  Cu  Cu5  1  0.75000000  0.37500000  0.37500000  1
  S  S6  1  0.01742376  0.77613564  0.24128812  1
  S  S7  1  0.01742376  0.24128812  0.24128812  1
  S  S8  1  0.48257624  0.24128812  0.77613564  1
  S  S9  1  0.48257624  0.24128812  0.24128812  1
  S  S10  1  0.98104653  0.22156980  0.75947673  1
  S  S11  1  0.98104653  0.75947673  0.75947673  1
  S  S12  1  0.51895347  0.75947673  0.22156980  1
  S  S13  1  0.51895347  0.75947673  0.75947673  1
