# generated using pymatgen
data_Ca6Al7ClO16
_symmetry_space_group_name_H-M   'P 1'
_cell_length_a   10.48826329
_cell_length_b   10.48826329
_cell_length_c   10.48826329
_cell_angle_alpha   70.63713222
_cell_angle_beta   70.31185564
_cell_angle_gamma   109.36286778
_symmetry_Int_Tables_number   1
_chemical_formula_structural   Ca6Al7ClO16
_chemical_formula_sum   'Ca12 Al14 Cl2 O32'
_cell_volume   888.14562733
_cell_formula_units_Z   2
loop_
 _symmetry_equiv_pos_site_id
 _symmetry_equiv_pos_as_xyz
  1  'x, y, z'
loop_
 _atom_site_type_symbol
 _atom_site_label
 _atom_site_symmetry_multiplicity
 _atom_site_fract_x
 _atom_site_fract_y
 _atom_site_fract_z
 _atom_site_occupancy
  Ca  Ca0  1  0.60467120  0.25000000  0.14532880  1
  Ca  Ca1  1  0.89532880  0.75000000  0.35467120  1
  Ca  Ca2  1  0.35467120  0.75000000  0.89532880  1
  Ca  Ca3  1  0.14532880  0.25000000  0.60467120  1
  Ca  Ca4  1  0.63607892  0.38607892  0.75000000  1
  Ca  Ca5  1  0.86392108  0.11392108  0.25000000  1
  Ca  Ca6  1  0.38398164  0.63398164  0.25000000  1
  Ca  Ca7  1  0.11601836  0.86601836  0.75000000  1
  Ca  Ca8  1  0.75000000  0.36601836  0.38398164  1
  Ca  Ca9  1  0.25000000  0.13398164  0.11601836  1
  Ca  Ca10  1  0.25000000  0.61392108  0.63607892  1
  Ca  Ca11  1  0.75000000  0.88607892  0.86392108  1
  Al  Al12  1  0.96601014  0.46532719  0.03439148  1
  Al  Al13  1  0.50028134  0.03467281  0.99931705  1
  Al  Al14  1  0.53398986  0.49959838  0.50068295  1
  Al  Al15  1  -0.00028134  0.00040162  0.46560852  1
  Al  Al16  1  0.50068295  0.53467281  -0.00028134  1
  Al  Al17  1  0.46560852  0.96532719  0.53398986  1
  Al  Al18  1  0.03439148  0.50040162  0.50028134  1
  Al  Al19  1  0.99931705  0.99959838  0.96601014  1
  Al  Al20  1  0.87500000  0.25000000  0.87500000  1
  Al  Al21  1  0.62500000  0.75000000  0.62500000  1
  Al  Al22  1  0.37574060  0.12574060  0.75000000  1
  Al  Al23  1  0.12425940  0.37425940  0.25000000  1
  Al  Al24  1  0.75000000  0.62574060  0.12425940  1
  Al  Al25  1  0.25000000  0.87425940  0.37574060  1
  Cl  Cl26  1  0.37500000  0.25000000  0.37500000  1
  Cl  Cl27  1  0.12500000  0.75000000  0.12500000  1
  O  O28  1  0.13036682  0.62762678  0.86359022  1
  O  O29  1  0.50878299  0.87237322  0.99725996  1
  O  O30  1  0.36963318  0.50604296  0.50274004  1
  O  O31  1  0.99121701  0.99395704  0.63640978  1
  O  O32  1  0.50274004  0.37237322  0.99121701  1
  O  O33  1  0.63640978  0.12762678  0.36963318  1
  O  O34  1  0.86359022  0.49395704  0.50878299  1
  O  O35  1  0.99725996  0.00604296  0.13036682  1
  O  O36  1  0.79556611  0.48132627  0.11248101  1
  O  O37  1  0.40619272  0.01867373  0.18576016  1
  O  O38  1  0.70443389  0.59195288  0.31423984  1
  O  O39  1  0.09380728  0.90804712  0.38751899  1
  O  O40  1  0.31423984  0.51867373  0.09380728  1
  O  O41  1  0.38751899  0.98132627  0.70443389  1
  O  O42  1  0.11248101  0.40804712  0.40619272  1
  O  O43  1  0.18576016  0.09195288  0.79556611  1
  O  O44  1  0.68543394  0.20508763  0.90843261  1
  O  O45  1  0.61352024  0.59386655  0.59156739  1
  O  O46  1  0.88647976  0.29491237  0.01965369  1
  O  O47  1  0.81456606  0.90613345  0.48034631  1
  O  O48  1  0.20673349  0.68392225  0.41332722  1
  O  O49  1  0.59724947  0.62006071  0.08667278  1
  O  O50  1  0.29326651  0.87993929  0.52281124  1
  O  O51  1  0.90275053  0.81607775  0.97718876  1
  O  O52  1  0.52281124  0.31607775  0.59724947  1
  O  O53  1  0.97718876  0.37993929  0.20673349  1
  O  O54  1  0.41332722  0.12006071  0.90275053  1
  O  O55  1  0.08667278  0.18392225  0.29326651  1
  O  O56  1  0.48034631  0.79491237  0.61352024  1
  O  O57  1  0.01965369  0.40613345  0.68543394  1
  O  O58  1  0.59156739  0.70508763  0.81456606  1
  O  O59  1  0.90843261  0.09386655  0.88647976  1
