# generated using pymatgen
data_CaLaAl3O7
_symmetry_space_group_name_H-M   'P 1'
_cell_length_a   5.20631337
_cell_length_b   7.87079344
_cell_length_c   7.87545432
_cell_angle_alpha   90.00005609
_cell_angle_beta   90.00041346
_cell_angle_gamma   89.24397822
_symmetry_Int_Tables_number   1
_chemical_formula_structural   CaLaAl3O7
_chemical_formula_sum   'Ca2 La2 Al6 O14'
_cell_volume   322.69083298
_cell_formula_units_Z   2
loop_
 _symmetry_equiv_pos_site_id
 _symmetry_equiv_pos_as_xyz
  1  'x, y, z'
loop_
 _atom_site_type_symbol
 _atom_site_label
 _atom_site_symmetry_multiplicity
 _atom_site_fract_x
 _atom_site_fract_y
 _atom_site_fract_z
 _atom_site_occupancy
  Ca  Ca0  1  0.51296730  0.82907689  0.33472456  1
  Ca  Ca1  1  0.48702959  0.67091284  0.83473710  1
  La  La2  1  0.51335016  0.15469471  0.66025307  1
  La  La3  1  0.48666504  0.34531745  0.16024094  1
  Al  Al4  1  0.95819520  0.64717621  0.14339519  1
  Al  Al5  1  0.04180390  0.85282385  0.64339484  1
  Al  Al6  1  0.96110665  0.36037321  0.85617267  1
  Al  Al7  1  0.03889298  0.13962687  0.35617403  1
  Al  Al8  1  0.99951451  0.49939463  0.49945472  1
  Al  Al9  1  0.00048471  0.00060446  0.99945629  1
  O  O10  1  0.18377253  0.99329580  0.49548176  1
  O  O11  1  0.81622130  0.50670362  0.99548029  1
  O  O12  1  0.29462617  0.63378984  0.14503642  1
  O  O13  1  0.70537312  0.86620734  0.64503479  1
  O  O14  1  0.29757121  0.35189451  0.86281232  1
  O  O15  1  0.70242511  0.14810720  0.36281227  1
  O  O16  1  0.19009008  0.09675205  0.15919195  1
  O  O17  1  0.80991282  0.40324791  0.65919340  1
  O  O18  1  0.19686328  0.91512591  0.83569885  1
  O  O19  1  0.80313574  0.58487464  0.33570014  1
  O  O20  1  0.80926398  0.84387144  0.09479163  1
  O  O21  1  0.19073473  0.65612876  0.59479001  1
  O  O22  1  0.80495505  0.16693727  0.91298719  1
  O  O23  1  0.19504484  0.33306260  0.41298557  1
