# generated using pymatgen
data_Ce2Mn22C3
_symmetry_space_group_name_H-M   'P 1'
_cell_length_a   6.52570903
_cell_length_b   7.78149255
_cell_length_c   7.79546302
_cell_angle_alpha   99.02531442
_cell_angle_beta   114.87860356
_cell_angle_gamma   65.34415290
_symmetry_Int_Tables_number   1
_chemical_formula_structural   Ce2Mn22C3
_chemical_formula_sum   'Ce2 Mn22 C3'
_cell_volume   326.29307289
_cell_formula_units_Z   1
loop_
 _symmetry_equiv_pos_site_id
 _symmetry_equiv_pos_as_xyz
  1  'x, y, z'
loop_
 _atom_site_type_symbol
 _atom_site_label
 _atom_site_symmetry_multiplicity
 _atom_site_fract_x
 _atom_site_fract_y
 _atom_site_fract_z
 _atom_site_occupancy
  Ce  Ce0  1  0.38207601  0.74869615  0.24869615  1
  Ce  Ce1  1  0.61792399  0.25130385  0.75130385  1
  Mn  Mn2  1  -0.00000000  0.50000000  0.00000000  1
  Mn  Mn3  1  -0.00000000  0.50000000  0.50000000  1
  Mn  Mn4  1  0.50000000  0.00000000  0.00000000  1
  Mn  Mn5  1  -0.00000000  0.00000000  0.50000000  1
  Mn  Mn6  1  0.12007069  0.24816430  0.74816430  1
  Mn  Mn7  1  0.87992931  0.75183570  0.25183570  1
  Mn  Mn8  1  0.17513748  0.17703739  0.41651154  1
  Mn  Mn9  1  0.43566333  0.91651154  0.67703739  1
  Mn  Mn10  1  0.85237490  0.82418876  0.91928733  1
  Mn  Mn11  1  0.25727634  0.41928733  0.32418876  1
  Mn  Mn12  1  0.18825306  0.57436873  0.83208078  1
  Mn  Mn13  1  0.43054101  0.33208078  0.07436873  1
  Mn  Mn14  1  0.84918930  0.08932752  0.17254516  1
  Mn  Mn15  1  0.26597166  0.67254516  0.58932752  1
  Mn  Mn16  1  0.82486252  0.82296261  0.58348846  1
  Mn  Mn17  1  0.56433667  0.08348846  0.32296261  1
  Mn  Mn18  1  0.14762510  0.17581124  0.08071267  1
  Mn  Mn19  1  0.74272366  0.58071267  0.67581124  1
  Mn  Mn20  1  0.81174694  0.42563127  0.16791922  1
  Mn  Mn21  1  0.56945899  0.66791922  0.92563127  1
  Mn  Mn22  1  0.15081070  0.91067248  0.82745484  1
  Mn  Mn23  1  0.73402834  0.32745484  0.41067248  1
  C  C24  1  0.50000000  0.50000000  0.50000000  1
  C  C25  1  -0.00000000  0.00000000  0.00000000  1
  C  C26  1  0.50000000  0.00000000  0.50000000  1
