# generated using pymatgen
data_CeTaTiO6
_symmetry_space_group_name_H-M   'P 1'
_cell_length_a   5.36751430
_cell_length_b   7.58220829
_cell_length_c   11.15673887
_cell_angle_alpha   90.00000000
_cell_angle_beta   90.00000000
_cell_angle_gamma   90.00000000
_symmetry_Int_Tables_number   1
_chemical_formula_structural   CeTaTiO6
_chemical_formula_sum   'Ce4 Ta4 Ti4 O24'
_cell_volume   454.05262327
_cell_formula_units_Z   4
loop_
 _symmetry_equiv_pos_site_id
 _symmetry_equiv_pos_as_xyz
  1  'x, y, z'
loop_
 _atom_site_type_symbol
 _atom_site_label
 _atom_site_symmetry_multiplicity
 _atom_site_fract_x
 _atom_site_fract_y
 _atom_site_fract_z
 _atom_site_occupancy
  Ce  Ce0  1  0.54716314  0.24846259  0.04272518  1
  Ce  Ce1  1  0.95283686  0.24846259  0.54272518  1
  Ce  Ce2  1  0.45283686  0.74846259  0.95727482  1
  Ce  Ce3  1  0.04716314  0.74846259  0.45727482  1
  Ta  Ta4  1  0.54009502  0.00581168  0.35559638  1
  Ta  Ta5  1  0.45990498  0.50581168  0.64440362  1
  Ta  Ta6  1  0.04009502  0.50581168  0.14440362  1
  Ta  Ta7  1  0.95990498  0.00581168  0.85559638  1
  Ti  Ti8  1  0.96382252  0.49416533  0.85765156  1
  Ti  Ti9  1  0.03617748  0.99416533  0.14234844  1
  Ti  Ti10  1  0.46382252  0.99416533  0.64234844  1
  Ti  Ti11  1  0.53617748  0.49416533  0.35765156  1
  O  O12  1  0.84193031  0.25138686  0.88034928  1
  O  O13  1  0.65806969  0.25138686  0.38034928  1
  O  O14  1  0.15806969  0.75138686  0.11965072  1
  O  O15  1  0.34193031  0.75138686  0.61965072  1
  O  O16  1  0.94778525  0.24940994  0.14269646  1
  O  O17  1  0.55221475  0.24940994  0.64269646  1
  O  O18  1  0.05221475  0.74940994  0.85730354  1
  O  O19  1  0.44778525  0.74940994  0.35730354  1
  O  O20  1  0.76277348  0.53776294  0.02695510  1
  O  O21  1  0.73388976  0.96248237  0.52436130  1
  O  O22  1  0.23722652  0.03776294  0.97304490  1
  O  O23  1  0.26611024  0.46248237  0.47563870  1
  O  O24  1  0.23388976  0.46248237  0.97563870  1
  O  O25  1  0.26277348  0.03776294  0.47304490  1
  O  O26  1  0.76611024  0.96248237  0.02436130  1
  O  O27  1  0.73722652  0.53776294  0.52695510  1
  O  O28  1  0.37238262  0.05992057  0.20978539  1
  O  O29  1  0.12347128  0.44059773  0.71219327  1
  O  O30  1  0.62761738  0.55992057  0.79021461  1
  O  O31  1  0.87652872  0.94059773  0.28780673  1
  O  O32  1  0.62347128  0.94059773  0.78780673  1
  O  O33  1  0.87238262  0.55992057  0.29021461  1
  O  O34  1  0.37652872  0.44059773  0.21219327  1
  O  O35  1  0.12761738  0.05992057  0.70978539  1
