# generated using pymatgen
data_CaBiIO2
_symmetry_space_group_name_H-M   'P 1'
_cell_length_a   4.03664790
_cell_length_b   4.03664790
_cell_length_c   7.36643204
_cell_angle_alpha   74.09820009
_cell_angle_beta   74.09820009
_cell_angle_gamma   90.00000000
_symmetry_Int_Tables_number   1
_chemical_formula_structural   CaBiIO2
_chemical_formula_sum   'Ca1 Bi1 I1 O2'
_cell_volume   110.65537476
_cell_formula_units_Z   1
loop_
 _symmetry_equiv_pos_site_id
 _symmetry_equiv_pos_as_xyz
  1  'x, y, z'
loop_
 _atom_site_type_symbol
 _atom_site_label
 _atom_site_symmetry_multiplicity
 _atom_site_fract_x
 _atom_site_fract_y
 _atom_site_fract_z
 _atom_site_occupancy
  Ca  Ca0  1  0.33416971  0.33416971  0.33166059  1
  Bi  Bi1  1  0.67464859  0.67464859  0.65070282  1
  I  I2  1  0.99010509  0.99010509  0.01978983  1
  O  O3  1  0.75053831  0.25053831  0.49892338  1
  O  O4  1  0.25053831  0.75053831  0.49892338  1
