# generated using pymatgen
data_Ce3Mg2InAu3
_symmetry_space_group_name_H-M   'P 1'
_cell_length_a   4.25713151
_cell_length_b   7.70162712
_cell_length_c   7.70162683
_cell_angle_alpha   60.73361104
_cell_angle_beta   90.00000000
_cell_angle_gamma   90.00000000
_symmetry_Int_Tables_number   1
_chemical_formula_structural   Ce3Mg2InAu3
_chemical_formula_sum   'Ce3 Mg2 In1 Au3'
_cell_volume   220.28041235
_cell_formula_units_Z   1
loop_
 _symmetry_equiv_pos_site_id
 _symmetry_equiv_pos_as_xyz
  1  'x, y, z'
loop_
 _atom_site_type_symbol
 _atom_site_label
 _atom_site_symmetry_multiplicity
 _atom_site_fract_x
 _atom_site_fract_y
 _atom_site_fract_z
 _atom_site_occupancy
  Ce  Ce0  1  -0.00000000  0.41645202  0.58354798  1
  Ce  Ce1  1  -0.00000000  0.58672406  0.99949118  1
  Ce  Ce2  1  -0.00000000  0.00050882  0.41327594  1
  Mg  Mg3  1  0.50000000  0.24312100  0.00042327  1
  Mg  Mg4  1  0.50000000  0.99957673  0.75687900  1
  In  In5  1  0.50000000  0.75248641  0.24751359  1
  Au  Au6  1  0.50000000  0.66430177  0.67383264  1
  Au  Au7  1  0.50000000  0.32616736  0.33569823  1
  Au  Au8  1  -0.00000000  0.01076183  0.98923817  1
