# generated using pymatgen
data_BaNaPO4
_symmetry_space_group_name_H-M   'P 1'
_cell_length_a   5.69730384
_cell_length_b   5.69731752
_cell_length_c   7.31331893
_cell_angle_alpha   89.99964936
_cell_angle_beta   89.99963247
_cell_angle_gamma   60.00047330
_symmetry_Int_Tables_number   1
_chemical_formula_structural   BaNaPO4
_chemical_formula_sum   'Ba2 Na2 P2 O8'
_cell_volume   205.58291577
_cell_formula_units_Z   2
loop_
 _symmetry_equiv_pos_site_id
 _symmetry_equiv_pos_as_xyz
  1  'x, y, z'
loop_
 _atom_site_type_symbol
 _atom_site_label
 _atom_site_symmetry_multiplicity
 _atom_site_fract_x
 _atom_site_fract_y
 _atom_site_fract_z
 _atom_site_occupancy
  Ba  Ba0  1  0.99999923  -0.00000015  0.51250244  1
  Ba  Ba1  1  0.33333892  0.33333766  0.15295666  1
  Na  Na2  1  0.99999740  0.99999711  0.99295186  1
  Na  Na3  1  0.66669820  0.66669538  0.81063382  1
  P  P4  1  0.66666890  0.66666831  0.28516045  1
  P  P5  1  0.33332506  0.33332688  0.72059227  1
  O  O6  1  0.81502043  0.81502073  0.20758193  1
  O  O7  1  0.36994932  0.81502076  0.20760135  1
  O  O8  1  0.81502157  0.36994899  0.20760064  1
  O  O9  1  0.18591767  0.18591685  0.79915385  1
  O  O10  1  0.62814851  0.18591646  0.79914805  1
  O  O11  1  0.18591467  0.62814960  0.79914841  1
  O  O12  1  0.66667637  0.66667683  0.49526614  1
  O  O13  1  0.33332374  0.33332459  0.50970212  1
