# generated using pymatgen
data_BaFe4Sn2O11
_symmetry_space_group_name_H-M   'P 1'
_cell_length_a   6.07359595
_cell_length_b   6.07359595
_cell_length_c   13.68346296
_cell_angle_alpha   90.00000000
_cell_angle_beta   90.00000000
_cell_angle_gamma   119.97272532
_symmetry_Int_Tables_number   1
_chemical_formula_structural   BaFe4Sn2O11
_chemical_formula_sum   'Ba2 Fe8 Sn4 O22'
_cell_volume   437.25797731
_cell_formula_units_Z   2
loop_
 _symmetry_equiv_pos_site_id
 _symmetry_equiv_pos_as_xyz
  1  'x, y, z'
loop_
 _atom_site_type_symbol
 _atom_site_label
 _atom_site_symmetry_multiplicity
 _atom_site_fract_x
 _atom_site_fract_y
 _atom_site_fract_z
 _atom_site_occupancy
  Ba  Ba0  1  0.66310000  0.33690000  0.75000000  1
  Ba  Ba1  1  0.33690000  0.66310000  0.25000000  1
  Fe  Fe2  1  0.67013321  0.32986679  0.25000000  1
  Fe  Fe3  1  0.32986679  0.67013321  0.75000000  1
  Fe  Fe4  1  0.50000000  0.50000000  0.50000000  1
  Fe  Fe5  1  0.50000000  0.50000000  0.00000000  1
  Fe  Fe6  1  -0.00000000  0.50000000  0.50000000  1
  Fe  Fe7  1  0.50000000  -0.00000000  0.50000000  1
  Fe  Fe8  1  -0.00000000  0.50000000  -0.00000000  1
  Fe  Fe9  1  0.50000000  -0.00000000  0.00000000  1
  Sn  Sn10  1  0.99756834  0.00243166  0.63915071  1
  Sn  Sn11  1  0.00243166  0.99756834  0.36084929  1
  Sn  Sn12  1  0.99756834  0.00243166  0.86084929  1
  Sn  Sn13  1  0.00243166  0.99756834  0.13915071  1
  O  O14  1  0.82113816  0.17886184  0.57939547  1
  O  O15  1  0.17886184  0.82113816  0.42060453  1
  O  O16  1  0.82113816  0.17886184  0.92060453  1
  O  O17  1  0.17886184  0.82113816  0.07939547  1
  O  O18  1  0.14573603  0.85426397  0.75000000  1
  O  O19  1  0.85426397  0.14573603  0.25000000  1
  O  O20  1  0.14429044  0.30325014  0.75000000  1
  O  O21  1  0.30325014  0.14429044  0.25000000  1
  O  O22  1  0.85570956  0.69674986  0.25000000  1
  O  O23  1  0.69674986  0.85570956  0.75000000  1
  O  O24  1  0.35225806  0.17719444  0.57983448  1
  O  O25  1  0.17719444  0.35225806  0.42016552  1
  O  O26  1  0.35225806  0.17719444  0.92016552  1
  O  O27  1  0.17719444  0.35225806  0.07983448  1
  O  O28  1  0.64774194  0.82280556  0.42016552  1
  O  O29  1  0.82280556  0.64774194  0.57983448  1
  O  O30  1  0.64774194  0.82280556  0.07983448  1
  O  O31  1  0.82280556  0.64774194  0.92016552  1
  O  O32  1  0.66720119  0.33279881  0.08520708  1
  O  O33  1  0.33279881  0.66720119  0.91479292  1
  O  O34  1  0.66720119  0.33279881  0.41479292  1
  O  O35  1  0.33279881  0.66720119  0.58520708  1
