# generated using pymatgen
data_CaGd2(GeO3)4
_symmetry_space_group_name_H-M   'P 1'
_cell_length_a   5.14118700
_cell_length_b   10.18000791
_cell_length_c   10.18000791
_cell_angle_alpha   90.24708417
_cell_angle_beta   90.00000000
_cell_angle_gamma   90.00000000
_symmetry_Int_Tables_number   1
_chemical_formula_structural   CaGd2(GeO3)4
_chemical_formula_sum   'Ca2 Gd4 Ge8 O24'
_cell_volume   532.78942194
_cell_formula_units_Z   2
loop_
 _symmetry_equiv_pos_site_id
 _symmetry_equiv_pos_as_xyz
  1  'x, y, z'
loop_
 _atom_site_type_symbol
 _atom_site_label
 _atom_site_symmetry_multiplicity
 _atom_site_fract_x
 _atom_site_fract_y
 _atom_site_fract_z
 _atom_site_occupancy
  Ca  Ca0  1  0.50000000  0.50000000  0.50000000  1
  Ca  Ca1  1  0.50000000  0.00000000  -0.00000000  1
  Gd  Gd2  1  0.50000000  0.00000000  0.50000000  1
  Gd  Gd3  1  0.50000000  0.50000000  -0.00000000  1
  Gd  Gd4  1  0.50000000  0.75000000  0.75000000  1
  Gd  Gd5  1  0.50000000  0.25000000  0.25000000  1
  Ge  Ge6  1  0.99852307  0.75144471  0.02296831  1
  Ge  Ge7  1  0.00147693  0.24855529  0.97703169  1
  Ge  Ge8  1  0.00147693  0.25144471  0.52296831  1
  Ge  Ge9  1  0.99852307  0.74855529  0.47703169  1
  Ge  Ge10  1  0.00147693  0.02296831  0.75144471  1
  Ge  Ge11  1  0.99852307  0.97703169  0.24855529  1
  Ge  Ge12  1  0.99852307  0.52296831  0.25144471  1
  Ge  Ge13  1  0.00147693  0.47703169  0.74855529  1
  O  O14  1  0.15672334  0.87071172  0.12928828  1
  O  O15  1  0.15898070  0.37375217  0.87375217  1
  O  O16  1  0.15898070  0.12624783  0.62624783  1
  O  O17  1  0.15672334  0.62928828  0.37071172  1
  O  O18  1  0.84327666  0.12928828  0.87071172  1
  O  O19  1  0.84101930  0.62624783  0.12624783  1
  O  O20  1  0.84101930  0.87375217  0.37375217  1
  O  O21  1  0.84327666  0.37071172  0.62928828  1
  O  O22  1  0.25520593  0.56371550  0.67709430  1
  O  O23  1  0.25518994  0.05867552  0.32618627  1
  O  O24  1  0.25518994  0.44132448  0.17381373  1
  O  O25  1  0.25520593  0.93628450  0.82290570  1
  O  O26  1  0.74479407  0.43628450  0.32290570  1
  O  O27  1  0.74481006  0.94132448  0.67381373  1
  O  O28  1  0.74481006  0.55867552  0.82618627  1
  O  O29  1  0.74479407  0.06371550  0.17709430  1
  O  O30  1  0.74479407  0.67709430  0.56371550  1
  O  O31  1  0.74481006  0.32618627  0.05867552  1
  O  O32  1  0.74481006  0.17381373  0.44132448  1
  O  O33  1  0.74479407  0.82290570  0.93628450  1
  O  O34  1  0.25520593  0.32290570  0.43628450  1
  O  O35  1  0.25518994  0.67381373  0.94132448  1
  O  O36  1  0.25518994  0.82618627  0.55867552  1
  O  O37  1  0.25520593  0.17709430  0.06371550  1
