# generated using pymatgen
data_Ca20(CdGa3)3
_symmetry_space_group_name_H-M   'P 1'
_cell_length_a   8.10272440
_cell_length_b   8.10272440
_cell_length_c   14.73862323
_cell_angle_alpha   90.00000000
_cell_angle_beta   90.00000000
_cell_angle_gamma   90.00000000
_symmetry_Int_Tables_number   1
_chemical_formula_structural   Ca20(CdGa3)3
_chemical_formula_sum   'Ca20 Cd3 Ga9'
_cell_volume   967.65167278
_cell_formula_units_Z   1
loop_
 _symmetry_equiv_pos_site_id
 _symmetry_equiv_pos_as_xyz
  1  'x, y, z'
loop_
 _atom_site_type_symbol
 _atom_site_label
 _atom_site_symmetry_multiplicity
 _atom_site_fract_x
 _atom_site_fract_y
 _atom_site_fract_z
 _atom_site_occupancy
  Ca  Ca0  1  0.68066223  0.16614103  0.35603657  1
  Ca  Ca1  1  0.17116321  0.67156684  0.85940561  1
  Ca  Ca2  1  0.31933777  0.83385897  0.35603657  1
  Ca  Ca3  1  0.82883679  0.32843316  0.85940561  1
  Ca  Ca4  1  0.83385897  0.68066223  0.35603657  1
  Ca  Ca5  1  0.32843316  0.17116321  0.85940561  1
  Ca  Ca6  1  0.16614103  0.31933777  0.35603657  1
  Ca  Ca7  1  0.67156684  0.82883679  0.85940561  1
  Ca  Ca8  1  0.83385897  0.31933777  0.14396343  1
  Ca  Ca9  1  0.32843316  0.82883679  0.64059439  1
  Ca  Ca10  1  0.16614103  0.68066223  0.14396343  1
  Ca  Ca11  1  0.67156684  0.17116321  0.64059439  1
  Ca  Ca12  1  0.68066223  0.83385897  0.14396343  1
  Ca  Ca13  1  0.17116321  0.32843316  0.64059439  1
  Ca  Ca14  1  0.31933777  0.16614103  0.14396343  1
  Ca  Ca15  1  0.82883679  0.67156684  0.64059439  1
  Ca  Ca16  1  0.50000000  0.50000000  0.00349389  1
  Ca  Ca17  1  0.00000000  0.00000000  0.49724210  1
  Ca  Ca18  1  0.00000000  0.00000000  0.00275790  1
  Ca  Ca19  1  0.50000000  0.50000000  0.49650611  1
  Cd  Cd20  1  0.50000000  0.50000000  0.75000000  1
  Cd  Cd21  1  0.50000000  0.50000000  0.25000000  1
  Cd  Cd22  1  0.00000000  0.00000000  0.75000000  1
  Ga  Ga23  1  0.61281993  0.11501087  0.00123357  1
  Ga  Ga24  1  0.11501087  0.61281993  0.49876643  1
  Ga  Ga25  1  0.88498913  0.38718007  0.49876643  1
  Ga  Ga26  1  0.38718007  0.88498913  0.00123357  1
  Ga  Ga27  1  0.88498913  0.61281993  0.00123357  1
  Ga  Ga28  1  0.38718007  0.11501087  0.49876643  1
  Ga  Ga29  1  0.11501087  0.38718007  0.00123357  1
  Ga  Ga30  1  0.61281993  0.88498913  0.49876643  1
  Ga  Ga31  1  0.00000000  0.00000000  0.25000000  1
