# generated using pymatgen
data_Ca2MgReO6
_symmetry_space_group_name_H-M   'P 1'
_cell_length_a   5.46035786
_cell_length_b   5.57563706
_cell_length_c   7.76021712
_cell_angle_alpha   90.00000000
_cell_angle_beta   89.99976659
_cell_angle_gamma   90.00000000
_symmetry_Int_Tables_number   1
_chemical_formula_structural   Ca2MgReO6
_chemical_formula_sum   'Ca4 Mg2 Re2 O12'
_cell_volume   236.25960554
_cell_formula_units_Z   2
loop_
 _symmetry_equiv_pos_site_id
 _symmetry_equiv_pos_as_xyz
  1  'x, y, z'
loop_
 _atom_site_type_symbol
 _atom_site_label
 _atom_site_symmetry_multiplicity
 _atom_site_fract_x
 _atom_site_fract_y
 _atom_site_fract_z
 _atom_site_occupancy
  Ca  Ca0  1  0.99182113  0.04785680  0.75097274  1
  Ca  Ca1  1  0.49182113  0.45214320  0.25097274  1
  Ca  Ca2  1  0.00817887  0.95214320  0.24902726  1
  Ca  Ca3  1  0.50817887  0.54785680  0.74902726  1
  Mg  Mg4  1  -0.00000000  0.50000000  -0.00000000  1
  Mg  Mg5  1  0.50000000  -0.00000000  0.50000000  1
  Re  Re6  1  -0.00000000  0.50000000  0.50000000  1
  Re  Re7  1  0.50000000  -0.00000000  -0.00000000  1
  O  O8  1  0.19184541  0.21502326  0.45382313  1
  O  O9  1  0.69184541  0.28497674  0.95382313  1
  O  O10  1  0.80815459  0.78497674  0.54617687  1
  O  O11  1  0.30815459  0.71502326  0.04617687  1
  O  O12  1  0.28673384  0.69632202  0.45502942  1
  O  O13  1  0.78673384  0.80367798  0.95502942  1
  O  O14  1  0.71326616  0.30367798  0.54497058  1
  O  O15  1  0.21326616  0.19632202  0.04497058  1
  O  O16  1  0.08729576  0.47385078  0.74193307  1
  O  O17  1  0.58729576  0.02614922  0.24193307  1
  O  O18  1  0.91270424  0.52614922  0.25806693  1
  O  O19  1  0.41270424  0.97385078  0.75806693  1
