# generated using pymatgen
data_CaU3Ti8O24
_symmetry_space_group_name_H-M   'P 1'
_cell_length_a   7.50473952
_cell_length_b   7.85782396
_cell_length_c   8.45750278
_cell_angle_alpha   81.06762010
_cell_angle_beta   111.53004624
_cell_angle_gamma   85.16558024
_symmetry_Int_Tables_number   1
_chemical_formula_structural   CaU3Ti8O24
_chemical_formula_sum   'Ca1 U3 Ti8 O24'
_cell_volume   452.87292577
_cell_formula_units_Z   1
loop_
 _symmetry_equiv_pos_site_id
 _symmetry_equiv_pos_as_xyz
  1  'x, y, z'
loop_
 _atom_site_type_symbol
 _atom_site_label
 _atom_site_symmetry_multiplicity
 _atom_site_fract_x
 _atom_site_fract_y
 _atom_site_fract_z
 _atom_site_occupancy
  Ca  Ca0  1  -0.00000000  -0.00000000  0.00000000  1
  U  U1  1  0.24977722  0.24840563  0.74899867  1
  U  U2  1  0.50000000  0.50000000  0.50000000  1
  U  U3  1  0.75022278  0.75159437  0.25100133  1
  Ti  Ti4  1  0.06492378  0.32198749  0.27981676  1
  Ti  Ti5  1  0.82219890  0.07777089  0.54127276  1
  Ti  Ti6  1  0.31666924  0.57741942  0.03337661  1
  Ti  Ti7  1  0.57119439  0.82735101  0.79111591  1
  Ti  Ti8  1  0.93507622  0.67801251  0.72018324  1
  Ti  Ti9  1  0.68333076  0.42258058  0.96662339  1
  Ti  Ti10  1  0.17780110  0.92222911  0.45872724  1
  Ti  Ti11  1  0.42880561  0.17264899  0.20888409  1
  O  O12  1  0.24990934  0.40685540  0.18780355  1
  O  O13  1  0.99726259  0.15492885  0.43093156  1
  O  O14  1  0.49344432  0.65556216  0.93275426  1
  O  O15  1  0.74381456  0.90648837  0.68232034  1
  O  O16  1  0.75009066  0.59314460  0.81219645  1
  O  O17  1  0.50655568  0.34443784  0.06724574  1
  O  O18  1  0.00273741  0.84507115  0.56906844  1
  O  O19  1  0.25618544  0.09351163  0.31767966  1
  O  O20  1  0.85392991  0.51300117  0.19465592  1
  O  O21  1  0.60505487  0.25825312  0.44325954  1
  O  O22  1  0.10453989  0.74460178  0.93510941  1
  O  O23  1  0.35373110  0.00725173  0.69324958  1
  O  O24  1  0.14607009  0.48699883  0.80534408  1
  O  O25  1  0.89546011  0.25539822  0.06489059  1
  O  O26  1  0.39494513  0.74174688  0.55674046  1
  O  O27  1  0.64626890  0.99274827  0.30675042  1
  O  O28  1  0.21702616  0.40515743  0.49113889  1
  O  O29  1  0.96945223  0.16675817  0.72657376  1
  O  O30  1  0.46876690  0.65925161  0.23829995  1
  O  O31  1  0.70465980  0.90089552  0.99217316  1
  O  O32  1  0.78297384  0.59484257  0.50886111  1
  O  O33  1  0.53123310  0.34074839  0.76170005  1
  O  O34  1  0.03054777  0.83324183  0.27342624  1
  O  O35  1  0.29534020  0.09910448  0.00782684  1
