# generated using pymatgen
data_Ca2LaRuO6
_symmetry_space_group_name_H-M   'P 1'
_cell_length_a   5.65444959
_cell_length_b   5.91143554
_cell_length_c   8.14967713
_cell_angle_alpha   90.00000000
_cell_angle_beta   90.21030742
_cell_angle_gamma   90.00000000
_symmetry_Int_Tables_number   1
_chemical_formula_structural   Ca2LaRuO6
_chemical_formula_sum   'Ca4 La2 Ru2 O12'
_cell_volume   272.40857383
_cell_formula_units_Z   2
loop_
 _symmetry_equiv_pos_site_id
 _symmetry_equiv_pos_as_xyz
  1  'x, y, z'
loop_
 _atom_site_type_symbol
 _atom_site_label
 _atom_site_symmetry_multiplicity
 _atom_site_fract_x
 _atom_site_fract_y
 _atom_site_fract_z
 _atom_site_occupancy
  Ca  Ca0  1  0.98474393  0.05799523  0.24745924  1
  Ca  Ca1  1  0.48474393  0.44200477  0.74745924  1
  Ca  Ca2  1  0.50027102  0.00460079  0.49925688  1
  Ca  Ca3  1  0.00027102  0.49539921  0.99925688  1
  La  La4  1  0.01482365  0.94402010  0.75279455  1
  La  La5  1  0.51482365  0.55597990  0.25279455  1
  Ru  Ru6  1  0.00055787  0.49943915  0.50063635  1
  Ru  Ru7  1  0.50055787  0.00056085  0.00063635  1
  O  O8  1  0.28665539  0.67954594  0.55331571  1
  O  O9  1  0.78665539  0.82045406  0.05331571  1
  O  O10  1  0.71533916  0.32004637  0.44711451  1
  O  O11  1  0.21533916  0.17995363  0.94711451  1
  O  O12  1  0.11024001  0.45010431  0.27076738  1
  O  O13  1  0.61024001  0.04989569  0.77076738  1
  O  O14  1  0.88608507  0.54567807  0.72880086  1
  O  O15  1  0.38608507  0.95432193  0.22880086  1
  O  O16  1  0.17370132  0.21874190  0.56487509  1
  O  O17  1  0.67370132  0.28125810  0.06487509  1
  O  O18  1  0.82758258  0.78148552  0.43497943  1
  O  O19  1  0.32758258  0.71851448  0.93497943  1
