# generated using pymatgen
data_Ba3Y2WO9
_symmetry_space_group_name_H-M   'P 1'
_cell_length_a   6.10607941
_cell_length_b   8.65401036
_cell_length_c   10.59578741
_cell_angle_alpha   65.89749983
_cell_angle_beta   73.25353590
_cell_angle_gamma   90.00000000
_symmetry_Int_Tables_number   1
_chemical_formula_structural   Ba3Y2WO9
_chemical_formula_sum   'Ba6 Y4 W2 O18'
_cell_volume   484.95865522
_cell_formula_units_Z   2
loop_
 _symmetry_equiv_pos_site_id
 _symmetry_equiv_pos_as_xyz
  1  'x, y, z'
loop_
 _atom_site_type_symbol
 _atom_site_label
 _atom_site_symmetry_multiplicity
 _atom_site_fract_x
 _atom_site_fract_y
 _atom_site_fract_z
 _atom_site_occupancy
  Ba  Ba0  1  0.50000000  0.26608890  1.00000000  1
  Ba  Ba1  1  0.83959104  0.57979283  0.32081693  1
  Ba  Ba2  1  0.16040896  0.90061075  0.67918307  1
  Ba  Ba3  1  0.50000000  0.73391110  0.00000000  1
  Ba  Ba4  1  0.83959104  0.09938925  0.32081693  1
  Ba  Ba5  1  0.16040896  0.42020717  0.67918307  1
  Y  Y6  1  0.00000000  -0.00000000  0.00000000  1
  Y  Y7  1  0.32796983  0.32796983  0.34405934  1
  Y  Y8  1  0.67203017  0.67203017  0.65594066  1
  Y  Y9  1  0.00000000  0.50000000  0.00000000  1
  W  W10  1  0.33409775  0.83409775  0.33180350  1
  W  W11  1  0.66590225  0.16590225  0.66819650  1
  O  O12  1  0.00000000  0.24655879  1.00000000  1
  O  O13  1  0.33023942  0.60177437  0.33952016  1
  O  O14  1  0.66976058  0.94129553  0.66047984  1
  O  O15  1  0.16133064  0.41057830  0.17884440  1
  O  O16  1  0.48894420  0.75942529  0.48114943  1
  O  O17  1  0.81822662  0.09015127  0.81969647  1
  O  O18  1  0.34017404  0.58942170  0.82115560  1
  O  O19  1  0.63792409  0.90984873  0.18030353  1
  O  O20  1  0.97009363  0.24057471  0.51885057  1
  O  O21  1  1.00000000  0.75344121  0.00000000  1
  O  O22  1  0.33023942  0.05870447  0.33952016  1
  O  O23  1  0.66976058  0.39822563  0.66047984  1
  O  O24  1  0.83866936  0.58942170  0.82115560  1
  O  O25  1  0.18177338  0.90984873  0.18030353  1
  O  O26  1  0.51105580  0.24057471  0.51885057  1
  O  O27  1  0.65982596  0.41057830  0.17884440  1
  O  O28  1  0.02990637  0.75942529  0.48114943  1
  O  O29  1  0.36207591  0.09015127  0.81969647  1
