# generated using pymatgen
data_Ca2IrRhO6
_symmetry_space_group_name_H-M   'P 1'
_cell_length_a   3.18935793
_cell_length_b   5.17556989
_cell_length_c   7.37624096
_cell_angle_alpha   90.28063898
_cell_angle_beta   90.00000000
_cell_angle_gamma   72.05424054
_symmetry_Int_Tables_number   1
_chemical_formula_structural   Ca2IrRhO6
_chemical_formula_sum   'Ca2 Ir1 Rh1 O6'
_cell_volume   115.83251200
_cell_formula_units_Z   1
loop_
 _symmetry_equiv_pos_site_id
 _symmetry_equiv_pos_as_xyz
  1  'x, y, z'
loop_
 _atom_site_type_symbol
 _atom_site_label
 _atom_site_symmetry_multiplicity
 _atom_site_fract_x
 _atom_site_fract_y
 _atom_site_fract_z
 _atom_site_occupancy
  Ca  Ca0  1  0.74896305  0.50207390  0.24167880  1
  Ca  Ca1  1  0.25103695  0.49792610  0.75832120  1
  Ir  Ir2  1  -0.00000000  0.00000000  0.50000000  1
  Rh  Rh3  1  -0.00000000  0.00000000  0.00000000  1
  O  O4  1  0.07504678  0.84990644  0.25302570  1
  O  O5  1  0.92495322  0.15009356  0.74697430  1
  O  O6  1  0.37027773  0.25944455  0.04994630  1
  O  O7  1  0.62972227  0.74055545  0.95005370  1
  O  O8  1  0.37569480  0.24861039  0.45100800  1
  O  O9  1  0.62430520  0.75138961  0.54899200  1
