# generated using pymatgen
data_AlTlSi3O8
_symmetry_space_group_name_H-M   'P 1'
_cell_length_a   7.36388455
_cell_length_b   7.78209766
_cell_length_c   8.11550518
_cell_angle_alpha   111.10229501
_cell_angle_beta   105.80688833
_cell_angle_gamma   103.46442164
_symmetry_Int_Tables_number   1
_chemical_formula_structural   AlTlSi3O8
_chemical_formula_sum   'Al2 Tl2 Si6 O16'
_cell_volume   388.07384609
_cell_formula_units_Z   2
loop_
 _symmetry_equiv_pos_site_id
 _symmetry_equiv_pos_as_xyz
  1  'x, y, z'
loop_
 _atom_site_type_symbol
 _atom_site_label
 _atom_site_symmetry_multiplicity
 _atom_site_fract_x
 _atom_site_fract_y
 _atom_site_fract_z
 _atom_site_occupancy
  Al  Al0  1  0.21817393  0.81506065  0.20243662  1
  Al  Al1  1  0.78182607  0.18493935  0.79756338  1
  Tl  Tl2  1  0.15498165  0.29591331  0.29158920  1
  Tl  Tl3  1  0.84501835  0.70408669  0.70841080  1
  Si  Si4  1  0.33929007  0.60384817  0.84712166  1
  Si  Si5  1  0.34669109  0.84031014  0.60479927  1
  Si  Si6  1  0.66070993  0.39615183  0.15287834  1
  Si  Si7  1  0.65330891  0.15968986  0.39520073  1
  Si  Si8  1  0.22812797  0.20103633  0.82240023  1
  Si  Si9  1  0.77187203  0.79896367  0.17759977  1
  O  O10  1  0.22020371  0.66300353  0.98416455  1
  O  O11  1  0.23268066  0.99502610  0.67455722  1
  O  O12  1  0.77979629  0.33699647  0.01583545  1
  O  O13  1  0.76731934  0.00497390  0.32544278  1
  O  O14  1  0.25378650  0.72247028  0.37193599  1
  O  O15  1  0.26685886  0.36042460  0.73405335  1
  O  O16  1  0.74621350  0.27752972  0.62806401  1
  O  O17  1  0.73314114  0.63957540  0.26594665  1
  O  O18  1  0.98288560  0.84717841  0.14912702  1
  O  O19  1  0.01711440  0.15282159  0.85087298  1
  O  O20  1  0.28195637  0.66785633  0.67376707  1
  O  O21  1  0.71804363  0.33214367  0.32623293  1
  O  O22  1  0.40924854  0.04915254  0.29803857  1
  O  O23  1  0.41204179  0.29836435  0.03681244  1
  O  O24  1  0.59075146  0.95084746  0.70196143  1
  O  O25  1  0.58795821  0.70163565  0.96318756  1
