# generated using pymatgen
data_Ba3Cu17AgP6
_symmetry_space_group_name_H-M   'P 1'
_cell_length_a   5.78720558
_cell_length_b   9.19801555
_cell_length_c   9.68458577
_cell_angle_alpha   101.14909305
_cell_angle_beta   72.61539622
_cell_angle_gamma   71.66394185
_symmetry_Int_Tables_number   1
_chemical_formula_structural   Ba3Cu17AgP6
_chemical_formula_sum   'Ba3 Cu17 Ag1 P6'
_cell_volume   442.87250683
_cell_formula_units_Z   1
loop_
 _symmetry_equiv_pos_site_id
 _symmetry_equiv_pos_as_xyz
  1  'x, y, z'
loop_
 _atom_site_type_symbol
 _atom_site_label
 _atom_site_symmetry_multiplicity
 _atom_site_fract_x
 _atom_site_fract_y
 _atom_site_fract_z
 _atom_site_occupancy
  Ba  Ba0  1  0.66666700  0.66666700  -0.00000000  1
  Ba  Ba1  1  0.33349494  0.33352506  0.99948407  1
  Ba  Ba2  1  0.99983806  0.99980794  0.00051593  1
  Cu  Cu3  1  0.05247694  0.72376036  0.67140616  1
  Cu  Cu4  1  0.72157516  0.40056010  0.67828557  1
  Cu  Cu5  1  0.37434539  0.05161701  0.67828963  1
  Cu  Cu6  1  0.55235654  0.72376036  0.67140616  1
  Cu  Cu7  1  0.19958017  0.40056010  0.67828557  1
  Cu  Cu8  1  0.89574697  0.05161701  0.67828963  1
  Cu  Cu9  1  0.28085606  0.60957264  0.32859384  1
  Cu  Cu10  1  0.95898761  0.28171599  0.32171037  1
  Cu  Cu11  1  0.61175884  0.93277390  0.32171443  1
  Cu  Cu12  1  0.78097646  0.60957264  0.32859384  1
  Cu  Cu13  1  0.43758603  0.28171599  0.32171037  1
  Cu  Cu14  1  0.13375383  0.93277390  0.32171443  1
  Cu  Cu15  1  0.49837656  0.50327025  0.49997664  1
  Cu  Cu16  1  0.16666700  0.16666700  0.50000000  1
  Cu  Cu17  1  0.83495644  0.83006275  0.50002336  1
  Cu  Cu18  1  0.99940469  0.50117451  0.50001611  1
  Cu  Cu19  1  0.33392831  0.83215849  0.49998389  1
  Ag  Ag20  1  0.66666700  0.16666700  0.50000000  1
  P  P21  1  0.30328047  0.59877987  0.79465919  1
  P  P22  1  0.97027413  0.26470953  0.79474321  1
  P  P23  1  0.63731541  0.93064182  0.79472637  1
  P  P24  1  0.69601759  0.40269118  0.20527363  1
  P  P25  1  0.36305987  0.06862447  0.20525679  1
  P  P26  1  0.03005253  0.73455313  0.20534081  1
