# generated using pymatgen
data_Ba4Ta10CoO30
_symmetry_space_group_name_H-M   'P 1'
_cell_length_a   7.90846830
_cell_length_b   10.01896935
_cell_length_c   10.01896935
_cell_angle_alpha   117.87904530
_cell_angle_beta   113.24569015
_cell_angle_gamma   66.75430985
_symmetry_Int_Tables_number   1
_chemical_formula_structural   Ba4Ta10CoO30
_chemical_formula_sum   'Ba4 Ta10 Co1 O30'
_cell_volume   622.79760565
_cell_formula_units_Z   1
loop_
 _symmetry_equiv_pos_site_id
 _symmetry_equiv_pos_as_xyz
  1  'x, y, z'
loop_
 _atom_site_type_symbol
 _atom_site_label
 _atom_site_symmetry_multiplicity
 _atom_site_fract_x
 _atom_site_fract_y
 _atom_site_fract_z
 _atom_site_occupancy
  Ba  Ba0  1  0.74314662  0.00685338  0.99314662  1
  Ba  Ba1  1  0.25574282  0.99425718  0.00574282  1
  Ba  Ba2  1  0.84597510  0.40402490  0.59597510  1
  Ba  Ba3  1  0.34760363  0.40239637  0.59760363  1
  Ta  Ta4  1  0.79879299  0.20091629  0.79908371  1
  Ta  Ta5  1  0.29937443  0.20091629  0.79908371  1
  Ta  Ta6  1  0.42332548  0.39513575  0.24070076  1
  Ta  Ta7  1  0.92223952  0.39513575  0.24070076  1
  Ta  Ta8  1  0.42332548  0.75929924  0.60486425  1
  Ta  Ta9  1  0.92223952  0.75929924  0.60486425  1
  Ta  Ta10  1  0.67241801  0.64559032  0.98571252  1
  Ta  Ta11  1  0.16770418  0.64559032  0.98571252  1
  Ta  Ta12  1  0.16770418  0.01428748  0.35440968  1
  Ta  Ta13  1  0.67241801  0.01428748  0.35440968  1
  Co  Co14  1  0.52640482  0.72359518  0.27640482  1
  O  O15  1  0.10204171  0.87249696  0.12750304  1
  O  O16  1  0.65296438  0.87249696  0.12750304  1
  O  O17  1  0.33885305  0.56611447  0.16753356  1
  O  O18  1  0.76256605  0.56611447  0.16753356  1
  O  O19  1  0.33885305  0.83246644  0.43388553  1
  O  O20  1  0.76256605  0.83246644  0.43388553  1
  O  O21  1  0.92817161  0.63248086  0.98882408  1
  O  O22  1  0.41724702  0.68744440  0.02193843  1
  O  O23  1  0.92817161  0.01117592  0.36751914  1
  O  O24  1  0.41724702  0.97806157  0.31255560  1
  O  O25  1  0.21659166  0.42659559  0.83640435  1
  O  O26  1  0.69321710  0.42659559  0.83640435  1
  O  O27  1  0.21659166  0.16359565  0.57340441  1
  O  O28  1  0.69321710  0.16359565  0.57340441  1
  O  O29  1  0.46888859  0.52828054  0.47171946  1
  O  O30  1  0.97455033  0.52828054  0.47171946  1
  O  O31  1  0.55372842  0.19627158  0.80372842  1
  O  O32  1  0.04422691  0.20577309  0.79422691  1
  O  O33  1  0.17291605  0.40037913  0.24621123  1
  O  O34  1  0.69540561  0.37536298  0.26617421  1
  O  O35  1  0.17291605  0.75378877  0.59962087  1
  O  O36  1  0.69540561  0.73382579  0.62463702  1
  O  O37  1  0.53887877  0.70003815  0.80305966  1
  O  O38  1  0.06414275  0.70003815  0.80305966  1
  O  O39  1  0.06414275  0.19694034  0.29996185  1
  O  O40  1  0.53887877  0.19694034  0.29996185  1
  O  O41  1  0.39397003  0.23608419  0.02608695  1
  O  O42  1  0.89603273  0.23608419  0.02608695  1
  O  O43  1  0.39397003  0.97391305  0.76391581  1
  O  O44  1  0.89603273  0.97391305  0.76391581  1
