# generated using pymatgen
data_Ba3TbIrRuO9
_symmetry_space_group_name_H-M   'P 1'
_cell_length_a   5.96117088
_cell_length_b   5.96085312
_cell_length_c   14.77572419
_cell_angle_alpha   90.00000000
_cell_angle_beta   90.00000000
_cell_angle_gamma   60.00176332
_symmetry_Int_Tables_number   1
_chemical_formula_structural   Ba3TbIrRuO9
_chemical_formula_sum   'Ba6 Tb2 Ir2 Ru2 O18'
_cell_volume   454.70226355
_cell_formula_units_Z   2
loop_
 _symmetry_equiv_pos_site_id
 _symmetry_equiv_pos_as_xyz
  1  'x, y, z'
loop_
 _atom_site_type_symbol
 _atom_site_label
 _atom_site_symmetry_multiplicity
 _atom_site_fract_x
 _atom_site_fract_y
 _atom_site_fract_z
 _atom_site_occupancy
  Ba  Ba0  1  0.33332656  0.33333672  0.40545275  1
  Ba  Ba1  1  0.66667282  0.66666359  0.59562001  1
  Ba  Ba2  1  0.66667344  0.66666328  0.90545275  1
  Ba  Ba3  1  0.33332718  0.33333641  0.09562001  1
  Ba  Ba4  1  0.00005849  0.99997076  0.74985569  1
  Ba  Ba5  1  0.99994151  0.00002924  0.24985569  1
  Tb  Tb6  1  0.99999976  0.00000012  0.50135964  1
  Tb  Tb7  1  0.00000024  0.99999988  0.00135964  1
  Ir  Ir8  1  0.33326245  0.33336877  0.66475589  1
  Ir  Ir9  1  0.66673755  0.66663123  0.16475589  1
  Ru  Ru10  1  0.66672820  0.66663590  0.33630381  1
  Ru  Ru11  1  0.33327180  0.33336410  0.83630381  1
  O  O12  1  0.49001176  0.01991569  0.75070229  1
  O  O13  1  0.01996822  0.49001589  0.75072348  1
  O  O14  1  0.49001176  0.49007256  0.75070229  1
  O  O15  1  0.50998824  0.98008431  0.25070229  1
  O  O16  1  0.98003178  0.50998411  0.25072348  1
  O  O17  1  0.50998824  0.50992744  0.25070229  1
  O  O18  1  0.17634777  0.64738123  0.91072647  1
  O  O19  1  0.64740524  0.17629738  0.91077527  1
  O  O20  1  0.17634777  0.17627101  0.91072647  1
  O  O21  1  0.82446789  0.35111665  0.08742929  1
  O  O22  1  0.35099825  0.82450087  0.08743737  1
  O  O23  1  0.82446789  0.82441546  0.08742929  1
  O  O24  1  0.82365223  0.35261877  0.41072647  1
  O  O25  1  0.35259476  0.82370262  0.41077527  1
  O  O26  1  0.82365223  0.82372899  0.41072647  1
  O  O27  1  0.17553211  0.64888335  0.58742929  1
  O  O28  1  0.64900175  0.17549913  0.58743737  1
  O  O29  1  0.17553211  0.17558454  0.58742929  1
