# generated using pymatgen
data_Ba3In2MoO9
_symmetry_space_group_name_H-M   'P 1'
_cell_length_a   5.95777350
_cell_length_b   5.95777350
_cell_length_c   7.31994234
_cell_angle_alpha   90.00000000
_cell_angle_beta   90.00000000
_cell_angle_gamma   120.00000000
_symmetry_Int_Tables_number   1
_chemical_formula_structural   Ba3In2MoO9
_chemical_formula_sum   'Ba3 In2 Mo1 O9'
_cell_volume   225.01230469
_cell_formula_units_Z   1
loop_
 _symmetry_equiv_pos_site_id
 _symmetry_equiv_pos_as_xyz
  1  'x, y, z'
loop_
 _atom_site_type_symbol
 _atom_site_label
 _atom_site_symmetry_multiplicity
 _atom_site_fract_x
 _atom_site_fract_y
 _atom_site_fract_z
 _atom_site_occupancy
  Ba  Ba0  1  0.00000000  0.00000000  0.50000000  1
  Ba  Ba1  1  0.66666700  0.33333300  0.81669961  1
  Ba  Ba2  1  0.33333300  0.66666700  0.18330039  1
  In  In3  1  0.66666700  0.33333300  0.33443799  1
  In  In4  1  0.33333300  0.66666700  0.66556201  1
  Mo  Mo5  1  0.00000000  0.00000000  0.00000000  1
  O  O6  1  0.68850512  0.84425206  0.84720214  1
  O  O7  1  0.31149488  0.15574794  0.15279786  1
  O  O8  1  0.00000000  0.50000000  0.50000000  1
  O  O9  1  0.50000000  0.00000000  0.50000000  1
  O  O10  1  0.15574794  0.31149488  0.84720214  1
  O  O11  1  0.84425206  0.68850512  0.15279786  1
  O  O12  1  0.50000000  0.50000000  0.50000000  1
  O  O13  1  0.15574794  0.84425206  0.84720214  1
  O  O14  1  0.84425206  0.15574794  0.15279786  1
