# generated using pymatgen
data_Ba3CaTa2O9
_symmetry_space_group_name_H-M   'P 1'
_cell_length_a   5.97325723
_cell_length_b   5.97325723
_cell_length_c   7.36804553
_cell_angle_alpha   90.00000000
_cell_angle_beta   90.00000000
_cell_angle_gamma   120.00000000
_symmetry_Int_Tables_number   1
_chemical_formula_structural   Ba3CaTa2O9
_chemical_formula_sum   'Ba3 Ca1 Ta2 O9'
_cell_volume   227.66976894
_cell_formula_units_Z   1
loop_
 _symmetry_equiv_pos_site_id
 _symmetry_equiv_pos_as_xyz
  1  'x, y, z'
loop_
 _atom_site_type_symbol
 _atom_site_label
 _atom_site_symmetry_multiplicity
 _atom_site_fract_x
 _atom_site_fract_y
 _atom_site_fract_z
 _atom_site_occupancy
  Ba  Ba0  1  0.33333300  0.66666700  0.66565641  1
  Ba  Ba1  1  0.00000000  0.00000000  0.00101059  1
  Ba  Ba2  1  0.66666700  0.33333300  0.33333300  1
  Ca  Ca3  1  0.66666700  0.33333300  0.83333300  1
  Ta  Ta4  1  0.33333300  0.66666700  0.16502158  1
  Ta  Ta5  1  -0.00000000  0.00000000  0.50164542  1
  O  O6  1  0.84391511  0.15608489  0.64650306  1
  O  O7  1  0.48941789  0.51058211  0.02016394  1
  O  O8  1  0.16666700  0.83333300  0.33333300  1
  O  O9  1  0.66666700  0.83333300  0.33333300  1
  O  O10  1  0.31216878  0.15608489  0.64650306  1
  O  O11  1  0.02116422  0.51058211  0.02016394  1
  O  O12  1  0.84391511  0.68783122  0.64650306  1
  O  O13  1  0.48941789  0.97883578  0.02016394  1
  O  O14  1  0.16666700  0.33333300  0.33333300  1
