# generated using pymatgen
data_Ba3ErIrRuO9
_symmetry_space_group_name_H-M   'P 1'
_cell_length_a   5.95043373
_cell_length_b   5.94485179
_cell_length_c   14.61173572
_cell_angle_alpha   90.00000000
_cell_angle_beta   90.00000000
_cell_angle_gamma   60.03103199
_symmetry_Int_Tables_number   1
_chemical_formula_structural   Ba3ErIrRuO9
_chemical_formula_sum   'Ba6 Er2 Ir2 Ru2 O18'
_cell_volume   447.77290818
_cell_formula_units_Z   2
loop_
 _symmetry_equiv_pos_site_id
 _symmetry_equiv_pos_as_xyz
  1  'x, y, z'
loop_
 _atom_site_type_symbol
 _atom_site_label
 _atom_site_symmetry_multiplicity
 _atom_site_fract_x
 _atom_site_fract_y
 _atom_site_fract_z
 _atom_site_occupancy
  Ba  Ba0  1  0.99970382  0.00014809  0.75011896  1
  Ba  Ba1  1  0.00029618  0.99985191  0.25011896  1
  Ba  Ba2  1  0.33351276  0.33324362  0.40831486  1
  Ba  Ba3  1  0.66672965  0.66663518  0.59410962  1
  Ba  Ba4  1  0.66648724  0.66675638  0.90831486  1
  Ba  Ba5  1  0.33327035  0.33336482  0.09410962  1
  Er  Er6  1  -0.00007123  0.00003561  0.50088152  1
  Er  Er7  1  0.00007123  -0.00003561  0.00088152  1
  Ir  Ir8  1  0.33339165  0.33330417  0.66352032  1
  Ir  Ir9  1  0.66660835  0.66669583  0.16352032  1
  Ru  Ru10  1  0.66682430  0.66658785  0.33765106  1
  Ru  Ru11  1  0.33317570  0.33341215  0.83765106  1
  O  O12  1  0.48978886  0.02104255  0.75087736  1
  O  O13  1  0.02046191  0.48976904  0.75102980  1
  O  O14  1  0.48978886  0.48916859  0.75087736  1
  O  O15  1  0.51021114  0.97895745  0.25087736  1
  O  O16  1  0.97953809  0.51023096  0.25102980  1
  O  O17  1  0.51021114  0.51083141  0.25087736  1
  O  O18  1  0.17545096  0.64939302  0.91266115  1
  O  O19  1  0.64927217  0.17536392  0.91267966  1
  O  O20  1  0.17545096  0.17515602  0.91266115  1
  O  O21  1  0.82444842  0.35134869  0.08490146  1
  O  O22  1  0.35087695  0.82456153  0.08481424  1
  O  O23  1  0.82444842  0.82420289  0.08490146  1
  O  O24  1  0.82454904  0.35060698  0.41266115  1
  O  O25  1  0.35072783  0.82463608  0.41267966  1
  O  O26  1  0.82454904  0.82484398  0.41266115  1
  O  O27  1  0.17555158  0.64865131  0.58490146  1
  O  O28  1  0.64912305  0.17543847  0.58481424  1
  O  O29  1  0.17555158  0.17579711  0.58490146  1
