# generated using pymatgen
data_AlZnCrS4
_symmetry_space_group_name_H-M   'P 1'
_cell_length_a   7.12068881
_cell_length_b   7.11791620
_cell_length_c   7.12128755
_cell_angle_alpha   90.00000000
_cell_angle_beta   59.99721845
_cell_angle_gamma   119.98712050
_symmetry_Int_Tables_number   1
_chemical_formula_structural   AlZnCrS4
_chemical_formula_sum   'Al2 Zn2 Cr2 S8'
_cell_volume   255.26111787
_cell_formula_units_Z   2
loop_
 _symmetry_equiv_pos_site_id
 _symmetry_equiv_pos_as_xyz
  1  'x, y, z'
loop_
 _atom_site_type_symbol
 _atom_site_label
 _atom_site_symmetry_multiplicity
 _atom_site_fract_x
 _atom_site_fract_y
 _atom_site_fract_z
 _atom_site_occupancy
  Al  Al0  1  0.50000000  0.50000000  0.00000000  1
  Al  Al1  1  0.50000000  0.00000000  0.00000000  1
  Zn  Zn2  1  0.74890656  0.37445328  0.37554672  1
  Zn  Zn3  1  0.25109344  0.62554672  0.62445328  1
  Cr  Cr4  1  0.00000000  0.00000000  0.50000000  1
  Cr  Cr5  1  0.00000000  0.00000000  0.00000000  1
  S  S6  1  0.02011378  0.78059272  0.23994311  1
  S  S7  1  0.02011378  0.23952106  0.23994311  1
  S  S8  1  0.47954044  0.23977022  0.77992283  1
  S  S9  1  0.47954044  0.23977022  0.24053673  1
  S  S10  1  0.97988622  0.21940728  0.76005689  1
  S  S11  1  0.97988622  0.76047894  0.76005689  1
  S  S12  1  0.52045956  0.76022978  0.22007717  1
  S  S13  1  0.52045956  0.76022978  0.75946327  1
