# generated using pymatgen
data_CsH3(SeO3)2
_symmetry_space_group_name_H-M   'P 1'
_cell_length_a   5.95659249
_cell_length_b   6.73072771
_cell_length_c   9.52245674
_cell_angle_alpha   92.14647224
_cell_angle_beta   105.61269505
_cell_angle_gamma   91.48610692
_symmetry_Int_Tables_number   1
_chemical_formula_structural   CsH3(SeO3)2
_chemical_formula_sum   'Cs2 H6 Se4 O12'
_cell_volume   367.17450434
_cell_formula_units_Z   2
loop_
 _symmetry_equiv_pos_site_id
 _symmetry_equiv_pos_as_xyz
  1  'x, y, z'
loop_
 _atom_site_type_symbol
 _atom_site_label
 _atom_site_symmetry_multiplicity
 _atom_site_fract_x
 _atom_site_fract_y
 _atom_site_fract_z
 _atom_site_occupancy
  Cs  Cs0  1  0.88578904  0.23528600  0.83199295  1
  Cs  Cs1  1  0.11266181  0.75933623  0.16549246  1
  H  H2  1  0.52718626  0.01013883  0.02845158  1
  H  H3  1  0.47334542  0.51789814  0.97573308  1
  H  H4  1  0.53088325  0.52246839  0.48112357  1
  H  H5  1  0.45283181  0.00798431  0.49864539  1
  H  H6  1  0.21730124  0.29206484  0.24564806  1
  H  H7  1  0.78692164  0.70617290  0.75744930  1
  Se  Se8  1  0.19533722  0.26177270  0.52740348  1
  Se  Se9  1  0.83399258  0.76143625  0.48185692  1
  Se  Se10  1  0.59942158  0.26796574  0.21264670  1
  Se  Se11  1  0.40283737  0.74923318  0.78336173  1
  O  O12  1  0.09028969  0.34464748  0.35534973  1
  O  O13  1  0.93052115  0.66356450  0.64991739  1
  O  O14  1  0.46060838  0.37966296  0.59419098  1
  O  O15  1  0.56933001  0.60793735  0.40304553  1
  O  O16  1  0.66213072  0.42208039  0.09287633  1
  O  O17  1  0.33018855  0.57270348  0.90144687  1
  O  O18  1  0.28465476  0.26253537  0.15509938  1
  O  O19  1  0.71712406  0.73608292  0.84579929  1
  O  O20  1  0.27595220  0.01080498  0.48471936  1
  O  O21  1  0.72442903  0.98267854  0.51493376  1
  O  O22  1  0.63402434  0.02732894  0.13357182  1
  O  O23  1  0.36553788  0.96531558  0.86794435  1
