# generated using pymatgen
data_CsV2O5
_symmetry_space_group_name_H-M   'P 1'
_cell_length_a   5.62642781
_cell_length_b   5.91097880
_cell_length_c   5.91097880
_cell_angle_alpha   120.47417802
_cell_angle_beta   90.00000000
_cell_angle_gamma   90.00000000
_symmetry_Int_Tables_number   1
_chemical_formula_structural   CsV2O5
_chemical_formula_sum   'Cs1 V2 O5'
_cell_volume   169.42877707
_cell_formula_units_Z   1
loop_
 _symmetry_equiv_pos_site_id
 _symmetry_equiv_pos_as_xyz
  1  'x, y, z'
loop_
 _atom_site_type_symbol
 _atom_site_label
 _atom_site_symmetry_multiplicity
 _atom_site_fract_x
 _atom_site_fract_y
 _atom_site_fract_z
 _atom_site_occupancy
  Cs  Cs0  1  0.11367141  -0.00000000  0.50000000  1
  V  V1  1  0.59925168  0.33480391  0.16519609  1
  V  V2  1  0.59925168  0.66519609  0.83480391  1
  O  O3  1  0.48508527  -0.00000000  -0.00000000  1
  O  O4  1  0.48508527  0.50000000  0.50000000  1
  O  O5  1  0.89256391  0.33402793  0.16597207  1
  O  O6  1  0.89256391  0.66597207  0.83402793  1
  O  O7  1  0.47552686  0.50000000  -0.00000000  1
