# generated using pymatgen
data_AsSe3(BrF2)3
_symmetry_space_group_name_H-M   'P 1'
_cell_length_a   8.31383874
_cell_length_b   10.38649643
_cell_length_c   11.98962940
_cell_angle_alpha   79.44971059
_cell_angle_beta   87.31674146
_cell_angle_gamma   76.45360981
_symmetry_Int_Tables_number   1
_chemical_formula_structural   AsSe3(BrF2)3
_chemical_formula_sum   'As3 Se9 Br9 F18'
_cell_volume   989.49820893
_cell_formula_units_Z   3
loop_
 _symmetry_equiv_pos_site_id
 _symmetry_equiv_pos_as_xyz
  1  'x, y, z'
loop_
 _atom_site_type_symbol
 _atom_site_label
 _atom_site_symmetry_multiplicity
 _atom_site_fract_x
 _atom_site_fract_y
 _atom_site_fract_z
 _atom_site_occupancy
  As  As0  1  0.49973686  0.00020157  0.00032056  1
  As  As1  1  0.30363146  0.57194400  0.68828526  1
  As  As2  1  0.69788496  0.42722201  0.31113213  1
  Se  Se3  1  0.20026252  0.64467124  0.30794318  1
  Se  Se4  1  0.79937456  0.35564328  0.69211243  1
  Se  Se5  1  0.27419773  0.67018323  0.08645412  1
  Se  Se6  1  0.72535738  0.33064949  0.91194581  1
  Se  Se7  1  0.53254864  0.91098060  0.66543510  1
  Se  Se8  1  0.47586048  0.10350088  0.36161594  1
  Se  Se9  1  0.93519389  0.74654542  0.31122542  1
  Se  Se10  1  0.06444511  0.25175249  0.68882215  1
  Se  Se11  1  0.53887912  0.11641218  0.57547450  1
  Br  Br12  1  0.80192139  0.77736375  0.65222584  1
  Br  Br13  1  0.20083008  0.22032696  0.34712923  1
  Br  Br14  1  0.01961506  0.79352765  0.02099914  1
  Br  Br15  1  0.97986948  0.20666994  0.97855624  1
  Br  Br16  1  0.91602602  0.97629861  0.32336185  1
  Br  Br17  1  0.07618952  0.02344190  0.67804770  1
  Br  Br18  1  0.27353275  0.45547924  0.05946820  1
  Br  Br19  1  0.72653639  0.54492494  0.94002284  1
  Br  Br20  1  0.45450193  0.88338943  0.39708284  1
  F  F21  1  0.48431627  0.61779221  0.62561903  1
  F  F22  1  0.51742403  0.37688343  0.37415146  1
  F  F23  1  0.43328912  0.43382038  0.78023896  1
  F  F24  1  0.56687068  0.56450885  0.22064307  1
  F  F25  1  0.63642626  0.07458739  0.90347557  1
  F  F26  1  0.36293290  0.92553706  0.09713567  1
  F  F27  1  0.58566723  0.84166591  0.96008597  1
  F  F28  1  0.41402882  0.15837796  0.04127365  1
  F  F29  1  0.30660388  0.46518334  0.58774202  1
  F  F30  1  0.69215840  0.53295278  0.41217126  1
  F  F31  1  0.12574737  0.52261165  0.75234424  1
  F  F32  1  0.87579531  0.47655511  0.24743973  1
  F  F33  1  0.30157911  0.67618667  0.79011067  1
  F  F34  1  0.69931115  0.32276444  0.20988347  1
  F  F35  1  0.34940924  0.03665188  0.89257294  1
  F  F36  1  0.64979941  0.96382050  0.10857811  1
  F  F37  1  0.17813707  0.70798591  0.59601996  1
  F  F38  1  0.82410843  0.29098568  0.40285376  1
