# generated using pymatgen
data_AlPPd4
_symmetry_space_group_name_H-M   'P 1'
_cell_length_a   3.46437885
_cell_length_b   6.66085994
_cell_length_c   11.52042318
_cell_angle_alpha   89.89650822
_cell_angle_beta   90.00000000
_cell_angle_gamma   90.00000000
_symmetry_Int_Tables_number   1
_chemical_formula_structural   AlPPd4
_chemical_formula_sum   'Al3 P3 Pd12'
_cell_volume   265.84188298
_cell_formula_units_Z   3
loop_
 _symmetry_equiv_pos_site_id
 _symmetry_equiv_pos_as_xyz
  1  'x, y, z'
loop_
 _atom_site_type_symbol
 _atom_site_label
 _atom_site_symmetry_multiplicity
 _atom_site_fract_x
 _atom_site_fract_y
 _atom_site_fract_z
 _atom_site_occupancy
  Al  Al0  1  -0.00000000  0.49781989  0.83356600  1
  Al  Al1  1  -0.00000000  0.50163586  0.16567713  1
  Al  Al2  1  -0.00000000  0.99858372  0.66786481  1
  P  P3  1  0.50000000  0.99836128  0.99942246  1
  P  P4  1  0.50000000  0.50275822  0.50015556  1
  P  P5  1  -0.00000000  0.00298706  0.33292091  1
  Pd  Pd6  1  -0.00000000  0.25614278  0.00144193  1
  Pd  Pd7  1  -0.00000000  0.76374135  0.49432437  1
  Pd  Pd8  1  0.00000000  0.36341014  0.36946144  1
  Pd  Pd9  1  -0.00000000  0.86952341  0.87280316  1
  Pd  Pd10  1  -0.00000000  0.87630171  0.13617636  1
  Pd  Pd11  1  -0.00000000  0.36986090  0.62658171  1
  Pd  Pd12  1  0.50000000  0.10088969  0.49484928  1
  Pd  Pd13  1  0.50000000  0.60828356  0.00147820  1
  Pd  Pd14  1  0.50000000  0.19280091  0.20166155  1
  Pd  Pd15  1  0.50000000  0.69701013  0.69549036  1
  Pd  Pd16  1  0.50000000  0.70185582  0.30508685  1
  Pd  Pd17  1  0.50000000  0.19783358  0.80103790  1
