# generated using pymatgen
data_Eu8Mn3Nb5O28
_symmetry_space_group_name_H-M   'P 1'
_cell_length_a   7.65738272
_cell_length_b   11.97632210
_cell_length_c   7.73132070
_cell_angle_alpha   90.00000000
_cell_angle_beta   120.31992788
_cell_angle_gamma   99.38568353
_symmetry_Int_Tables_number   1
_chemical_formula_structural   Eu8Mn3Nb5O28
_chemical_formula_sum   'Eu8 Mn3 Nb5 O28'
_cell_volume   601.01759310
_cell_formula_units_Z   1
loop_
 _symmetry_equiv_pos_site_id
 _symmetry_equiv_pos_as_xyz
  1  'x, y, z'
loop_
 _atom_site_type_symbol
 _atom_site_label
 _atom_site_symmetry_multiplicity
 _atom_site_fract_x
 _atom_site_fract_y
 _atom_site_fract_z
 _atom_site_occupancy
  Eu  Eu0  1  0.25533273  0.00558458  0.74878469  1
  Eu  Eu1  1  0.74466727  0.49441542  0.49345196  1
  Eu  Eu2  1  0.75438073  0.99931971  0.25046869  1
  Eu  Eu3  1  0.24561927  0.50068029  0.49608796  1
  Eu  Eu4  1  0.75925090  0.52101958  0.00889631  1
  Eu  Eu5  1  0.24074910  0.97898042  0.24964541  1
  Eu  Eu6  1  0.22895329  0.46682942  0.99234830  1
  Eu  Eu7  1  0.77104671  0.03317058  0.76339501  1
  Mn  Mn8  1  -0.00000000  0.25000000  0.54696400  1
  Mn  Mn9  1  -0.00000000  0.75000000  0.44046204  1
  Mn  Mn10  1  -0.00000000  0.25000000  0.15027886  1
  Nb  Nb11  1  0.50100392  0.75454464  0.88166933  1
  Nb  Nb12  1  0.49899608  0.74545536  0.38066541  1
  Nb  Nb13  1  0.48345955  0.24495611  0.12187969  1
  Nb  Nb14  1  0.51654045  0.25504389  0.63842014  1
  Nb  Nb15  1  -0.00000000  0.75000000  0.86407215  1
  O  O16  1  0.97588934  0.08655698  0.12814344  1
  O  O17  1  0.02411066  0.41344302  0.15225410  1
  O  O18  1  0.02241049  0.91748776  0.87601252  1
  O  O19  1  0.97758951  0.58251224  0.85360203  1
  O  O20  1  0.20486960  0.77852558  0.75581652  1
  O  O21  1  0.79513040  0.72147442  0.55094692  1
  O  O22  1  0.79740201  0.22426615  0.24010203  1
  O  O23  1  0.20259799  0.27573385  0.44270002  1
  O  O24  1  0.40190680  0.22888621  0.83852858  1
  O  O25  1  0.59809320  0.27111379  0.43662179  1
  O  O26  1  0.60665162  0.77442207  0.16279394  1
  O  O27  1  0.39334838  0.72557793  0.55614232  1
  O  O28  1  0.58454995  0.91121044  0.44232447  1
  O  O29  1  0.41545005  0.58878956  0.85777453  1
  O  O30  1  0.42670111  0.08805535  0.56883652  1
  O  O31  1  0.57329889  0.41194465  0.14213541  1
  O  O32  1  0.04191384  0.40366474  0.63050130  1
  O  O33  1  0.95808616  0.09633526  0.58858746  1
  O  O34  1  0.95003392  0.59381064  0.35838070  1
  O  O35  1  0.04996608  0.90618936  0.40834678  1
  O  O36  1  0.57224497  0.92589102  0.88517531  1
  O  O37  1  0.42775503  0.57410898  0.31293034  1
  O  O38  1  0.43439070  0.07319075  0.11431720  1
  O  O39  1  0.56560930  0.42680925  0.67992650  1
  O  O40  1  0.76970151  0.72938036  0.91278438  1
  O  O41  1  0.23029849  0.77061964  0.14308286  1
  O  O42  1  0.21755623  0.26449973  0.07564915  1
  O  O43  1  0.78244377  0.23550027  0.85809292  1
