# generated using pymatgen
data_Sr6YSc(BO3)6
_symmetry_space_group_name_H-M   'P 1'
_cell_length_a   7.83183735
_cell_length_b   7.83183735
_cell_length_c   7.83183735
_cell_angle_alpha   105.12696101
_cell_angle_beta   105.12696096
_cell_angle_gamma   105.12696100
_symmetry_Int_Tables_number   1
_chemical_formula_structural   Sr6YSc(BO3)6
_chemical_formula_sum   'Sr6 Y1 Sc1 B6 O18'
_cell_volume   418.83528206
_cell_formula_units_Z   1
loop_
 _symmetry_equiv_pos_site_id
 _symmetry_equiv_pos_as_xyz
  1  'x, y, z'
loop_
 _atom_site_type_symbol
 _atom_site_label
 _atom_site_symmetry_multiplicity
 _atom_site_fract_x
 _atom_site_fract_y
 _atom_site_fract_z
 _atom_site_occupancy
  B  B0  1  0.04344930  0.38318239  0.29287951  1
  B  B1  1  0.38318239  0.29287951  0.04344930  1
  B  B2  1  0.29287951  0.04344930  0.38318239  1
  B  B3  1  0.61681761  0.70712049  0.95655070  1
  B  B4  1  0.70712049  0.95655070  0.61681761  1
  B  B5  1  0.95655070  0.61681761  0.70712049  1
  O  O6  1  0.49641112  0.43283889  0.21986499  1
  O  O7  1  0.43283889  0.21986499  0.49641112  1
  O  O8  1  0.02300197  0.80900749  0.73467672  1
  O  O9  1  0.73467672  0.02300197  0.80900749  1
  O  O10  1  0.80900749  0.73467672  0.02300197  1
  O  O11  1  0.19099251  0.26532328  0.97699803  1
  O  O12  1  0.97699803  0.19099251  0.26532328  1
  O  O13  1  0.26532328  0.97699803  0.19099251  1
  O  O14  1  0.06083513  0.53706441  0.80937928  1
  O  O15  1  0.80937928  0.06083513  0.53706441  1
  O  O16  1  0.53706441  0.80937928  0.06083513  1
  O  O17  1  0.93916487  0.46293559  0.19062072  1
  O  O18  1  0.19062072  0.93916487  0.46293559  1
  O  O19  1  0.46293559  0.19062072  0.93916487  1
  O  O20  1  0.78013501  0.50358888  0.56716111  1
  O  O21  1  0.56716111  0.78013501  0.50358888  1
  O  O22  1  0.50358888  0.56716111  0.78013501  1
  O  O23  1  0.21986499  0.49641112  0.43283889  1
  Sc  Sc24  1  0.50000000  0.50000000  0.50000000  1
  Sr  Sr25  1  0.73396736  0.35582424  0.84573300  1
  Sr  Sr26  1  0.35582424  0.84573300  0.73396736  1
  Sr  Sr27  1  0.84573300  0.73396736  0.35582424  1
  Sr  Sr28  1  0.26603264  0.64417576  0.15426700  1
  Sr  Sr29  1  0.64417576  0.15426700  0.26603264  1
  Sr  Sr30  1  0.15426700  0.26603264  0.64417576  1
  Y  Y31  1  0.00000000  0.00000000  0.00000000  1
