# generated using pymatgen
data_Al3SiPd4
_symmetry_space_group_name_H-M   'P 1'
_cell_length_a   4.88875193
_cell_length_b   4.88875193
_cell_length_c   4.88875193
_cell_angle_alpha   89.40563736
_cell_angle_beta   90.59436264
_cell_angle_gamma   89.40563736
_symmetry_Int_Tables_number   1
_chemical_formula_structural   Al3SiPd4
_chemical_formula_sum   'Al3 Si1 Pd4'
_cell_volume   116.82166872
_cell_formula_units_Z   1
loop_
 _symmetry_equiv_pos_site_id
 _symmetry_equiv_pos_as_xyz
  1  'x, y, z'
loop_
 _atom_site_type_symbol
 _atom_site_label
 _atom_site_symmetry_multiplicity
 _atom_site_fract_x
 _atom_site_fract_y
 _atom_site_fract_z
 _atom_site_occupancy
  Al  Al0  1  0.34990440  0.65736729  0.15768493  1
  Al  Al1  1  0.65768493  0.15009560  0.34263271  1
  Al  Al2  1  0.84263271  0.84231507  0.84990440  1
  Si  Si3  1  0.15629535  0.34370465  0.65629535  1
  Pd  Pd4  1  0.85656754  0.64343246  0.35656754  1
  Pd  Pd5  1  0.64380268  0.35144807  0.84456046  1
  Pd  Pd6  1  0.34456046  0.85619732  0.64855193  1
  Pd  Pd7  1  0.14855193  0.15543954  0.14380268  1
