# generated using pymatgen
data_BaEr2CoO5
_symmetry_space_group_name_H-M   'P 1'
_cell_length_a   5.72195105
_cell_length_b   7.08008161
_cell_length_c   12.28913139
_cell_angle_alpha   90.00000000
_cell_angle_beta   90.00000000
_cell_angle_gamma   90.00000000
_symmetry_Int_Tables_number   1
_chemical_formula_structural   BaEr2CoO5
_chemical_formula_sum   'Ba4 Er8 Co4 O20'
_cell_volume   497.85582112
_cell_formula_units_Z   4
loop_
 _symmetry_equiv_pos_site_id
 _symmetry_equiv_pos_as_xyz
  1  'x, y, z'
loop_
 _atom_site_type_symbol
 _atom_site_label
 _atom_site_symmetry_multiplicity
 _atom_site_fract_x
 _atom_site_fract_y
 _atom_site_fract_z
 _atom_site_occupancy
  O  O0  1  0.24999994  0.42193657  0.60264184  1
  O  O1  1  0.74999983  0.57806289  0.39735822  1
  O  O2  1  0.74999983  0.92193700  0.89735825  1
  O  O3  1  0.24999994  0.07806387  0.10264181  1
  O  O4  1  0.00019024  0.86193351  0.27499014  1
  O  O5  1  0.50019036  0.13806594  0.72500992  1
  O  O6  1  0.99980953  0.36193308  0.22500989  1
  O  O7  1  0.49980942  0.63806638  0.77499017  1
  O  O8  1  0.99980953  0.13806594  0.72500992  1
  O  O9  1  0.49980942  0.86193351  0.27499014  1
  O  O10  1  0.00019024  0.63806638  0.77499017  1
  O  O11  1  0.50019036  0.36193308  0.22500989  1
  O  O12  1  0.49737136  0.66469146  0.06593987  1
  O  O13  1  0.99737299  0.33530941  0.93406018  1
  O  O14  1  0.50262842  0.16469102  0.43406015  1
  O  O15  1  0.00262853  0.83530843  0.56593990  1
  O  O16  1  0.99737299  0.16469102  0.43406015  1
  O  O17  1  0.49737136  0.83530843  0.56593990  1
  O  O18  1  0.50262842  0.33530941  0.93406018  1
  O  O19  1  0.00262853  0.66469146  0.06593987  1
  Co  Co20  1  0.24999994  0.80794059  0.15216290  1
  Co  Co21  1  0.74999983  0.19206027  0.84783716  1
  Co  Co22  1  0.74999983  0.30794016  0.34783713  1
  Co  Co23  1  0.24999994  0.69205929  0.65216293  1
  Ba  Ba24  1  0.74999983  0.07910578  0.10059507  1
  Ba  Ba25  1  0.74999983  0.42089466  0.60059510  1
  Ba  Ba26  1  0.24999994  0.57910480  0.39940496  1
  Ba  Ba27  1  0.24999994  0.92089509  0.89940499  1
  Er  Er28  1  0.24999994  0.40155368  0.07441567  1
  Er  Er29  1  0.74999983  0.61955807  0.20850576  1
  Er  Er30  1  0.74999983  0.88044182  0.70850579  1
  Er  Er31  1  0.24999994  0.11955905  0.29149427  1
  Er  Er32  1  0.74999983  0.59844578  0.92558439  1
  Er  Er33  1  0.74999983  0.90155411  0.42558436  1
  Er  Er34  1  0.24999994  0.09844534  0.57441570  1
  Er  Er35  1  0.24999994  0.38044138  0.79149430  1
