# generated using pymatgen
data_Sr3Fe2O7
_symmetry_space_group_name_H-M   'P 1'
_cell_length_a   3.91678046
_cell_length_b   3.91678043
_cell_length_c   10.47451463
_cell_angle_alpha   100.68220389
_cell_angle_beta   100.68220564
_cell_angle_gamma   90.24668903
_symmetry_Int_Tables_number   1
_chemical_formula_structural   Sr3Fe2O7
_chemical_formula_sum   'Sr3 Fe2 O7'
_cell_volume   155.04569522
_cell_formula_units_Z   1
loop_
 _symmetry_equiv_pos_site_id
 _symmetry_equiv_pos_as_xyz
  1  'x, y, z'
loop_
 _atom_site_type_symbol
 _atom_site_label
 _atom_site_symmetry_multiplicity
 _atom_site_fract_x
 _atom_site_fract_y
 _atom_site_fract_z
 _atom_site_occupancy
  Sr  Sr0  1  0.68257641  0.68257641  0.36484772  1
  Sr  Sr1  1  0.31742359  0.31742359  0.63515228  1
  Sr  Sr2  1  0.50000000  0.50000000  -0.00000000  1
  Fe  Fe3  1  0.90175414  0.90175414  0.80472904  1
  Fe  Fe4  1  0.09824586  0.09824586  0.19527096  1
  O  O5  1  0.40371422  0.90323223  0.80808314  1
  O  O6  1  0.59628578  0.09676777  0.19191686  1
  O  O7  1  0.80750464  0.80750464  0.61222267  1
  O  O8  1  0.90323223  0.40371422  0.80808314  1
  O  O9  1  -0.00000000  0.00000000  -0.00000000  1
  O  O10  1  0.09676777  0.59628578  0.19191686  1
  O  O11  1  0.19249536  0.19249536  0.38777733  1
