# generated using pymatgen
data_UTl4C3O11
_symmetry_space_group_name_H-M   'P 1'
_cell_length_a   7.23969388
_cell_length_b   7.23969389
_cell_length_c   13.06352242
_cell_angle_alpha   86.63191257
_cell_angle_beta   86.63191258
_cell_angle_gamma   82.16644070
_symmetry_Int_Tables_number   1
_chemical_formula_structural   UTl4C3O11
_chemical_formula_sum   'U2 Tl8 C6 O22'
_cell_volume   676.24751392
_cell_formula_units_Z   2
loop_
 _symmetry_equiv_pos_site_id
 _symmetry_equiv_pos_as_xyz
  1  'x, y, z'
loop_
 _atom_site_type_symbol
 _atom_site_label
 _atom_site_symmetry_multiplicity
 _atom_site_fract_x
 _atom_site_fract_y
 _atom_site_fract_z
 _atom_site_occupancy
  C  C0  1  0.93178017  0.84096951  0.59032731  1
  C  C1  1  0.06821983  0.15903049  0.40967269  1
  C  C2  1  0.84096951  0.93178017  0.09032731  1
  C  C3  1  0.15903049  0.06821983  0.90967269  1
  C  C4  1  0.49505603  0.50494397  0.25000000  1
  C  C5  1  0.50494397  0.49505603  0.75000000  1
  O  O6  1  0.80659552  0.85018834  0.52587010  1
  O  O7  1  0.14981166  0.19340448  0.97412990  1
  O  O8  1  0.36144999  0.63855001  0.25000000  1
  O  O9  1  0.63855001  0.36144999  0.75000000  1
  O  O10  1  0.85018834  0.80659552  0.02587010  1
  O  O11  1  0.19340448  0.14981166  0.47412990  1
  O  O12  1  0.35369045  0.95305238  0.67925590  1
  O  O13  1  0.95305238  0.35369045  0.17925590  1
  O  O14  1  0.04694762  0.64630955  0.82074410  1
  O  O15  1  0.64630955  0.04694762  0.32074410  1
  O  O16  1  0.47670720  0.61710860  0.82201255  1
  O  O17  1  0.38289140  0.52329280  0.67798745  1
  O  O18  1  0.52329280  0.38289140  0.17798745  1
  O  O19  1  0.61710860  0.47670720  0.32201255  1
  O  O20  1  0.28222340  0.91631342  0.91246105  1
  O  O21  1  0.08368658  0.71777660  0.58753895  1
  O  O22  1  0.71777660  0.08368658  0.08753895  1
  O  O23  1  0.91631342  0.28222340  0.41246105  1
  O  O24  1  0.04592433  0.07886527  0.83348687  1
  O  O25  1  0.92113473  0.95407567  0.66651313  1
  O  O26  1  0.95407567  0.92113473  0.16651313  1
  O  O27  1  0.07886527  0.04592433  0.33348687  1
  Tl  Tl28  1  0.04289809  0.32961086  0.64940384  1
  Tl  Tl29  1  0.67038914  0.95710191  0.85059616  1
  Tl  Tl30  1  0.79901911  0.41419292  0.94622649  1
  Tl  Tl31  1  0.58580708  0.20098089  0.55377351  1
  Tl  Tl32  1  0.20098089  0.58580708  0.05377351  1
  Tl  Tl33  1  0.41419292  0.79901911  0.44622649  1
  Tl  Tl34  1  0.32961086  0.04289809  0.14940384  1
  Tl  Tl35  1  0.95710191  0.67038914  0.35059616  1
  U  U36  1  0.20124029  0.79875971  0.75000000  1
  U  U37  1  0.79875971  0.20124029  0.25000000  1
