# generated using pymatgen
data_Na2UI6
_symmetry_space_group_name_H-M   'P 1'
_cell_length_a   8.69195807
_cell_length_b   8.69195807
_cell_length_c   8.69195807
_cell_angle_alpha   54.15215044
_cell_angle_beta   54.15215046
_cell_angle_gamma   54.15215045
_symmetry_Int_Tables_number   1
_chemical_formula_structural   Na2UI6
_chemical_formula_sum   'Na2 U1 I6'
_cell_volume   400.95257207
_cell_formula_units_Z   1
loop_
 _symmetry_equiv_pos_site_id
 _symmetry_equiv_pos_as_xyz
  1  'x, y, z'
loop_
 _atom_site_type_symbol
 _atom_site_label
 _atom_site_symmetry_multiplicity
 _atom_site_fract_x
 _atom_site_fract_y
 _atom_site_fract_z
 _atom_site_occupancy
  Na  Na0  1  0.32922743  0.32922743  0.32922743  1
  Na  Na1  1  0.67077257  0.67077257  0.67077257  1
  I  I2  1  0.61391103  0.23422815  0.91104436  1
  I  I3  1  0.91104436  0.61391103  0.23422815  1
  I  I4  1  0.23422815  0.91104436  0.61391103  1
  I  I5  1  0.38608897  0.76577185  0.08895564  1
  I  I6  1  0.08895564  0.38608897  0.76577185  1
  I  I7  1  0.76577185  0.08895564  0.38608897  1
  U  U8  1  0.00000000  0.00000000  0.00000000  1
