# generated using pymatgen
data_AlAs3(SeCl)4
_symmetry_space_group_name_H-M   'P 1'
_cell_length_a   12.51978894
_cell_length_b   12.51978895
_cell_length_c   13.47260562
_cell_angle_alpha   97.84591572
_cell_angle_beta   112.36029238
_cell_angle_gamma   116.34143328
_symmetry_Int_Tables_number   1
_chemical_formula_structural   AlAs3(SeCl)4
_chemical_formula_sum   'Al4 As12 Se16 Cl16'
_cell_volume   1627.10776866
_cell_formula_units_Z   4
loop_
 _symmetry_equiv_pos_site_id
 _symmetry_equiv_pos_as_xyz
  1  'x, y, z'
loop_
 _atom_site_type_symbol
 _atom_site_label
 _atom_site_symmetry_multiplicity
 _atom_site_fract_x
 _atom_site_fract_y
 _atom_site_fract_z
 _atom_site_occupancy
  Al  Al0  1  0.65147349  0.68825770  0.41994782  1
  Al  Al1  1  0.23169011  0.76847433  0.91994782  1
  Al  Al2  1  0.34852651  0.31174230  0.58005218  1
  Al  Al3  1  0.76830989  0.23152567  0.08005218  1
  As  As4  1  0.31520418  0.92846788  0.61413559  1
  As  As5  1  0.81433230  0.70106859  0.88586441  1
  As  As6  1  0.92769724  0.20416807  0.55110636  1
  As  As7  1  0.68479582  0.07153212  0.38586441  1
  As  As8  1  0.84693829  0.62340912  0.05110636  1
  As  As9  1  0.15306171  0.37659088  0.94889364  1
  As  As10  1  0.73663136  0.35910571  0.57644331  1
  As  As11  1  0.71733761  0.83981195  0.07644331  1
  As  As12  1  0.07230276  0.79583193  0.44889364  1
  As  As13  1  0.26336864  0.64089429  0.42355669  1
  As  As14  1  0.18566770  0.29893141  0.11413559  1
  As  As15  1  0.28266239  0.16018805  0.92355669  1
  Se  Se16  1  0.73344040  0.06211553  0.58581275  1
  Se  Se17  1  0.03384984  0.01833335  0.83304852  1
  Se  Se18  1  0.68528483  0.20080132  0.66695148  1
  Se  Se19  1  0.60284340  0.20733683  0.38099679  1
  Se  Se20  1  0.96615016  0.98166665  0.16695148  1
  Se  Se21  1  0.71741202  0.66044212  0.12231096  1
  Se  Se22  1  0.31471517  0.79919868  0.33304852  1
  Se  Se23  1  0.32634004  0.22184661  0.11900321  1
  Se  Se24  1  0.67365996  0.77815339  0.88099679  1
  Se  Se25  1  0.26655960  0.93788447  0.41418725  1
  Se  Se26  1  0.03813115  0.59510105  0.37768904  1
  Se  Se27  1  0.39715660  0.79266317  0.61900321  1
  Se  Se28  1  0.97630277  0.14762765  0.91418725  1
  Se  Se29  1  0.02369723  0.85237235  0.08581275  1
  Se  Se30  1  0.28258798  0.33955788  0.87768904  1
  Se  Se31  1  0.96186885  0.40489895  0.62231096  1
  Cl  Cl32  1  0.37709282  0.29861573  0.43222855  1
  Cl  Cl33  1  0.72288756  0.56351191  0.39978037  1
  Cl  Cl34  1  0.53798001  0.37455477  0.73453533  1
  Cl  Cl35  1  0.14001944  0.80344468  0.76546467  1
  Cl  Cl36  1  0.93488205  0.36196821  0.05549148  1
  Cl  Cl37  1  0.66373154  0.32310719  0.10021963  1
  Cl  Cl38  1  0.19352328  0.12060943  0.55549148  1
  Cl  Cl39  1  0.36638718  0.94486427  0.06777145  1
  Cl  Cl40  1  0.06511795  0.63803179  0.94450852  1
  Cl  Cl41  1  0.62290718  0.70138427  0.56777145  1
  Cl  Cl42  1  0.63361282  0.05513573  0.93222855  1
  Cl  Cl43  1  0.85998056  0.19655532  0.23453533  1
  Cl  Cl44  1  0.33626846  0.67689281  0.89978037  1
  Cl  Cl45  1  0.27711244  0.43648809  0.60021963  1
  Cl  Cl46  1  0.80647672  0.87939057  0.44450852  1
  Cl  Cl47  1  0.46201999  0.62544523  0.26546467  1
