# generated using pymatgen
data_Cs2NaAsO4
_symmetry_space_group_name_H-M   'P 1'
_cell_length_a   6.17929473
_cell_length_b   6.27763876
_cell_length_c   8.41885779
_cell_angle_alpha   90.00000000
_cell_angle_beta   92.50017082
_cell_angle_gamma   90.00000000
_symmetry_Int_Tables_number   1
_chemical_formula_structural   Cs2NaAsO4
_chemical_formula_sum   'Cs4 Na2 As2 O8'
_cell_volume   326.26823952
_cell_formula_units_Z   2
loop_
 _symmetry_equiv_pos_site_id
 _symmetry_equiv_pos_as_xyz
  1  'x, y, z'
loop_
 _atom_site_type_symbol
 _atom_site_label
 _atom_site_symmetry_multiplicity
 _atom_site_fract_x
 _atom_site_fract_y
 _atom_site_fract_z
 _atom_site_occupancy
  O  O0  1  0.35159705  0.02835226  0.83388232  1
  O  O1  1  0.64840295  0.52835226  0.16611768  1
  O  O2  1  0.64840295  0.97164774  0.16611768  1
  O  O3  1  0.35159705  0.47164774  0.83388232  1
  O  O4  1  0.95013239  0.25000000  0.82553182  1
  O  O5  1  0.20708373  0.25000000  0.55450113  1
  O  O6  1  0.04986761  0.75000000  0.17446818  1
  O  O7  1  0.79291627  0.75000000  0.44549887  1
  Na  Na8  1  0.63850742  0.25000000  0.97608720  1
  Na  Na9  1  0.36149258  0.75000000  0.02391280  1
  As  As10  1  0.78754351  0.75000000  0.23999129  1
  As  As11  1  0.21245649  0.25000000  0.76000871  1
  Cs  Cs12  1  0.83908065  0.75000000  0.81438073  1
  Cs  Cs13  1  0.16091935  0.25000000  0.18561927  1
  Cs  Cs14  1  0.29552020  0.75000000  0.50936025  1
  Cs  Cs15  1  0.70447980  0.25000000  0.49063975  1
