# generated using pymatgen
data_In2Pt2O7
_symmetry_space_group_name_H-M   'P 1'
_cell_length_a   7.16367548
_cell_length_b   7.16370936
_cell_length_c   7.16333614
_cell_angle_alpha   59.99099931
_cell_angle_beta   59.99144762
_cell_angle_gamma   59.99829629
_symmetry_Int_Tables_number   1
_chemical_formula_structural   In2Pt2O7
_chemical_formula_sum   'In4 Pt4 O14'
_cell_volume   259.90281244
_cell_formula_units_Z   2
loop_
 _symmetry_equiv_pos_site_id
 _symmetry_equiv_pos_as_xyz
  1  'x, y, z'
loop_
 _atom_site_type_symbol
 _atom_site_label
 _atom_site_symmetry_multiplicity
 _atom_site_fract_x
 _atom_site_fract_y
 _atom_site_fract_z
 _atom_site_occupancy
  In  In0  1  0.00005929  -0.00006548  0.00001912  1
  In  In1  1  0.49994448  0.00003034  -0.00002668  1
  In  In2  1  0.00007775  0.49988811  0.00006909  1
  In  In3  1  -0.00003065  0.00007783  0.49991290  1
  Pt  Pt4  1  0.49991681  0.49998940  -0.00004734  1
  Pt  Pt5  1  0.49996504  -0.00004408  0.50007386  1
  Pt  Pt6  1  -0.00010074  0.50008875  0.49988502  1
  Pt  Pt7  1  0.49999722  0.49996631  0.50002635  1
  O  O8  1  0.12503328  0.12491579  0.12497011  1
  O  O9  1  0.59161190  0.15844484  0.15843294  1
  O  O10  1  0.59145074  0.15855911  0.59149222  1
  O  O11  1  0.15850389  0.59160722  0.15849063  1
  O  O12  1  0.59145075  0.59159210  0.15849609  1
  O  O13  1  0.15849819  0.15849743  0.59143856  1
  O  O14  1  0.84163879  0.40848019  0.40840137  1
  O  O15  1  0.15843625  0.59156839  0.59158940  1
  O  O16  1  0.84153681  0.84155393  0.40849975  1
  O  O17  1  0.40851213  0.84149384  0.40850963  1
  O  O18  1  0.40845515  0.40852288  0.84161533  1
  O  O19  1  0.84157125  0.40829833  0.84168052  1
  O  O20  1  0.40845289  0.84152512  0.84150707  1
  O  O21  1  0.87501877  0.87500965  0.87496404  1
