# generated using pymatgen
data_K2NaBP2
_symmetry_space_group_name_H-M   'P 1'
_cell_length_a   5.02098366
_cell_length_b   6.79602510
_cell_length_c   10.71796926
_cell_angle_alpha   84.60917897
_cell_angle_beta   76.45356950
_cell_angle_gamma   68.32266589
_symmetry_Int_Tables_number   1
_chemical_formula_structural   K2NaBP2
_chemical_formula_sum   'K4 Na2 B2 P4'
_cell_volume   330.39578384
_cell_formula_units_Z   2
loop_
 _symmetry_equiv_pos_site_id
 _symmetry_equiv_pos_as_xyz
  1  'x, y, z'
loop_
 _atom_site_type_symbol
 _atom_site_label
 _atom_site_symmetry_multiplicity
 _atom_site_fract_x
 _atom_site_fract_y
 _atom_site_fract_z
 _atom_site_occupancy
  K  K0  1  0.98271171  0.85482924  0.17971219  1
  K  K1  1  0.17705026  0.23723891  0.40864287  1
  K  K2  1  0.01728829  0.14517076  0.82028781  1
  K  K3  1  0.82294974  0.76276109  0.59135713  1
  Na  Na4  1  0.29711132  0.53925876  0.86650278  1
  Na  Na5  1  0.70288868  0.46074124  0.13349722  1
  B  B6  1  0.50000000  0.50000000  0.50000000  1
  B  B7  1  0.50000000  0.00000000  0.00000000  1
  P  P8  1  0.33576297  0.24009810  0.08842512  1
  P  P9  1  0.46686418  0.69236626  0.37386898  1
  P  P10  1  0.66423703  0.75990190  0.91157488  1
  P  P11  1  0.53313582  0.30763374  0.62613102  1
