# generated using pymatgen
data_Lu5(In2Ni)2
_symmetry_space_group_name_H-M   'P 1'
_cell_length_a   3.53172512
_cell_length_b   7.88045340
_cell_length_c   17.66641617
_cell_angle_alpha   89.99982546
_cell_angle_beta   90.00026256
_cell_angle_gamma   90.00004413
_symmetry_Int_Tables_number   1
_chemical_formula_structural   Lu5(In2Ni)2
_chemical_formula_sum   'Lu10 In8 Ni4'
_cell_volume   491.68454400
_cell_formula_units_Z   2
loop_
 _symmetry_equiv_pos_site_id
 _symmetry_equiv_pos_as_xyz
  1  'x, y, z'
loop_
 _atom_site_type_symbol
 _atom_site_label
 _atom_site_symmetry_multiplicity
 _atom_site_fract_x
 _atom_site_fract_y
 _atom_site_fract_z
 _atom_site_occupancy
  Lu  Lu0  1  0.00000192  0.88400450  0.58806162  1
  Lu  Lu1  1  0.00000002  0.75460473  0.77934263  1
  Lu  Lu2  1  0.99999123  0.74538310  0.27932993  1
  Lu  Lu3  1  0.99999903  0.38399798  0.91193421  1
  Lu  Lu4  1  0.00000284  0.11598650  0.41189654  1
  Lu  Lu5  1  0.99998868  0.24537973  0.22066970  1
  Lu  Lu6  1  0.00000202  0.49999344  0.49999366  1
  Lu  Lu7  1  0.00000183  0.25463905  0.72066307  1
  Lu  Lu8  1  0.99999611  0.61597922  0.08810715  1
  Lu  Lu9  1  0.99999378  0.99997717  0.00000596  1
  In  In10  1  0.50000769  0.20635673  0.56776660  1
  In  In11  1  0.49999786  0.42487624  0.34806251  1
  In  In12  1  0.50000195  0.57514422  0.65195606  1
  In  In13  1  0.49999752  0.07513519  0.84803930  1
  In  In14  1  0.49999921  0.92492451  0.15193511  1
  In  In15  1  0.50000093  0.79364435  0.43222794  1
  In  In16  1  0.49999797  0.70635049  0.93222778  1
  In  In17  1  0.49998797  0.29363067  0.06773717  1
  Ni  Ni18  1  0.50001560  0.97588419  0.69645588  1
  Ni  Ni19  1  0.49998984  0.02413201  0.30352943  1
  Ni  Ni20  1  0.50001862  0.52412205  0.19650057  1
  Ni  Ni21  1  0.50000738  0.47585391  0.80355717  1
