# generated using pymatgen
data_Rb4Sb2O5
_symmetry_space_group_name_H-M   'P 1'
_cell_length_a   8.26771430
_cell_length_b   19.47827856
_cell_length_c   6.73157101
_cell_angle_alpha   90.00000000
_cell_angle_beta   90.00000000
_cell_angle_gamma   90.00000000
_symmetry_Int_Tables_number   1
_chemical_formula_structural   Rb4Sb2O5
_chemical_formula_sum   'Rb16 Sb8 O20'
_cell_volume   1084.05786471
_cell_formula_units_Z   4
loop_
 _symmetry_equiv_pos_site_id
 _symmetry_equiv_pos_as_xyz
  1  'x, y, z'
loop_
 _atom_site_type_symbol
 _atom_site_label
 _atom_site_symmetry_multiplicity
 _atom_site_fract_x
 _atom_site_fract_y
 _atom_site_fract_z
 _atom_site_occupancy
  Rb  Rb0  1  0.99990501  0.09221550  0.25000000  1
  Rb  Rb1  1  0.99998990  0.76173237  0.25000000  1
  Rb  Rb2  1  0.00000367  0.23764697  0.75000000  1
  Rb  Rb3  1  0.00008916  0.90699467  0.75000000  1
  Rb  Rb4  1  0.25001010  0.26173237  0.25000000  1
  Rb  Rb5  1  0.25009499  0.59221550  0.25000000  1
  Rb  Rb6  1  0.24991084  0.40699467  0.75000000  1
  Rb  Rb7  1  0.24999633  0.73764697  0.75000000  1
  Rb  Rb8  1  0.49990501  0.90778450  0.75000000  1
  Rb  Rb9  1  0.50008916  0.09300533  0.25000000  1
  Rb  Rb10  1  0.49998990  0.23826763  0.75000000  1
  Rb  Rb11  1  0.50000367  0.76235303  0.25000000  1
  Rb  Rb12  1  0.74991084  0.59300533  0.25000000  1
  Rb  Rb13  1  0.75001010  0.73826763  0.75000000  1
  Rb  Rb14  1  0.74999633  0.26235303  0.25000000  1
  Rb  Rb15  1  0.75009499  0.40778450  0.75000000  1
  Sb  Sb16  1  0.99063286  0.41493431  0.25000000  1
  Sb  Sb17  1  0.00937527  0.58505954  0.75000000  1
  Sb  Sb18  1  0.24062473  0.08505954  0.75000000  1
  Sb  Sb19  1  0.25936714  0.91493431  0.25000000  1
  Sb  Sb20  1  0.49063286  0.58506569  0.75000000  1
  Sb  Sb21  1  0.50937527  0.41494046  0.25000000  1
  Sb  Sb22  1  0.74062473  0.91494046  0.25000000  1
  Sb  Sb23  1  0.75936714  0.08506569  0.75000000  1
  O  O24  1  0.00018612  0.64977028  0.52962857  1
  O  O25  1  -0.00016381  0.35023891  0.02963084  1
  O  O26  1  0.00003904  0.05788062  0.75000000  1
  O  O27  1  -0.00016381  0.35023891  0.47036916  1
  O  O28  1  0.00018612  0.64977028  0.97037143  1
  O  O29  1  0.24981388  0.14977028  0.52962857  1
  O  O30  1  0.24996096  0.55788062  0.75000000  1
  O  O31  1  0.25016381  0.85023891  0.47036916  1
  O  O32  1  0.25016381  0.85023891  0.02963084  1
  O  O33  1  0.24981388  0.14977028  0.97037143  1
  O  O34  1  0.50018612  0.35022972  0.02962857  1
  O  O35  1  0.50018612  0.35022972  0.47037143  1
  O  O36  1  0.49983619  0.64976109  0.97036916  1
  O  O37  1  0.49983619  0.64976109  0.52963084  1
  O  O38  1  0.50003904  0.94211938  0.25000000  1
  O  O39  1  0.74981388  0.85022972  0.02962857  1
  O  O40  1  0.74981388  0.85022972  0.47037143  1
  O  O41  1  0.75016381  0.14976109  0.52963084  1
  O  O42  1  0.75016381  0.14976109  0.97036916  1
  O  O43  1  0.74996096  0.44211938  0.25000000  1
