# generated using pymatgen
data_Ba2TbNbO6
_symmetry_space_group_name_H-M   'P 1'
_cell_length_a   6.04099488
_cell_length_b   6.04099488
_cell_length_c   6.06618435
_cell_angle_alpha   119.86273319
_cell_angle_beta   119.86273317
_cell_angle_gamma   89.99999998
_symmetry_Int_Tables_number   1
_chemical_formula_structural   Ba2TbNbO6
_chemical_formula_sum   'Ba2 Tb1 Nb1 O6'
_cell_volume   157.18451622
_cell_formula_units_Z   1
loop_
 _symmetry_equiv_pos_site_id
 _symmetry_equiv_pos_as_xyz
  1  'x, y, z'
loop_
 _atom_site_type_symbol
 _atom_site_label
 _atom_site_symmetry_multiplicity
 _atom_site_fract_x
 _atom_site_fract_y
 _atom_site_fract_z
 _atom_site_occupancy
  O  O0  1  0.76825082  0.70287762  0.00000000  1
  O  O1  1  0.29712238  0.76825082  0.00000000  1
  O  O2  1  0.70287762  0.23174918  0.00000000  1
  O  O3  1  0.23174918  0.29712238  0.00000000  1
  O  O4  1  0.26392341  0.26392341  0.52784683  1
  O  O5  1  0.73607659  0.73607659  0.47215317  1
  Nb  Nb6  1  0.50000000  0.50000000  0.00000000  1
  Ba  Ba7  1  0.75000000  0.25000000  0.50000000  1
  Ba  Ba8  1  0.25000000  0.75000000  0.50000000  1
  Tb  Tb9  1  0.00000000  0.00000000  0.00000000  1
