# generated using pymatgen
data_K2Dy4Cu4Se9
_symmetry_space_group_name_H-M   'P 1'
_cell_length_a   4.11488303
_cell_length_b   7.45518547
_cell_length_c   15.81014613
_cell_angle_alpha   93.81970752
_cell_angle_beta   97.47735021
_cell_angle_gamma   106.02009992
_symmetry_Int_Tables_number   1
_chemical_formula_structural   K2Dy4Cu4Se9
_chemical_formula_sum   'K2 Dy4 Cu4 Se9'
_cell_volume   459.52875046
_cell_formula_units_Z   1
loop_
 _symmetry_equiv_pos_site_id
 _symmetry_equiv_pos_as_xyz
  1  'x, y, z'
loop_
 _atom_site_type_symbol
 _atom_site_label
 _atom_site_symmetry_multiplicity
 _atom_site_fract_x
 _atom_site_fract_y
 _atom_site_fract_z
 _atom_site_occupancy
  K  K0  1  0.23669397  0.20398220  0.26940673  1
  K  K1  1  0.76330603  0.79601880  0.73059327  1
  Dy  Dy2  1  0.87133957  0.63952370  0.10315445  1
  Dy  Dy3  1  0.09877112  0.75380733  0.44373691  1
  Dy  Dy4  1  0.90122888  0.24619167  0.55626309  1
  Dy  Dy5  1  0.12865943  0.36047530  0.89684555  1
  Cu  Cu6  1  0.60429288  0.17992752  0.02865724  1
  Cu  Cu7  1  0.51156311  0.75176867  0.27135755  1
  Cu  Cu8  1  0.48843689  0.24823133  0.72864245  1
  Cu  Cu9  1  0.39570612  0.82007248  0.97134276  1
  Se  Se10  1  0.21315125  0.34833394  0.07796857  1
  Se  Se11  1  0.52264148  0.91557569  0.12970727  1
  Se  Se12  1  0.92146873  0.56580626  0.27713021  1
  Se  Se13  1  0.69711954  0.99854397  0.39569512  1
  Se  Se14  1  0.50000000  0.50000000  0.50000000  1
  Se  Se15  1  0.30288046  0.00145603  0.60430488  1
  Se  Se16  1  0.07853127  0.43419374  0.72287079  1
  Se  Se17  1  0.47735852  0.08442331  0.87029273  1
  Se  Se18  1  0.78684775  0.65166506  0.92203143  1
