# generated using pymatgen
data_La2ZnRhO6
_symmetry_space_group_name_H-M   'P 1'
_cell_length_a   5.59195623
_cell_length_b   5.79491026
_cell_length_c   7.94997116
_cell_angle_alpha   90.00000000
_cell_angle_beta   89.95979989
_cell_angle_gamma   90.00000000
_symmetry_Int_Tables_number   1
_chemical_formula_structural   La2ZnRhO6
_chemical_formula_sum   'La4 Zn2 Rh2 O12'
_cell_volume   257.61783436
_cell_formula_units_Z   2
loop_
 _symmetry_equiv_pos_site_id
 _symmetry_equiv_pos_as_xyz
  1  'x, y, z'
loop_
 _atom_site_type_symbol
 _atom_site_label
 _atom_site_symmetry_multiplicity
 _atom_site_fract_x
 _atom_site_fract_y
 _atom_site_fract_z
 _atom_site_occupancy
  O  O0  1  0.90601468  0.52785684  0.75378283  1
  O  O1  1  0.59398532  0.02785684  0.74621717  1
  O  O2  1  0.09398532  0.47214316  0.24621717  1
  O  O3  1  0.40601468  0.97214316  0.25378283  1
  O  O4  1  0.79524528  0.80175663  0.45052181  1
  O  O5  1  0.70475472  0.30175663  0.04947819  1
  O  O6  1  0.20475472  0.19824337  0.54947819  1
  O  O7  1  0.29524528  0.69824337  0.95052181  1
  O  O8  1  0.19287227  0.20865238  0.94923255  1
  O  O9  1  0.30712773  0.70865238  0.55076745  1
  O  O10  1  0.80712773  0.79134762  0.05076745  1
  O  O11  1  0.69287227  0.29134762  0.44923255  1
  Zn  Zn12  1  0.50000000  0.00000000  0.00000000  1
  Zn  Zn13  1  0.00000000  0.50000000  0.50000000  1
  Rh  Rh14  1  0.00000000  0.50000000  0.00000000  1
  Rh  Rh15  1  0.50000000  0.00000000  0.50000000  1
  La  La16  1  0.01360048  0.94275850  0.74921076  1
  La  La17  1  0.48639952  0.44275850  0.75078924  1
  La  La18  1  0.98639952  0.05724150  0.25078924  1
  La  La19  1  0.51360048  0.55724150  0.24921076  1
