# generated using pymatgen
data_LiInF4
_symmetry_space_group_name_H-M   'P 1'
_cell_length_a   4.83493187
_cell_length_b   5.08270694
_cell_length_c   11.98568926
_cell_angle_alpha   90.00000000
_cell_angle_beta   90.00000000
_cell_angle_gamma   90.00000000
_symmetry_Int_Tables_number   1
_chemical_formula_structural   LiInF4
_chemical_formula_sum   'Li4 In4 F16'
_cell_volume   294.54282136
_cell_formula_units_Z   4
loop_
 _symmetry_equiv_pos_site_id
 _symmetry_equiv_pos_as_xyz
  1  'x, y, z'
loop_
 _atom_site_type_symbol
 _atom_site_label
 _atom_site_symmetry_multiplicity
 _atom_site_fract_x
 _atom_site_fract_y
 _atom_site_fract_z
 _atom_site_occupancy
  Li  Li0  1  0.00000000  0.75000000  0.94468273  1
  Li  Li1  1  0.50000000  0.25000000  0.55531727  1
  Li  Li2  1  0.00000000  0.25000000  0.05531727  1
  Li  Li3  1  0.50000000  0.75000000  0.44468273  1
  F  F4  1  0.23728629  0.42856706  0.94202521  1
  F  F5  1  0.77394725  0.08200623  0.19186852  1
  F  F6  1  0.27394725  0.91799377  0.30813148  1
  F  F7  1  0.72605275  0.58200623  0.30813148  1
  F  F8  1  0.73728629  0.57143294  0.55797479  1
  F  F9  1  0.26271371  0.42856706  0.44202521  1
  F  F10  1  0.76271371  0.07143294  0.94202521  1
  F  F11  1  0.26271371  0.92856706  0.55797479  1
  F  F12  1  0.23728629  0.92856706  0.05797479  1
  F  F13  1  0.76271371  0.57143294  0.05797479  1
  F  F14  1  0.22605275  0.91799377  0.80813148  1
  F  F15  1  0.73728629  0.07143294  0.44202521  1
  F  F16  1  0.77394725  0.58200623  0.80813148  1
  F  F17  1  0.27394725  0.41799377  0.69186852  1
  F  F18  1  0.72605275  0.08200623  0.69186852  1
  F  F19  1  0.22605275  0.41799377  0.19186852  1
  In  In20  1  0.00000000  0.75000000  0.66926526  1
  In  In21  1  0.50000000  0.75000000  0.16926526  1
  In  In22  1  0.00000000  0.25000000  0.33073474  1
  In  In23  1  0.50000000  0.25000000  0.83073474  1
