# generated using pymatgen
data_K4P2PdS8
_symmetry_space_group_name_H-M   'P 1'
_cell_length_a   6.47782244
_cell_length_b   7.00020577
_cell_length_c   9.12564279
_cell_angle_alpha   87.69354875
_cell_angle_beta   82.28430629
_cell_angle_gamma   84.61767092
_symmetry_Int_Tables_number   1
_chemical_formula_structural   K4P2PdS8
_chemical_formula_sum   'K4 P2 Pd1 S8'
_cell_volume   408.09737452
_cell_formula_units_Z   1
loop_
 _symmetry_equiv_pos_site_id
 _symmetry_equiv_pos_as_xyz
  1  'x, y, z'
loop_
 _atom_site_type_symbol
 _atom_site_label
 _atom_site_symmetry_multiplicity
 _atom_site_fract_x
 _atom_site_fract_y
 _atom_site_fract_z
 _atom_site_occupancy
  K  K0  1  0.28923540  0.33701886  0.13836106  1
  K  K1  1  0.74600891  0.21997996  0.47597504  1
  K  K2  1  0.25399109  0.78002004  0.52402496  1
  K  K3  1  0.71076460  0.66298114  0.86163794  1
  P  P4  1  0.82686968  0.73171800  0.26262659  1
  P  P5  1  0.17313032  0.26828200  0.73737341  1
  Pd  Pd6  1  0.00000000  0.00000000  0.00000000  1
  S  S7  1  0.67808276  0.95847878  0.14838616  1
  S  S8  1  0.77623685  0.47597663  0.18626101  1
  S  S9  1  0.13171778  0.80343656  0.18865838  1
  S  S10  1  0.75996610  0.74666349  0.48491235  1
  S  S11  1  0.24003390  0.25333651  0.51508865  1
  S  S12  1  0.86828022  0.19656344  0.81134162  1
  S  S13  1  0.22376315  0.52402337  0.81373899  1
  S  S14  1  0.32191724  0.04152122  0.85161284  1
