# generated using pymatgen
data_Na3AlTe3
_symmetry_space_group_name_H-M   'P 1'
_cell_length_a   7.83541316
_cell_length_b   8.12863300
_cell_length_c   14.19387799
_cell_angle_alpha   90.29746128
_cell_angle_beta   90.00000000
_cell_angle_gamma   90.00000000
_symmetry_Int_Tables_number   1
_chemical_formula_structural   Na3AlTe3
_chemical_formula_sum   'Na12 Al4 Te12'
_cell_volume   904.01290962
_cell_formula_units_Z   4
loop_
 _symmetry_equiv_pos_site_id
 _symmetry_equiv_pos_as_xyz
  1  'x, y, z'
loop_
 _atom_site_type_symbol
 _atom_site_label
 _atom_site_symmetry_multiplicity
 _atom_site_fract_x
 _atom_site_fract_y
 _atom_site_fract_z
 _atom_site_occupancy
  Na  Na0  1  0.47991607  0.72496502  0.77864823  1
  Na  Na1  1  0.97991607  0.77503498  0.72135177  1
  Na  Na2  1  0.52008393  0.27503498  0.22135177  1
  Na  Na3  1  0.02008393  0.22496502  0.27864823  1
  Na  Na4  1  0.49745758  0.32739595  0.60398237  1
  Na  Na5  1  0.99745758  0.17260405  0.89601763  1
  Na  Na6  1  0.50254242  0.67260405  0.39601763  1
  Na  Na7  1  0.00254242  0.82739595  0.10398237  1
  Na  Na8  1  0.49912765  0.21575367  0.89833048  1
  Na  Na9  1  0.99912765  0.28424633  0.60166952  1
  Na  Na10  1  0.50087235  0.78424633  0.10166952  1
  Na  Na11  1  0.00087235  0.71575367  0.39833048  1
  Al  Al12  1  0.85946150  0.58271552  0.91814210  1
  Al  Al13  1  0.35946150  0.91728448  0.58185790  1
  Al  Al14  1  0.14053850  0.41728448  0.08185790  1
  Al  Al15  1  0.64053850  0.08271552  0.41814210  1
  Te  Te16  1  0.70278399  0.91738323  0.57484854  1
  Te  Te17  1  0.20278399  0.58261677  0.92515146  1
  Te  Te18  1  0.29721601  0.08261677  0.42515146  1
  Te  Te19  1  0.79721601  0.41738323  0.07484854  1
  Te  Te20  1  0.25607527  0.07561831  0.73120744  1
  Te  Te21  1  0.75607527  0.42438169  0.76879256  1
  Te  Te22  1  0.74392473  0.92438169  0.26879256  1
  Te  Te23  1  0.24392473  0.57561831  0.23120744  1
  Te  Te24  1  0.74070900  0.88127787  0.92628357  1
  Te  Te25  1  0.24070900  0.61872213  0.57371643  1
  Te  Te26  1  0.25929100  0.11872213  0.07371643  1
  Te  Te27  1  0.75929100  0.38127787  0.42628357  1
