# generated using pymatgen
data_Sr2CdAs2
_symmetry_space_group_name_H-M   'P 1'
_cell_length_a   4.48219974
_cell_length_b   7.68813657
_cell_length_c   8.83742656
_cell_angle_alpha   90.00000000
_cell_angle_beta   75.30983150
_cell_angle_gamma   90.00000000
_symmetry_Int_Tables_number   1
_chemical_formula_structural   Sr2CdAs2
_chemical_formula_sum   'Sr4 Cd2 As4'
_cell_volume   294.58075173
_cell_formula_units_Z   2
loop_
 _symmetry_equiv_pos_site_id
 _symmetry_equiv_pos_as_xyz
  1  'x, y, z'
loop_
 _atom_site_type_symbol
 _atom_site_label
 _atom_site_symmetry_multiplicity
 _atom_site_fract_x
 _atom_site_fract_y
 _atom_site_fract_z
 _atom_site_occupancy
  Sr  Sr0  1  0.46585274  0.26401179  0.06829653  1
  Sr  Sr1  1  0.29715162  0.60734955  0.40569775  1
  Sr  Sr2  1  0.70284938  0.10734855  0.59430225  1
  Sr  Sr3  1  0.53414926  0.76401179  0.93170347  1
  Cd  Cd4  1  0.90403264  0.92201153  0.19193773  1
  Cd  Cd5  1  0.09596936  0.42201153  0.80806227  1
  As  As6  1  0.93667080  0.55811583  0.12666041  1
  As  As7  1  0.32446910  0.01415231  0.35106379  1
  As  As8  1  0.67553290  0.51415231  0.64893621  1
  As  As9  1  0.06333120  0.05811583  0.87333859  1
