# generated using pymatgen
data_UFeSe3
_symmetry_space_group_name_H-M   'P 1'
_cell_length_a   3.87527750
_cell_length_b   6.30360027
_cell_length_c   9.18706459
_cell_angle_alpha   90.00000000
_cell_angle_beta   90.00000000
_cell_angle_gamma   107.90176710
_symmetry_Int_Tables_number   1
_chemical_formula_structural   UFeSe3
_chemical_formula_sum   'U2 Fe2 Se6'
_cell_volume   213.55797522
_cell_formula_units_Z   2
loop_
 _symmetry_equiv_pos_site_id
 _symmetry_equiv_pos_as_xyz
  1  'x, y, z'
loop_
 _atom_site_type_symbol
 _atom_site_label
 _atom_site_symmetry_multiplicity
 _atom_site_fract_x
 _atom_site_fract_y
 _atom_site_fract_z
 _atom_site_occupancy
  U  U0  1  0.75636836  0.51273672  0.25000000  1
  U  U1  1  0.24363164  0.48726328  0.75000000  1
  Fe  Fe2  1  0.00000000  0.00000000  0.50000000  1
  Fe  Fe3  1  0.00000000  0.00000000  0.00000000  1
  Se  Se4  1  0.35864542  0.71729083  0.44319927  1
  Se  Se5  1  0.64135458  0.28270917  0.55680073  1
  Se  Se6  1  0.35864542  0.71729083  0.05680073  1
  Se  Se7  1  0.64135458  0.28270917  0.94319927  1
  Se  Se8  1  0.08129680  0.16259360  0.25000000  1
  Se  Se9  1  0.91870320  0.83740640  0.75000000  1
