# generated using pymatgen
data_CaLaTaFeO6
_symmetry_space_group_name_H-M   'P 1'
_cell_length_a   5.80518323
_cell_length_b   5.62839127
_cell_length_c   7.91405546
_cell_angle_alpha   89.26630366
_cell_angle_beta   90.00000000
_cell_angle_gamma   90.00000000
_symmetry_Int_Tables_number   1
_chemical_formula_structural   CaLaTaFeO6
_chemical_formula_sum   'Ca2 La2 Ta2 Fe2 O12'
_cell_volume   258.56140200
_cell_formula_units_Z   2
loop_
 _symmetry_equiv_pos_site_id
 _symmetry_equiv_pos_as_xyz
  1  'x, y, z'
loop_
 _atom_site_type_symbol
 _atom_site_label
 _atom_site_symmetry_multiplicity
 _atom_site_fract_x
 _atom_site_fract_y
 _atom_site_fract_z
 _atom_site_occupancy
  Ca  Ca0  1  0.55006066  0.51642948  0.25053649  1
  Ca  Ca1  1  0.94993934  0.01642948  0.75053649  1
  La  La2  1  0.04442848  0.98622447  0.24832720  1
  La  La3  1  0.45557152  0.48622447  0.74832720  1
  Ta  Ta4  1  0.50273659  0.00066905  0.49850240  1
  Ta  Ta5  1  0.99726341  0.50066905  0.99850240  1
  Fe  Fe6  1  0.50141328  0.00032673  -0.00026131  1
  Fe  Fe7  1  -0.00141328  0.50032673  0.49973869  1
  O  O8  1  0.03337101  0.60249547  0.75598766  1
  O  O9  1  0.19080178  0.21433353  0.95141354  1
  O  O10  1  0.21979228  0.18874837  0.55735430  1
  O  O11  1  0.28020772  0.68874837  0.05735430  1
  O  O12  1  0.30919822  0.71433353  0.45141354  1
  O  O13  1  0.46662899  0.10249547  0.25598666  1
  O  O14  1  0.53784792  0.90174823  0.74422925  1
  O  O15  1  0.69779047  0.28177341  0.54887563  1
  O  O16  1  0.71715085  0.30725026  0.94503384  1
  O  O17  1  0.78284915  0.80725026  0.44503384  1
  O  O18  1  0.80220953  0.78177341  0.04887563  1
  O  O19  1  0.96215208  0.40174823  0.24422925  1
