# generated using pymatgen
data_MgMnP2O7
_symmetry_space_group_name_H-M   'P 1'
_cell_length_a   7.11771377
_cell_length_b   8.56708945
_cell_length_c   9.22531424
_cell_angle_alpha   90.00000000
_cell_angle_beta   112.48472382
_cell_angle_gamma   90.00000000
_symmetry_Int_Tables_number   1
_chemical_formula_structural   MgMnP2O7
_chemical_formula_sum   'Mg4 Mn4 P8 O28'
_cell_volume   519.77846155
_cell_formula_units_Z   4
loop_
 _symmetry_equiv_pos_site_id
 _symmetry_equiv_pos_as_xyz
  1  'x, y, z'
loop_
 _atom_site_type_symbol
 _atom_site_label
 _atom_site_symmetry_multiplicity
 _atom_site_fract_x
 _atom_site_fract_y
 _atom_site_fract_z
 _atom_site_occupancy
  Mg  Mg0  1  0.12090834  0.94004011  0.81892216  1
  Mg  Mg1  1  0.37909166  0.44004011  0.68107784  1
  Mg  Mg2  1  0.62090834  0.55995989  0.31892216  1
  Mg  Mg3  1  0.87909166  0.05995989  0.18107784  1
  Mn  Mn4  1  0.37300135  0.06963499  0.60920227  1
  Mn  Mn5  1  0.62699865  0.93036501  0.39079773  1
  Mn  Mn6  1  0.12699865  0.56963499  0.89079773  1
  Mn  Mn7  1  0.87300135  0.43036501  0.10920227  1
  P  P8  1  0.18089556  0.73541523  0.24278045  1
  P  P9  1  0.43640239  0.22370200  0.96865414  1
  P  P10  1  0.68089556  0.76458477  0.74278045  1
  P  P11  1  0.93640239  0.27629800  0.46865414  1
  P  P12  1  0.31910444  0.23541523  0.25721955  1
  P  P13  1  0.06359761  0.72370200  0.53134586  1
  P  P14  1  0.56359761  0.77629800  0.03134586  1
  P  P15  1  0.81910444  0.26458477  0.75721955  1
  O  O16  1  0.35054662  0.17824090  0.10012417  1
  O  O17  1  0.57633340  0.60962554  0.69121604  1
  O  O18  1  0.07633340  0.89037446  0.19121604  1
  O  O19  1  0.35377369  0.38401885  0.89545122  1
  O  O20  1  0.64945338  0.82175910  0.89987583  1
  O  O21  1  0.40682868  0.10298932  0.37732776  1
  O  O22  1  0.64622631  0.61598115  0.10454878  1
  O  O23  1  0.35559925  0.09063193  0.84957837  1
  O  O24  1  0.17029345  0.27291564  0.54864918  1
  O  O25  1  0.59317132  0.89701068  0.62267124  1
  O  O26  1  0.90682868  0.39701068  0.87732876  1
  O  O27  1  0.91459883  0.76196970  0.79613105  1
  O  O28  1  0.58540117  0.26196970  0.70386895  1
  O  O29  1  0.85054662  0.32175910  0.60012417  1
  O  O30  1  0.09317132  0.60298932  0.12267124  1
  O  O31  1  0.92366660  0.10962554  0.80878396  1
  O  O32  1  0.08540117  0.23803030  0.20386895  1
  O  O33  1  0.64440075  0.90936807  0.15042163  1
  O  O34  1  0.67029345  0.22708436  0.04864918  1
  O  O35  1  0.32970655  0.77291564  0.95135082  1
  O  O36  1  0.14622631  0.88401885  0.60454878  1
  O  O37  1  0.85559925  0.40936807  0.34957837  1
  O  O38  1  0.14440075  0.59063193  0.65042163  1
  O  O39  1  0.42366660  0.39037446  0.30878396  1
  O  O40  1  0.41459883  0.73803030  0.29613105  1
  O  O41  1  0.85377369  0.11598115  0.39545122  1
  O  O42  1  0.82970655  0.72708436  0.45135082  1
  O  O43  1  0.14945338  0.67824090  0.39987583  1
