# generated using pymatgen
data_BaMgMoF7
_symmetry_space_group_name_H-M   'P 1'
_cell_length_a   5.74529545
_cell_length_b   9.93765043
_cell_length_c   10.22487454
_cell_angle_alpha   90.00000000
_cell_angle_beta   90.00000000
_cell_angle_gamma   92.81513182
_symmetry_Int_Tables_number   1
_chemical_formula_structural   BaMgMoF7
_chemical_formula_sum   'Ba4 Mg4 Mo4 F28'
_cell_volume   583.08201806
_cell_formula_units_Z   4
loop_
 _symmetry_equiv_pos_site_id
 _symmetry_equiv_pos_as_xyz
  1  'x, y, z'
loop_
 _atom_site_type_symbol
 _atom_site_label
 _atom_site_symmetry_multiplicity
 _atom_site_fract_x
 _atom_site_fract_y
 _atom_site_fract_z
 _atom_site_occupancy
  Ba  Ba0  1  0.26801404  0.49660461  0.32776566  1
  Ba  Ba1  1  0.73198596  0.00339539  0.82776566  1
  Ba  Ba2  1  0.73198596  0.50339539  0.67223434  1
  Ba  Ba3  1  0.26801404  0.99660461  0.17223434  1
  Mg  Mg4  1  0.68870436  0.80988712  0.39261472  1
  Mg  Mg5  1  0.31129564  0.69011288  0.89261472  1
  Mg  Mg6  1  0.68870436  0.30988712  0.10738528  1
  Mg  Mg7  1  0.31129564  0.19011288  0.60738528  1
  Mo  Mo8  1  0.19341069  0.81477619  0.61126567  1
  Mo  Mo9  1  0.80658931  0.18522381  0.38873433  1
  Mo  Mo10  1  0.19341069  0.31477619  0.88873433  1
  Mo  Mo11  1  0.80658931  0.68522381  0.11126567  1
  F  F12  1  0.13163514  0.12395675  0.45336014  1
  F  F13  1  0.37562942  0.37430181  0.05901231  1
  F  F14  1  0.48534363  0.75004220  0.71762308  1
  F  F15  1  0.51465637  0.24995780  0.28237692  1
  F  F16  1  0.89537402  0.37598086  0.45894584  1
  F  F17  1  0.26085747  0.50792783  0.80424664  1
  F  F18  1  0.02712806  0.75041617  0.78681200  1
  F  F19  1  0.10462598  0.12401914  0.95894584  1
  F  F20  1  0.37562942  0.87430181  0.44098769  1
  F  F21  1  0.51465637  0.74995780  0.21762308  1
  F  F22  1  0.13163514  0.62395675  0.04663986  1
  F  F23  1  0.86836486  0.87604325  0.54663986  1
  F  F24  1  0.97287194  0.74958383  0.28681200  1
  F  F25  1  0.39502800  0.86875887  0.95874984  1
  F  F26  1  0.10462598  0.62401914  0.54105416  1
  F  F27  1  0.89537402  0.87598086  0.04105416  1
  F  F28  1  0.97287194  0.24958383  0.21318800  1
  F  F29  1  0.86836486  0.37604325  0.95336014  1
  F  F30  1  0.60497200  0.63124113  0.45874984  1
  F  F31  1  0.62437058  0.62569819  0.94098769  1
  F  F32  1  0.60497200  0.13124113  0.04125016  1
  F  F33  1  0.02712806  0.25041617  0.71318800  1
  F  F34  1  0.39502800  0.36875887  0.54125016  1
  F  F35  1  0.73914253  0.99207217  0.30424664  1
  F  F36  1  0.73914253  0.49207217  0.19575336  1
  F  F37  1  0.26085747  0.00792783  0.69575336  1
  F  F38  1  0.62437058  0.12569819  0.55901231  1
  F  F39  1  0.48534363  0.25004220  0.78237692  1
