# generated using pymatgen
data_CaHo(FeO3)2
_symmetry_space_group_name_H-M   'P 1'
_cell_length_a   5.33584048
_cell_length_b   5.56066515
_cell_length_c   7.63754586
_cell_angle_alpha   90.00070197
_cell_angle_beta   89.99922613
_cell_angle_gamma   90.00598879
_symmetry_Int_Tables_number   1
_chemical_formula_structural   CaHo(FeO3)2
_chemical_formula_sum   'Ca2 Ho2 Fe4 O12'
_cell_volume   226.61226381
_cell_formula_units_Z   2
loop_
 _symmetry_equiv_pos_site_id
 _symmetry_equiv_pos_as_xyz
  1  'x, y, z'
loop_
 _atom_site_type_symbol
 _atom_site_label
 _atom_site_symmetry_multiplicity
 _atom_site_fract_x
 _atom_site_fract_y
 _atom_site_fract_z
 _atom_site_occupancy
  Ca  Ca0  1  0.48922704  0.44796724  0.74998901  1
  Ca  Ca1  1  0.98918102  0.05208812  0.25002933  1
  Ho  Ho2  1  0.01794070  0.93237780  0.75000141  1
  Ho  Ho3  1  0.51795677  0.56754427  0.25001531  1
  Fe  Fe4  1  0.00099660  0.49435083  0.00035488  1
  Fe  Fe5  1  0.00099554  0.49430518  0.49965308  1
  Fe  Fe6  1  0.50103826  0.00563042  0.50035501  1
  Fe  Fe7  1  0.50104755  0.00566546  0.99964436  1
  O  O8  1  0.10794132  0.47378840  0.24999298  1
  O  O9  1  0.19388576  0.19252883  0.94701827  1
  O  O10  1  0.19386362  0.19247589  0.55295572  1
  O  O11  1  0.28951693  0.70868589  0.95230414  1
  O  O12  1  0.28952771  0.70862417  0.54765386  1
  O  O13  1  0.41590740  0.96763743  0.24999442  1
  O  O14  1  0.60794252  0.02621027  0.74999613  1
  O  O15  1  0.69392972  0.30759446  0.44703553  1
  O  O16  1  0.69397205  0.30758168  0.05297982  1
  O  O17  1  0.78962966  0.79129244  0.04769194  1
  O  O18  1  0.78960529  0.79128352  0.45233825  1
  O  O19  1  0.91589251  0.53236870  0.74999755  1
