# generated using pymatgen
data_BaCaCuF7
_symmetry_space_group_name_H-M   'P 1'
_cell_length_a   5.68854047
_cell_length_b   9.96082535
_cell_length_c   10.48437942
_cell_angle_alpha   90.00000000
_cell_angle_beta   90.00000000
_cell_angle_gamma   92.07249897
_symmetry_Int_Tables_number   1
_chemical_formula_structural   BaCaCuF7
_chemical_formula_sum   'Ba4 Ca4 Cu4 F28'
_cell_volume   593.68315601
_cell_formula_units_Z   4
loop_
 _symmetry_equiv_pos_site_id
 _symmetry_equiv_pos_as_xyz
  1  'x, y, z'
loop_
 _atom_site_type_symbol
 _atom_site_label
 _atom_site_symmetry_multiplicity
 _atom_site_fract_x
 _atom_site_fract_y
 _atom_site_fract_z
 _atom_site_occupancy
  Ba  Ba0  1  0.26195107  0.50608804  0.33340004  1
  Ba  Ba1  1  0.73804893  0.99391196  0.83340004  1
  Ba  Ba2  1  0.73804893  0.49391196  0.66659996  1
  Ba  Ba3  1  0.26195107  0.00608804  0.16659996  1
  Ca  Ca4  1  0.70787822  0.82092887  0.40919854  1
  Ca  Ca5  1  0.29212178  0.67907113  0.90919854  1
  Ca  Ca6  1  0.70787822  0.32092887  0.09080146  1
  Ca  Ca7  1  0.29212178  0.17907113  0.59080146  1
  Cu  Cu8  1  0.19054677  0.81049200  0.62313340  1
  Cu  Cu9  1  0.80945323  0.18950800  0.37686660  1
  Cu  Cu10  1  0.19054677  0.31049200  0.87686660  1
  Cu  Cu11  1  0.80945323  0.68950800  0.12313340  1
  F  F12  1  0.09718477  0.10584693  0.41928761  1
  F  F13  1  0.33800209  0.36977415  0.03257892  1
  F  F14  1  0.46636513  0.73809660  0.70352710  1
  F  F15  1  0.53363487  0.26190340  0.29647290  1
  F  F16  1  0.91217056  0.35267253  0.45920608  1
  F  F17  1  0.28381818  0.47990183  0.79752368  1
  F  F18  1  0.01106850  0.74846853  0.77179548  1
  F  F19  1  0.08782944  0.14732747  0.95920608  1
  F  F20  1  0.33800209  0.86977415  0.46742108  1
  F  F21  1  0.53363487  0.76190340  0.20352710  1
  F  F22  1  0.09718477  0.60584693  0.08071239  1
  F  F23  1  0.90281523  0.89415307  0.58071239  1
  F  F24  1  0.98893150  0.75153147  0.27179548  1
  F  F25  1  0.39188546  0.88365117  0.95808045  1
  F  F26  1  0.08782944  0.64732747  0.54079392  1
  F  F27  1  0.91217056  0.85267253  0.04079392  1
  F  F28  1  0.98893150  0.25153147  0.22820452  1
  F  F29  1  0.90281523  0.39415307  0.91928761  1
  F  F30  1  0.60811454  0.61634883  0.45808045  1
  F  F31  1  0.66199791  0.63022585  0.96742108  1
  F  F32  1  0.60811454  0.11634883  0.04191955  1
  F  F33  1  0.01106850  0.24846853  0.72820452  1
  F  F34  1  0.39188546  0.38365117  0.54191955  1
  F  F35  1  0.71618182  0.02009817  0.29752368  1
  F  F36  1  0.71618182  0.52009817  0.20247632  1
  F  F37  1  0.28381818  0.97990183  0.70247632  1
  F  F38  1  0.66199791  0.13022585  0.53257892  1
  F  F39  1  0.46636513  0.23809660  0.79647290  1
