# generated using pymatgen
data_MgFe(PO3)4
_symmetry_space_group_name_H-M   'P 1'
_cell_length_a   7.34449520
_cell_length_b   7.34383588
_cell_length_c   9.88533774
_cell_angle_alpha   98.75146525
_cell_angle_beta   109.66836226
_cell_angle_gamma   110.00668210
_symmetry_Int_Tables_number   1
_chemical_formula_structural   MgFe(PO3)4
_chemical_formula_sum   'Mg2 Fe2 P8 O24'
_cell_volume   449.73438485
_cell_formula_units_Z   2
loop_
 _symmetry_equiv_pos_site_id
 _symmetry_equiv_pos_as_xyz
  1  'x, y, z'
loop_
 _atom_site_type_symbol
 _atom_site_label
 _atom_site_symmetry_multiplicity
 _atom_site_fract_x
 _atom_site_fract_y
 _atom_site_fract_z
 _atom_site_occupancy
  Mg  Mg0  1  0.70506856  0.95528333  0.74983762  1
  Mg  Mg1  1  0.29486964  0.04505664  0.24978503  1
  Fe  Fe2  1  0.49992538  0.49985332  0.49973053  1
  Fe  Fe3  1  0.49976686  0.99995927  0.00009526  1
  P  P4  1  0.50964365  0.31507097  0.80552735  1
  P  P5  1  0.00938053  0.70530776  0.69457073  1
  P  P6  1  0.48946156  0.68519724  0.19455714  1
  P  P7  1  0.99094913  0.29599914  0.30587514  1
  P  P8  1  0.76869149  0.73041160  0.02170267  1
  P  P9  1  0.20962334  0.74805695  0.47868754  1
  P  P10  1  0.23081781  0.26978423  0.97853392  1
  P  P11  1  0.79186647  0.25331600  0.52181222  1
  O  O12  1  0.31972759  0.31315321  0.85212248  1
  O  O13  1  0.96048590  0.46880401  0.64829088  1
  O  O14  1  0.67934899  0.68757015  0.14792069  1
  O  O15  1  0.04013934  0.53272537  0.35219490  1
  O  O16  1  0.71953650  0.50396472  0.93421914  1
  O  O17  1  0.07123537  0.78678169  0.56652677  1
  O  O18  1  0.27964445  0.49599465  0.06621558  1
  O  O19  1  0.93205290  0.21562694  0.43523013  1
  O  O20  1  0.45987571  0.35045736  0.65600289  1
  O  O21  1  0.19322178  0.80470022  0.84464907  1
  O  O22  1  0.54006492  0.65035404  0.34425109  1
  O  O23  1  0.80525346  0.19624873  0.15679118  1
  O  O24  1  0.54642553  0.12692858  0.82207240  1
  O  O25  1  0.80456656  0.72573963  0.67705882  1
  O  O26  1  0.45212155  0.87300049  0.17782496  1
  O  O27  1  0.19512592  0.27511219  0.32173708  1
  O  O28  1  0.63781037  0.81379483  0.91579932  1
  O  O29  1  0.39847225  0.72235643  0.58438799  1
  O  O30  1  0.36229428  0.18676074  0.08431253  1
  O  O31  1  0.60293736  0.27825938  0.41543590  1
  O  O32  1  0.00282965  0.84547509  0.09800020  1
  O  O33  1  0.24915597  0.90635758  0.40282740  1
  O  O34  1  0.99668878  0.15430187  0.90268040  1
  O  O35  1  0.75246544  0.09528264  0.59788605  1
