# generated using pymatgen
data_LiZnPS4
_symmetry_space_group_name_H-M   'P 1'
_cell_length_a   5.82026045
_cell_length_b   5.82026045
_cell_length_c   6.13202601
_cell_angle_alpha   118.33193657
_cell_angle_beta   118.33193648
_cell_angle_gamma   89.99999996
_symmetry_Int_Tables_number   1
_chemical_formula_structural   LiZnPS4
_chemical_formula_sum   'Li1 Zn1 P1 S4'
_cell_volume   153.98992959
_cell_formula_units_Z   1
loop_
 _symmetry_equiv_pos_site_id
 _symmetry_equiv_pos_as_xyz
  1  'x, y, z'
loop_
 _atom_site_type_symbol
 _atom_site_label
 _atom_site_symmetry_multiplicity
 _atom_site_fract_x
 _atom_site_fract_y
 _atom_site_fract_z
 _atom_site_occupancy
  Li  Li0  1  0.50000000  0.50000000  0.00000000  1
  P  P1  1  0.25000000  0.75000000  0.50000000  1
  S  S2  1  0.92609648  0.41214480  0.26967738  1
  S  S3  1  0.58785520  0.65641910  0.73032262  1
  S  S4  1  0.14246742  0.07390352  0.73032262  1
  S  S5  1  0.34358090  0.85753258  0.26967738  1
  Zn  Zn6  1  0.00000000  0.00000000  0.00000000  1
