# generated using pymatgen
data_TbSn3
_symmetry_space_group_name_H-M   'P 1'
_cell_length_a   4.46598213
_cell_length_b   4.43682503
_cell_length_c   11.32186516
_cell_angle_alpha   101.29967073
_cell_angle_beta   90.00000000
_cell_angle_gamma   90.00000000
_symmetry_Int_Tables_number   1
_chemical_formula_structural   TbSn3
_chemical_formula_sum   'Tb2 Sn6'
_cell_volume   219.99162174
_cell_formula_units_Z   2
loop_
 _symmetry_equiv_pos_site_id
 _symmetry_equiv_pos_as_xyz
  1  'x, y, z'
loop_
 _atom_site_type_symbol
 _atom_site_label
 _atom_site_symmetry_multiplicity
 _atom_site_fract_x
 _atom_site_fract_y
 _atom_site_fract_z
 _atom_site_occupancy
  Tb  Tb0  1  0.50000000  0.48266973  0.96533945  1
  Tb  Tb1  1  0.00000000  0.21372583  0.42745166  1
  Sn  Sn2  1  0.50000000  0.10005090  0.20010180  1
  Sn  Sn3  1  0.50000000  0.72787166  0.45574332  1
  Sn  Sn4  1  0.50000000  0.86328282  0.72656565  1
  Sn  Sn5  1  0.00000000  0.97500713  0.95001425  1
  Sn  Sn6  1  -0.00000000  0.36393850  0.72787701  1
  Sn  Sn7  1  0.00000000  0.59945343  0.19890687  1
