# generated using pymatgen
data_VH17C4S4(O5F3)4
_symmetry_space_group_name_H-M   'P 1'
_cell_length_a   8.99888024
_cell_length_b   9.01979655
_cell_length_c   9.93805773
_cell_angle_alpha   109.78552528
_cell_angle_beta   103.37098256
_cell_angle_gamma   87.80687112
_symmetry_Int_Tables_number   1
_chemical_formula_structural   VH17C4S4(O5F3)4
_chemical_formula_sum   'V1 H17 C4 S4 O20 F12'
_cell_volume   737.75256131
_cell_formula_units_Z   1
loop_
 _symmetry_equiv_pos_site_id
 _symmetry_equiv_pos_as_xyz
  1  'x, y, z'
loop_
 _atom_site_type_symbol
 _atom_site_label
 _atom_site_symmetry_multiplicity
 _atom_site_fract_x
 _atom_site_fract_y
 _atom_site_fract_z
 _atom_site_occupancy
  V  V0  1  -0.00000000  0.00000000  -0.00000000  1
  H  H1  1  0.18599943  0.24578929  0.18642769  1
  H  H2  1  0.81400057  0.75421071  0.81357231  1
  H  H3  1  0.98683012  0.68470067  0.84074379  1
  H  H4  1  0.01316988  0.31529933  0.15925621  1
  H  H5  1  0.17680671  0.11246102  0.86527471  1
  H  H6  1  0.82319329  0.88753898  0.13472529  1
  H  H7  1  0.76597300  0.06314965  0.14694658  1
  H  H8  1  0.23402700  0.93685035  0.85305342  1
  H  H9  1  0.87687648  0.17548854  0.83378107  1
  H  H10  1  0.12312352  0.82451146  0.16621893  1
  H  H11  1  0.73585355  0.06067225  0.83365482  1
  H  H12  1  0.26414645  0.93932775  0.16634518  1
  H  H13  1  0.50000000  0.50000000  -0.00000000  1
  H  H14  1  0.52466007  0.71566733  0.10900162  1
  H  H15  1  0.47533993  0.28433267  0.89099838  1
  H  H16  1  0.64854150  0.34760713  0.98075719  1
  H  H17  1  0.35145850  0.65239287  0.01924281  1
  C  C18  1  0.42673195  0.78590611  0.54604079  1
  C  C19  1  0.57326805  0.21409389  0.45395921  1
  C  C20  1  0.07648495  0.29716094  0.57656606  1
  C  C21  1  0.92351505  0.70283906  0.42343394  1
  S  S22  1  0.49182479  0.15633201  0.25157877  1
  S  S23  1  0.50817521  0.84366799  0.74842123  1
  S  S24  1  0.08581638  0.36300786  0.77883684  1
  S  S25  1  0.91418362  0.63699214  0.22116316  1
  O  O26  1  0.92630359  0.78107902  0.85499421  1
  O  O27  1  0.07369641  0.21892098  0.14500579  1
  O  O28  1  0.15562902  0.01407440  0.88422135  1
  O  O29  1  0.84437098  0.98592560  0.11577865  1
  O  O30  1  0.84425408  0.10435973  0.88105149  1
  O  O31  1  0.15574592  0.89564027  0.11894851  1
  O  O32  1  0.63079975  0.73555523  0.76384665  1
  O  O33  1  0.36920025  0.26444477  0.23615335  1
  O  O34  1  0.56066224  0.00948250  0.79084798  1
  O  O35  1  0.43933776  0.99051750  0.20915202  1
  O  O36  1  0.93545830  0.31408728  0.78613506  1
  O  O37  1  0.06454170  0.68591272  0.21386494  1
  O  O38  1  0.37907116  0.82159914  0.80600593  1
  O  O39  1  0.62092884  0.17840086  0.19399407  1
  O  O40  1  0.88382046  0.46664769  0.16853664  1
  O  O41  1  0.11617954  0.53335231  0.83146336  1
  O  O42  1  0.78647750  0.72266696  0.16405983  1
  O  O43  1  0.21352250  0.27733304  0.83594017  1
  O  O44  1  0.53975601  0.36635308  0.97366859  1
  O  O45  1  0.46024399  0.63364692  0.02633141  1
  F  F46  1  0.69686902  0.12877332  0.48035571  1
  F  F47  1  0.30313098  0.87122668  0.51964429  1
  F  F48  1  0.61605287  0.36865899  0.51001438  1
  F  F49  1  0.38394713  0.63134101  0.48998562  1
  F  F50  1  0.46914077  0.18636145  0.52273740  1
  F  F51  1  0.53085923  0.81363855  0.47726260  1
  F  F52  1  0.95112340  0.35112446  0.50640864  1
  F  F53  1  0.04887660  0.64887554  0.49359136  1
  F  F54  1  0.06944375  0.13788065  0.52149243  1
  F  F55  1  0.93055625  0.86211935  0.47850757  1
  F  F56  1  0.79813656  0.64846266  0.44784077  1
  F  F57  1  0.20186344  0.35153734  0.55215923  1
