# generated using pymatgen
data_Re12S9Br19
_symmetry_space_group_name_H-M   'P 1'
_cell_length_a   9.76771618
_cell_length_b   9.80776611
_cell_length_c   25.50205898
_cell_angle_alpha   82.40963414
_cell_angle_beta   83.49626253
_cell_angle_gamma   83.00254512
_symmetry_Int_Tables_number   1
_chemical_formula_structural   Re12S9Br19
_chemical_formula_sum   'Re24 S18 Br38'
_cell_volume   2391.88599168
_cell_formula_units_Z   2
loop_
 _symmetry_equiv_pos_site_id
 _symmetry_equiv_pos_as_xyz
  1  'x, y, z'
loop_
 _atom_site_type_symbol
 _atom_site_label
 _atom_site_symmetry_multiplicity
 _atom_site_fract_x
 _atom_site_fract_y
 _atom_site_fract_z
 _atom_site_occupancy
  Re  Re0  1  0.06748170  0.05120531  0.05883661  1
  Re  Re1  1  0.02501893  0.81520621  0.02825115  1
  Re  Re2  1  0.06974099  0.05337052  0.55785267  1
  Re  Re3  1  0.02522828  0.81340257  0.52877119  1
  Re  Re4  1  0.18036863  0.98412517  0.46488412  1
  Re  Re5  1  0.32351004  0.60356874  0.24837156  1
  Re  Re6  1  0.17913757  0.98180059  0.96406822  1
  Re  Re7  1  0.41745824  0.33867036  0.25372533  1
  Re  Re8  1  0.32159597  0.60156284  0.74970781  1
  Re  Re9  1  0.41467996  0.33832181  0.75449868  1
  Re  Re10  1  0.48348568  0.49301359  0.32344615  1
  Re  Re11  1  0.51334169  0.51672442  0.17587063  1
  Re  Re12  1  0.48141588  0.49154364  0.82385695  1
  Re  Re13  1  0.51079528  0.51716233  0.67582059  1
  Re  Re14  1  0.57772379  0.66907824  0.24417212  1
  Re  Re15  1  0.67629474  0.40521921  0.24924139  1
  Re  Re16  1  0.57663694  0.66981404  0.74387313  1
  Re  Re17  1  0.82136321  0.01617029  0.03316747  1
  Re  Re18  1  0.67479335  0.40409149  0.74954055  1
  Re  Re19  1  0.82047456  0.01626372  0.53333030  1
  Re  Re20  1  0.97650830  0.18435286  0.46974444  1
  Re  Re21  1  0.93316712  0.94814488  0.44030021  1
  Re  Re22  1  0.97344348  0.18438610  0.96901905  1
  Re  Re23  1  0.93279526  0.94772514  0.94006466  1
  S  S24  1  0.07830403  0.10268831  0.38911068  1
  S  S25  1  0.07691180  0.10250439  0.88859895  1
  S  S26  1  0.12531537  0.76939317  0.44045754  1
  S  S27  1  0.28017050  0.45247768  0.18602544  1
  S  S28  1  0.20473282  0.20423773  0.49400840  1
  S  S29  1  0.12671265  0.76984448  0.93995468  1
  S  S30  1  0.27826906  0.45081188  0.68663602  1
  S  S31  1  0.25438930  0.43075356  0.82152986  1
  S  S32  1  0.39889793  0.73121584  0.31327764  1
  S  S33  1  0.42642715  0.75326645  0.17803896  1
  S  S34  1  0.39773715  0.72906357  0.81408204  1
  S  S35  1  0.42785444  0.75419230  0.67711449  1
  S  S36  1  0.75213845  0.13720649  0.44973081  1
  S  S37  1  0.74633516  0.57274165  0.17798399  1
  S  S38  1  0.75313591  0.13786506  0.94966092  1
  S  S39  1  0.74404843  0.57146146  0.67858488  1
  S  S40  1  0.92349803  0.89689201  0.11103244  1
  S  S41  1  0.92247201  0.89680645  0.61082587  1
  Br  Br42  1  0.06327756  0.56540023  0.06748622  1
  Br  Br43  1  0.08774481  0.73583226  0.24672963  1
  Br  Br44  1  0.16357042  0.12180482  0.13644094  1
  Br  Br45  1  0.06286533  0.56418454  0.56724476  1
  Br  Br46  1  0.08503465  0.73706313  0.74569060  1
  Br  Br47  1  0.16850931  0.12693756  0.63493172  1
  Br  Br48  1  0.23289160  0.42154041  0.32862530  1
  Br  Br49  1  0.30856240  0.11862406  0.26068661  1
  Br  Br50  1  0.26582163  0.84925736  0.05511444  1
  Br  Br51  1  0.22296379  0.22208432  0.99323355  1
  Br  Br52  1  0.30605270  0.11739769  0.76151491  1
  Br  Br53  1  0.26702253  0.84941233  0.55508488  1
  Br  Br54  1  0.57528160  0.04307762  0.07743772  1
  Br  Br55  1  0.46556935  0.47636526  0.42265337  1
  Br  Br56  1  0.53217514  0.53078972  0.07486294  1
  Br  Br57  1  0.42546009  0.95868050  0.42141890  1
  Br  Br58  1  0.57882404  0.22586933  0.32835676  1
  Br  Br59  1  0.60703450  0.24995939  0.18224262  1
  Br  Br60  1  0.57449169  0.04391803  0.57659115  1
  Br  Br61  1  0.46373704  0.47439465  0.92395799  1
  Br  Br62  1  0.52997975  0.53088458  0.57496700  1
  Br  Br63  1  0.42257056  0.95441731  0.92116723  1
  Br  Br64  1  0.57782739  0.22465120  0.82876286  1
  Br  Br65  1  0.61018141  0.25146821  0.68131851  1
  Br  Br66  1  0.69058208  0.88770676  0.23778417  1
  Br  Br67  1  0.77766480  0.77807808  0.00748762  1
  Br  Br68  1  0.73773744  0.55103374  0.31968826  1
  Br  Br69  1  0.86411760  0.24773158  0.06504015  1
  Br  Br70  1  0.68934001  0.88848972  0.73684924  1
  Br  Br71  1  0.77772774  0.77777673  0.50750819  1
  Br  Br72  1  0.74077788  0.55231239  0.81818390  1
  Br  Br73  1  0.86467704  0.24890694  0.56460569  1
  Br  Br74  1  0.83392981  0.87815974  0.36242148  1
  Br  Br75  1  0.91004376  0.27070829  0.25128395  1
  Br  Br76  1  0.94065703  0.43692292  0.43075816  1
  Br  Br77  1  0.83543833  0.87697981  0.86211130  1
  Br  Br78  1  0.90879539  0.26941066  0.75159710  1
  Br  Br79  1  0.93725205  0.43342160  0.93109163  1
