# generated using pymatgen
data_NiGeH12(OF)6
_symmetry_space_group_name_H-M   'P 1'
_cell_length_a   6.50969490
_cell_length_b   6.50969477
_cell_length_c   6.50969492
_cell_angle_alpha   96.78710034
_cell_angle_beta   96.78710033
_cell_angle_gamma   96.78710109
_symmetry_Int_Tables_number   1
_chemical_formula_structural   NiGeH12(OF)6
_chemical_formula_sum   'Ni1 Ge1 H12 O6 F6'
_cell_volume   269.54909375
_cell_formula_units_Z   1
loop_
 _symmetry_equiv_pos_site_id
 _symmetry_equiv_pos_as_xyz
  1  'x, y, z'
loop_
 _atom_site_type_symbol
 _atom_site_label
 _atom_site_symmetry_multiplicity
 _atom_site_fract_x
 _atom_site_fract_y
 _atom_site_fract_z
 _atom_site_occupancy
  Ni  Ni0  1  0.00000000  0.00000000  -0.00000000  1
  Ge  Ge1  1  0.50000000  0.50000000  0.50000000  1
  H  H2  1  0.05602093  0.20056745  0.39262908  1
  H  H3  1  0.18334330  0.81269287  0.69771118  1
  H  H4  1  0.18730713  0.30228882  0.81665670  1
  H  H5  1  0.20056745  0.39262908  0.05602093  1
  H  H6  1  0.30228882  0.81665670  0.18730713  1
  H  H7  1  0.39262908  0.05602093  0.20056745  1
  H  H8  1  0.60737092  0.94397907  0.79943255  1
  H  H9  1  0.69771118  0.18334330  0.81269287  1
  H  H10  1  0.79943255  0.60737092  0.94397907  1
  H  H11  1  0.81269287  0.69771118  0.18334330  1
  H  H12  1  0.81665670  0.18730713  0.30228882  1
  H  H13  1  0.94397907  0.79943255  0.60737092  1
  O  O14  1  0.05808054  0.88197814  0.70638363  1
  O  O15  1  0.11802186  0.29361637  0.94191946  1
  O  O16  1  0.29361637  0.94191946  0.11802186  1
  O  O17  1  0.70638363  0.05808054  0.88197814  1
  O  O18  1  0.88197814  0.70638363  0.05808054  1
  O  O19  1  0.94191946  0.11802186  0.29361637  1
  F  F20  1  0.26498200  0.34914482  0.56353043  1
  F  F21  1  0.34914482  0.56353043  0.26498200  1
  F  F22  1  0.43646957  0.73501800  0.65085518  1
  F  F23  1  0.56353043  0.26498200  0.34914482  1
  F  F24  1  0.65085518  0.43646957  0.73501800  1
  F  F25  1  0.73501800  0.65085518  0.43646957  1
