# generated using pymatgen
data_YB6(HO4)3
_symmetry_space_group_name_H-M   'P 1'
_cell_length_a   8.45311293
_cell_length_b   8.45310202
_cell_length_c   8.45310217
_cell_angle_alpha   60.58586571
_cell_angle_beta   60.58574662
_cell_angle_gamma   60.58574966
_symmetry_Int_Tables_number   1
_chemical_formula_structural   YB6(HO4)3
_chemical_formula_sum   'Y2 B12 H6 O24'
_cell_volume   432.75539904
_cell_formula_units_Z   2
loop_
 _symmetry_equiv_pos_site_id
 _symmetry_equiv_pos_as_xyz
  1  'x, y, z'
loop_
 _atom_site_type_symbol
 _atom_site_label
 _atom_site_symmetry_multiplicity
 _atom_site_fract_x
 _atom_site_fract_y
 _atom_site_fract_z
 _atom_site_occupancy
  Y  Y0  1  0.46564548  0.46564161  0.46564293  1
  Y  Y1  1  0.96564548  0.96564293  0.96564161  1
  B  B2  1  0.36516158  0.58850451  0.84345904  1
  B  B3  1  0.58850891  0.84346074  0.36515750  1
  B  B4  1  0.84346445  0.36515855  0.58850564  1
  B  B5  1  0.86516158  0.34345904  0.08850451  1
  B  B6  1  0.34346445  0.08850564  0.86515855  1
  B  B7  1  0.08850891  0.86515750  0.34346074  1
  B  B8  1  0.55272894  0.25399699  0.83848944  1
  B  B9  1  0.25400143  0.83848698  0.55272175  1
  B  B10  1  0.83849260  0.55272382  0.25399691  1
  B  B11  1  0.05272894  0.33848944  0.75399699  1
  B  B12  1  0.33849260  0.75399691  0.05272382  1
  B  B13  1  0.75400143  0.05272175  0.33848698  1
  H  H14  1  0.46733915  0.11580342  0.46790153  1
  H  H15  1  0.11580853  0.46790244  0.46733706  1
  H  H16  1  0.46790285  0.46733740  0.11580137  1
  H  H17  1  0.96733915  0.96790153  0.61580342  1
  H  H18  1  0.96790285  0.61580137  0.96733740  1
  H  H19  1  0.61580853  0.96733706  0.96790244  1
  O  O20  1  0.80269911  0.40765478  0.23770218  1
  O  O21  1  0.40766083  0.23770082  0.80269708  1
  O  O22  1  0.23770709  0.80269513  0.40765229  1
  O  O23  1  0.30269911  0.73770218  0.90765478  1
  O  O24  1  0.73770709  0.90765229  0.30269513  1
  O  O25  1  0.90766083  0.30269708  0.73770082  1
  O  O26  1  0.56723486  0.15895866  0.44828243  1
  O  O27  1  0.15896649  0.44828455  0.56723035  1
  O  O28  1  0.44829015  0.56722876  0.15895796  1
  O  O29  1  0.06723486  0.94828243  0.65895866  1
  O  O30  1  0.94829015  0.65895796  0.06722876  1
  O  O31  1  0.65896649  0.06723035  0.94828455  1
  O  O32  1  0.68138102  0.32578125  0.63638977  1
  O  O33  1  0.32578798  0.63638619  0.68137405  1
  O  O34  1  0.63639253  0.68137551  0.32578112  1
  O  O35  1  0.18138102  0.13638977  0.82578125  1
  O  O36  1  0.13639253  0.82578112  0.18137551  1
  O  O37  1  0.82578798  0.18137405  0.13638619  1
  O  O38  1  0.46298651  0.40257198  0.93044286  1
  O  O39  1  0.40257486  0.93044146  0.46298416  1
  O  O40  1  0.93044464  0.46298552  0.40257152  1
  O  O41  1  0.96298651  0.43044286  0.90257198  1
  O  O42  1  0.43044464  0.90257152  0.96298552  1
  O  O43  1  0.90257486  0.96298416  0.43044146  1
