# generated using pymatgen
data_SbH3S(O2F3)2
_symmetry_space_group_name_H-M   'P 1'
_cell_length_a   5.29020143
_cell_length_b   8.17959763
_cell_length_c   10.02623014
_cell_angle_alpha   87.13876215
_cell_angle_beta   75.38917061
_cell_angle_gamma   88.95433572
_symmetry_Int_Tables_number   1
_chemical_formula_structural   SbH3S(O2F3)2
_chemical_formula_sum   'Sb2 H6 S2 O8 F12'
_cell_volume   419.29153587
_cell_formula_units_Z   2
loop_
 _symmetry_equiv_pos_site_id
 _symmetry_equiv_pos_as_xyz
  1  'x, y, z'
loop_
 _atom_site_type_symbol
 _atom_site_label
 _atom_site_symmetry_multiplicity
 _atom_site_fract_x
 _atom_site_fract_y
 _atom_site_fract_z
 _atom_site_occupancy
  Sb  Sb0  1  0.86579554  0.74715931  0.68346983  1
  Sb  Sb1  1  0.13420446  0.25284069  0.31653017  1
  H  H2  1  0.39708038  0.74100256  0.41044135  1
  H  H3  1  0.60291962  0.25899744  0.58955865  1
  H  H4  1  0.79986534  0.54361229  0.17353512  1
  H  H5  1  0.20013466  0.45638771  0.82646488  1
  H  H6  1  0.81683056  0.97980452  0.18035403  1
  H  H7  1  0.18316944  0.02019548  0.81964597  1
  S  S8  1  0.57022762  0.76756535  0.19080754  1
  S  S9  1  0.42977238  0.23243465  0.80919246  1
  O  O10  1  0.57526819  0.75946241  0.34367354  1
  O  O11  1  0.42473181  0.24053759  0.65632646  1
  O  O12  1  0.66689791  0.60275464  0.13052971  1
  O  O13  1  0.33310209  0.39724536  0.86947029  1
  O  O14  1  0.79694420  0.88233682  0.12439241  1
  O  O15  1  0.20305580  0.11766318  0.87560759  1
  O  O16  1  0.32574562  0.80800440  0.16412666  1
  O  O17  1  0.67425438  0.19199560  0.83587334  1
  F  F18  1  0.13220465  0.70583119  0.51609096  1
  F  F19  1  0.86779535  0.29416881  0.48390904  1
  F  F20  1  0.99773590  0.55709693  0.77063388  1
  F  F21  1  0.00226410  0.44290307  0.22936612  1
  F  F22  1  0.12416855  0.87519698  0.74015484  1
  F  F23  1  0.87583145  0.12480302  0.25984516  1
  F  F24  1  0.63769201  0.60548900  0.62505817  1
  F  F25  1  0.36230799  0.39451100  0.37494183  1
  F  F26  1  0.61847828  0.78585644  0.85271665  1
  F  F27  1  0.38152172  0.21414356  0.14728335  1
  F  F28  1  0.74649076  0.93385565  0.59612721  1
  F  F29  1  0.25350924  0.06614435  0.40387279  1
