# generated using pymatgen
data_Sm10Sb3Se7
_symmetry_space_group_name_H-M   'P 1'
_cell_length_a   8.55076384
_cell_length_b   21.44974659
_cell_length_c   7.44745921
_cell_angle_alpha   29.77150901
_cell_angle_beta   54.07115469
_cell_angle_gamma   59.38062585
_symmetry_Int_Tables_number   1
_chemical_formula_structural   Sm10Sb3Se7
_chemical_formula_sum   'Sm10 Sb3 Se7'
_cell_volume   549.21265145
_cell_formula_units_Z   1
loop_
 _symmetry_equiv_pos_site_id
 _symmetry_equiv_pos_as_xyz
  1  'x, y, z'
loop_
 _atom_site_type_symbol
 _atom_site_label
 _atom_site_symmetry_multiplicity
 _atom_site_fract_x
 _atom_site_fract_y
 _atom_site_fract_z
 _atom_site_occupancy
  Sm  Sm0  1  0.25504392  0.20000000  0.48839510  1
  Sm  Sm1  1  0.25052704  0.40032390  0.50083250  1
  Sm  Sm2  1  0.74495608  0.20000000  0.51160490  1
  Sm  Sm3  1  0.23799141  0.59483621  0.52264088  1
  Sm  Sm4  1  0.74947296  0.40032390  0.49754798  1
  Sm  Sm5  1  0.23799141  0.80516379  0.49682192  1
  Sm  Sm6  1  0.76200859  0.59483621  0.50317808  1
  Sm  Sm7  1  0.25052704  0.99967610  0.50245202  1
  Sm  Sm8  1  0.76200859  0.80516379  0.47735912  1
  Sm  Sm9  1  0.74947296  0.99967610  0.49916750  1
  Sb  Sb10  1  -0.00000000  0.20000000  -0.00000000  1
  Sb  Sb11  1  0.50000000  0.60450111  0.98874724  1
  Sb  Sb12  1  0.50000000  0.79549889  0.01125276  1
  Se  Se13  1  0.00000000  0.00475795  0.98810512  1
  Se  Se14  1  0.50000000  0.00069714  0.99825715  1
  Se  Se15  1  0.50000000  0.20000000  -0.00000000  1
  Se  Se16  1  0.50000000  0.39930286  0.00174285  1
  Se  Se17  1  1.00000000  0.39524205  0.01189488  1
  Se  Se18  1  1.00000000  0.59957557  0.00106108  1
  Se  Se19  1  0.00000000  0.80042443  0.99893892  1
