# generated using pymatgen
data_Er5BiAu2
_symmetry_space_group_name_H-M   'P 1'
_cell_length_a   8.66290793
_cell_length_b   8.66290793
_cell_length_c   8.66290793
_cell_angle_alpha   124.29130708
_cell_angle_beta   124.29130708
_cell_angle_gamma   82.71520294
_symmetry_Int_Tables_number   1
_chemical_formula_structural   Er5BiAu2
_chemical_formula_sum   'Er10 Bi2 Au4'
_cell_volume   426.10125484
_cell_formula_units_Z   2
loop_
 _symmetry_equiv_pos_site_id
 _symmetry_equiv_pos_as_xyz
  1  'x, y, z'
loop_
 _atom_site_type_symbol
 _atom_site_label
 _atom_site_symmetry_multiplicity
 _atom_site_fract_x
 _atom_site_fract_y
 _atom_site_fract_z
 _atom_site_occupancy
  Er  Er0  1  0.50000000  0.50000000  -0.00000000  1
  Er  Er1  1  -0.00000000  -0.00000000  -0.00000000  1
  Er  Er2  1  0.51393575  0.01393575  0.80860127  1
  Er  Er3  1  0.20533448  0.70533448  0.19139873  1
  Er  Er4  1  0.01393575  0.20533448  0.50000000  1
  Er  Er5  1  0.70533448  0.51393575  0.50000000  1
  Er  Er6  1  0.48606425  0.98606425  0.19139873  1
  Er  Er7  1  0.79466552  0.29466552  0.80860127  1
  Er  Er8  1  0.98606425  0.79466552  0.50000000  1
  Er  Er9  1  0.29466552  0.48606425  0.50000000  1
  Bi  Bi10  1  0.25000000  0.25000000  -0.00000000  1
  Bi  Bi11  1  0.75000000  0.75000000  -0.00000000  1
  Au  Au12  1  0.13923606  0.63923606  0.77847212  1
  Au  Au13  1  0.86076394  0.36076394  0.22152788  1
  Au  Au14  1  0.63923606  0.86076394  0.50000000  1
  Au  Au15  1  0.36076394  0.13923606  0.50000000  1
