# generated using pymatgen
data_Ti3N4
_symmetry_space_group_name_H-M   'P 1'
_cell_length_a   9.37639016
_cell_length_b   10.03035310
_cell_length_c   3.01233838
_cell_angle_alpha   90.00000000
_cell_angle_beta   90.00000000
_cell_angle_gamma   90.00000000
_symmetry_Int_Tables_number   1
_chemical_formula_structural   Ti3N4
_chemical_formula_sum   'Ti12 N16'
_cell_volume   283.30591851
_cell_formula_units_Z   4
loop_
 _symmetry_equiv_pos_site_id
 _symmetry_equiv_pos_as_xyz
  1  'x, y, z'
loop_
 _atom_site_type_symbol
 _atom_site_label
 _atom_site_symmetry_multiplicity
 _atom_site_fract_x
 _atom_site_fract_y
 _atom_site_fract_z
 _atom_site_occupancy
  Ti  Ti0  1  0.92988015  0.87498674  0.25000000  1
  Ti  Ti1  1  0.42988015  0.62501326  0.25000000  1
  Ti  Ti2  1  0.07011985  0.12501326  0.75000000  1
  Ti  Ti3  1  0.57011985  0.37498674  0.75000000  1
  Ti  Ti4  1  0.89069764  0.40698052  0.25000000  1
  Ti  Ti5  1  0.39069764  0.09301948  0.25000000  1
  Ti  Ti6  1  0.10930236  0.59301948  0.75000000  1
  Ti  Ti7  1  0.60930236  0.90698052  0.75000000  1
  Ti  Ti8  1  0.77718631  0.14368810  0.25000000  1
  Ti  Ti9  1  0.27718631  0.35631190  0.25000000  1
  Ti  Ti10  1  0.22281369  0.85631190  0.75000000  1
  Ti  Ti11  1  0.72281369  0.64368810  0.75000000  1
  N  N12  1  0.73959407  0.78586193  0.25000000  1
  N  N13  1  0.23959407  0.71413807  0.25000000  1
  N  N14  1  0.26040593  0.21413807  0.75000000  1
  N  N15  1  0.76040593  0.28586193  0.75000000  1
  N  N16  1  0.64144286  0.51591873  0.25000000  1
  N  N17  1  0.14144286  0.98408127  0.25000000  1
  N  N18  1  0.35855714  0.48408127  0.75000000  1
  N  N19  1  0.85855714  0.01591873  0.75000000  1
  N  N20  1  0.49136395  0.27430393  0.25000000  1
  N  N21  1  0.99136395  0.22569607  0.25000000  1
  N  N22  1  0.50863605  0.72569607  0.75000000  1
  N  N23  1  0.00863605  0.77430393  0.75000000  1
  N  N24  1  0.10399324  0.46716851  0.25000000  1
  N  N25  1  0.60399324  0.03283149  0.25000000  1
  N  N26  1  0.89600676  0.53283149  0.75000000  1
  N  N27  1  0.39600676  0.96716851  0.75000000  1
