# generated using pymatgen
data_Te4MoW3(SeS)2
_symmetry_space_group_name_H-M   'P 1'
_cell_length_a   3.39949876
_cell_length_b   3.39951767
_cell_length_c   38.89044469
_cell_angle_alpha   89.99914714
_cell_angle_beta   90.00000509
_cell_angle_gamma   119.99979888
_symmetry_Int_Tables_number   1
_chemical_formula_structural   Te4MoW3(SeS)2
_chemical_formula_sum   'Te4 Mo1 W3 Se2 S2'
_cell_volume   389.23027246
_cell_formula_units_Z   1
loop_
 _symmetry_equiv_pos_site_id
 _symmetry_equiv_pos_as_xyz
  1  'x, y, z'
loop_
 _atom_site_type_symbol
 _atom_site_label
 _atom_site_symmetry_multiplicity
 _atom_site_fract_x
 _atom_site_fract_y
 _atom_site_fract_z
 _atom_site_occupancy
  Te  Te0  1  0.33334916  0.66669882  0.33009123  1
  Te  Te1  1  0.66664654  0.33329246  0.42133659  1
  Te  Te2  1  0.66664181  0.33328323  0.51805510  1
  Te  Te3  1  0.33335127  0.66670289  0.23336789  1
  Mo  Mo4  1  0.33330933  0.66661792  0.09394954  1
  W  W5  1  0.33331053  0.66662076  0.46971281  1
  W  W6  1  0.66668827  0.33337732  0.28172663  1
  W  W7  1  0.66669467  0.33339014  0.65754573  1
  Se  Se8  1  0.33335646  0.66671344  0.69999084  1
  Se  Se9  1  0.33336587  0.66673216  0.61508791  1
  S  S10  1  0.66664325  0.33328594  0.05526394  1
  S  S11  1  0.66664283  0.33328493  0.13261979  1
