# generated using pymatgen
data_Ag3Pd
_symmetry_space_group_name_H-M   'P 1'
_cell_length_a   5.78521878
_cell_length_b   5.78521815
_cell_length_c   4.76126016
_cell_angle_alpha   90.00000000
_cell_angle_beta   90.00000000
_cell_angle_gamma   120.00000361
_symmetry_Int_Tables_number   1
_chemical_formula_structural   Ag3Pd
_chemical_formula_sum   'Ag6 Pd2'
_cell_volume   138.00412108
_cell_formula_units_Z   2
loop_
 _symmetry_equiv_pos_site_id
 _symmetry_equiv_pos_as_xyz
  1  'x, y, z'
loop_
 _atom_site_type_symbol
 _atom_site_label
 _atom_site_symmetry_multiplicity
 _atom_site_fract_x
 _atom_site_fract_y
 _atom_site_fract_z
 _atom_site_occupancy
  Ag  Ag0  1  0.83208304  0.16791696  0.75000200  1
  Ag  Ag1  1  0.33583292  0.16791696  0.75000200  1
  Ag  Ag2  1  0.83208304  0.66416508  0.75000200  1
  Ag  Ag3  1  0.16791596  0.83208404  0.24999900  1
  Ag  Ag4  1  0.66416808  0.83208404  0.24999900  1
  Ag  Ag5  1  0.16791596  0.33583192  0.24999900  1
  Pd  Pd6  1  0.66666800  0.33333400  0.24999900  1
  Pd  Pd7  1  0.33333300  0.66666700  0.75000200  1
