# generated using pymatgen
data_CrHSe3O8
_symmetry_space_group_name_H-M   'P 1'
_cell_length_a   7.81759211
_cell_length_b   13.00198893
_cell_length_c   7.55305743
_cell_angle_alpha   90.00000000
_cell_angle_beta   91.81966376
_cell_angle_gamma   90.00000000
_symmetry_Int_Tables_number   1
_chemical_formula_structural   CrHSe3O8
_chemical_formula_sum   'Cr4 H4 Se12 O32'
_cell_volume   767.33768092
_cell_formula_units_Z   4
loop_
 _symmetry_equiv_pos_site_id
 _symmetry_equiv_pos_as_xyz
  1  'x, y, z'
loop_
 _atom_site_type_symbol
 _atom_site_label
 _atom_site_symmetry_multiplicity
 _atom_site_fract_x
 _atom_site_fract_y
 _atom_site_fract_z
 _atom_site_occupancy
  Cr  Cr0  1  0.05585342  0.17833620  0.18172339  1
  Cr  Cr1  1  0.55585342  0.32166380  0.68172339  1
  Cr  Cr2  1  0.94414658  0.82166380  0.81827661  1
  Cr  Cr3  1  0.44414658  0.67833620  0.31827661  1
  H  H4  1  0.91911565  0.38921303  0.34921242  1
  H  H5  1  0.41911565  0.11078697  0.84921242  1
  H  H6  1  0.08088435  0.61078697  0.65078758  1
  H  H7  1  0.58088435  0.88921303  0.15078758  1
  Se  Se8  1  0.43633559  0.29904253  0.09072596  1
  Se  Se9  1  0.93633559  0.20095747  0.59072596  1
  Se  Se10  1  0.56366441  0.70095747  0.90927404  1
  Se  Se11  1  0.06366441  0.79904253  0.40927404  1
  Se  Se12  1  0.42118502  0.13730542  0.41779939  1
  Se  Se13  1  0.92118502  0.36269458  0.91779939  1
  Se  Se14  1  0.57881498  0.86269458  0.58220061  1
  Se  Se15  1  0.07881498  0.63730542  0.08220061  1
  Se  Se16  1  0.77776874  0.01049138  0.06485764  1
  Se  Se17  1  0.27776874  0.48950862  0.56485764  1
  Se  Se18  1  0.22223126  0.98950862  0.93514236  1
  Se  Se19  1  0.72223126  0.51049138  0.43514236  1
  O  O20  1  0.96549218  0.26068086  0.39097666  1
  O  O21  1  0.46549218  0.23931914  0.89097666  1
  O  O22  1  0.03450782  0.73931914  0.60902334  1
  O  O23  1  0.53450782  0.76068086  0.10902334  1
  O  O24  1  0.22361272  0.29327549  0.13172773  1
  O  O25  1  0.72361272  0.20672451  0.63172773  1
  O  O26  1  0.77638728  0.70672451  0.86827227  1
  O  O27  1  0.27638728  0.79327549  0.36827227  1
  O  O28  1  0.22532153  0.09969662  0.33694608  1
  O  O29  1  0.72532153  0.40030338  0.83694608  1
  O  O30  1  0.77467847  0.90030338  0.66305392  1
  O  O31  1  0.27467847  0.59969662  0.16305392  1
  O  O32  1  0.87622105  0.25339209  0.03151932  1
  O  O33  1  0.37622105  0.24660791  0.53151932  1
  O  O34  1  0.12377895  0.74660791  0.96848068  1
  O  O35  1  0.62377895  0.75339209  0.46848068  1
  O  O36  1  0.61500055  0.56806249  0.26114442  1
  O  O37  1  0.11500055  0.93193751  0.76114442  1
  O  O38  1  0.38499945  0.43193751  0.73885558  1
  O  O39  1  0.88499945  0.06806249  0.23885558  1
  O  O40  1  0.89033851  0.89722176  0.04299886  1
  O  O41  1  0.39033851  0.60277824  0.54299886  1
  O  O42  1  0.10966149  0.10277824  0.95700114  1
  O  O43  1  0.60966149  0.39722176  0.45700114  1
  O  O44  1  0.89544021  0.46159953  0.30736358  1
  O  O45  1  0.39544021  0.03840047  0.80736358  1
  O  O46  1  0.10455979  0.53840047  0.69263642  1
  O  O47  1  0.60455979  0.96159953  0.19263642  1
  O  O48  1  0.97995515  0.68823632  0.28313570  1
  O  O49  1  0.47995515  0.81176368  0.78313570  1
  O  O50  1  0.02004485  0.31176368  0.71686430  1
  O  O51  1  0.52004485  0.18823632  0.21686430  1
