# generated using pymatgen
data_AsN(OF3)2
_symmetry_space_group_name_H-M   'P 1'
_cell_length_a   5.26388321
_cell_length_b   5.26481067
_cell_length_c   5.32905503
_cell_angle_alpha   85.24099559
_cell_angle_beta   86.33554534
_cell_angle_gamma   91.75761771
_symmetry_Int_Tables_number   1
_chemical_formula_structural   AsN(OF3)2
_chemical_formula_sum   'As1 N1 O2 F6'
_cell_volume   146.77977927
_cell_formula_units_Z   1
loop_
 _symmetry_equiv_pos_site_id
 _symmetry_equiv_pos_as_xyz
  1  'x, y, z'
loop_
 _atom_site_type_symbol
 _atom_site_label
 _atom_site_symmetry_multiplicity
 _atom_site_fract_x
 _atom_site_fract_y
 _atom_site_fract_z
 _atom_site_occupancy
  As  As0  1  -0.00001416  -0.00006169  0.00020408  1
  N  N1  1  0.50007158  0.50001719  0.50003029  1
  O  O2  1  0.60239740  0.60728398  0.64329855  1
  O  O3  1  0.39777870  0.39277758  0.35685964  1
  F  F4  1  0.22955629  0.23140999  0.85731339  1
  F  F5  1  0.10683003  0.77942883  0.78600869  1
  F  F6  1  0.77617008  0.11019095  0.78449264  1
  F  F7  1  0.22354340  0.88993009  0.21523469  1
  F  F8  1  0.89332238  0.22046324  0.21377164  1
  F  F9  1  0.77034430  0.76855985  0.14278738  1
