# generated using pymatgen
data_NiH10(SeO5)2
_symmetry_space_group_name_H-M   'P 1'
_cell_length_a   8.31323647
_cell_length_b   8.31323647
_cell_length_c   11.16473065
_cell_angle_alpha   56.76916088
_cell_angle_beta   123.23083912
_cell_angle_gamma   124.97458898
_symmetry_Int_Tables_number   1
_chemical_formula_structural   NiH10(SeO5)2
_chemical_formula_sum   'Ni2 H20 Se4 O20'
_cell_volume   497.11368098
_cell_formula_units_Z   2
loop_
 _symmetry_equiv_pos_site_id
 _symmetry_equiv_pos_as_xyz
  1  'x, y, z'
loop_
 _atom_site_type_symbol
 _atom_site_label
 _atom_site_symmetry_multiplicity
 _atom_site_fract_x
 _atom_site_fract_y
 _atom_site_fract_z
 _atom_site_occupancy
  Ni  Ni0  1  0.96250175  0.96250175  0.75000000  1
  Ni  Ni1  1  0.03749825  0.03749825  0.25000000  1
  H  H2  1  0.05875199  0.42369896  0.27812883  1
  H  H3  1  0.42369896  0.05875199  0.22187117  1
  H  H4  1  0.94124801  0.57630104  0.72187117  1
  H  H5  1  0.57630104  0.94124801  0.77812883  1
  H  H6  1  0.36475980  0.24175639  0.83382526  1
  H  H7  1  0.24175639  0.36475980  0.66617474  1
  H  H8  1  0.63524020  0.75824361  0.16617474  1
  H  H9  1  0.75824361  0.63524020  0.33382526  1
  H  H10  1  0.68372985  0.56470325  0.83517929  1
  H  H11  1  0.56470325  0.68372985  0.66482071  1
  H  H12  1  0.31627015  0.43529675  0.16482071  1
  H  H13  1  0.43529675  0.31627015  0.33517929  1
  H  H14  1  0.70845271  0.25962147  0.97424519  1
  H  H15  1  0.25962147  0.70845271  0.52575481  1
  H  H16  1  0.29154729  0.74037853  0.02575481  1
  H  H17  1  0.74037853  0.29154729  0.47424519  1
  H  H18  1  0.60768577  0.26339215  0.05877708  1
  H  H19  1  0.26339215  0.60768577  0.44122292  1
  H  H20  1  0.39231423  0.73660785  0.94122292  1
  H  H21  1  0.73660785  0.39231423  0.55877708  1
  Se  Se22  1  0.01490215  0.74810293  0.10860891  1
  Se  Se23  1  0.74810293  0.01490215  0.39139109  1
  Se  Se24  1  0.98509785  0.25189707  0.89139109  1
  Se  Se25  1  0.25189707  0.98509785  0.60860891  1
  O  O26  1  0.05126394  0.83526835  0.67899545  1
  O  O27  1  0.83526835  0.05126394  0.82100455  1
  O  O28  1  0.94873606  0.16473165  0.32100455  1
  O  O29  1  0.16473165  0.94873606  0.17899545  1
  O  O30  1  0.11715190  0.82626497  0.97952943  1
  O  O31  1  0.82626497  0.11715190  0.52047057  1
  O  O32  1  0.88284810  0.17373503  0.02047057  1
  O  O33  1  0.17373503  0.88284810  0.47952943  1
  O  O34  1  0.14958049  0.57707470  0.26809065  1
  O  O35  1  0.57707470  0.14958049  0.23190935  1
  O  O36  1  0.85041951  0.42292530  0.73190935  1
  O  O37  1  0.42292530  0.85041951  0.76809065  1
  O  O38  1  0.22688279  0.22688279  0.75000000  1
  O  O39  1  0.77311721  0.77311721  0.25000000  1
  O  O40  1  0.70070430  0.70070430  0.75000000  1
  O  O41  1  0.29929570  0.29929570  0.25000000  1
  O  O42  1  0.61546039  0.31546842  0.95680056  1
  O  O43  1  0.31546842  0.61546039  0.54319944  1
  O  O44  1  0.38453961  0.68453158  0.04319944  1
  O  O45  1  0.68453158  0.38453961  0.45680056  1
