# generated using pymatgen
data_Cs5Tc6S8Br7
_symmetry_space_group_name_H-M   'P 1'
_cell_length_a   19.82068558
_cell_length_b   19.81912517
_cell_length_c   19.81912532
_cell_angle_alpha   30.12481532
_cell_angle_beta   30.11949572
_cell_angle_gamma   30.11949330
_symmetry_Int_Tables_number   1
_chemical_formula_structural   Cs5Tc6S8Br7
_chemical_formula_sum   'Cs10 Tc12 S16 Br14'
_cell_volume   1737.03719269
_cell_formula_units_Z   2
loop_
 _symmetry_equiv_pos_site_id
 _symmetry_equiv_pos_as_xyz
  1  'x, y, z'
loop_
 _atom_site_type_symbol
 _atom_site_label
 _atom_site_symmetry_multiplicity
 _atom_site_fract_x
 _atom_site_fract_y
 _atom_site_fract_z
 _atom_site_occupancy
  Cs  Cs0  1  0.41837608  0.75000223  0.08170269  1
  Cs  Cs1  1  0.74998383  0.08169452  0.41839990  1
  Cs  Cs2  1  0.08170177  0.41836899  0.75000097  1
  Cs  Cs3  1  0.91837608  0.58170269  0.25000223  1
  Cs  Cs4  1  0.58170177  0.25000097  0.91836899  1
  Cs  Cs5  1  0.24998383  0.91839990  0.58169452  1
  Cs  Cs6  1  0.17028800  0.17039567  0.17040256  1
  Cs  Cs7  1  0.67028800  0.67040256  0.67039567  1
  Cs  Cs8  1  0.82967691  0.82961535  0.82961165  1
  Cs  Cs9  1  0.32967691  0.32961165  0.32961535  1
  Tc  Tc10  1  0.34434883  0.63534985  0.46411044  1
  Tc  Tc11  1  0.63528567  0.46415035  0.34443738  1
  Tc  Tc12  1  0.46418462  0.34431835  0.63532048  1
  Tc  Tc13  1  0.84434883  0.96411044  0.13534985  1
  Tc  Tc14  1  0.96418462  0.13532048  0.84431835  1
  Tc  Tc15  1  0.13528567  0.84443738  0.96415035  1
  Tc  Tc16  1  0.65547141  0.36487402  0.53577749  1
  Tc  Tc17  1  0.36472448  0.53585622  0.65562408  1
  Tc  Tc18  1  0.53593072  0.65549063  0.36475241  1
  Tc  Tc19  1  0.15547141  0.03577749  0.86487402  1
  Tc  Tc20  1  0.03593072  0.86475241  0.15549063  1
  Tc  Tc21  1  0.86472448  0.15562408  0.03585622  1
  S  S22  1  0.26561615  0.79944664  0.48686458  1
  S  S23  1  0.79949790  0.48674769  0.26563681  1
  S  S24  1  0.48675111  0.26576525  0.79938215  1
  S  S25  1  0.76561615  0.98686458  0.29944664  1
  S  S26  1  0.98675111  0.29938215  0.76576525  1
  S  S27  1  0.29949790  0.76563681  0.98674769  1
  S  S28  1  0.73442463  0.20050240  0.51314380  1
  S  S29  1  0.20060601  0.51325077  0.73428586  1
  S  S30  1  0.51324368  0.73423272  0.20063126  1
  S  S31  1  0.23442463  0.01314380  0.70050240  1
  S  S32  1  0.01324368  0.70063126  0.23423272  1
  S  S33  1  0.70060601  0.23428586  0.01325077  1
  S  S34  1  0.44821354  0.44810994  0.44811752  1
  S  S35  1  0.94821354  0.94811752  0.94810994  1
  S  S36  1  0.55178989  0.55190254  0.55190148  1
  S  S37  1  0.05178989  0.05190148  0.05190254  1
  Br  Br38  1  0.12559349  0.83251966  0.40914812  1
  Br  Br39  1  0.83261059  0.40910738  0.12549366  1
  Br  Br40  1  0.40914633  0.12563010  0.83248363  1
  Br  Br41  1  0.62559349  0.90914812  0.33251966  1
  Br  Br42  1  0.90914633  0.33248363  0.62563010  1
  Br  Br43  1  0.33261059  0.62549366  0.90910738  1
  Br  Br44  1  0.87444433  0.16745456  0.59085416  1
  Br  Br45  1  0.16739086  0.59088864  0.87449823  1
  Br  Br46  1  0.59083757  0.87440480  0.16750164  1
  Br  Br47  1  0.37444433  0.09085416  0.66745456  1
  Br  Br48  1  0.09083757  0.66750164  0.37440480  1
  Br  Br49  1  0.66739086  0.37449823  0.09088864  1
  Br  Br50  1  0.75006161  0.75002877  0.75000908  1
  Br  Br51  1  0.25006161  0.25000908  0.25002877  1
