# generated using pymatgen
data_CoSn3
_symmetry_space_group_name_H-M   'P 1'
_cell_length_a   6.30682115
_cell_length_b   6.32323063
_cell_length_c   9.09519061
_cell_angle_alpha   90.00000000
_cell_angle_beta   69.71367002
_cell_angle_gamma   90.00000000
_symmetry_Int_Tables_number   1
_chemical_formula_structural   CoSn3
_chemical_formula_sum   'Co4 Sn12'
_cell_volume   340.21312959
_cell_formula_units_Z   4
loop_
 _symmetry_equiv_pos_site_id
 _symmetry_equiv_pos_as_xyz
  1  'x, y, z'
loop_
 _atom_site_type_symbol
 _atom_site_label
 _atom_site_symmetry_multiplicity
 _atom_site_fract_x
 _atom_site_fract_y
 _atom_site_fract_z
 _atom_site_occupancy
  Co  Co0  1  0.92049253  0.00000000  0.15901494  1
  Co  Co1  1  0.42049253  0.50000000  0.15901494  1
  Co  Co2  1  0.07950747  0.00000000  0.84098606  1
  Co  Co3  1  0.57950747  0.50000000  0.84098606  1
  Sn  Sn4  1  0.33600319  0.16361872  -0.00000000  1
  Sn  Sn5  1  0.83600219  0.33638028  -0.00000000  1
  Sn  Sn6  1  0.16399681  0.66361872  -0.00000000  1
  Sn  Sn7  1  0.66399781  0.83638128  -0.00000000  1
  Sn  Sn8  1  0.51813151  0.18217102  0.33007491  1
  Sn  Sn9  1  0.01813151  0.31782798  0.33007491  1
  Sn  Sn10  1  0.65179257  0.68217102  0.33007491  1
  Sn  Sn11  1  0.15179157  0.81782798  0.33007491  1
  Sn  Sn12  1  0.84820743  0.18217102  0.66992409  1
  Sn  Sn13  1  0.34820743  0.31782798  0.66992409  1
  Sn  Sn14  1  0.98186849  0.68217102  0.66992409  1
  Sn  Sn15  1  0.48186749  0.81782798  0.66992409  1
