# generated using pymatgen
data_Cs2HgBr4
_symmetry_space_group_name_H-M   'P 1'
_cell_length_a   10.92259033
_cell_length_b   7.94222168
_cell_length_c   14.87264824
_cell_angle_alpha   90.00000000
_cell_angle_beta   78.89060041
_cell_angle_gamma   90.00000000
_symmetry_Int_Tables_number   1
_chemical_formula_structural   Cs2HgBr4
_chemical_formula_sum   'Cs8 Hg4 Br16'
_cell_volume   1266.01987596
_cell_formula_units_Z   4
loop_
 _symmetry_equiv_pos_site_id
 _symmetry_equiv_pos_as_xyz
  1  'x, y, z'
loop_
 _atom_site_type_symbol
 _atom_site_label
 _atom_site_symmetry_multiplicity
 _atom_site_fract_x
 _atom_site_fract_y
 _atom_site_fract_z
 _atom_site_occupancy
  Cs  Cs0  1  0.16069219  0.24552506  0.90194423  1
  Cs  Cs1  1  0.33930781  0.74552606  0.59805577  1
  Cs  Cs2  1  0.83930781  0.75447494  0.09805477  1
  Cs  Cs3  1  0.66069219  0.25447494  0.40194523  1
  Cs  Cs4  1  0.90492596  0.25368453  0.65931980  1
  Cs  Cs5  1  0.59507504  0.75368253  0.84068020  1
  Cs  Cs6  1  0.09507504  0.74631547  0.34068020  1
  Cs  Cs7  1  0.40492496  0.24631647  0.15931980  1
  Hg  Hg8  1  0.24018516  0.24320070  0.45437658  1
  Hg  Hg9  1  0.25981584  0.74319970  0.04562342  1
  Hg  Hg10  1  0.75981584  0.75679930  0.54562342  1
  Hg  Hg11  1  0.74018516  0.25680030  0.95437658  1
  Br  Br12  1  0.37369369  0.50609217  0.37561353  1
  Br  Br13  1  0.12630531  0.00609317  0.12438647  1
  Br  Br14  1  0.62630631  0.49390783  0.62438647  1
  Br  Br15  1  0.87369369  0.99390683  0.87561353  1
  Br  Br16  1  0.37779693  0.98462570  0.37650748  1
  Br  Br17  1  0.12220207  0.48462470  0.12349252  1
  Br  Br18  1  0.62220207  0.01537430  0.62349252  1
  Br  Br19  1  0.87779793  0.51537530  0.87650748  1
  Br  Br20  1  0.24621506  0.25067253  0.63358585  1
  Br  Br21  1  0.25378394  0.75067153  0.86641515  1
  Br  Br22  1  0.75378394  0.74932747  0.36641415  1
  Br  Br23  1  0.74621506  0.24932847  0.13358485  1
  Br  Br24  1  0.01608204  0.24163776  0.40920158  1
  Br  Br25  1  0.48391696  0.74163576  0.09079842  1
  Br  Br26  1  0.98391696  0.75836224  0.59079842  1
  Br  Br27  1  0.51608204  0.25836324  0.90920158  1
