# generated using pymatgen
data_CsH5N2
_symmetry_space_group_name_H-M   'P 1'
_cell_length_a   6.97594595
_cell_length_b   5.62689402
_cell_length_c   9.91807899
_cell_angle_alpha   90.00000000
_cell_angle_beta   90.00000000
_cell_angle_gamma   90.00000000
_symmetry_Int_Tables_number   1
_chemical_formula_structural   CsH5N2
_chemical_formula_sum   'Cs4 H20 N8'
_cell_volume   389.31344759
_cell_formula_units_Z   4
loop_
 _symmetry_equiv_pos_site_id
 _symmetry_equiv_pos_as_xyz
  1  'x, y, z'
loop_
 _atom_site_type_symbol
 _atom_site_label
 _atom_site_symmetry_multiplicity
 _atom_site_fract_x
 _atom_site_fract_y
 _atom_site_fract_z
 _atom_site_occupancy
  Cs  Cs0  1  0.30395833  0.25000100  0.06402231  1
  Cs  Cs1  1  0.19604067  0.75000000  0.56402231  1
  Cs  Cs2  1  0.80395933  0.25000100  0.43597769  1
  Cs  Cs3  1  0.69604267  0.75000000  0.93597769  1
  H  H4  1  0.37930452  0.25000100  0.49119364  1
  H  H5  1  0.12069448  0.75000000  0.99119364  1
  H  H6  1  0.87930252  0.25000100  0.00880736  1
  H  H7  1  0.62069548  0.75000000  0.50880636  1
  H  H8  1  0.75244838  0.25000100  0.76858784  1
  H  H9  1  0.74755162  0.75000000  0.26858884  1
  H  H10  1  0.25244738  0.25000100  0.73141216  1
  H  H11  1  0.24755162  0.75000000  0.23141116  1
  H  H12  1  0.22977207  0.25000100  0.36846543  1
  H  H13  1  0.27022793  0.75000000  0.86846543  1
  H  H14  1  0.72977307  0.25000100  0.13153457  1
  H  H15  1  0.77022893  0.75000000  0.63153457  1
  H  H16  1  0.58353827  0.40143070  0.69662743  1
  H  H17  1  0.91646173  0.59856730  0.19662743  1
  H  H18  1  0.08353627  0.09856830  0.80337257  1
  H  H19  1  0.41646273  0.90143170  0.30337157  1
  H  H20  1  0.41646273  0.59856730  0.30337157  1
  H  H21  1  0.08353627  0.40143070  0.80337257  1
  H  H22  1  0.91646173  0.90143170  0.19662743  1
  H  H23  1  0.58353827  0.09856830  0.69662743  1
  N  N24  1  0.37539442  0.25000100  0.38728047  1
  N  N25  1  0.12460558  0.75000000  0.88728047  1
  N  N26  1  0.87539342  0.25000100  0.11271953  1
  N  N27  1  0.62460658  0.75000000  0.61271853  1
  N  N28  1  0.60591052  0.25000100  0.75564198  1
  N  N29  1  0.89408848  0.75000000  0.25564098  1
  N  N30  1  0.10591052  0.25000100  0.74435902  1
  N  N31  1  0.39409048  0.75000000  0.24435802  1
