# generated using pymatgen
data_Yb2Ge6Pt
_symmetry_space_group_name_H-M   'P 1'
_cell_length_a   4.28515597
_cell_length_b   3.90768055
_cell_length_c   11.40477108
_cell_angle_alpha   99.86444751
_cell_angle_beta   90.00000000
_cell_angle_gamma   90.00000000
_symmetry_Int_Tables_number   1
_chemical_formula_structural   Yb2Ge6Pt
_chemical_formula_sum   'Yb2 Ge6 Pt1'
_cell_volume   188.14974599
_cell_formula_units_Z   1
loop_
 _symmetry_equiv_pos_site_id
 _symmetry_equiv_pos_as_xyz
  1  'x, y, z'
loop_
 _atom_site_type_symbol
 _atom_site_label
 _atom_site_symmetry_multiplicity
 _atom_site_fract_x
 _atom_site_fract_y
 _atom_site_fract_z
 _atom_site_occupancy
  Yb  Yb0  1  -0.00000000  0.99957902  0.99915804  1
  Yb  Yb1  1  -0.00000000  0.66650501  0.33301002  1
  Ge  Ge2  1  0.00000000  0.28292397  0.56584793  1
  Ge  Ge3  1  -0.00000000  0.39339063  0.78678125  1
  Ge  Ge4  1  0.50000000  0.54431721  0.08863442  1
  Ge  Ge5  1  0.50000000  0.11133488  0.22266975  1
  Ge  Ge6  1  0.50000000  0.90031742  0.80063483  1
  Ge  Ge7  1  0.50000000  0.78993707  0.57987413  1
  Pt  Pt8  1  0.50000000  0.21969481  0.43938962  1
