# generated using pymatgen
data_CsAs(HO2)2
_symmetry_space_group_name_H-M   'P 1'
_cell_length_a   6.90523282
_cell_length_b   6.90523282
_cell_length_c   7.09032584
_cell_angle_alpha   109.05975437
_cell_angle_beta   109.05975437
_cell_angle_gamma   109.23147995
_symmetry_Int_Tables_number   1
_chemical_formula_structural   CsAs(HO2)2
_chemical_formula_sum   'Cs2 As2 H4 O8'
_cell_volume   263.61348634
_cell_formula_units_Z   2
loop_
 _symmetry_equiv_pos_site_id
 _symmetry_equiv_pos_as_xyz
  1  'x, y, z'
loop_
 _atom_site_type_symbol
 _atom_site_label
 _atom_site_symmetry_multiplicity
 _atom_site_fract_x
 _atom_site_fract_y
 _atom_site_fract_z
 _atom_site_occupancy
  Cs  Cs0  1  0.50881696  0.50881696  0.00000000  1
  Cs  Cs1  1  0.25881696  0.75881696  0.50000000  1
  As  As2  1  0.99334104  0.99334104  0.00000000  1
  As  As3  1  0.74334104  0.24334104  0.50000000  1
  H  H4  1  0.35137965  0.98765453  0.08360800  1
  H  H5  1  0.01777165  0.15404552  0.41639200  1
  H  H6  1  0.73765353  0.60137965  0.58360800  1
  H  H7  1  0.90404452  0.26777065  0.91639200  1
  O  O8  1  0.03459611  0.27689831  0.05384154  1
  O  O9  1  0.02708594  0.97266745  0.24028744  1
  O  O10  1  0.53679751  0.98237901  0.25971256  1
  O  O11  1  0.73075357  0.47305577  0.44615846  1
  O  O12  1  0.02689731  0.28459511  0.55384154  1
  O  O13  1  0.72266745  0.27708494  0.74028744  1
  O  O14  1  0.73238001  0.78679851  0.75971256  1
  O  O15  1  0.22305777  0.98075357  0.94615846  1
