# generated using pymatgen
data_Na3Tl
_symmetry_space_group_name_H-M   'P 1'
_cell_length_a   6.99692342
_cell_length_b   6.99692284
_cell_length_c   5.85245630
_cell_angle_alpha   90.00000000
_cell_angle_beta   90.00000000
_cell_angle_gamma   120.00000274
_symmetry_Int_Tables_number   1
_chemical_formula_structural   Na3Tl
_chemical_formula_sum   'Na6 Tl2'
_cell_volume   248.13213053
_cell_formula_units_Z   2
loop_
 _symmetry_equiv_pos_site_id
 _symmetry_equiv_pos_as_xyz
  1  'x, y, z'
loop_
 _atom_site_type_symbol
 _atom_site_label
 _atom_site_symmetry_multiplicity
 _atom_site_fract_x
 _atom_site_fract_y
 _atom_site_fract_z
 _atom_site_occupancy
  Na  Na0  1  0.17250841  0.34501582  0.25000000  1
  Na  Na1  1  0.65498518  0.82749259  0.25000000  1
  Na  Na2  1  0.17250841  0.82749259  0.25000000  1
  Na  Na3  1  0.82749259  0.65498418  0.74999900  1
  Na  Na4  1  0.34501682  0.17250841  0.74999900  1
  Na  Na5  1  0.82749159  0.17250841  0.74999900  1
  Tl  Tl6  1  0.33333400  0.66666800  0.74999900  1
  Tl  Tl7  1  0.66666600  0.33333200  0.25000000  1
