# generated using pymatgen
data_Nd3FeO6
_symmetry_space_group_name_H-M   'P 1'
_cell_length_a   7.42948557
_cell_length_b   7.42948557
_cell_length_c   5.67456228
_cell_angle_alpha   90.00000000
_cell_angle_beta   90.00000000
_cell_angle_gamma   77.21988330
_symmetry_Int_Tables_number   1
_chemical_formula_structural   Nd3FeO6
_chemical_formula_sum   'Nd6 Fe2 O12'
_cell_volume   305.46060352
_cell_formula_units_Z   2
loop_
 _symmetry_equiv_pos_site_id
 _symmetry_equiv_pos_as_xyz
  1  'x, y, z'
loop_
 _atom_site_type_symbol
 _atom_site_label
 _atom_site_symmetry_multiplicity
 _atom_site_fract_x
 _atom_site_fract_y
 _atom_site_fract_z
 _atom_site_occupancy
  Nd  Nd0  1  0.41296687  0.79923972  0.03233037  1
  Nd  Nd1  1  0.58703313  0.20076128  0.53233037  1
  Nd  Nd2  1  0.79923972  0.41296687  0.03233037  1
  Nd  Nd3  1  0.20076128  0.58703313  0.53233037  1
  Nd  Nd4  1  0.10386364  0.10386364  0.57724192  1
  Nd  Nd5  1  0.89613736  0.89613736  0.07724292  1
  Fe  Fe6  1  0.69039129  0.69039129  0.50050937  1
  Fe  Fe7  1  0.30960871  0.30960871  0.00051037  1
  O  O8  1  0.28334647  0.28334647  0.33302227  1
  O  O9  1  0.71665453  0.71665453  0.83302127  1
  O  O10  1  0.53932695  0.53932695  0.35795711  1
  O  O11  1  0.46067405  0.46067405  0.85795611  1
  O  O12  1  0.60462009  0.91537579  0.32963387  1
  O  O13  1  0.39537991  0.08462421  0.82963287  1
  O  O14  1  0.91537579  0.60462009  0.32963387  1
  O  O15  1  0.08462421  0.39537991  0.82963287  1
  O  O16  1  0.17305486  0.85371741  0.30391943  1
  O  O17  1  0.82694414  0.14628159  0.80392043  1
  O  O18  1  0.85371741  0.17305486  0.30391943  1
  O  O19  1  0.14628159  0.82694414  0.80392043  1
