# generated using pymatgen
data_NbIr3
_symmetry_space_group_name_H-M   'P 1'
_cell_length_a   5.59325143
_cell_length_b   5.59328452
_cell_length_c   4.49100177
_cell_angle_alpha   89.99554065
_cell_angle_beta   90.00296950
_cell_angle_gamma   120.00133834
_symmetry_Int_Tables_number   1
_chemical_formula_structural   NbIr3
_chemical_formula_sum   'Nb2 Ir6'
_cell_volume   121.67441134
_cell_formula_units_Z   2
loop_
 _symmetry_equiv_pos_site_id
 _symmetry_equiv_pos_as_xyz
  1  'x, y, z'
loop_
 _atom_site_type_symbol
 _atom_site_label
 _atom_site_symmetry_multiplicity
 _atom_site_fract_x
 _atom_site_fract_y
 _atom_site_fract_z
 _atom_site_occupancy
  Nb  Nb0  1  0.33333405  0.66666687  0.75000182  1
  Nb  Nb1  1  0.66666539  0.33333590  0.25000056  1
  Ir  Ir2  1  0.16383831  0.32761926  0.25000958  1
  Ir  Ir3  1  0.67238313  0.83616249  0.25000556  1
  Ir  Ir4  1  0.16382250  0.83617743  0.24999466  1
  Ir  Ir5  1  0.83617290  0.67239604  0.74999323  1
  Ir  Ir6  1  0.32760553  0.16382876  0.74999816  1
  Ir  Ir7  1  0.83618019  0.16381925  0.75000844  1
