# generated using pymatgen
data_NpPt3
_symmetry_space_group_name_H-M   'P 1'
_cell_length_a   5.75534370
_cell_length_b   5.73611275
_cell_length_c   4.98718443
_cell_angle_alpha   90.03515314
_cell_angle_beta   90.03542824
_cell_angle_gamma   119.91024237
_symmetry_Int_Tables_number   1
_chemical_formula_structural   NpPt3
_chemical_formula_sum   'Np2 Pt6'
_cell_volume   142.71406157
_cell_formula_units_Z   2
loop_
 _symmetry_equiv_pos_site_id
 _symmetry_equiv_pos_as_xyz
  1  'x, y, z'
loop_
 _atom_site_type_symbol
 _atom_site_label
 _atom_site_symmetry_multiplicity
 _atom_site_fract_x
 _atom_site_fract_y
 _atom_site_fract_z
 _atom_site_occupancy
  Np  Np0  1  0.66779263  0.33373245  0.24988419  1
  Np  Np1  1  0.33207546  0.66648296  0.74991959  1
  Pt  Pt2  1  0.83472005  0.16484212  0.75018408  1
  Pt  Pt3  1  0.33078879  0.16540113  0.75013347  1
  Pt  Pt4  1  0.83494570  0.66965247  0.74967505  1
  Pt  Pt5  1  0.16519156  0.83491394  0.25037286  1
  Pt  Pt6  1  0.66925094  0.83472830  0.25009207  1
  Pt  Pt7  1  0.16524086  0.33025262  0.24972668  1
