# generated using pymatgen
data_MgTi5
_symmetry_space_group_name_H-M   'P 1'
_cell_length_a   4.82052818
_cell_length_b   2.91335611
_cell_length_c   15.31716644
_cell_angle_alpha   90.00000000
_cell_angle_beta   90.00000000
_cell_angle_gamma   90.00000000
_symmetry_Int_Tables_number   1
_chemical_formula_structural   MgTi5
_chemical_formula_sum   'Mg2 Ti10'
_cell_volume   215.11298700
_cell_formula_units_Z   2
loop_
 _symmetry_equiv_pos_site_id
 _symmetry_equiv_pos_as_xyz
  1  'x, y, z'
loop_
 _atom_site_type_symbol
 _atom_site_label
 _atom_site_symmetry_multiplicity
 _atom_site_fract_x
 _atom_site_fract_y
 _atom_site_fract_z
 _atom_site_occupancy
  Mg  Mg0  1  0.50000000  -0.00000000  0.22403387  1
  Mg  Mg1  1  0.50000000  0.50000000  0.72403387  1
  Ti  Ti2  1  0.00000000  0.50000000  0.49967733  1
  Ti  Ti3  1  -0.00000000  0.50000000  0.16215870  1
  Ti  Ti4  1  -0.00000000  0.00000000  0.33793003  1
  Ti  Ti5  1  0.50000000  0.50000000  0.39151997  1
  Ti  Ti6  1  0.50000000  0.50000000  0.05134709  1
  Ti  Ti7  1  0.00000000  0.00000000  0.99967733  1
  Ti  Ti8  1  -0.00000000  0.00000000  0.66215870  1
  Ti  Ti9  1  -0.00000000  0.50000000  0.83793003  1
  Ti  Ti10  1  0.50000000  -0.00000000  0.89151997  1
  Ti  Ti11  1  0.50000000  0.00000000  0.55134709  1
