# generated using pymatgen
data_YMg
_symmetry_space_group_name_H-M   'P 1'
_cell_length_a   5.45305670
_cell_length_b   3.61243004
_cell_length_c   17.21787073
_cell_angle_alpha   90.00000000
_cell_angle_beta   90.00000000
_cell_angle_gamma   90.00000000
_symmetry_Int_Tables_number   1
_chemical_formula_structural   YMg
_chemical_formula_sum   'Y6 Mg6'
_cell_volume   339.17114801
_cell_formula_units_Z   6
loop_
 _symmetry_equiv_pos_site_id
 _symmetry_equiv_pos_as_xyz
  1  'x, y, z'
loop_
 _atom_site_type_symbol
 _atom_site_label
 _atom_site_symmetry_multiplicity
 _atom_site_fract_x
 _atom_site_fract_y
 _atom_site_fract_z
 _atom_site_occupancy
  Y  Y0  1  -0.00000000  0.00000000  0.00929557  1
  Y  Y1  1  -0.00000000  0.00000000  0.32888246  1
  Y  Y2  1  0.50000000  0.50000000  0.38786992  1
  Y  Y3  1  -0.00000000  0.50000000  0.50929557  1
  Y  Y4  1  -0.00000000  0.50000000  0.82888246  1
  Y  Y5  1  0.50000000  -0.00000000  0.88786992  1
  Mg  Mg6  1  -0.00000000  0.50000000  0.16717860  1
  Mg  Mg7  1  0.50000000  0.50000000  0.05687339  1
  Mg  Mg8  1  0.50000000  0.00000000  0.21656705  1
  Mg  Mg9  1  -0.00000000  0.00000000  0.66717860  1
  Mg  Mg10  1  0.50000000  -0.00000000  0.55687339  1
  Mg  Mg11  1  0.50000000  0.50000000  0.71656705  1
