# generated using pymatgen
data_ZrGaCo2
_symmetry_space_group_name_H-M   'P 1'
_cell_length_a   4.29793949
_cell_length_b   4.29945101
_cell_length_c   4.29814948
_cell_angle_alpha   60.00317354
_cell_angle_beta   60.02226994
_cell_angle_gamma   60.01354578
_symmetry_Int_Tables_number   1
_chemical_formula_structural   ZrGaCo2
_chemical_formula_sum   'Zr1 Ga1 Co2'
_cell_volume   56.17818898
_cell_formula_units_Z   1
loop_
 _symmetry_equiv_pos_site_id
 _symmetry_equiv_pos_as_xyz
  1  'x, y, z'
loop_
 _atom_site_type_symbol
 _atom_site_label
 _atom_site_symmetry_multiplicity
 _atom_site_fract_x
 _atom_site_fract_y
 _atom_site_fract_z
 _atom_site_occupancy
  Zr  Zr0  1  0.75000003  0.75000042  0.75000018  1
  Ga  Ga1  1  0.24999940  0.24999947  0.24999934  1
  Co  Co2  1  0.49998818  0.49997483  0.50000079  1
  Co  Co3  1  0.00001139  0.00002428  -0.00000131  1
