# generated using pymatgen
data_SmVO3
_symmetry_space_group_name_H-M   'P 1'
_cell_length_a   5.44664975
_cell_length_b   5.74671860
_cell_length_c   7.72916402
_cell_angle_alpha   90.10510919
_cell_angle_beta   90.00000000
_cell_angle_gamma   90.00000000
_symmetry_Int_Tables_number   1
_chemical_formula_structural   SmVO3
_chemical_formula_sum   'Sm4 V4 O12'
_cell_volume   241.92523557
_cell_formula_units_Z   4
loop_
 _symmetry_equiv_pos_site_id
 _symmetry_equiv_pos_as_xyz
  1  'x, y, z'
loop_
 _atom_site_type_symbol
 _atom_site_label
 _atom_site_symmetry_multiplicity
 _atom_site_fract_x
 _atom_site_fract_y
 _atom_site_fract_z
 _atom_site_occupancy
  Sm  Sm0  1  0.98151667  0.43532521  0.74996571  1
  Sm  Sm1  1  0.01848333  0.56467479  0.25003429  1
  Sm  Sm2  1  0.48151667  0.06467479  0.25003429  1
  Sm  Sm3  1  0.51848333  0.93532521  0.74996571  1
  V  V4  1  -0.00000000  -0.00000000  0.50000000  1
  V  V5  1  0.50000000  0.50000000  0.50000000  1
  V  V6  1  -0.00000000  -0.00000000  0.00000000  1
  V  V7  1  0.50000000  0.50000000  0.00000000  1
  O  O8  1  0.29915894  0.80644004  0.44737879  1
  O  O9  1  0.70084106  0.19355996  0.55262121  1
  O  O10  1  0.79915894  0.69355996  0.55262121  1
  O  O11  1  0.20084106  0.30644004  0.44737879  1
  O  O12  1  0.80804986  0.70480888  0.94506134  1
  O  O13  1  0.19195014  0.29519112  0.05493866  1
  O  O14  1  0.30804986  0.79519112  0.05493866  1
  O  O15  1  0.69195014  0.20480888  0.94506134  1
  O  O16  1  0.89579803  0.96585123  0.24992206  1
  O  O17  1  0.10420197  0.03414877  0.75007794  1
  O  O18  1  0.39579803  0.53414877  0.75007794  1
  O  O19  1  0.60420197  0.46585123  0.24992206  1
