# generated using pymatgen
data_Lu2ReC2
_symmetry_space_group_name_H-M   'P 1'
_cell_length_a   4.98932780
_cell_length_b   6.48275276
_cell_length_c   9.67705989
_cell_angle_alpha   90.00000000
_cell_angle_beta   90.00000000
_cell_angle_gamma   90.00000000
_symmetry_Int_Tables_number   1
_chemical_formula_structural   Lu2ReC2
_chemical_formula_sum   'Lu8 Re4 C8'
_cell_volume   313.00042390
_cell_formula_units_Z   4
loop_
 _symmetry_equiv_pos_site_id
 _symmetry_equiv_pos_as_xyz
  1  'x, y, z'
loop_
 _atom_site_type_symbol
 _atom_site_label
 _atom_site_symmetry_multiplicity
 _atom_site_fract_x
 _atom_site_fract_y
 _atom_site_fract_z
 _atom_site_occupancy
  Lu  Lu0  1  0.75000000  0.67954426  0.55703901  1
  Lu  Lu1  1  0.75000000  0.17954426  0.94296099  1
  Lu  Lu2  1  0.25000000  0.32045574  0.44296099  1
  Lu  Lu3  1  0.25000000  0.82045574  0.05703901  1
  Lu  Lu4  1  0.75000000  0.03279801  0.28127134  1
  Lu  Lu5  1  0.75000000  0.53279801  0.21872866  1
  Lu  Lu6  1  0.25000000  0.96720199  0.71872866  1
  Lu  Lu7  1  0.25000000  0.46720199  0.78127134  1
  Re  Re8  1  0.75000000  0.22021518  0.63055786  1
  Re  Re9  1  0.75000000  0.72021518  0.86944214  1
  Re  Re10  1  0.25000000  0.77978482  0.36944214  1
  Re  Re11  1  0.25000000  0.27978482  0.13055786  1
  C  C12  1  0.75000000  0.45345102  0.75947474  1
  C  C13  1  0.75000000  0.95345102  0.74052526  1
  C  C14  1  0.25000000  0.54654898  0.24052526  1
  C  C15  1  0.25000000  0.04654898  0.25947474  1
  C  C16  1  0.75000000  0.82751529  0.05632291  1
  C  C17  1  0.75000000  0.32751529  0.44367709  1
  C  C18  1  0.25000000  0.17248471  0.94367709  1
  C  C19  1  0.25000000  0.67248471  0.55632291  1
