# generated using pymatgen
data_RbAu(IO3)4
_symmetry_space_group_name_H-M   'P 1'
_cell_length_a   5.73844329
_cell_length_b   7.52869539
_cell_length_c   8.58585373
_cell_angle_alpha   107.59275903
_cell_angle_beta   90.00000000
_cell_angle_gamma   112.40212827
_symmetry_Int_Tables_number   1
_chemical_formula_structural   RbAu(IO3)4
_chemical_formula_sum   'Rb1 Au1 I4 O12'
_cell_volume   324.09673582
_cell_formula_units_Z   1
loop_
 _symmetry_equiv_pos_site_id
 _symmetry_equiv_pos_as_xyz
  1  'x, y, z'
loop_
 _atom_site_type_symbol
 _atom_site_label
 _atom_site_symmetry_multiplicity
 _atom_site_fract_x
 _atom_site_fract_y
 _atom_site_fract_z
 _atom_site_occupancy
  Rb  Rb0  1  0.95749575  0.00000000  0.00000000  1
  Au  Au1  1  0.76985978  0.00000000  0.50000000  1
  I  I2  1  0.70901867  0.35972119  0.83371136  1
  I  I3  1  0.34929748  0.64027881  0.16628864  1
  I  I4  1  0.31857077  0.69829470  0.65500253  1
  I  I5  1  0.62027607  0.30170530  0.34499747  1
  O  O6  1  0.88977354  0.19725449  0.73037304  1
  O  O7  1  0.69251906  0.80274551  0.26962696  1
  O  O8  1  0.91715509  0.59329922  0.80130244  1
  O  O9  1  0.32385587  0.40670078  0.19869756  1
  O  O10  1  0.85427042  0.39765653  0.03654510  1
  O  O11  1  0.45661389  0.60234347  0.96345490  1
  O  O12  1  0.37319711  0.94428433  0.80295605  1
  O  O13  1  0.42891278  0.05571567  0.19704395  1
  O  O14  1  0.16063821  0.70248798  0.47307850  1
  O  O15  1  0.45815023  0.29751202  0.52692150  1
  O  O16  1  0.65455238  0.76403948  0.58979005  1
  O  O17  1  0.89051290  0.23596052  0.41020995  1
