# generated using pymatgen
data_H16S(N3O5)2
_symmetry_space_group_name_H-M   'P 1'
_cell_length_a   10.26400242
_cell_length_b   10.76767480
_cell_length_c   11.22805050
_cell_angle_alpha   90.00000000
_cell_angle_beta   90.00000000
_cell_angle_gamma   103.57283800
_symmetry_Int_Tables_number   1
_chemical_formula_structural   H16S(N3O5)2
_chemical_formula_sum   'H64 S4 N24 O40'
_cell_volume   1206.26195331
_cell_formula_units_Z   4
loop_
 _symmetry_equiv_pos_site_id
 _symmetry_equiv_pos_as_xyz
  1  'x, y, z'
loop_
 _atom_site_type_symbol
 _atom_site_label
 _atom_site_symmetry_multiplicity
 _atom_site_fract_x
 _atom_site_fract_y
 _atom_site_fract_z
 _atom_site_occupancy
  H  H0  1  0.11153122  0.98989690  0.41116979  1
  H  H1  1  0.38846878  0.01010310  0.91116979  1
  H  H2  1  0.88846878  0.01010310  0.58883021  1
  H  H3  1  0.61153122  0.98989690  0.08883021  1
  H  H4  1  0.20531601  0.13753927  0.42550173  1
  H  H5  1  0.29468399  0.86246073  0.92550173  1
  H  H6  1  0.79468399  0.86246073  0.57449827  1
  H  H7  1  0.70531601  0.13753927  0.07449827  1
  H  H8  1  0.03710625  0.11419815  0.40522183  1
  H  H9  1  0.46289375  0.88580185  0.90522183  1
  H  H10  1  0.96289375  0.88580185  0.59477817  1
  H  H11  1  0.53710625  0.11419815  0.09477817  1
  H  H12  1  0.13814278  0.08853039  0.28981825  1
  H  H13  1  0.36185722  0.91146961  0.78981825  1
  H  H14  1  0.86185722  0.91146961  0.71018175  1
  H  H15  1  0.63814278  0.08853039  0.21018175  1
  H  H16  1  0.93108991  0.64331372  0.30594177  1
  H  H17  1  0.56891009  0.35668628  0.80594177  1
  H  H18  1  0.06891009  0.35668628  0.69405823  1
  H  H19  1  0.43108991  0.64331372  0.19405823  1
  H  H20  1  0.86795667  0.60512305  0.44551588  1
  H  H21  1  0.63204333  0.39487695  0.94551588  1
  H  H22  1  0.13204333  0.39487695  0.55448412  1
  H  H23  1  0.36795667  0.60512305  0.05448412  1
  H  H24  1  0.02210540  0.70312962  0.43067767  1
  H  H25  1  0.47789460  0.29687038  0.93067767  1
  H  H26  1  0.97789460  0.29687038  0.56932233  1
  H  H27  1  0.52210540  0.70312962  0.06932233  1
  H  H28  1  0.99644803  0.54740525  0.39047563  1
  H  H29  1  0.50355197  0.45259475  0.89047563  1
  H  H30  1  0.00355197  0.45259475  0.60952437  1
  H  H31  1  0.49644803  0.54740525  0.10952437  1
  H  H32  1  0.48751275  0.29799120  0.32048394  1
  H  H33  1  0.01248725  0.70200880  0.82048394  1
  H  H34  1  0.51248725  0.70200880  0.67951606  1
  H  H35  1  0.98751275  0.29799120  0.17951606  1
  H  H36  1  0.51734623  0.33951660  0.46462670  1
  H  H37  1  0.98265377  0.66048340  0.96462670  1
  H  H38  1  0.48265377  0.66048340  0.53537330  1
  H  H39  1  0.01734623  0.33951660  0.03537330  1
  H  H40  1  0.52826370  0.45394710  0.36340022  1
  H  H41  1  0.97173630  0.54605290  0.86340022  1
  H  H42  1  0.47173630  0.54605290  0.63659978  1
  H  H43  1  0.02826370  0.45394710  0.13659978  1
  H  H44  1  0.64734017  0.36645752  0.36826901  1
  H  H45  1  0.85265983  0.63354248  0.86826901  1
  H  H46  1  0.35265983  0.63354248  0.63173099  1
  H  H47  1  0.14734017  0.36645752  0.13173099  1
  H  H48  1  0.80899371  0.86722621  0.17370853  1
  H  H49  1  0.69100629  0.13277379  0.67370853  1
  H  H50  1  0.19100629  0.13277379  0.82629147  1
  H  H51  1  0.30899371  0.86722621  0.32629147  1
  H  H52  1  0.97280011  0.88985141  0.13894375  1
  H  H53  1  0.52719989  0.11014859  0.63894375  1
  H  H54  1  0.02719989  0.11014859  0.86105625  1
  H  H55  1  0.47280011  0.88985141  0.36105625  1
  H  H56  1  0.86250177  0.91472605  0.03275101  1
  H  H57  1  0.63749823  0.08527395  0.53275101  1
  H  H58  1  0.13749823  0.08527395  0.96724899  1
  H  H59  1  0.36250177  0.91472605  0.46724899  1
  H  H60  1  0.90051778  0.01460648  0.15345967  1
  H  H61  1  0.59948222  0.98539352  0.65345967  1
  H  H62  1  0.09948222  0.98539352  0.84654033  1
  H  H63  1  0.40051778  0.01460648  0.34654033  1
  S  S64  1  0.82117301  0.20111964  0.37134063  1
  S  S65  1  0.67882699  0.79888036  0.87134063  1
  S  S66  1  0.17882699  0.79888036  0.62865937  1
  S  S67  1  0.32117301  0.20111964  0.12865937  1
  N  N68  1  0.12251490  0.08264937  0.38153699  1
  N  N69  1  0.37748510  0.91735063  0.88153699  1
  N  N70  1  0.87748510  0.91735063  0.61846301  1
  N  N71  1  0.62251490  0.08264937  0.11846301  1
  N  N72  1  0.95445780  0.62517464  0.39315895  1
  N  N73  1  0.54554220  0.37482536  0.89315895  1
  N  N74  1  0.04554220  0.37482536  0.60684105  1
  N  N75  1  0.45445780  0.62517464  0.10684105  1
  N  N76  1  0.54616348  0.36498691  0.37848814  1
  N  N77  1  0.95383652  0.63501309  0.87848814  1
  N  N78  1  0.45383652  0.63501309  0.62151186  1
  N  N79  1  0.04616348  0.36498691  0.12151186  1
  N  N80  1  0.88632751  0.92162907  0.12352021  1
  N  N81  1  0.61367249  0.07837093  0.62352021  1
  N  N82  1  0.11367249  0.07837093  0.87647979  1
  N  N83  1  0.38632751  0.92162907  0.37647979  1
  N  N84  1  0.19416347  0.83621316  0.13000019  1
  N  N85  1  0.30583653  0.16378684  0.63000019  1
  N  N86  1  0.80583653  0.16378684  0.86999981  1
  N  N87  1  0.69416347  0.83621316  0.36999981  1
  N  N88  1  0.28829892  0.51221686  0.37978698  1
  N  N89  1  0.21170108  0.48778314  0.87978698  1
  N  N90  1  0.71170108  0.48778314  0.62021302  1
  N  N91  1  0.78829892  0.51221686  0.12021302  1
  O  O92  1  0.67954196  0.12281253  0.37478370  1
  O  O93  1  0.82045804  0.87718747  0.87478370  1
  O  O94  1  0.32045804  0.87718747  0.62521630  1
  O  O95  1  0.17954196  0.12281253  0.12521630  1
  O  O96  1  0.88678204  0.17241834  0.25881439  1
  O  O97  1  0.61321796  0.82758166  0.75881439  1
  O  O98  1  0.11321796  0.82758166  0.74118561  1
  O  O99  1  0.38678204  0.17241834  0.24118561  1
  O  O100  1  0.89702334  0.16357122  0.47562560  1
  O  O101  1  0.60297666  0.83642878  0.97562560  1
  O  O102  1  0.10297666  0.83642878  0.52437440  1
  O  O103  1  0.39702334  0.16357122  0.02437440  1
  O  O104  1  0.82308732  0.33905551  0.37884943  1
  O  O105  1  0.67691268  0.66094449  0.87884943  1
  O  O106  1  0.17691268  0.66094449  0.62115057  1
  O  O107  1  0.32308732  0.33905551  0.12115057  1
  O  O108  1  0.12961086  0.84186482  0.22579632  1
  O  O109  1  0.37038914  0.15813518  0.72579632  1
  O  O110  1  0.87038914  0.15813518  0.77420368  1
  O  O111  1  0.62961086  0.84186482  0.27420368  1
  O  O112  1  0.13481940  0.83454916  0.03014210  1
  O  O113  1  0.36518060  0.16545084  0.53014210  1
  O  O114  1  0.86518060  0.16545084  0.96985790  1
  O  O115  1  0.63481940  0.83454916  0.46985790  1
  O  O116  1  0.31609803  0.83362680  0.13384965  1
  O  O117  1  0.18390197  0.16637320  0.63384965  1
  O  O118  1  0.68390197  0.16637320  0.86615035  1
  O  O119  1  0.81609803  0.83362680  0.36615035  1
  O  O120  1  0.40511566  0.58152547  0.35522869  1
  O  O121  1  0.09488434  0.41847453  0.85522869  1
  O  O122  1  0.59488434  0.41847453  0.64477131  1
  O  O123  1  0.90511566  0.58152547  0.14477131  1
  O  O124  1  0.18740230  0.52818866  0.32426509  1
  O  O125  1  0.31259770  0.47181134  0.82426509  1
  O  O126  1  0.81259770  0.47181134  0.67573491  1
  O  O127  1  0.68740230  0.52818866  0.17573491  1
  O  O128  1  0.27821834  0.42815207  0.46091968  1
  O  O129  1  0.22178166  0.57184793  0.96091968  1
  O  O130  1  0.72178166  0.57184793  0.53908032  1
  O  O131  1  0.77821834  0.42815207  0.03908032  1
