# generated using pymatgen
data_Zr5SnPb3
_symmetry_space_group_name_H-M   'P 1'
_cell_length_a   6.03791671
_cell_length_b   8.98337950
_cell_length_c   8.98735755
_cell_angle_alpha   119.98536445
_cell_angle_beta   90.00044381
_cell_angle_gamma   89.99911199
_symmetry_Int_Tables_number   1
_chemical_formula_structural   Zr5SnPb3
_chemical_formula_sum   'Zr10 Sn2 Pb6'
_cell_volume   422.23433493
_cell_formula_units_Z   2
loop_
 _symmetry_equiv_pos_site_id
 _symmetry_equiv_pos_as_xyz
  1  'x, y, z'
loop_
 _atom_site_type_symbol
 _atom_site_label
 _atom_site_symmetry_multiplicity
 _atom_site_fract_x
 _atom_site_fract_y
 _atom_site_fract_z
 _atom_site_occupancy
  Zr  Zr0  1  0.50006804  0.33334978  0.66670467  1
  Zr  Zr1  1  0.50006804  0.66664510  0.33329533  1
  Zr  Zr2  1  0.00006775  0.66665136  0.33329739  1
  Zr  Zr3  1  0.00006775  0.33335396  0.66670261  1
  Zr  Zr4  1  0.74997532  0.27865275  0.00000000  1
  Zr  Zr5  1  0.74996886  0.72135172  0.72137219  1
  Zr  Zr6  1  0.74996886  0.99997953  0.27862781  1
  Zr  Zr7  1  0.24998921  0.72134833  1.00000000  1
  Zr  Zr8  1  0.24998033  0.27864901  0.27862846  1
  Zr  Zr9  1  0.24998033  0.00002055  0.72137154  1
  Sn  Sn10  1  0.49999499  0.99999669  0.00000000  1
  Sn  Sn11  1  0.00000423  0.00000200  1.00000000  1
  Pb  Pb12  1  0.74995874  0.61366676  1.00000000  1
  Pb  Pb13  1  0.74998589  0.38631518  0.38627627  1
  Pb  Pb14  1  0.74998589  0.00003890  0.61372373  1
  Pb  Pb15  1  0.24996364  0.38633537  0.00000000  1
  Pb  Pb16  1  0.24998606  0.61368406  0.61372512  1
  Pb  Pb17  1  0.24998606  0.99995894  0.38627488  1
