# generated using pymatgen
data_Zr3Rh
_symmetry_space_group_name_H-M   'P 1'
_cell_length_a   5.75010565
_cell_length_b   8.13316307
_cell_length_c   8.13316307
_cell_angle_alpha   82.82152872
_cell_angle_beta   69.29861587
_cell_angle_gamma   69.29861587
_symmetry_Int_Tables_number   1
_chemical_formula_structural   Zr3Rh
_chemical_formula_sum   'Zr12 Rh4'
_cell_volume   332.83000480
_cell_formula_units_Z   4
loop_
 _symmetry_equiv_pos_site_id
 _symmetry_equiv_pos_as_xyz
  1  'x, y, z'
loop_
 _atom_site_type_symbol
 _atom_site_label
 _atom_site_symmetry_multiplicity
 _atom_site_fract_x
 _atom_site_fract_y
 _atom_site_fract_z
 _atom_site_occupancy
  Zr  Zr0  1  0.67162938  0.19239494  0.99875248  1
  Zr  Zr1  1  0.86277680  0.80760506  0.00124752  1
  Zr  Zr2  1  0.13597568  0.00124752  0.19239494  1
  Zr  Zr3  1  0.32961814  0.99875248  0.80760506  1
  Zr  Zr4  1  0.00101587  0.35351945  0.64380181  1
  Zr  Zr5  1  0.99833713  0.64648055  0.35619819  1
  Zr  Zr6  1  0.64546468  0.35619819  0.35351945  1
  Zr  Zr7  1  0.35518232  0.64380181  0.64648055  1
  Zr  Zr8  1  0.04496054  0.40936784  0.99837941  1
  Zr  Zr9  1  0.45270779  0.59063216  0.00162059  1
  Zr  Zr10  1  0.54567162  0.00162059  0.40936784  1
  Zr  Zr11  1  0.95666005  0.99837941  0.59063216  1
  Rh  Rh12  1  0.49968226  0.29171421  0.70678821  1
  Rh  Rh13  1  0.49818467  0.70828579  0.29321179  1
  Rh  Rh14  1  0.20860353  0.29321179  0.29171421  1
  Rh  Rh15  1  0.79352954  0.70678821  0.70828579  1
