# generated using pymatgen
data_MgZn2
_symmetry_space_group_name_H-M   'P 1'
_cell_length_a   11.41837485
_cell_length_b   2.94299960
_cell_length_c   6.57288081
_cell_angle_alpha   90.00000000
_cell_angle_beta   108.48967673
_cell_angle_gamma   90.00000000
_symmetry_Int_Tables_number   1
_chemical_formula_structural   MgZn2
_chemical_formula_sum   'Mg4 Zn8'
_cell_volume   209.47539305
_cell_formula_units_Z   4
loop_
 _symmetry_equiv_pos_site_id
 _symmetry_equiv_pos_as_xyz
  1  'x, y, z'
loop_
 _atom_site_type_symbol
 _atom_site_label
 _atom_site_symmetry_multiplicity
 _atom_site_fract_x
 _atom_site_fract_y
 _atom_site_fract_z
 _atom_site_occupancy
  Mg  Mg0  1  0.36259960  0.00000000  0.46091497  1
  Mg  Mg1  1  0.13740040  0.50000000  0.53908503  1
  Mg  Mg2  1  0.86259960  0.50000000  0.46091497  1
  Mg  Mg3  1  0.63740040  -0.00000000  0.53908503  1
  Zn  Zn4  1  0.18948507  0.50000000  0.12627897  1
  Zn  Zn5  1  0.47173532  0.50000000  0.17938082  1
  Zn  Zn6  1  0.02826468  -0.00000000  0.82061918  1
  Zn  Zn7  1  0.31051493  0.00000000  0.87372103  1
  Zn  Zn8  1  0.68948507  -0.00000000  0.12627897  1
  Zn  Zn9  1  0.97173532  0.00000000  0.17938082  1
  Zn  Zn10  1  0.52826468  0.50000000  0.82061918  1
  Zn  Zn11  1  0.81051493  0.50000000  0.87372103  1
