# generated using pymatgen
data_Pr2Ge5Ru3
_symmetry_space_group_name_H-M   'P 1'
_cell_length_a   5.89918610
_cell_length_b   8.55455843
_cell_length_c   8.55455843
_cell_angle_alpha   71.61806655
_cell_angle_beta   69.83054968
_cell_angle_gamma   69.83054968
_symmetry_Int_Tables_number   1
_chemical_formula_structural   Pr2Ge5Ru3
_chemical_formula_sum   'Pr4 Ge10 Ru6'
_cell_volume   370.80551197
_cell_formula_units_Z   2
loop_
 _symmetry_equiv_pos_site_id
 _symmetry_equiv_pos_as_xyz
  1  'x, y, z'
loop_
 _atom_site_type_symbol
 _atom_site_label
 _atom_site_symmetry_multiplicity
 _atom_site_fract_x
 _atom_site_fract_y
 _atom_site_fract_z
 _atom_site_occupancy
  Pr  Pr0  1  0.36378844  0.40439953  0.86802359  1
  Pr  Pr1  1  0.63621156  0.59560047  0.13197641  1
  Pr  Pr2  1  0.86378844  0.86802359  0.40439953  1
  Pr  Pr3  1  0.13621156  0.13197641  0.59560047  1
  Ge  Ge4  1  0.25000000  0.50000000  0.50000000  1
  Ge  Ge5  1  0.75000000  0.50000000  0.50000000  1
  Ge  Ge6  1  0.03856459  0.21143541  0.21143541  1
  Ge  Ge7  1  0.46143541  0.78856459  0.78856459  1
  Ge  Ge8  1  0.96143541  0.78856459  0.78856459  1
  Ge  Ge9  1  0.53856459  0.21143541  0.21143541  1
  Ge  Ge10  1  0.09198946  0.73901843  0.07700266  1
  Ge  Ge11  1  0.90801054  0.26098157  0.92299734  1
  Ge  Ge12  1  0.59198946  0.07700266  0.73901843  1
  Ge  Ge13  1  0.40801054  0.92299734  0.26098157  1
  Ru  Ru14  1  0.25000000  0.00000000  0.00000000  1
  Ru  Ru15  1  0.75000000  0.00000000  0.00000000  1
  Ru  Ru16  1  0.14519906  0.44937047  0.26023141  1
  Ru  Ru17  1  0.85480094  0.55062953  0.73976859  1
  Ru  Ru18  1  0.64519906  0.26023141  0.44937047  1
  Ru  Ru19  1  0.35480094  0.73976859  0.55062953  1
