# generated using pymatgen
data_Tl2Hg3S4
_symmetry_space_group_name_H-M   'P 1'
_cell_length_a   6.94914789
_cell_length_b   6.94914789
_cell_length_c   12.83110998
_cell_angle_alpha   96.18690994
_cell_angle_beta   98.55754806
_cell_angle_gamma   121.75260197
_symmetry_Int_Tables_number   1
_chemical_formula_structural   Tl2Hg3S4
_chemical_formula_sum   'Tl4 Hg6 S8'
_cell_volume   508.09907917
_cell_formula_units_Z   2
loop_
 _symmetry_equiv_pos_site_id
 _symmetry_equiv_pos_as_xyz
  1  'x, y, z'
loop_
 _atom_site_type_symbol
 _atom_site_label
 _atom_site_symmetry_multiplicity
 _atom_site_fract_x
 _atom_site_fract_y
 _atom_site_fract_z
 _atom_site_occupancy
  Tl  Tl0  1  0.55056799  0.74432994  0.44280260  1
  Tl  Tl1  1  0.80152734  0.10776539  0.05719740  1
  Tl  Tl2  1  0.44943201  0.25567006  0.55719740  1
  Tl  Tl3  1  0.19847266  0.89223461  0.94280260  1
  Hg  Hg4  1  0.87442890  0.12442890  0.75000000  1
  Hg  Hg5  1  0.12557110  0.87557110  0.25000000  1
  Hg  Hg6  1  0.20710705  0.67096239  0.65275589  1
  Hg  Hg7  1  0.51820651  0.55435116  0.84724411  1
  Hg  Hg8  1  0.79289295  0.32903761  0.34724411  1
  Hg  Hg9  1  0.48179349  0.44564884  0.15275589  1
  S  S10  1  0.46506625  0.06226875  0.75210747  1
  S  S11  1  0.81016128  0.71295878  0.74789253  1
  S  S12  1  0.53493375  0.93773125  0.24789253  1
  S  S13  1  0.18983872  0.28704122  0.25210747  1
  S  S14  1  0.18923878  0.43130579  0.92265145  1
  S  S15  1  0.00865434  0.26658733  0.57734855  1
  S  S16  1  0.81076122  0.56869421  0.07734855  1
  S  S17  1  0.99134566  0.73341267  0.42265145  1
