# generated using pymatgen
data_TaReSi
_symmetry_space_group_name_H-M   'P 1'
_cell_length_a   6.71581087
_cell_length_b   7.03530880
_cell_length_c   7.55859793
_cell_angle_alpha   117.73510976
_cell_angle_beta   116.37534966
_cell_angle_gamma   90.00000000
_symmetry_Int_Tables_number   1
_chemical_formula_structural   TaReSi
_chemical_formula_sum   'Ta6 Re6 Si6'
_cell_volume   273.39696029
_cell_formula_units_Z   6
loop_
 _symmetry_equiv_pos_site_id
 _symmetry_equiv_pos_as_xyz
  1  'x, y, z'
loop_
 _atom_site_type_symbol
 _atom_site_label
 _atom_site_symmetry_multiplicity
 _atom_site_fract_x
 _atom_site_fract_y
 _atom_site_fract_z
 _atom_site_occupancy
  Ta  Ta0  1  0.90446053  0.94532942  0.39065884  1
  Ta  Ta1  1  0.51380169  0.05467058  0.60934116  1
  Ta  Ta2  1  0.50041342  0.53433142  0.56866284  1
  Ta  Ta3  1  0.93175058  0.46566858  0.43133716  1
  Ta  Ta4  1  0.08900802  0.74650988  0.99301977  1
  Ta  Ta5  1  0.09598825  0.25349012  0.00698023  1
  Re  Re6  1  0.75408855  0.50000000  -0.00000000  1
  Re  Re7  1  0.75408855  -0.00000000  -0.00000000  1
  Re  Re8  1  0.25036799  0.90745110  0.74586845  1
  Re  Re9  1  0.50449954  0.09254890  0.25413155  1
  Re  Re10  1  0.25036799  0.33841735  0.74586845  1
  Re  Re11  1  0.50449954  0.66158265  0.25413155  1
  Si  Si12  1  0.46236863  0.72198301  0.94396602  1
  Si  Si13  1  0.51840261  0.27801699  0.05603398  1
  Si  Si14  1  0.17329298  0.67208558  0.33473890  1
  Si  Si15  1  0.83855408  0.32791442  0.66526110  1
  Si  Si16  1  0.17329298  0.16265332  0.33473890  1
  Si  Si17  1  0.83855408  0.83734668  0.66526110  1
