# generated using pymatgen
data_Er2Si5Ni3
_symmetry_space_group_name_H-M   'P 1'
_cell_length_a   5.61289825
_cell_length_b   7.84378322
_cell_length_c   7.84378322
_cell_angle_alpha   75.67182003
_cell_angle_beta   69.03529428
_cell_angle_gamma   69.03529428
_symmetry_Int_Tables_number   1
_chemical_formula_structural   Er2Si5Ni3
_chemical_formula_sum   'Er4 Si10 Ni6'
_cell_volume   298.28593412
_cell_formula_units_Z   2
loop_
 _symmetry_equiv_pos_site_id
 _symmetry_equiv_pos_as_xyz
  1  'x, y, z'
loop_
 _atom_site_type_symbol
 _atom_site_label
 _atom_site_symmetry_multiplicity
 _atom_site_fract_x
 _atom_site_fract_y
 _atom_site_fract_z
 _atom_site_occupancy
  Er  Er0  1  0.36951200  0.39340385  0.86757216  1
  Er  Er1  1  0.63048800  0.60659615  0.13242784  1
  Er  Er2  1  0.86951200  0.86757216  0.39340385  1
  Er  Er3  1  0.13048800  0.13242784  0.60659615  1
  Si  Si4  1  0.25000000  0.50000000  0.50000000  1
  Si  Si5  1  0.75000000  0.50000000  0.50000000  1
  Si  Si6  1  0.01362265  0.23637735  0.23637735  1
  Si  Si7  1  0.48637735  0.76362265  0.76362265  1
  Si  Si8  1  0.98637735  0.76362265  0.76362265  1
  Si  Si9  1  0.51362265  0.23637735  0.23637735  1
  Si  Si10  1  0.10857116  0.74059730  0.04226039  1
  Si  Si11  1  0.89142884  0.25940270  0.95773961  1
  Si  Si12  1  0.60857116  0.04226039  0.74059730  1
  Si  Si13  1  0.39142884  0.95773961  0.25940270  1
  Ni  Ni14  1  0.25000000  -0.00000000  -0.00000000  1
  Ni  Ni15  1  0.75000000  -0.00000000  -0.00000000  1
  Ni  Ni16  1  0.13351338  0.48215194  0.25082130  1
  Ni  Ni17  1  0.86648662  0.51784806  0.74917870  1
  Ni  Ni18  1  0.63351338  0.25082130  0.48215194  1
  Ni  Ni19  1  0.36648662  0.74917870  0.51784806  1
