# generated using pymatgen
data_KLi2(HO)3
_symmetry_space_group_name_H-M   'P 1'
_cell_length_a   5.16459124
_cell_length_b   5.78185973
_cell_length_c   6.32237309
_cell_angle_alpha   103.14155857
_cell_angle_beta   90.00000000
_cell_angle_gamma   90.00000000
_symmetry_Int_Tables_number   1
_chemical_formula_structural   KLi2(HO)3
_chemical_formula_sum   'K2 Li4 H6 O6'
_cell_volume   183.84780185
_cell_formula_units_Z   2
loop_
 _symmetry_equiv_pos_site_id
 _symmetry_equiv_pos_as_xyz
  1  'x, y, z'
loop_
 _atom_site_type_symbol
 _atom_site_label
 _atom_site_symmetry_multiplicity
 _atom_site_fract_x
 _atom_site_fract_y
 _atom_site_fract_z
 _atom_site_occupancy
  K  K0  1  0.75000000  0.84368170  0.74441981  1
  K  K1  1  0.25000000  0.15631830  0.25558019  1
  Li  Li2  1  0.49522015  0.34650678  0.82266690  1
  Li  Li3  1  0.99522015  0.65349322  0.17733310  1
  Li  Li4  1  0.50477985  0.65349322  0.17733310  1
  Li  Li5  1  0.00477985  0.34650678  0.82266690  1
  H  H6  1  0.75000000  0.22986669  0.11355771  1
  H  H7  1  0.25000000  0.77013331  0.88644229  1
  H  H8  1  0.75000000  0.01897946  0.33762047  1
  H  H9  1  0.25000000  0.98102054  0.66237953  1
  H  H10  1  0.75000000  0.37927497  0.46561656  1
  H  H11  1  0.25000000  0.62072503  0.53438344  1
  O  O12  1  0.75000000  0.38481019  0.07388130  1
  O  O13  1  0.25000000  0.61518981  0.92611870  1
  O  O14  1  0.75000000  0.91671137  0.19124017  1
  O  O15  1  0.25000000  0.08328863  0.80875983  1
  O  O16  1  0.75000000  0.31890287  0.59644207  1
  O  O17  1  0.25000000  0.68109713  0.40355793  1
