# generated using pymatgen
data_Y3Os
_symmetry_space_group_name_H-M   'P 1'
_cell_length_a   6.36314922
_cell_length_b   7.43881679
_cell_length_c   9.13470597
_cell_angle_alpha   90.00000000
_cell_angle_beta   90.00000000
_cell_angle_gamma   90.00000000
_symmetry_Int_Tables_number   1
_chemical_formula_structural   Y3Os
_chemical_formula_sum   'Y12 Os4'
_cell_volume   432.38492426
_cell_formula_units_Z   4
loop_
 _symmetry_equiv_pos_site_id
 _symmetry_equiv_pos_as_xyz
  1  'x, y, z'
loop_
 _atom_site_type_symbol
 _atom_site_label
 _atom_site_symmetry_multiplicity
 _atom_site_fract_x
 _atom_site_fract_y
 _atom_site_fract_z
 _atom_site_occupancy
  Y  Y0  1  0.33098817  0.67400105  0.06381651  1
  Y  Y1  1  0.16901183  0.17400105  0.43618349  1
  Y  Y2  1  0.66901183  0.32599895  0.56381651  1
  Y  Y3  1  0.83098817  0.82599895  0.93618349  1
  Y  Y4  1  0.66901183  0.32599895  0.93618349  1
  Y  Y5  1  0.83098817  0.82599895  0.56381651  1
  Y  Y6  1  0.33098817  0.67400105  0.43618349  1
  Y  Y7  1  0.16901183  0.17400105  0.06381651  1
  Y  Y8  1  0.86738433  0.54049443  0.25000000  1
  Y  Y9  1  0.63261567  0.04049443  0.25000000  1
  Y  Y10  1  0.13261567  0.45950557  0.75000000  1
  Y  Y11  1  0.36738433  0.95950557  0.75000000  1
  Os  Os12  1  0.03887505  0.88228604  0.25000000  1
  Os  Os13  1  0.46112495  0.38228604  0.25000000  1
  Os  Os14  1  0.96112495  0.11771396  0.75000000  1
  Os  Os15  1  0.53887505  0.61771396  0.75000000  1
