# generated using pymatgen
data_Sm2MnCoO6
_symmetry_space_group_name_H-M   'P 1'
_cell_length_a   5.38803271
_cell_length_b   5.64731875
_cell_length_c   7.70694576
_cell_angle_alpha   90.00000000
_cell_angle_beta   90.08559955
_cell_angle_gamma   90.00000000
_symmetry_Int_Tables_number   1
_chemical_formula_structural   Sm2MnCoO6
_chemical_formula_sum   'Sm4 Mn2 Co2 O12'
_cell_volume   234.50620696
_cell_formula_units_Z   2
loop_
 _symmetry_equiv_pos_site_id
 _symmetry_equiv_pos_as_xyz
  1  'x, y, z'
loop_
 _atom_site_type_symbol
 _atom_site_label
 _atom_site_symmetry_multiplicity
 _atom_site_fract_x
 _atom_site_fract_y
 _atom_site_fract_z
 _atom_site_occupancy
  Sm  Sm0  1  0.51644868  0.56518955  0.24950766  1
  Sm  Sm1  1  0.01644868  0.93481045  0.74950766  1
  Sm  Sm2  1  0.48355132  0.43481045  0.75049234  1
  Sm  Sm3  1  0.98355132  0.06518955  0.25049234  1
  Mn  Mn4  1  0.50000000  -0.00000000  0.50000000  1
  Mn  Mn5  1  0.00000000  0.50000000  -0.00000000  1
  Co  Co6  1  0.00000000  0.50000000  0.50000000  1
  Co  Co7  1  0.50000000  -0.00000000  -0.00000000  1
  O  O8  1  0.40433559  0.97282049  0.25691605  1
  O  O9  1  0.90433559  0.52717951  0.75691605  1
  O  O10  1  0.59566441  0.02717951  0.74308395  1
  O  O11  1  0.09566441  0.47282049  0.24308395  1
  O  O12  1  0.81034571  0.78883945  0.05092266  1
  O  O13  1  0.31034571  0.71116055  0.55092266  1
  O  O14  1  0.18965429  0.21116055  0.94907734  1
  O  O15  1  0.68965429  0.28883945  0.44907734  1
  O  O16  1  0.79206607  0.80634874  0.45202607  1
  O  O17  1  0.29206607  0.69365126  0.95202607  1
  O  O18  1  0.20793393  0.19365126  0.54797393  1
  O  O19  1  0.70793393  0.30634874  0.04797393  1
