# generated using pymatgen
data_La5Pb3S
_symmetry_space_group_name_H-M   'P 1'
_cell_length_a   7.14751896
_cell_length_b   9.68639337
_cell_length_c   9.68670005
_cell_angle_alpha   119.99895582
_cell_angle_beta   90.00000000
_cell_angle_gamma   90.00000000
_symmetry_Int_Tables_number   1
_chemical_formula_structural   La5Pb3S
_chemical_formula_sum   'La10 Pb6 S2'
_cell_volume   580.80249194
_cell_formula_units_Z   2
loop_
 _symmetry_equiv_pos_site_id
 _symmetry_equiv_pos_as_xyz
  1  'x, y, z'
loop_
 _atom_site_type_symbol
 _atom_site_label
 _atom_site_symmetry_multiplicity
 _atom_site_fract_x
 _atom_site_fract_y
 _atom_site_fract_z
 _atom_site_occupancy
  La  La0  1  0.75001441  0.23990679  0.00000000  1
  La  La1  1  0.75000644  0.76012253  0.76010035  1
  La  La2  1  0.75000644  0.00002217  0.23989965  1
  La  La3  1  0.25001441  0.76009321  1.00000000  1
  La  La4  1  0.25000644  0.23987747  0.23989965  1
  La  La5  1  0.25000644  0.99997783  0.76010035  1
  La  La6  1  0.49999621  0.33332582  0.66670078  1
  La  La7  1  0.49999621  0.66662504  0.33329922  1
  La  La8  1  0.99999621  0.66667418  0.33329922  1
  La  La9  1  0.99999621  0.33337496  0.66670078  1
  Pb  Pb10  1  0.74997968  0.60121523  0.00000000  1
  Pb  Pb11  1  0.74999882  0.39880635  0.39873801  1
  Pb  Pb12  1  0.74999882  0.00006834  0.60126199  1
  Pb  Pb13  1  0.24997968  0.39878477  1.00000000  1
  Pb  Pb14  1  0.24999882  0.60119365  0.60126199  1
  Pb  Pb15  1  0.24999882  -0.00006834  0.39873801  1
  S  S16  1  0.50000298  0.00000089  0.00000000  1
  S  S17  1  0.00000298  -0.00000089  -0.00000000  1
