# generated using pymatgen
data_Tb6GaCo2
_symmetry_space_group_name_H-M   'P 1'
_cell_length_a   8.32708930
_cell_length_b   8.32708930
_cell_length_c   8.32708930
_cell_angle_alpha   105.94824335
_cell_angle_beta   110.05046708
_cell_angle_gamma   112.48139304
_symmetry_Int_Tables_number   1
_chemical_formula_structural   Tb6GaCo2
_chemical_formula_sum   'Tb12 Ga2 Co4'
_cell_volume   443.02207899
_cell_formula_units_Z   2
loop_
 _symmetry_equiv_pos_site_id
 _symmetry_equiv_pos_as_xyz
  1  'x, y, z'
loop_
 _atom_site_type_symbol
 _atom_site_label
 _atom_site_symmetry_multiplicity
 _atom_site_fract_x
 _atom_site_fract_y
 _atom_site_fract_z
 _atom_site_occupancy
  Tb  Tb0  1  0.69892708  0.27083390  0.96976098  1
  Tb  Tb1  1  0.30107292  0.72916610  0.03023902  1
  Tb  Tb2  1  0.69892708  0.72916610  0.42809318  1
  Tb  Tb3  1  0.30107292  0.27083390  0.57190682  1
  Tb  Tb4  1  0.80820084  0.12698800  0.31878716  1
  Tb  Tb5  1  0.80820084  0.48941368  0.68121284  1
  Tb  Tb6  1  0.19179916  0.87301200  0.68121284  1
  Tb  Tb7  1  0.19179916  0.51058632  0.31878716  1
  Tb  Tb8  1  0.60025998  0.78737116  0.81288882  1
  Tb  Tb9  1  0.97448234  0.78737116  0.18711118  1
  Tb  Tb10  1  0.02551766  0.21262884  0.81288882  1
  Tb  Tb11  1  0.39974002  0.21262884  0.18711118  1
  Ga  Ga12  1  0.50000000  0.50000000  -0.00000000  1
  Ga  Ga13  1  0.50000000  -0.00000000  0.50000000  1
  Co  Co14  1  0.86394939  0.50000000  0.36394939  1
  Co  Co15  1  0.13605061  0.50000000  0.63605061  1
  Co  Co16  1  -0.00000000  0.11175824  0.11175824  1
  Co  Co17  1  0.00000000  0.88824176  0.88824176  1
