# generated using pymatgen
data_KTeP2
_symmetry_space_group_name_H-M   'P 1'
_cell_length_a   6.63303205
_cell_length_b   7.14515654
_cell_length_c   10.15971255
_cell_angle_alpha   89.90728982
_cell_angle_beta   90.00000000
_cell_angle_gamma   90.00000000
_symmetry_Int_Tables_number   1
_chemical_formula_structural   KTeP2
_chemical_formula_sum   'K4 Te4 P8'
_cell_volume   481.50931781
_cell_formula_units_Z   4
loop_
 _symmetry_equiv_pos_site_id
 _symmetry_equiv_pos_as_xyz
  1  'x, y, z'
loop_
 _atom_site_type_symbol
 _atom_site_label
 _atom_site_symmetry_multiplicity
 _atom_site_fract_x
 _atom_site_fract_y
 _atom_site_fract_z
 _atom_site_occupancy
  K  K0  1  0.75000000  0.97420725  0.61140174  1
  K  K1  1  0.25000000  0.02579275  0.38859826  1
  K  K2  1  0.75000000  0.77693495  0.99367156  1
  K  K3  1  0.25000000  0.22306505  0.00632844  1
  Te  Te4  1  0.75000000  0.29511741  0.89746868  1
  Te  Te5  1  0.25000000  0.70488259  0.10253132  1
  Te  Te6  1  0.75000000  0.15658327  0.26623470  1
  Te  Te7  1  0.25000000  0.84341673  0.73376530  1
  P  P8  1  0.50559320  0.60655474  0.41979414  1
  P  P9  1  0.00559320  0.39344526  0.58020586  1
  P  P10  1  0.49440680  0.39344526  0.58020586  1
  P  P11  1  0.99440680  0.60655474  0.41979414  1
  P  P12  1  0.75000000  0.50693910  0.70103338  1
  P  P13  1  0.25000000  0.49306090  0.29896662  1
  P  P14  1  0.75000000  0.50584297  0.28573456  1
  P  P15  1  0.25000000  0.49415703  0.71426544  1
