# generated using pymatgen
data_Pr(HoS2)3
_symmetry_space_group_name_H-M   'P 1'
_cell_length_a   3.98651460
_cell_length_b   11.31313130
_cell_length_c   11.08526093
_cell_angle_alpha   108.85978963
_cell_angle_beta   90.00000000
_cell_angle_gamma   90.00000000
_symmetry_Int_Tables_number   1
_chemical_formula_structural   Pr(HoS2)3
_chemical_formula_sum   'Pr2 Ho6 S12'
_cell_volume   473.10404511
_cell_formula_units_Z   2
loop_
 _symmetry_equiv_pos_site_id
 _symmetry_equiv_pos_as_xyz
  1  'x, y, z'
loop_
 _atom_site_type_symbol
 _atom_site_label
 _atom_site_symmetry_multiplicity
 _atom_site_fract_x
 _atom_site_fract_y
 _atom_site_fract_z
 _atom_site_occupancy
  Pr  Pr0  1  0.25000000  0.19431283  0.54901849  1
  Pr  Pr1  1  0.75000000  0.80568717  0.45098151  1
  Ho  Ho2  1  0.25000000  0.00119898  0.17981313  1
  Ho  Ho3  1  0.75000000  0.99880102  0.82018687  1
  Ho  Ho4  1  0.25000000  0.33309222  0.94052587  1
  Ho  Ho5  1  0.75000000  0.66690778  0.05947413  1
  Ho  Ho6  1  0.25000000  0.58647449  0.66099441  1
  Ho  Ho7  1  0.75000000  0.41352551  0.33900559  1
  S  S8  1  0.25000000  0.11189266  0.97807181  1
  S  S9  1  0.75000000  0.88810734  0.02192819  1
  S  S10  1  0.25000000  0.25133886  0.30472442  1
  S  S11  1  0.75000000  0.74866114  0.69527558  1
  S  S12  1  0.25000000  0.55946768  0.89483926  1
  S  S13  1  0.75000000  0.44053232  0.10516074  1
  S  S14  1  0.25000000  0.59439583  0.41872620  1
  S  S15  1  0.75000000  0.40560417  0.58127380  1
  S  S16  1  0.25000000  0.77143787  0.23451919  1
  S  S17  1  0.75000000  0.22856213  0.76548081  1
  S  S18  1  0.25000000  0.96362631  0.61871021  1
  S  S19  1  0.75000000  0.03637369  0.38128979  1
