# generated using pymatgen
data_SmScS3
_symmetry_space_group_name_H-M   'P 1'
_cell_length_a   6.46869772
_cell_length_b   7.12501662
_cell_length_c   9.57211841
_cell_angle_alpha   90.00000000
_cell_angle_beta   90.00000000
_cell_angle_gamma   90.00000000
_symmetry_Int_Tables_number   1
_chemical_formula_structural   SmScS3
_chemical_formula_sum   'Sm4 Sc4 S12'
_cell_volume   441.17490540
_cell_formula_units_Z   4
loop_
 _symmetry_equiv_pos_site_id
 _symmetry_equiv_pos_as_xyz
  1  'x, y, z'
loop_
 _atom_site_type_symbol
 _atom_site_label
 _atom_site_symmetry_multiplicity
 _atom_site_fract_x
 _atom_site_fract_y
 _atom_site_fract_z
 _atom_site_occupancy
  Sm  Sm0  1  0.53974782  0.40075025  0.99135957  1
  Sm  Sm1  1  0.46025218  0.59924975  0.49135957  1
  Sm  Sm2  1  0.03974782  0.09924975  0.49135957  1
  Sm  Sm3  1  0.96025218  0.90075025  0.99135957  1
  Sc  Sc4  1  0.00257664  0.49609619  0.23907752  1
  Sc  Sc5  1  0.99742336  0.50390381  0.73907752  1
  Sc  Sc6  1  0.50257664  0.00390381  0.73907752  1
  Sc  Sc7  1  0.49742336  0.99609619  0.23907752  1
  S  S8  1  0.82344648  0.18833877  0.80784506  1
  S  S9  1  0.17655352  0.81166123  0.30784506  1
  S  S10  1  0.32344648  0.31166123  0.30784506  1
  S  S11  1  0.67655352  0.68833877  0.80784506  1
  S  S12  1  0.82075963  0.18464231  0.17625443  1
  S  S13  1  0.17924037  0.81535769  0.67625443  1
  S  S14  1  0.32075963  0.31535769  0.67625443  1
  S  S15  1  0.67924037  0.68464231  0.17625443  1
  S  S16  1  0.86373983  0.45753347  0.49046342  1
  S  S17  1  0.13626017  0.54246653  0.99046342  1
  S  S18  1  0.36373983  0.04246653  0.99046342  1
  S  S19  1  0.63626017  0.95753347  0.49046342  1
