# generated using pymatgen
data_Ti(NbS2)3
_symmetry_space_group_name_H-M   'P 1'
_cell_length_a   5.80314409
_cell_length_b   5.80352267
_cell_length_c   12.55670693
_cell_angle_alpha   89.96892643
_cell_angle_beta   90.00000001
_cell_angle_gamma   119.99783853
_symmetry_Int_Tables_number   1
_chemical_formula_structural   Ti(NbS2)3
_chemical_formula_sum   'Ti2 Nb6 S12'
_cell_volume   366.24423936
_cell_formula_units_Z   2
loop_
 _symmetry_equiv_pos_site_id
 _symmetry_equiv_pos_as_xyz
  1  'x, y, z'
loop_
 _atom_site_type_symbol
 _atom_site_label
 _atom_site_symmetry_multiplicity
 _atom_site_fract_x
 _atom_site_fract_y
 _atom_site_fract_z
 _atom_site_occupancy
  Ti  Ti0  1  0.66664149  0.33326993  0.74999779  1
  Ti  Ti1  1  0.33337156  0.66673007  0.25000221  1
  Nb  Nb2  1  0.00002859  0.00000000  0.50000000  1
  Nb  Nb3  1  0.99997622  1.00000000  0.00000000  1
  Nb  Nb4  1  0.66673835  0.33336617  0.00197092  1
  Nb  Nb5  1  0.33337218  0.66663383  0.99802908  1
  Nb  Nb6  1  0.33327822  0.66663567  0.50196934  1
  Nb  Nb7  1  0.66664255  0.33336433  0.49803066  1
  S  S8  1  0.66793984  0.00220032  0.62647510  1
  S  S9  1  0.33435833  0.33217682  0.62652618  1
  S  S10  1  0.99782839  0.66566910  0.62651229  1
  S  S11  1  0.66573952  0.99779968  0.37352490  1
  S  S12  1  0.00218151  0.66782318  0.37347382  1
  S  S13  1  0.33215928  0.33433090  0.37348771  1
  S  S14  1  0.33209534  0.99779852  0.12648000  1
  S  S15  1  0.66568813  0.66788425  0.12651484  1
  S  S16  1  0.00214958  0.33433936  0.12649829  1
  S  S17  1  0.33429682  0.00220148  0.87352000  1
  S  S18  1  0.99780388  0.33211575  0.87348516  1
  S  S19  1  0.66781022  0.66566064  0.87350171  1
