# generated using pymatgen
data_Ho2Sn5Rh3
_symmetry_space_group_name_H-M   'P 1'
_cell_length_a   4.39149641
_cell_length_b   7.34041527
_cell_length_c   13.46326228
_cell_angle_alpha   90.00000000
_cell_angle_beta   99.38640344
_cell_angle_gamma   90.00000000
_symmetry_Int_Tables_number   1
_chemical_formula_structural   Ho2Sn5Rh3
_chemical_formula_sum   'Ho4 Sn10 Rh6'
_cell_volume   428.18295425
_cell_formula_units_Z   2
loop_
 _symmetry_equiv_pos_site_id
 _symmetry_equiv_pos_as_xyz
  1  'x, y, z'
loop_
 _atom_site_type_symbol
 _atom_site_label
 _atom_site_symmetry_multiplicity
 _atom_site_fract_x
 _atom_site_fract_y
 _atom_site_fract_z
 _atom_site_occupancy
  Ho  Ho0  1  0.17263753  0.74455391  0.34527506  1
  Ho  Ho1  1  0.82736247  0.24455391  0.65472494  1
  Ho  Ho2  1  0.47593632  0.76384252  0.95187264  1
  Ho  Ho3  1  0.52406368  0.26384252  0.04812736  1
  Sn  Sn4  1  0.88058929  0.76898916  0.76117857  1
  Sn  Sn5  1  0.11941071  0.26898916  0.23882143  1
  Sn  Sn6  1  0.70466733  0.45030710  0.40933466  1
  Sn  Sn7  1  0.29533267  0.95030710  0.59066534  1
  Sn  Sn8  1  0.59636621  0.88588940  0.19273242  1
  Sn  Sn9  1  0.40363379  0.38588940  0.80726758  1
  Sn  Sn10  1  0.95241145  0.10232579  0.90482289  1
  Sn  Sn11  1  0.04758855  0.60232579  0.09517711  1
  Sn  Sn12  1  0.29052504  0.52197025  0.58105007  1
  Sn  Sn13  1  0.70947496  0.02197025  0.41894993  1
  Rh  Rh14  1  0.05014982  0.98125368  0.10029964  1
  Rh  Rh15  1  0.94985018  0.48125368  0.89970036  1
  Rh  Rh16  1  0.77661845  0.73479446  0.55323690  1
  Rh  Rh17  1  0.22338155  0.23479446  0.44676310  1
  Rh  Rh18  1  0.39401485  0.01807374  0.78802971  1
  Rh  Rh19  1  0.60598515  0.51807374  0.21197029  1
