# generated using pymatgen
data_Y6PtI10
_symmetry_space_group_name_H-M   'P 1'
_cell_length_a   7.72362690
_cell_length_b   9.73114251
_cell_length_c   9.76245372
_cell_angle_alpha   107.42361819
_cell_angle_beta   97.01771784
_cell_angle_gamma   104.89315599
_symmetry_Int_Tables_number   1
_chemical_formula_structural   Y6PtI10
_chemical_formula_sum   'Y6 Pt1 I10'
_cell_volume   660.59263305
_cell_formula_units_Z   1
loop_
 _symmetry_equiv_pos_site_id
 _symmetry_equiv_pos_as_xyz
  1  'x, y, z'
loop_
 _atom_site_type_symbol
 _atom_site_label
 _atom_site_symmetry_multiplicity
 _atom_site_fract_x
 _atom_site_fract_y
 _atom_site_fract_z
 _atom_site_occupancy
  Y  Y0  1  0.88557005  0.96069175  0.24356447  1
  Y  Y1  1  0.11442995  0.03930825  0.75643553  1
  Y  Y2  1  0.35187196  0.12763989  0.16703302  1
  Y  Y3  1  0.64812804  0.87236011  0.83296698  1
  Y  Y4  1  0.97271745  0.28883626  0.08757682  1
  Y  Y5  1  0.02728255  0.71116374  0.91242318  1
  Pt  Pt6  1  -0.00000000  -0.00000000  -0.00000000  1
  I  I7  1  0.35881784  0.45627131  0.27406503  1
  I  I8  1  0.64118216  0.54372869  0.72593497  1
  I  I9  1  0.91375683  0.62755156  0.18041508  1
  I  I10  1  0.08624317  0.37244844  0.81958492  1
  I  I11  1  0.45278988  0.81682743  0.09241966  1
  I  I12  1  0.54721012  0.18317257  0.90758034  1
  I  I13  1  0.26233428  0.08870328  0.46476502  1
  I  I14  1  0.73766572  0.91129672  0.53523498  1
  I  I15  1  0.78357919  0.26181828  0.35059000  1
  I  I16  1  0.21642081  0.73818172  0.64941000  1
