# generated using pymatgen
data_Mg5Sb
_symmetry_space_group_name_H-M   'P 1'
_cell_length_a   5.31951536
_cell_length_b   3.25637826
_cell_length_c   16.23431770
_cell_angle_alpha   90.00000000
_cell_angle_beta   90.00000000
_cell_angle_gamma   90.00000000
_symmetry_Int_Tables_number   1
_chemical_formula_structural   Mg5Sb
_chemical_formula_sum   'Mg10 Sb2'
_cell_volume   281.21660094
_cell_formula_units_Z   2
loop_
 _symmetry_equiv_pos_site_id
 _symmetry_equiv_pos_as_xyz
  1  'x, y, z'
loop_
 _atom_site_type_symbol
 _atom_site_label
 _atom_site_symmetry_multiplicity
 _atom_site_fract_x
 _atom_site_fract_y
 _atom_site_fract_z
 _atom_site_occupancy
  Mg  Mg0  1  0.50000000  -0.00000000  0.99934479  1
  Mg  Mg1  1  0.50000000  0.00000000  0.66673918  1
  Mg  Mg2  1  0.50000000  0.50000000  0.83426292  1
  Mg  Mg3  1  0.00000000  0.00000000  0.89014339  1
  Mg  Mg4  1  0.00000000  -0.00000000  0.55325283  1
  Mg  Mg5  1  0.50000000  0.50000000  0.49934479  1
  Mg  Mg6  1  0.50000000  0.50000000  0.16673918  1
  Mg  Mg7  1  0.50000000  0.00000000  0.33426292  1
  Mg  Mg8  1  -0.00000000  0.50000000  0.39014339  1
  Mg  Mg9  1  0.00000000  0.50000000  0.05325283  1
  Sb  Sb10  1  -0.00000000  0.50000000  0.72292389  1
  Sb  Sb11  1  -0.00000000  0.00000000  0.22292389  1
