# generated using pymatgen
data_NdCrTeO6
_symmetry_space_group_name_H-M   'P 1'
_cell_length_a   5.23440240
_cell_length_b   5.23444970
_cell_length_c   10.23746208
_cell_angle_alpha   89.99888448
_cell_angle_beta   90.00055103
_cell_angle_gamma   120.00044491
_symmetry_Int_Tables_number   1
_chemical_formula_structural   NdCrTeO6
_chemical_formula_sum   'Nd2 Cr2 Te2 O12'
_cell_volume   242.91768187
_cell_formula_units_Z   2
loop_
 _symmetry_equiv_pos_site_id
 _symmetry_equiv_pos_as_xyz
  1  'x, y, z'
loop_
 _atom_site_type_symbol
 _atom_site_label
 _atom_site_symmetry_multiplicity
 _atom_site_fract_x
 _atom_site_fract_y
 _atom_site_fract_z
 _atom_site_occupancy
  Nd  Nd0  1  -0.00000000  0.00000000  -0.00000000  1
  Nd  Nd1  1  -0.00000000  0.00000000  0.50000000  1
  Cr  Cr2  1  0.33311032  0.66656452  0.24999621  1
  Cr  Cr3  1  0.66688968  0.33343548  0.75000379  1
  Te  Te4  1  0.33338814  0.66669421  0.75000012  1
  Te  Te5  1  0.66661186  0.33330579  0.24999988  1
  O  O6  1  0.37235623  0.36206102  0.14308880  1
  O  O7  1  0.63797622  0.01035982  0.14308638  1
  O  O8  1  0.98970355  0.62767218  0.14307691  1
  O  O9  1  0.62764377  0.63793898  0.85691120  1
  O  O10  1  0.36202378  0.98964018  0.85691362  1
  O  O11  1  0.01029645  0.37232782  0.85692309  1
  O  O12  1  0.63797570  0.62761612  0.35691397  1
  O  O13  1  0.37235757  0.01029467  0.35691102  1
  O  O14  1  0.98970480  0.36203261  0.35692341  1
  O  O15  1  0.36202430  0.37238388  0.64308603  1
  O  O16  1  0.62764243  0.98970533  0.64308898  1
  O  O17  1  0.01029520  0.63796739  0.64307659  1
