# generated using pymatgen
data_ZrTl2PbSe4
_symmetry_space_group_name_H-M   'P 1'
_cell_length_a   7.17638428
_cell_length_b   8.61720726
_cell_length_c   9.13047583
_cell_angle_alpha   118.15721712
_cell_angle_beta   106.55803874
_cell_angle_gamma   90.00000000
_symmetry_Int_Tables_number   1
_chemical_formula_structural   ZrTl2PbSe4
_chemical_formula_sum   'Zr2 Tl4 Pb2 Se8'
_cell_volume   471.08740607
_cell_formula_units_Z   2
loop_
 _symmetry_equiv_pos_site_id
 _symmetry_equiv_pos_as_xyz
  1  'x, y, z'
loop_
 _atom_site_type_symbol
 _atom_site_label
 _atom_site_symmetry_multiplicity
 _atom_site_fract_x
 _atom_site_fract_y
 _atom_site_fract_z
 _atom_site_occupancy
  Zr  Zr0  1  0.25000000  0.12481458  0.00000000  1
  Zr  Zr1  1  0.75000000  0.87518542  -0.00000000  1
  Tl  Tl2  1  0.26936077  0.12583114  0.50346057  1
  Tl  Tl3  1  0.23063923  0.62237057  0.49653943  1
  Tl  Tl4  1  0.73063923  0.87416886  0.49653943  1
  Tl  Tl5  1  0.76936077  0.37762943  0.50346057  1
  Pb  Pb6  1  0.25000000  0.62330778  -0.00000000  1
  Pb  Pb7  1  0.75000000  0.37669222  0.00000000  1
  Se  Se8  1  0.49659345  0.00472850  0.80177362  1
  Se  Se9  1  0.00340655  0.20295488  0.19822638  1
  Se  Se10  1  0.50340655  0.99527150  0.19822638  1
  Se  Se11  1  0.99659345  0.79704512  0.80177362  1
  Se  Se12  1  0.03326281  0.23573969  0.78386201  1
  Se  Se13  1  0.46673719  0.45187767  0.21613799  1
  Se  Se14  1  0.96673719  0.76426031  0.21613799  1
  Se  Se15  1  0.53326281  0.54812233  0.78386201  1
