# generated using pymatgen
data_YbB4
_symmetry_space_group_name_H-M   'P 1'
_cell_length_a   4.07439180
_cell_length_b   7.12275161
_cell_length_c   7.12275161
_cell_angle_alpha   90.00000000
_cell_angle_beta   90.00000000
_cell_angle_gamma   90.00000000
_symmetry_Int_Tables_number   1
_chemical_formula_structural   YbB4
_chemical_formula_sum   'Yb4 B16'
_cell_volume   206.70852511
_cell_formula_units_Z   4
loop_
 _symmetry_equiv_pos_site_id
 _symmetry_equiv_pos_as_xyz
  1  'x, y, z'
loop_
 _atom_site_type_symbol
 _atom_site_label
 _atom_site_symmetry_multiplicity
 _atom_site_fract_x
 _atom_site_fract_y
 _atom_site_fract_z
 _atom_site_occupancy
  Yb  Yb0  1  -0.00000000  0.31536550  0.81536550  1
  Yb  Yb1  1  0.00000000  0.68463450  0.18463450  1
  Yb  Yb2  1  0.00000000  0.18463450  0.31536550  1
  Yb  Yb3  1  -0.00000000  0.81536550  0.68463450  1
  B  B4  1  0.79515083  0.50000000  0.50000000  1
  B  B5  1  0.79515083  0.00000000  0.00000000  1
  B  B6  1  0.20484917  0.50000000  0.50000000  1
  B  B7  1  0.20484917  0.00000000  0.00000000  1
  B  B8  1  0.50000000  0.58528609  0.91471391  1
  B  B9  1  0.50000000  0.41471391  0.08528609  1
  B  B10  1  0.50000000  0.91471391  0.41471391  1
  B  B11  1  0.50000000  0.08528609  0.58528609  1
  B  B12  1  0.50000000  0.53659636  0.67563213  1
  B  B13  1  0.50000000  0.46340364  0.32436787  1
  B  B14  1  0.50000000  0.96340364  0.17563213  1
  B  B15  1  0.50000000  0.03659636  0.82436787  1
  B  B16  1  0.50000000  0.67563213  0.46340364  1
  B  B17  1  0.50000000  0.32436787  0.53659636  1
  B  B18  1  0.50000000  0.17563213  0.03659636  1
  B  B19  1  0.50000000  0.82436787  0.96340364  1
