# generated using pymatgen
data_Na2In2SiS6
_symmetry_space_group_name_H-M   'P 1'
_cell_length_a   7.29640979
_cell_length_b   7.29640979
_cell_length_c   12.38062762
_cell_angle_alpha   74.70281850
_cell_angle_beta   74.70281850
_cell_angle_gamma   65.88563479
_symmetry_Int_Tables_number   1
_chemical_formula_structural   Na2In2SiS6
_chemical_formula_sum   'Na4 In4 Si2 S12'
_cell_volume   571.09404336
_cell_formula_units_Z   2
loop_
 _symmetry_equiv_pos_site_id
 _symmetry_equiv_pos_as_xyz
  1  'x, y, z'
loop_
 _atom_site_type_symbol
 _atom_site_label
 _atom_site_symmetry_multiplicity
 _atom_site_fract_x
 _atom_site_fract_y
 _atom_site_fract_z
 _atom_site_occupancy
  Na  Na0  1  0.09784961  0.46537161  0.65886411  1
  Na  Na1  1  0.46537161  0.09784961  0.15886411  1
  Na  Na2  1  0.92974759  0.07044521  0.49691669  1
  Na  Na3  1  0.07044521  0.92974759  0.99691669  1
  In  In4  1  0.38224380  0.54882409  0.30608909  1
  In  In5  1  0.54882409  0.38224380  0.80608909  1
  In  In6  1  0.70768751  0.58966573  0.00291198  1
  In  In7  1  0.58966573  0.70768751  0.50291198  1
  Si  Si8  1  0.92863538  0.49025254  0.25123371  1
  Si  Si9  1  0.49025254  0.92863538  0.75123371  1
  S  S10  1  0.26253919  0.70537122  0.47851814  1
  S  S11  1  0.70537122  0.26253919  0.97851814  1
  S  S12  1  0.38629496  0.78426136  0.12036271  1
  S  S13  1  0.78426136  0.38629496  0.62036271  1
  S  S14  1  0.74882712  0.30195563  0.29970795  1
  S  S15  1  0.30195563  0.74882712  0.79970795  1
  S  S16  1  0.78640099  0.77998924  0.30467684  1
  S  S17  1  0.77998924  0.78640099  0.80467684  1
  S  S18  1  0.19521238  0.30990059  0.32983275  1
  S  S19  1  0.30990059  0.19521238  0.82983275  1
  S  S20  1  0.02585242  0.53459183  0.07018603  1
  S  S21  1  0.53459183  0.02585242  0.57018603  1
