# generated using pymatgen
data_Er6CoBr10
_symmetry_space_group_name_H-M   'P 1'
_cell_length_a   7.28478699
_cell_length_b   9.01683143
_cell_length_c   9.10465236
_cell_angle_alpha   108.26958573
_cell_angle_beta   97.12188328
_cell_angle_gamma   105.30304297
_symmetry_Int_Tables_number   1
_chemical_formula_structural   Er6CoBr10
_chemical_formula_sum   'Er6 Co1 Br10'
_cell_volume   533.63021829
_cell_formula_units_Z   1
loop_
 _symmetry_equiv_pos_site_id
 _symmetry_equiv_pos_as_xyz
  1  'x, y, z'
loop_
 _atom_site_type_symbol
 _atom_site_label
 _atom_site_symmetry_multiplicity
 _atom_site_fract_x
 _atom_site_fract_y
 _atom_site_fract_z
 _atom_site_occupancy
  Er  Er0  1  0.64383173  0.86629723  0.32476724  1
  Er  Er1  1  0.35616827  0.13370277  0.67523276  1
  Er  Er2  1  0.97338174  0.28886362  0.58969001  1
  Er  Er3  1  0.02661826  0.71113638  0.41030999  1
  Er  Er4  1  0.88130313  0.95708454  0.74262959  1
  Er  Er5  1  0.11869687  0.04291546  0.25737041  1
  Co  Co6  1  0.00000000  0.00000000  0.50000000  1
  Br  Br7  1  0.54826875  0.17949792  0.41264490  1
  Br  Br8  1  0.45173125  0.82050208  0.58735510  1
  Br  Br9  1  0.21221998  0.73987820  0.15149252  1
  Br  Br10  1  0.78778002  0.26012180  0.84850748  1
  Br  Br11  1  0.91352398  0.62796431  0.67386345  1
  Br  Br12  1  0.08647602  0.37203569  0.32613655  1
  Br  Br13  1  0.74474191  0.91335969  0.03832822  1
  Br  Br14  1  0.25525809  0.08664031  0.96167178  1
  Br  Br15  1  0.64462425  0.54263537  0.22566441  1
  Br  Br16  1  0.35537575  0.45736463  0.77433559  1
