# generated using pymatgen
data_Dy2CoTe2(SO7)2
_symmetry_space_group_name_H-M   'P 1'
_cell_length_a   5.30122679
_cell_length_b   7.91862738
_cell_length_c   8.20047485
_cell_angle_alpha   64.23617704
_cell_angle_beta   73.06912412
_cell_angle_gamma   85.71253454
_symmetry_Int_Tables_number   1
_chemical_formula_structural   Dy2CoTe2(SO7)2
_chemical_formula_sum   'Dy2 Co1 Te2 S2 O14'
_cell_volume   296.04872783
_cell_formula_units_Z   1
loop_
 _symmetry_equiv_pos_site_id
 _symmetry_equiv_pos_as_xyz
  1  'x, y, z'
loop_
 _atom_site_type_symbol
 _atom_site_label
 _atom_site_symmetry_multiplicity
 _atom_site_fract_x
 _atom_site_fract_y
 _atom_site_fract_z
 _atom_site_occupancy
  Dy  Dy0  1  0.91485746  0.74770722  0.98387013  1
  Dy  Dy1  1  0.08514254  0.25229278  0.01612987  1
  Co  Co2  1  -0.00000000  -0.00000000  0.50000000  1
  Te  Te3  1  0.48224566  0.72779551  0.66298050  1
  Te  Te4  1  0.51775434  0.27220449  0.33701950  1
  S  S5  1  0.23266255  0.75525796  0.24888755  1
  S  S6  1  0.76733745  0.24474204  0.75111245  1
  O  O7  1  0.09487821  0.59547113  0.25411594  1
  O  O8  1  0.90512179  0.40452887  0.74588406  1
  O  O9  1  0.13082404  0.77473694  0.42727514  1
  O  O10  1  0.86917596  0.22526306  0.57272486  1
  O  O11  1  0.52096655  0.72933229  0.21377094  1
  O  O12  1  0.47903345  0.27066771  0.78622906  1
  O  O13  1  0.17664694  0.92531876  0.08661366  1
  O  O14  1  0.82335306  0.07468124  0.91338634  1
  O  O15  1  0.24472710  0.56191784  0.89647300  1
  O  O16  1  0.75527290  0.43808216  0.10352700  1
  O  O17  1  0.72338465  0.80815336  0.75149426  1
  O  O18  1  0.27661535  0.19184664  0.24850574  1
  O  O19  1  0.24666360  0.92256187  0.66862193  1
  O  O20  1  0.75333640  0.07743813  0.33137807  1
