# generated using pymatgen
data_Eu5(ZrS4)3
_symmetry_space_group_name_H-M   'P 1'
_cell_length_a   3.91315509
_cell_length_b   11.72771415
_cell_length_c   11.72810149
_cell_angle_alpha   119.99890493
_cell_angle_beta   90.00000000
_cell_angle_gamma   90.00000000
_symmetry_Int_Tables_number   1
_chemical_formula_structural   Eu5(ZrS4)3
_chemical_formula_sum   'Eu5 Zr3 S12'
_cell_volume   466.12626167
_cell_formula_units_Z   1
loop_
 _symmetry_equiv_pos_site_id
 _symmetry_equiv_pos_as_xyz
  1  'x, y, z'
loop_
 _atom_site_type_symbol
 _atom_site_label
 _atom_site_symmetry_multiplicity
 _atom_site_fract_x
 _atom_site_fract_y
 _atom_site_fract_z
 _atom_site_occupancy
  Eu  Eu0  1  -0.00000000  0.71637694  1.00000000  1
  Eu  Eu1  1  0.00000000  0.28364743  0.28357482  1
  Eu  Eu2  1  -0.00000000  0.00007261  0.71642518  1
  Eu  Eu3  1  0.00000000  0.33316156  0.66630062  1
  Eu  Eu4  1  0.00000000  0.66686093  0.33369938  1
  Zr  Zr5  1  0.50000000  0.32644973  0.00000000  1
  Zr  Zr6  1  0.50000000  0.67350203  0.67361789  1
  Zr  Zr7  1  0.50000000  0.99988413  0.32638211  1
  S  S8  1  0.50000000  0.25216751  0.44715040  1
  S  S9  1  0.50000000  0.19513572  0.74785969  1
  S  S10  1  0.50000000  0.55268176  0.80491724  1
  S  S11  1  0.50000000  0.80501711  0.55284960  1
  S  S12  1  0.50000000  0.44727604  0.25214031  1
  S  S13  1  0.50000000  0.74776452  0.19508276  1
  S  S14  1  -0.00000000  0.17774112  0.00000000  1
  S  S15  1  -0.00000000  0.82214258  0.82212400  1
  S  S16  1  -0.00000000  0.00001858  0.17787600  1
  S  S17  1  -0.00000000  0.46874370  1.00000000  1
  S  S18  1  -0.00000000  0.53123102  0.53120604  1
  S  S19  1  0.00000000  0.00002498  0.46879396  1
