# generated using pymatgen
data_Zr5FeSb3
_symmetry_space_group_name_H-M   'P 1'
_cell_length_a   5.79895454
_cell_length_b   8.68210753
_cell_length_c   8.67339658
_cell_angle_alpha   120.03228629
_cell_angle_beta   90.00245640
_cell_angle_gamma   89.99009944
_symmetry_Int_Tables_number   1
_chemical_formula_structural   Zr5FeSb3
_chemical_formula_sum   'Zr10 Fe2 Sb6'
_cell_volume   378.05354027
_cell_formula_units_Z   2
loop_
 _symmetry_equiv_pos_site_id
 _symmetry_equiv_pos_as_xyz
  1  'x, y, z'
loop_
 _atom_site_type_symbol
 _atom_site_label
 _atom_site_symmetry_multiplicity
 _atom_site_fract_x
 _atom_site_fract_y
 _atom_site_fract_z
 _atom_site_occupancy
  Zr  Zr0  1  0.74984290  0.25566500  0.00000425  1
  Zr  Zr1  1  0.74985505  0.74459956  0.74486630  1
  Zr  Zr2  1  0.74998836  0.99975730  0.25513676  1
  Zr  Zr3  1  0.25015993  0.74432750  0.99998866  1
  Zr  Zr4  1  0.25014521  0.25542278  0.25516759  1
  Zr  Zr5  1  0.25001327  0.00023193  0.74483854  1
  Zr  Zr6  1  0.50000814  0.33341321  0.66667214  1
  Zr  Zr7  1  0.49999915  0.66657907  0.33332253  1
  Zr  Zr8  1  0.00000545  0.66679276  0.33341467  1
  Zr  Zr9  1  -0.00002584  0.33320230  0.66657865  1
  Fe  Fe10  1  0.50002382  0.00001468  0.00001815  1
  Fe  Fe11  1  -0.00000936  0.00000713  0.00000074  1
  Sb  Sb12  1  0.74994443  0.60903883  -0.00000575  1
  Sb  Sb13  1  0.74995658  0.39070589  0.39076005  1
  Sb  Sb14  1  0.75006702  -0.00009341  0.60921107  1
  Sb  Sb15  1  0.25005233  0.39094456  0.00000674  1
  Sb  Sb16  1  0.25003958  0.60930124  0.60924003  1
  Sb  Sb17  1  0.24993398  0.00008967  0.39077888  1
