# generated using pymatgen
data_Er8In3Co
_symmetry_space_group_name_H-M   'P 1'
_cell_length_a   6.91103834
_cell_length_b   10.29829571
_cell_length_c   10.29841406
_cell_angle_alpha   120.00175330
_cell_angle_beta   90.00000000
_cell_angle_gamma   90.00000000
_symmetry_Int_Tables_number   1
_chemical_formula_structural   Er8In3Co
_chemical_formula_sum   'Er16 In6 Co2'
_cell_volume   634.74891703
_cell_formula_units_Z   2
loop_
 _symmetry_equiv_pos_site_id
 _symmetry_equiv_pos_as_xyz
  1  'x, y, z'
loop_
 _atom_site_type_symbol
 _atom_site_label
 _atom_site_symmetry_multiplicity
 _atom_site_fract_x
 _atom_site_fract_y
 _atom_site_fract_z
 _atom_site_occupancy
  Er  Er0  1  0.20852967  0.46586692  0.53411948  1
  Er  Er1  1  0.20851676  0.06825924  0.53412421  1
  Er  Er2  1  0.20851906  0.46586383  0.93174684  1
  Er  Er3  1  0.70852967  0.53413308  0.46588052  1
  Er  Er4  1  0.70851676  0.93174076  0.46587579  1
  Er  Er5  1  0.70851906  0.53413617  0.06825316  1
  Er  Er6  1  0.49933413  0.17835214  0.82162691  1
  Er  Er7  1  0.49931949  0.64326748  0.82162157  1
  Er  Er8  1  0.49931236  0.17837609  0.35674438  1
  Er  Er9  1  0.99933413  0.82164786  0.17837309  1
  Er  Er10  1  0.99931949  0.35673252  0.17837843  1
  Er  Er11  1  0.99931236  0.82162391  0.64325562  1
  Er  Er12  1  0.81796520  0.33332380  0.66666734  1
  Er  Er13  1  0.31796520  0.66667620  0.33333266  1
  Er  Er14  1  0.22091991  0.00000459  0.00000495  1
  Er  Er15  1  0.72091991  0.99999541  -0.00000495  1
  In  In16  1  0.96308204  0.16326734  0.83674900  1
  In  In17  1  0.96307444  0.67349551  0.83674521  1
  In  In18  1  0.96310244  0.16327008  0.32652592  1
  In  In19  1  0.46308204  0.83673266  0.16325100  1
  In  In20  1  0.46307444  0.32650449  0.16325479  1
  In  In21  1  0.46310244  0.83672992  0.67347408  1
  Co  Co22  1  0.43032448  0.33332073  0.66666799  1
  Co  Co23  1  0.93032448  0.66667927  0.33333201  1
