# generated using pymatgen
data_Yb2CuGe6
_symmetry_space_group_name_H-M   'P 1'
_cell_length_a   5.78522875
_cell_length_b   5.78522875
_cell_length_c   10.96732475
_cell_angle_alpha   97.23052571
_cell_angle_beta   97.23052571
_cell_angle_gamma   91.52938786
_symmetry_Int_Tables_number   1
_chemical_formula_structural   Yb2CuGe6
_chemical_formula_sum   'Yb4 Cu2 Ge12'
_cell_volume   360.91176702
_cell_formula_units_Z   2
loop_
 _symmetry_equiv_pos_site_id
 _symmetry_equiv_pos_as_xyz
  1  'x, y, z'
loop_
 _atom_site_type_symbol
 _atom_site_label
 _atom_site_symmetry_multiplicity
 _atom_site_fract_x
 _atom_site_fract_y
 _atom_site_fract_z
 _atom_site_occupancy
  Yb  Yb0  1  0.33402194  0.83438088  0.33656983  1
  Yb  Yb1  1  0.83438088  0.33402194  0.33656983  1
  Yb  Yb2  1  0.66597806  0.16561912  0.66343017  1
  Yb  Yb3  1  0.16561912  0.66597806  0.66343017  1
  Cu  Cu4  1  0.30237906  0.30237906  0.21334853  1
  Cu  Cu5  1  0.69762094  0.69762094  0.78665147  1
  Ge  Ge6  1  0.00086017  0.00086017  0.11578275  1
  Ge  Ge7  1  0.99913983  0.99913983  0.88421725  1
  Ge  Ge8  1  0.55677348  0.55677348  0.11591245  1
  Ge  Ge9  1  0.44322652  0.44322652  0.88408755  1
  Ge  Ge10  1  0.85926425  0.85926425  0.41987652  1
  Ge  Ge11  1  0.14073575  0.14073575  0.58012348  1
  Ge  Ge12  1  0.35534536  0.35534536  0.43877206  1
  Ge  Ge13  1  0.64465464  0.64465464  0.56122794  1
  Ge  Ge14  1  0.55476230  0.00272422  0.11521648  1
  Ge  Ge15  1  0.00272422  0.55476230  0.11521648  1
  Ge  Ge16  1  0.44523770  0.99727578  0.88478352  1
  Ge  Ge17  1  0.99727578  0.44523770  0.88478352  1
