# generated using pymatgen
data_DyGePd
_symmetry_space_group_name_H-M   'P 1'
_cell_length_a   4.41449649
_cell_length_b   7.63555356
_cell_length_c   13.97329152
_cell_angle_alpha   90.00000000
_cell_angle_beta   90.00000000
_cell_angle_gamma   90.00000000
_symmetry_Int_Tables_number   1
_chemical_formula_structural   DyGePd
_chemical_formula_sum   'Dy8 Ge8 Pd8'
_cell_volume   470.99947540
_cell_formula_units_Z   8
loop_
 _symmetry_equiv_pos_site_id
 _symmetry_equiv_pos_as_xyz
  1  'x, y, z'
loop_
 _atom_site_type_symbol
 _atom_site_label
 _atom_site_symmetry_multiplicity
 _atom_site_fract_x
 _atom_site_fract_y
 _atom_site_fract_z
 _atom_site_occupancy
  Dy  Dy0  1  0.25000000  0.78599161  0.49889919  1
  Dy  Dy1  1  0.25000000  0.78599161  0.00110081  1
  Dy  Dy2  1  0.75000000  0.21400839  0.50110081  1
  Dy  Dy3  1  0.75000000  0.21400839  0.99889919  1
  Dy  Dy4  1  0.25000000  0.71074140  0.75000000  1
  Dy  Dy5  1  0.75000000  0.28925860  0.25000000  1
  Dy  Dy6  1  0.25000000  0.70396236  0.25000000  1
  Dy  Dy7  1  0.75000000  0.29603764  0.75000000  1
  Ge  Ge8  1  0.25000000  0.40939155  0.39338884  1
  Ge  Ge9  1  0.25000000  0.40939155  0.10661116  1
  Ge  Ge10  1  0.75000000  0.59060845  0.60661116  1
  Ge  Ge11  1  0.75000000  0.59060845  0.89338884  1
  Ge  Ge12  1  0.25000000  0.09006369  0.84798982  1
  Ge  Ge13  1  0.25000000  0.09006369  0.65201018  1
  Ge  Ge14  1  0.75000000  0.90993631  0.15201018  1
  Ge  Ge15  1  0.75000000  0.90993631  0.34798982  1
  Pd  Pd16  1  0.25000000  0.07713325  0.35852884  1
  Pd  Pd17  1  0.25000000  0.07713325  0.14147116  1
  Pd  Pd18  1  0.75000000  0.92286675  0.64147116  1
  Pd  Pd19  1  0.75000000  0.92286675  0.85852884  1
  Pd  Pd20  1  0.25000000  0.41859422  0.90399140  1
  Pd  Pd21  1  0.25000000  0.41859422  0.59600860  1
  Pd  Pd22  1  0.75000000  0.58140578  0.09600860  1
  Pd  Pd23  1  0.75000000  0.58140578  0.40399140  1
