# generated using pymatgen
data_CsTb2Ag3Te5
_symmetry_space_group_name_H-M   'P 1'
_cell_length_a   4.59453397
_cell_length_b   8.56760560
_cell_length_c   18.69965498
_cell_angle_alpha   90.00000000
_cell_angle_beta   90.00000000
_cell_angle_gamma   105.55326007
_symmetry_Int_Tables_number   1
_chemical_formula_structural   CsTb2Ag3Te5
_chemical_formula_sum   'Cs2 Tb4 Ag6 Te10'
_cell_volume   709.14147073
_cell_formula_units_Z   2
loop_
 _symmetry_equiv_pos_site_id
 _symmetry_equiv_pos_as_xyz
  1  'x, y, z'
loop_
 _atom_site_type_symbol
 _atom_site_label
 _atom_site_symmetry_multiplicity
 _atom_site_fract_x
 _atom_site_fract_y
 _atom_site_fract_z
 _atom_site_occupancy
  Cs  Cs0  1  0.44196770  0.88393540  0.25000000  1
  Cs  Cs1  1  0.55803230  0.11606460  0.75000000  1
  Tb  Tb2  1  0.30817879  0.61635757  0.90594071  1
  Tb  Tb3  1  0.69182121  0.38364243  0.09405929  1
  Tb  Tb4  1  0.30817879  0.61635757  0.59405929  1
  Tb  Tb5  1  0.69182121  0.38364243  0.40594071  1
  Ag  Ag6  1  0.15870250  0.31740501  0.25000000  1
  Ag  Ag7  1  0.84129750  0.68259499  0.75000000  1
  Ag  Ag8  1  0.91668434  0.83336869  0.46565668  1
  Ag  Ag9  1  0.08331566  0.16663131  0.53434332  1
  Ag  Ag10  1  0.91668434  0.83336869  0.03434332  1
  Ag  Ag11  1  0.08331566  0.16663131  0.96565668  1
  Te  Te12  1  0.93559103  0.87118205  0.88177593  1
  Te  Te13  1  0.06440897  0.12881795  0.11822407  1
  Te  Te14  1  0.93559103  0.87118205  0.61822407  1
  Te  Te15  1  0.06440897  0.12881795  0.38177593  1
  Te  Te16  1  0.32289631  0.64579262  0.42842719  1
  Te  Te17  1  0.67710369  0.35420738  0.57157281  1
  Te  Te18  1  0.32289631  0.64579262  0.07157281  1
  Te  Te19  1  0.67710369  0.35420738  0.92842719  1
  Te  Te20  1  0.75423444  0.50846887  0.25000000  1
  Te  Te21  1  0.24576556  0.49153113  0.75000000  1
