# generated using pymatgen
data_NbS3
_symmetry_space_group_name_H-M   'P 1'
_cell_length_a   3.38075775
_cell_length_b   9.81880069
_cell_length_c   14.99522537
_cell_angle_alpha   108.53090496
_cell_angle_beta   90.00000000
_cell_angle_gamma   90.00000000
_symmetry_Int_Tables_number   1
_chemical_formula_structural   NbS3
_chemical_formula_sum   'Nb6 S18'
_cell_volume   471.95829837
_cell_formula_units_Z   6
loop_
 _symmetry_equiv_pos_site_id
 _symmetry_equiv_pos_as_xyz
  1  'x, y, z'
loop_
 _atom_site_type_symbol
 _atom_site_label
 _atom_site_symmetry_multiplicity
 _atom_site_fract_x
 _atom_site_fract_y
 _atom_site_fract_z
 _atom_site_occupancy
  Nb  Nb0  1  0.25000000  0.52698776  0.88337591  1
  Nb  Nb1  1  0.75000000  0.47301224  0.11662409  1
  Nb  Nb2  1  0.75000000  0.11226246  0.79386859  1
  Nb  Nb3  1  0.25000000  0.88773754  0.20613141  1
  Nb  Nb4  1  0.25000000  0.84026266  0.54000404  1
  Nb  Nb5  1  0.75000000  0.15973734  0.45999596  1
  S  S6  1  0.75000000  0.72976910  0.90411445  1
  S  S7  1  0.25000000  0.27023090  0.09588555  1
  S  S8  1  0.75000000  0.57291925  0.76944945  1
  S  S9  1  0.25000000  0.42708075  0.23055055  1
  S  S10  1  0.75000000  0.66561263  0.56816822  1
  S  S11  1  0.25000000  0.33438737  0.43183178  1
  S  S12  1  0.75000000  0.67422381  0.43143864  1
  S  S13  1  0.25000000  0.32577619  0.56856136  1
  S  S14  1  0.75000000  0.37523637  0.93390772  1
  S  S15  1  0.25000000  0.62476363  0.06609228  1
  S  S16  1  0.25000000  0.09080187  0.91050367  1
  S  S17  1  0.75000000  0.90919813  0.08949633  1
  S  S18  1  0.25000000  0.91184307  0.72214951  1
  S  S19  1  0.75000000  0.08815693  0.27785049  1
  S  S20  1  0.25000000  0.27696460  0.75198435  1
  S  S21  1  0.75000000  0.72303540  0.24801565  1
  S  S22  1  0.75000000  0.04044314  0.59438356  1
  S  S23  1  0.25000000  0.95955686  0.40561644  1
