# generated using pymatgen
data_CaSeO4
_symmetry_space_group_name_H-M   'P 1'
_cell_length_a   6.45371694
_cell_length_b   7.33152848
_cell_length_c   8.22504387
_cell_angle_alpha   116.46706084
_cell_angle_beta   90.00000000
_cell_angle_gamma   90.00000000
_symmetry_Int_Tables_number   1
_chemical_formula_structural   CaSeO4
_chemical_formula_sum   'Ca4 Se4 O16'
_cell_volume   348.38403063
_cell_formula_units_Z   4
loop_
 _symmetry_equiv_pos_site_id
 _symmetry_equiv_pos_as_xyz
  1  'x, y, z'
loop_
 _atom_site_type_symbol
 _atom_site_label
 _atom_site_symmetry_multiplicity
 _atom_site_fract_x
 _atom_site_fract_y
 _atom_site_fract_z
 _atom_site_occupancy
  Ca  Ca0  1  0.12141008  0.12472387  0.24944774  1
  Ca  Ca1  1  0.87858992  0.87527613  0.75055226  1
  Ca  Ca2  1  0.62141008  0.37527613  0.75055226  1
  Ca  Ca3  1  0.37858992  0.62472387  0.24944774  1
  Se  Se4  1  0.11659850  0.37613442  0.75226884  1
  Se  Se5  1  0.88340150  0.62386558  0.24773116  1
  Se  Se6  1  0.61659850  0.12386558  0.24773116  1
  Se  Se7  1  0.38340150  0.87613442  0.75226884  1
  O  O8  1  0.25849166  0.28105941  0.56211881  1
  O  O9  1  0.74150834  0.71894059  0.43788119  1
  O  O10  1  0.75849166  0.21894059  0.43788119  1
  O  O11  1  0.24150834  0.78105941  0.56211881  1
  O  O12  1  0.29386363  0.45927730  0.91855459  1
  O  O13  1  0.70613637  0.54072270  0.08144541  1
  O  O14  1  0.79386363  0.04072270  0.08144541  1
  O  O15  1  0.20613637  0.95927730  0.91855459  1
  O  O16  1  0.95447497  0.55846581  0.76179752  1
  O  O17  1  0.04552503  0.79666829  0.23820248  1
  O  O18  1  0.45447497  0.29666829  0.23820248  1
  O  O19  1  0.54552503  0.05846581  0.76179752  1
  O  O20  1  0.04552503  0.44153419  0.23820248  1
  O  O21  1  0.95447497  0.20333171  0.76179752  1
  O  O22  1  0.54552503  0.70333171  0.76179752  1
  O  O23  1  0.45447497  0.94153419  0.23820248  1
