# generated using pymatgen
data_RbSm2Ag3Te5
_symmetry_space_group_name_H-M   'P 1'
_cell_length_a   4.63388837
_cell_length_b   8.48058173
_cell_length_c   18.71028692
_cell_angle_alpha   90.00000000
_cell_angle_beta   90.00000000
_cell_angle_gamma   105.85512050
_symmetry_Int_Tables_number   1
_chemical_formula_structural   RbSm2Ag3Te5
_chemical_formula_sum   'Rb2 Sm4 Ag6 Te10'
_cell_volume   707.30493515
_cell_formula_units_Z   2
loop_
 _symmetry_equiv_pos_site_id
 _symmetry_equiv_pos_as_xyz
  1  'x, y, z'
loop_
 _atom_site_type_symbol
 _atom_site_label
 _atom_site_symmetry_multiplicity
 _atom_site_fract_x
 _atom_site_fract_y
 _atom_site_fract_z
 _atom_site_occupancy
  Rb  Rb0  1  0.44183016  0.88366032  0.25000000  1
  Rb  Rb1  1  0.55816984  0.11633968  0.75000000  1
  Sm  Sm2  1  0.30973140  0.61946279  0.90597663  1
  Sm  Sm3  1  0.69026860  0.38053721  0.09402337  1
  Sm  Sm4  1  0.30973140  0.61946279  0.59402337  1
  Sm  Sm5  1  0.69026860  0.38053721  0.40597663  1
  Ag  Ag6  1  0.16398514  0.32797029  0.25000000  1
  Ag  Ag7  1  0.83601486  0.67202971  0.75000000  1
  Ag  Ag8  1  0.91374218  0.82748435  0.47116936  1
  Ag  Ag9  1  0.08625782  0.17251565  0.52883064  1
  Ag  Ag10  1  0.91374218  0.82748435  0.02883064  1
  Ag  Ag11  1  0.08625782  0.17251565  0.97116936  1
  Te  Te12  1  0.93989349  0.87978699  0.87771966  1
  Te  Te13  1  0.06010651  0.12021301  0.12228034  1
  Te  Te14  1  0.93989349  0.87978699  0.62228034  1
  Te  Te15  1  0.06010651  0.12021301  0.37771966  1
  Te  Te16  1  0.67379087  0.34758173  0.92673511  1
  Te  Te17  1  0.32620913  0.65241827  0.07326489  1
  Te  Te18  1  0.67379087  0.34758173  0.57326489  1
  Te  Te19  1  0.32620913  0.65241827  0.42673511  1
  Te  Te20  1  0.76047212  0.52094423  0.25000000  1
  Te  Te21  1  0.23952788  0.47905577  0.75000000  1
