# generated using pymatgen
data_BaCdAs2O7
_symmetry_space_group_name_H-M   'P 1'
_cell_length_a   5.92347620
_cell_length_b   7.47071913
_cell_length_c   7.90110194
_cell_angle_alpha   100.57598060
_cell_angle_beta   90.72317093
_cell_angle_gamma   97.34879001
_symmetry_Int_Tables_number   1
_chemical_formula_structural   BaCdAs2O7
_chemical_formula_sum   'Ba2 Cd2 As4 O14'
_cell_volume   340.64791811
_cell_formula_units_Z   2
loop_
 _symmetry_equiv_pos_site_id
 _symmetry_equiv_pos_as_xyz
  1  'x, y, z'
loop_
 _atom_site_type_symbol
 _atom_site_label
 _atom_site_symmetry_multiplicity
 _atom_site_fract_x
 _atom_site_fract_y
 _atom_site_fract_z
 _atom_site_occupancy
  Ba  Ba0  1  0.70195647  0.27521489  0.93040451  1
  Ba  Ba1  1  0.29804353  0.72478511  0.06959549  1
  Cd  Cd2  1  0.31249741  0.83642105  0.60310522  1
  Cd  Cd3  1  0.68750259  0.16357895  0.39689478  1
  As  As4  1  0.81338763  0.77619430  0.81301033  1
  As  As5  1  0.18661237  0.22380570  0.18698967  1
  As  As6  1  0.78926443  0.66916358  0.39978296  1
  As  As7  1  0.21073557  0.33083642  0.60021704  1
  O  O8  1  0.94079838  0.22904815  0.62385310  1
  O  O9  1  0.05920162  0.77095185  0.37614690  1
  O  O10  1  0.78581417  0.64525979  0.96788616  1
  O  O11  1  0.21418583  0.35474021  0.03211384  1
  O  O12  1  0.78152198  0.61475966  0.61290665  1
  O  O13  1  0.21847802  0.38524034  0.38709335  1
  O  O14  1  0.59363414  0.90624869  0.81794083  1
  O  O15  1  0.40636586  0.09375131  0.18205917  1
  O  O16  1  0.59009273  0.81893324  0.39072334  1
  O  O17  1  0.40990727  0.18106676  0.60927666  1
  O  O18  1  0.28490282  0.54242008  0.72220686  1
  O  O19  1  0.71509718  0.45757992  0.27779314  1
  O  O20  1  0.07696670  0.90078320  0.82480703  1
  O  O21  1  0.92303330  0.09921680  0.17519297  1
