# generated using pymatgen
data_TcCl3
_symmetry_space_group_name_H-M   'P 1'
_cell_length_a   9.21016778
_cell_length_b   9.21016778
_cell_length_c   9.21016786
_cell_angle_alpha   69.35019653
_cell_angle_beta   69.35019653
_cell_angle_gamma   69.35020168
_symmetry_Int_Tables_number   1
_chemical_formula_structural   TcCl3
_chemical_formula_sum   'Tc6 Cl18'
_cell_volume   660.45014004
_cell_formula_units_Z   6
loop_
 _symmetry_equiv_pos_site_id
 _symmetry_equiv_pos_as_xyz
  1  'x, y, z'
loop_
 _atom_site_type_symbol
 _atom_site_label
 _atom_site_symmetry_multiplicity
 _atom_site_fract_x
 _atom_site_fract_y
 _atom_site_fract_z
 _atom_site_occupancy
  Tc  Tc0  1  0.14731172  0.38007129  0.14731773  1
  Tc  Tc1  1  0.38007129  0.14731773  0.14731172  1
  Tc  Tc2  1  0.14731773  0.14731172  0.38007129  1
  Tc  Tc3  1  0.85268828  0.61992871  0.85268227  1
  Tc  Tc4  1  0.61992871  0.85268227  0.85268828  1
  Tc  Tc5  1  0.85268227  0.85268828  0.61992871  1
  Cl  Cl6  1  0.91900545  0.37610998  0.37612494  1
  Cl  Cl7  1  0.37610998  0.37612494  0.91900545  1
  Cl  Cl8  1  0.37612494  0.91900545  0.37610998  1
  Cl  Cl9  1  0.08099455  0.62389002  0.62387506  1
  Cl  Cl10  1  0.62389002  0.62387506  0.08099455  1
  Cl  Cl11  1  0.62387506  0.08099455  0.62389002  1
  Cl  Cl12  1  0.00675397  0.32621753  0.00675751  1
  Cl  Cl13  1  0.32621753  0.00675751  0.00675397  1
  Cl  Cl14  1  0.00675751  0.00675397  0.32621753  1
  Cl  Cl15  1  0.99324603  0.67378247  0.99324249  1
  Cl  Cl16  1  0.67378247  0.99324249  0.99324603  1
  Cl  Cl17  1  0.99324249  0.99324603  0.67378247  1
  Cl  Cl18  1  0.22888000  0.53458343  0.22888187  1
  Cl  Cl19  1  0.53458343  0.22888187  0.22888000  1
  Cl  Cl20  1  0.22888187  0.22888000  0.53458343  1
  Cl  Cl21  1  0.77112000  0.46541657  0.77111813  1
  Cl  Cl22  1  0.46541657  0.77111813  0.77112000  1
  Cl  Cl23  1  0.77111813  0.77112000  0.46541657  1
