# generated using pymatgen
data_Sc5(In2Co)2
_symmetry_space_group_name_H-M   'P 1'
_cell_length_a   3.33546324
_cell_length_b   7.61224607
_cell_length_c   17.36402246
_cell_angle_alpha   90.00000000
_cell_angle_beta   90.00000000
_cell_angle_gamma   90.00000000
_symmetry_Int_Tables_number   1
_chemical_formula_structural   Sc5(In2Co)2
_chemical_formula_sum   'Sc10 In8 Co4'
_cell_volume   440.87890182
_cell_formula_units_Z   2
loop_
 _symmetry_equiv_pos_site_id
 _symmetry_equiv_pos_as_xyz
  1  'x, y, z'
loop_
 _atom_site_type_symbol
 _atom_site_label
 _atom_site_symmetry_multiplicity
 _atom_site_fract_x
 _atom_site_fract_y
 _atom_site_fract_z
 _atom_site_occupancy
  Sc  Sc0  1  0.50000000  0.50000000  0.50000000  1
  Sc  Sc1  1  0.50000000  0.00000000  0.00000000  1
  Sc  Sc2  1  0.50000000  0.87678292  0.41097057  1
  Sc  Sc3  1  0.50000000  0.12321708  0.58902943  1
  Sc  Sc4  1  0.50000000  0.62321708  0.91097057  1
  Sc  Sc5  1  0.50000000  0.37678292  0.08902943  1
  Sc  Sc6  1  0.50000000  0.24575472  0.27874842  1
  Sc  Sc7  1  0.50000000  0.75424528  0.72125158  1
  Sc  Sc8  1  0.50000000  0.25424528  0.77874842  1
  Sc  Sc9  1  0.50000000  0.74575472  0.22125158  1
  In  In10  1  0.00000000  0.20056687  0.43209821  1
  In  In11  1  -0.00000000  0.79943313  0.56790179  1
  In  In12  1  -0.00000000  0.29943313  0.93209821  1
  In  In13  1  -0.00000000  0.70056687  0.06790179  1
  In  In14  1  -0.00000000  0.56958424  0.34781386  1
  In  In15  1  -0.00000000  0.43041576  0.65218614  1
  In  In16  1  0.00000000  0.93041576  0.84781386  1
  In  In17  1  -0.00000000  0.06958424  0.15218614  1
  Co  Co18  1  0.00000000  0.96291798  0.30607201  1
  Co  Co19  1  0.00000000  0.03708202  0.69392799  1
  Co  Co20  1  0.00000000  0.53708202  0.80607201  1
  Co  Co21  1  0.00000000  0.46291798  0.19392799  1
