# generated using pymatgen
data_Gd3B7W
_symmetry_space_group_name_H-M   'P 1'
_cell_length_a   3.48996043
_cell_length_b   8.25697983
_cell_length_c   9.52128383
_cell_angle_alpha   90.00000000
_cell_angle_beta   90.00000000
_cell_angle_gamma   102.20054054
_symmetry_Int_Tables_number   1
_chemical_formula_structural   Gd3B7W
_chemical_formula_sum   'Gd6 B14 W2'
_cell_volume   268.17343157
_cell_formula_units_Z   2
loop_
 _symmetry_equiv_pos_site_id
 _symmetry_equiv_pos_as_xyz
  1  'x, y, z'
loop_
 _atom_site_type_symbol
 _atom_site_label
 _atom_site_symmetry_multiplicity
 _atom_site_fract_x
 _atom_site_fract_y
 _atom_site_fract_z
 _atom_site_occupancy
  Gd  Gd0  1  0.10672628  0.21345256  0.43855172  1
  Gd  Gd1  1  0.89327372  0.78654744  0.56144828  1
  Gd  Gd2  1  0.10672628  0.21345256  0.06144828  1
  Gd  Gd3  1  0.89327372  0.78654744  0.93855172  1
  Gd  Gd4  1  0.75639443  0.51278885  0.25000000  1
  Gd  Gd5  1  0.24360557  0.48721115  0.75000000  1
  B  B6  1  0.27294424  0.54588848  0.46782086  1
  B  B7  1  0.72705576  0.45411152  0.53217914  1
  B  B8  1  0.27294424  0.54588848  0.03217914  1
  B  B9  1  0.72705576  0.45411152  0.96782086  1
  B  B10  1  0.36561808  0.73123616  0.14736782  1
  B  B11  1  0.63438192  0.26876384  0.85263218  1
  B  B12  1  0.36561808  0.73123616  0.35263218  1
  B  B13  1  0.63438192  0.26876384  0.64736782  1
  B  B14  1  0.47949657  0.95899314  0.09211211  1
  B  B15  1  0.52050343  0.04100686  0.90788789  1
  B  B16  1  0.47949657  0.95899314  0.40788789  1
  B  B17  1  0.52050343  0.04100686  0.59211211  1
  B  B18  1  0.54168106  0.08336213  0.25000000  1
  B  B19  1  0.45831894  0.91663787  0.75000000  1
  W  W20  1  0.94624561  0.89249122  0.25000000  1
  W  W21  1  0.05375439  0.10750878  0.75000000  1
