# generated using pymatgen
data_Er2Fe12P7
_symmetry_space_group_name_H-M   'P 1'
_cell_length_a   3.63347470
_cell_length_b   8.95352447
_cell_length_c   8.95093957
_cell_angle_alpha   120.05990353
_cell_angle_beta   90.00000000
_cell_angle_gamma   90.00000000
_symmetry_Int_Tables_number   1
_chemical_formula_structural   Er2Fe12P7
_chemical_formula_sum   'Er2 Fe12 P7'
_cell_volume   252.03041434
_cell_formula_units_Z   1
loop_
 _symmetry_equiv_pos_site_id
 _symmetry_equiv_pos_as_xyz
  1  'x, y, z'
loop_
 _atom_site_type_symbol
 _atom_site_label
 _atom_site_symmetry_multiplicity
 _atom_site_fract_x
 _atom_site_fract_y
 _atom_site_fract_z
 _atom_site_occupancy
  Er  Er0  1  -0.00000000  0.66707022  0.33355458  1
  Er  Er1  1  0.50000000  0.33293989  0.66651940  1
  Fe  Fe2  1  -0.00000000  0.37185850  0.94433672  1
  Fe  Fe3  1  -0.00000000  0.05557424  0.42726051  1
  Fe  Fe4  1  -0.00000000  0.57229751  0.62784409  1
  Fe  Fe5  1  0.00000000  0.88089544  0.72460785  1
  Fe  Fe6  1  0.00000000  0.27578931  0.15667951  1
  Fe  Fe7  1  -0.00000000  0.84359307  0.11937882  1
  Fe  Fe8  1  0.50000000  0.95177851  0.56758661  1
  Fe  Fe9  1  0.50000000  0.43212083  0.38413175  1
  Fe  Fe10  1  0.50000000  0.61611518  0.04822629  1
  Fe  Fe11  1  0.50000000  0.12029316  0.90432243  1
  Fe  Fe12  1  0.50000000  0.09539875  0.21584649  1
  Fe  Fe13  1  0.50000000  0.78411813  0.87977655  1
  P  P14  1  -0.00000000  0.11509762  0.70344681  1
  P  P15  1  -0.00000000  0.29575827  0.41152443  1
  P  P16  1  -0.00000000  0.58814273  0.88433471  1
  P  P17  1  0.50000000  0.71076463  0.59786347  1
  P  P18  1  0.50000000  0.40244262  0.11248373  1
  P  P19  1  0.50000000  0.88785434  0.29005808  1
  P  P20  1  0.00000000  0.00009706  0.00021715  1
