# generated using pymatgen
data_Ga9Rh2
_symmetry_space_group_name_H-M   'P 1'
_cell_length_a   6.47251394
_cell_length_b   6.39641160
_cell_length_c   8.99635234
_cell_angle_alpha   90.00000000
_cell_angle_beta   93.37679796
_cell_angle_gamma   90.00000000
_symmetry_Int_Tables_number   1
_chemical_formula_structural   Ga9Rh2
_chemical_formula_sum   'Ga18 Rh4'
_cell_volume   371.81007958
_cell_formula_units_Z   2
loop_
 _symmetry_equiv_pos_site_id
 _symmetry_equiv_pos_as_xyz
  1  'x, y, z'
loop_
 _atom_site_type_symbol
 _atom_site_label
 _atom_site_symmetry_multiplicity
 _atom_site_fract_x
 _atom_site_fract_y
 _atom_site_fract_z
 _atom_site_occupancy
  Ga  Ga0  1  0.00000000  0.50000000  0.50000000  1
  Ga  Ga1  1  0.00000000  -0.00000000  -0.00000000  1
  Ga  Ga2  1  0.59962428  0.48161895  0.23320113  1
  Ga  Ga3  1  0.40037572  0.98161895  0.26679887  1
  Ga  Ga4  1  0.40037572  0.51838105  0.76679887  1
  Ga  Ga5  1  0.59962428  0.01838105  0.73320113  1
  Ga  Ga6  1  0.90037692  0.78192144  0.27332748  1
  Ga  Ga7  1  0.09962308  0.28192144  0.22667252  1
  Ga  Ga8  1  0.09962308  0.21807856  0.72667252  1
  Ga  Ga9  1  0.90037692  0.71807856  0.77332748  1
  Ga  Ga10  1  0.61169060  0.70153651  0.50050686  1
  Ga  Ga11  1  0.38830940  0.20153651  0.99949314  1
  Ga  Ga12  1  0.38830940  0.29846349  0.49949314  1
  Ga  Ga13  1  0.61169060  0.79846349  0.00050686  1
  Ga  Ga14  1  0.78572974  0.10394889  0.45730345  1
  Ga  Ga15  1  0.21427026  0.60394889  0.04269655  1
  Ga  Ga16  1  0.21427026  0.89605111  0.54269655  1
  Ga  Ga17  1  0.78572974  0.39605111  0.95730345  1
  Rh  Rh18  1  0.73867446  0.12293379  0.16719321  1
  Rh  Rh19  1  0.26132554  0.62293379  0.33280679  1
  Rh  Rh20  1  0.26132554  0.87706621  0.83280679  1
  Rh  Rh21  1  0.73867446  0.37706621  0.66719321  1
