# generated using pymatgen
data_Ba3GdInS6
_symmetry_space_group_name_H-M   'P 1'
_cell_length_a   8.47182087
_cell_length_b   8.47182087
_cell_length_c   8.47182163
_cell_angle_alpha   92.69303038
_cell_angle_beta   92.69303038
_cell_angle_gamma   92.69303005
_symmetry_Int_Tables_number   1
_chemical_formula_structural   Ba3GdInS6
_chemical_formula_sum   'Ba6 Gd2 In2 S12'
_cell_volume   605.95738679
_cell_formula_units_Z   2
loop_
 _symmetry_equiv_pos_site_id
 _symmetry_equiv_pos_as_xyz
  1  'x, y, z'
loop_
 _atom_site_type_symbol
 _atom_site_label
 _atom_site_symmetry_multiplicity
 _atom_site_fract_x
 _atom_site_fract_y
 _atom_site_fract_z
 _atom_site_occupancy
  Ba  Ba0  1  0.63089106  0.86910894  0.25000000  1
  Ba  Ba1  1  0.86910894  0.25000000  0.63089106  1
  Ba  Ba2  1  0.25000000  0.63089106  0.86910894  1
  Ba  Ba3  1  0.13089106  0.75000000  0.36910894  1
  Ba  Ba4  1  0.75000000  0.36910894  0.13089106  1
  Ba  Ba5  1  0.36910894  0.13089106  0.75000000  1
  Gd  Gd6  1  0.25000000  0.25000000  0.25000000  1
  Gd  Gd7  1  0.75000000  0.75000000  0.75000000  1
  In  In8  1  0.50000000  0.50000000  0.50000000  1
  In  In9  1  0.00000000  -0.00000000  0.00000000  1
  S  S10  1  0.53892149  0.19995564  0.41039775  1
  S  S11  1  0.19995564  0.41039775  0.53892149  1
  S  S12  1  0.41039775  0.53892149  0.19995564  1
  S  S13  1  0.03892149  0.91039775  0.69995564  1
  S  S14  1  0.91039775  0.69995564  0.03892149  1
  S  S15  1  0.69995564  0.03892149  0.91039775  1
  S  S16  1  0.46107851  0.80004436  0.58960225  1
  S  S17  1  0.80004436  0.58960225  0.46107851  1
  S  S18  1  0.58960225  0.46107851  0.80004436  1
  S  S19  1  0.96107851  0.08960225  0.30004436  1
  S  S20  1  0.08960225  0.30004436  0.96107851  1
  S  S21  1  0.30004436  0.96107851  0.08960225  1
