# generated using pymatgen
data_Al3Fe2Si
_symmetry_space_group_name_H-M   'P 1'
_cell_length_a   7.59865985
_cell_length_b   7.59865985
_cell_length_c   7.59865985
_cell_angle_alpha   60.00000000
_cell_angle_beta   60.00000000
_cell_angle_gamma   60.00000000
_symmetry_Int_Tables_number   1
_chemical_formula_structural   Al3Fe2Si
_chemical_formula_sum   'Al12 Fe8 Si4'
_cell_volume   310.23873052
_cell_formula_units_Z   4
loop_
 _symmetry_equiv_pos_site_id
 _symmetry_equiv_pos_as_xyz
  1  'x, y, z'
loop_
 _atom_site_type_symbol
 _atom_site_label
 _atom_site_symmetry_multiplicity
 _atom_site_fract_x
 _atom_site_fract_y
 _atom_site_fract_z
 _atom_site_occupancy
  Al  Al0  1  0.42523337  0.82476663  0.82476663  1
  Al  Al1  1  0.82476663  0.42523337  0.42523337  1
  Al  Al2  1  0.82476663  0.42523337  0.82476663  1
  Al  Al3  1  0.42523337  0.82476663  0.42523337  1
  Al  Al4  1  0.82476663  0.82476663  0.42523337  1
  Al  Al5  1  0.42523337  0.42523337  0.82476663  1
  Al  Al6  1  0.57476663  0.17523337  0.17523337  1
  Al  Al7  1  0.17523337  0.57476663  0.57476663  1
  Al  Al8  1  0.17523337  0.57476663  0.17523337  1
  Al  Al9  1  0.57476663  0.17523337  0.57476663  1
  Al  Al10  1  0.17523337  0.17523337  0.57476663  1
  Al  Al11  1  0.57476663  0.57476663  0.17523337  1
  Fe  Fe12  1  0.21493812  0.21493812  0.85518563  1
  Fe  Fe13  1  0.21493812  0.85518563  0.21493812  1
  Fe  Fe14  1  0.85518563  0.21493812  0.21493812  1
  Fe  Fe15  1  0.21493812  0.21493812  0.21493812  1
  Fe  Fe16  1  0.78506188  0.78506188  0.14481437  1
  Fe  Fe17  1  0.78506188  0.14481437  0.78506188  1
  Fe  Fe18  1  0.14481437  0.78506188  0.78506188  1
  Fe  Fe19  1  0.78506188  0.78506188  0.78506188  1
  Si  Si20  1  -0.00000000  0.00000000  0.50000000  1
  Si  Si21  1  -0.00000000  0.50000000  0.00000000  1
  Si  Si22  1  0.50000000  0.00000000  0.00000000  1
  Si  Si23  1  -0.00000000  0.00000000  0.00000000  1
