# generated using pymatgen
data_Tm5(In2Ni)2
_symmetry_space_group_name_H-M   'P 1'
_cell_length_a   3.52048594
_cell_length_b   7.97747226
_cell_length_c   17.82575418
_cell_angle_alpha   90.00000000
_cell_angle_beta   90.00000000
_cell_angle_gamma   90.00000000
_symmetry_Int_Tables_number   1
_chemical_formula_structural   Tm5(In2Ni)2
_chemical_formula_sum   'Tm10 In8 Ni4'
_cell_volume   500.62880022
_cell_formula_units_Z   2
loop_
 _symmetry_equiv_pos_site_id
 _symmetry_equiv_pos_as_xyz
  1  'x, y, z'
loop_
 _atom_site_type_symbol
 _atom_site_label
 _atom_site_symmetry_multiplicity
 _atom_site_fract_x
 _atom_site_fract_y
 _atom_site_fract_z
 _atom_site_occupancy
  Tm  Tm0  1  -0.00000000  0.50000000  0.50000000  1
  Tm  Tm1  1  -0.00000000  0.00000000  -0.00000000  1
  Tm  Tm2  1  0.00000000  0.74571703  0.27861299  1
  Tm  Tm3  1  0.00000000  0.25428297  0.72138701  1
  Tm  Tm4  1  -0.00000000  0.75428297  0.77861299  1
  Tm  Tm5  1  -0.00000000  0.24571703  0.22138701  1
  Tm  Tm6  1  -0.00000000  0.61780808  0.08737073  1
  Tm  Tm7  1  -0.00000000  0.38219192  0.91262927  1
  Tm  Tm8  1  0.00000000  0.88219192  0.58737073  1
  Tm  Tm9  1  0.00000000  0.11780808  0.41262927  1
  In  In10  1  0.50000000  0.70582090  0.93041506  1
  In  In11  1  0.50000000  0.29417910  0.06958494  1
  In  In12  1  0.50000000  0.79417910  0.43041506  1
  In  In13  1  0.50000000  0.20582090  0.56958494  1
  In  In14  1  0.50000000  0.57322859  0.65191008  1
  In  In15  1  0.50000000  0.42677141  0.34808992  1
  In  In16  1  0.50000000  0.92677141  0.15191008  1
  In  In17  1  0.50000000  0.07322859  0.84808992  1
  Ni  Ni18  1  0.50000000  0.52464845  0.19536149  1
  Ni  Ni19  1  0.50000000  0.47535155  0.80463851  1
  Ni  Ni20  1  0.50000000  0.97535155  0.69536149  1
  Ni  Ni21  1  0.50000000  0.02464845  0.30463851  1
