# generated using pymatgen
data_GdRh3
_symmetry_space_group_name_H-M   'P 1'
_cell_length_a   5.27336714
_cell_length_b   5.27336714
_cell_length_c   17.61948045
_cell_angle_alpha   90.00000000
_cell_angle_beta   90.00000000
_cell_angle_gamma   119.98488407
_symmetry_Int_Tables_number   1
_chemical_formula_structural   GdRh3
_chemical_formula_sum   'Gd6 Rh18'
_cell_volume   424.39071940
_cell_formula_units_Z   6
loop_
 _symmetry_equiv_pos_site_id
 _symmetry_equiv_pos_as_xyz
  1  'x, y, z'
loop_
 _atom_site_type_symbol
 _atom_site_label
 _atom_site_symmetry_multiplicity
 _atom_site_fract_x
 _atom_site_fract_y
 _atom_site_fract_z
 _atom_site_occupancy
  Gd  Gd0  1  0.66669191  0.33330809  0.04193298  1
  Gd  Gd1  1  0.33330809  0.66669191  0.95806702  1
  Gd  Gd2  1  0.33330809  0.66669191  0.54193298  1
  Gd  Gd3  1  0.66669191  0.33330809  0.45806702  1
  Gd  Gd4  1  0.66668743  0.33331257  0.25000000  1
  Gd  Gd5  1  0.33331257  0.66668743  0.75000000  1
  Rh  Rh6  1  0.83292469  0.66590640  0.62656273  1
  Rh  Rh7  1  0.83294778  0.16705222  0.62654593  1
  Rh  Rh8  1  0.33409360  0.16707531  0.62656273  1
  Rh  Rh9  1  0.16707531  0.33409360  0.37343727  1
  Rh  Rh10  1  0.16705222  0.83294778  0.37345407  1
  Rh  Rh11  1  0.66590640  0.83292469  0.37343727  1
  Rh  Rh12  1  0.16707531  0.33409360  0.12656273  1
  Rh  Rh13  1  0.16705222  0.83294778  0.12654593  1
  Rh  Rh14  1  0.66590640  0.83292469  0.12656273  1
  Rh  Rh15  1  0.83292469  0.66590640  0.87343727  1
  Rh  Rh16  1  0.83294778  0.16705222  0.87345407  1
  Rh  Rh17  1  0.33409360  0.16707531  0.87343727  1
  Rh  Rh18  1  0.66670720  0.33329280  0.75000000  1
  Rh  Rh19  1  0.33329280  0.66670720  0.25000000  1
  Rh  Rh20  1  0.99999729  0.00000271  0.75000000  1
  Rh  Rh21  1  0.00000271  0.99999729  0.25000000  1
  Rh  Rh22  1  0.00000000  0.00000000  0.50000000  1
  Rh  Rh23  1  -0.00000000  -0.00000000  0.00000000  1
