# generated using pymatgen
data_Tb3OsO7
_symmetry_space_group_name_H-M   'P 1'
_cell_length_a   6.50949322
_cell_length_b   6.50949322
_cell_length_c   7.41072854
_cell_angle_alpha   90.00000000
_cell_angle_beta   90.00000000
_cell_angle_gamma   110.02538728
_symmetry_Int_Tables_number   1
_chemical_formula_structural   Tb3OsO7
_chemical_formula_sum   'Tb6 Os2 O14'
_cell_volume   295.03326902
_cell_formula_units_Z   2
loop_
 _symmetry_equiv_pos_site_id
 _symmetry_equiv_pos_as_xyz
  1  'x, y, z'
loop_
 _atom_site_type_symbol
 _atom_site_label
 _atom_site_symmetry_multiplicity
 _atom_site_fract_x
 _atom_site_fract_y
 _atom_site_fract_z
 _atom_site_occupancy
  Tb  Tb0  1  0.00000000  -0.00000000  0.50000000  1
  Tb  Tb1  1  0.00000000  -0.00000000  0.00000000  1
  Tb  Tb2  1  0.05317301  0.51974661  0.25000000  1
  Tb  Tb3  1  0.48025339  0.94682699  0.75000000  1
  Tb  Tb4  1  0.94682699  0.48025339  0.75000000  1
  Tb  Tb5  1  0.51974661  0.05317301  0.25000000  1
  Os  Os6  1  0.50000000  0.50000000  0.50000000  1
  Os  Os7  1  0.50000000  0.50000000  0.00000000  1
  O  O8  1  0.17733724  0.43208463  0.52792652  1
  O  O9  1  0.56791537  0.82266276  0.47207348  1
  O  O10  1  0.17733724  0.43208463  0.97207348  1
  O  O11  1  0.56791537  0.82266276  0.02792652  1
  O  O12  1  0.82266276  0.56791537  0.47207348  1
  O  O13  1  0.43208463  0.17733724  0.52792652  1
  O  O14  1  0.82266276  0.56791537  0.02792652  1
  O  O15  1  0.43208463  0.17733724  0.97207348  1
  O  O16  1  0.88710319  0.15416302  0.25000000  1
  O  O17  1  0.84583698  0.11289681  0.75000000  1
  O  O18  1  0.11289681  0.84583698  0.75000000  1
  O  O19  1  0.15416302  0.88710319  0.25000000  1
  O  O20  1  0.45583280  0.45583280  0.25000000  1
  O  O21  1  0.54416720  0.54416720  0.75000000  1
