# generated using pymatgen
data_Sm2Fe12P7
_symmetry_space_group_name_H-M   'P 1'
_cell_length_a   3.65907553
_cell_length_b   9.03084940
_cell_length_c   9.03055026
_cell_angle_alpha   120.08374853
_cell_angle_beta   90.00000000
_cell_angle_gamma   90.00000000
_symmetry_Int_Tables_number   1
_chemical_formula_structural   Sm2Fe12P7
_chemical_formula_sum   'Sm2 Fe12 P7'
_cell_volume   258.21275842
_cell_formula_units_Z   1
loop_
 _symmetry_equiv_pos_site_id
 _symmetry_equiv_pos_as_xyz
  1  'x, y, z'
loop_
 _atom_site_type_symbol
 _atom_site_label
 _atom_site_symmetry_multiplicity
 _atom_site_fract_x
 _atom_site_fract_y
 _atom_site_fract_z
 _atom_site_occupancy
  Sm  Sm0  1  -0.00000000  0.66735127  0.33361055  1
  Sm  Sm1  1  0.50000000  0.33301367  0.66650620  1
  Fe  Fe2  1  -0.00000000  0.37260732  0.94555262  1
  Fe  Fe3  1  -0.00000000  0.05453895  0.42675379  1
  Fe  Fe4  1  0.00000000  0.57264267  0.62697970  1
  Fe  Fe5  1  -0.00000000  0.87996521  0.72666722  1
  Fe  Fe6  1  -0.00000000  0.27399364  0.15387907  1
  Fe  Fe7  1  -0.00000000  0.84598335  0.11963687  1
  Fe  Fe8  1  0.50000000  0.95224739  0.56947613  1
  Fe  Fe9  1  0.50000000  0.43056960  0.38303806  1
  Fe  Fe10  1  0.50000000  0.61742183  0.04778992  1
  Fe  Fe11  1  0.50000000  0.12017311  0.90242236  1
  Fe  Fe12  1  0.50000000  0.09746831  0.21749354  1
  Fe  Fe13  1  0.50000000  0.78239765  0.87998695  1
  P  P14  1  -0.00000000  0.11059241  0.70386094  1
  P  P15  1  -0.00000000  0.29476641  0.40649976  1
  P  P16  1  -0.00000000  0.59273802  0.88855392  1
  P  P17  1  0.50000000  0.71157393  0.60278983  1
  P  P18  1  0.50000000  0.39780510  0.10832536  1
  P  P19  1  0.50000000  0.89209346  0.29004723  1
  P  P20  1  -0.00000000  0.00005671  0.00012997  1
