# generated using pymatgen
data_TbPS
_symmetry_space_group_name_H-M   'P 1'
_cell_length_a   5.33899557
_cell_length_b   5.39857992
_cell_length_c   16.79358587
_cell_angle_alpha   90.00000000
_cell_angle_beta   90.00000000
_cell_angle_gamma   90.00000000
_symmetry_Int_Tables_number   1
_chemical_formula_structural   TbPS
_chemical_formula_sum   'Tb8 P8 S8'
_cell_volume   484.04142942
_cell_formula_units_Z   8
loop_
 _symmetry_equiv_pos_site_id
 _symmetry_equiv_pos_as_xyz
  1  'x, y, z'
loop_
 _atom_site_type_symbol
 _atom_site_label
 _atom_site_symmetry_multiplicity
 _atom_site_fract_x
 _atom_site_fract_y
 _atom_site_fract_z
 _atom_site_occupancy
  Tb  Tb0  1  0.75000000  0.01589134  0.13757252  1
  Tb  Tb1  1  0.75000000  0.51589134  0.36242748  1
  Tb  Tb2  1  0.25000000  0.98410866  0.86242748  1
  Tb  Tb3  1  0.25000000  0.48410866  0.63757252  1
  Tb  Tb4  1  0.75000000  0.48480900  0.85368963  1
  Tb  Tb5  1  0.75000000  0.98480900  0.64631037  1
  Tb  Tb6  1  0.25000000  0.51519100  0.14631037  1
  Tb  Tb7  1  0.25000000  0.01519100  0.35368963  1
  P  P8  1  0.96352599  0.20416981  0.50270196  1
  P  P9  1  0.53647401  0.70416981  0.99729804  1
  P  P10  1  0.46352599  0.79583019  0.49729804  1
  P  P11  1  0.03647401  0.29583019  0.00270196  1
  P  P12  1  0.03647401  0.79583019  0.49729804  1
  P  P13  1  0.46352599  0.29583019  0.00270196  1
  P  P14  1  0.53647401  0.20416981  0.50270196  1
  P  P15  1  0.96352599  0.70416981  0.99729804  1
  S  S16  1  0.75000000  0.01521845  0.31083871  1
  S  S17  1  0.75000000  0.51521845  0.18916129  1
  S  S18  1  0.25000000  0.98478155  0.68916129  1
  S  S19  1  0.25000000  0.48478155  0.81083871  1
  S  S20  1  0.75000000  0.48818726  0.68360364  1
  S  S21  1  0.75000000  0.98818726  0.81639636  1
  S  S22  1  0.25000000  0.51181274  0.31639636  1
  S  S23  1  0.25000000  0.01181274  0.18360364  1
