# generated using pymatgen
data_Te2H2O3F4
_symmetry_space_group_name_H-M   'P 1'
_cell_length_a   4.97392753
_cell_length_b   6.37678189
_cell_length_c   11.22387193
_cell_angle_alpha   85.04253907
_cell_angle_beta   77.19826307
_cell_angle_gamma   67.04531693
_symmetry_Int_Tables_number   1
_chemical_formula_structural   Te2H2O3F4
_chemical_formula_sum   'Te4 H4 O6 F8'
_cell_volume   319.65653897
_cell_formula_units_Z   2
loop_
 _symmetry_equiv_pos_site_id
 _symmetry_equiv_pos_as_xyz
  1  'x, y, z'
loop_
 _atom_site_type_symbol
 _atom_site_label
 _atom_site_symmetry_multiplicity
 _atom_site_fract_x
 _atom_site_fract_y
 _atom_site_fract_z
 _atom_site_occupancy
  Te  Te0  1  0.78776097  0.21819656  0.89842030  1
  Te  Te1  1  0.90437783  0.78180344  0.10157970  1
  Te  Te2  1  0.43618127  0.71819656  0.60157970  1
  Te  Te3  1  0.75595754  0.28180344  0.39842030  1
  H  H4  1  0.15375355  0.25591502  0.71969839  1
  H  H5  1  0.12936696  0.74408498  0.28030161  1
  H  H6  1  0.62345194  0.75591502  0.78030161  1
  H  H7  1  0.15966857  0.24408498  0.21969839  1
  O  O8  1  0.78984079  0.50000000  0.50000000  1
  O  O9  1  0.03984079  -0.00000000  -0.00000000  1
  O  O10  1  0.57042104  0.63457410  0.75326829  1
  O  O11  1  0.95826342  0.36542590  0.24673171  1
  O  O12  1  0.07368933  0.13457410  0.74673171  1
  O  O13  1  0.95499513  0.86542590  0.25326829  1
  F  F14  1  0.40698797  0.56105420  0.35916517  1
  F  F15  1  0.32720734  0.43894580  0.64083483  1
  F  F16  1  0.51615314  0.06105420  0.14083483  1
  F  F17  1  0.71804218  0.93894580  0.85916517  1
  F  F18  1  0.16214951  0.09389015  0.42683095  1
  F  F19  1  0.68287061  0.90610985  0.57316905  1
  F  F20  1  0.33898046  0.59389015  0.07316905  1
  F  F21  1  0.00603966  0.40610985  0.92683095  1
