# generated using pymatgen
data_Pr3MnGaS7
_symmetry_space_group_name_H-M   'P 1'
_cell_length_a   6.06965135
_cell_length_b   10.15903234
_cell_length_c   10.15908541
_cell_angle_alpha   120.00000223
_cell_angle_beta   90.00000000
_cell_angle_gamma   90.00000000
_symmetry_Int_Tables_number   1
_chemical_formula_structural   Pr3MnGaS7
_chemical_formula_sum   'Pr6 Mn2 Ga2 S14'
_cell_volume   542.50197219
_cell_formula_units_Z   2
loop_
 _symmetry_equiv_pos_site_id
 _symmetry_equiv_pos_as_xyz
  1  'x, y, z'
loop_
 _atom_site_type_symbol
 _atom_site_label
 _atom_site_symmetry_multiplicity
 _atom_site_fract_x
 _atom_site_fract_y
 _atom_site_fract_z
 _atom_site_occupancy
  Pr  Pr0  1  0.25089584  0.23441787  0.37464389  1
  Pr  Pr1  1  0.25089041  0.62536731  0.85978309  1
  Pr  Pr2  1  0.25090578  0.14022348  0.76557675  1
  Pr  Pr3  1  0.75089584  0.76558213  0.62535611  1
  Pr  Pr4  1  0.75089041  0.37463269  0.14021691  1
  Pr  Pr5  1  0.75090578  0.85977652  0.23442325  1
  Mn  Mn6  1  0.47611069  0.00000131  0.99999139  1
  Mn  Mn7  1  0.97611069  0.99999869  0.00000861  1
  Ga  Ga8  1  0.82918840  0.33335902  0.66668011  1
  Ga  Ga9  1  0.32918840  0.66664098  0.33331989  1
  S  S10  1  0.71646173  0.14741346  0.23687542  1
  S  S11  1  0.71646072  0.76312476  0.91053991  1
  S  S12  1  0.71646072  0.08945921  0.85258271  1
  S  S13  1  0.21646173  0.85258654  0.76312458  1
  S  S14  1  0.21646072  0.23687524  0.08946009  1
  S  S15  1  0.21646072  0.91054079  0.14741729  1
  S  S16  1  0.98185627  0.09724990  0.51677727  1
  S  S17  1  0.98187485  0.48324447  0.58046248  1
  S  S18  1  0.98187464  0.41953965  0.90277615  1
  S  S19  1  0.48185627  0.90275010  0.48322273  1
  S  S20  1  0.48187485  0.51675553  0.41953752  1
  S  S21  1  0.48187464  0.58046035  0.09722385  1
  S  S22  1  0.45901995  0.33337069  0.66668452  1
  S  S23  1  0.95901995  0.66662931  0.33331548  1
