# generated using pymatgen
data_Na2BSO4F3
_symmetry_space_group_name_H-M   'P 1'
_cell_length_a   6.70726484
_cell_length_b   6.73699529
_cell_length_c   6.72521587
_cell_angle_alpha   84.35842689
_cell_angle_beta   84.24912909
_cell_angle_gamma   66.33330614
_symmetry_Int_Tables_number   1
_chemical_formula_structural   Na2BSO4F3
_chemical_formula_sum   'Na4 B2 S2 O8 F6'
_cell_volume   276.36872503
_cell_formula_units_Z   2
loop_
 _symmetry_equiv_pos_site_id
 _symmetry_equiv_pos_as_xyz
  1  'x, y, z'
loop_
 _atom_site_type_symbol
 _atom_site_label
 _atom_site_symmetry_multiplicity
 _atom_site_fract_x
 _atom_site_fract_y
 _atom_site_fract_z
 _atom_site_occupancy
  Na  Na0  1  0.27013635  0.61524557  0.15435178  1
  Na  Na1  1  0.72986365  0.38475443  0.84564822  1
  Na  Na2  1  0.27698331  0.23414252  0.59583964  1
  Na  Na3  1  0.72301669  0.76585748  0.40416036  1
  B  B4  1  0.16207064  0.14453530  0.12470022  1
  B  B5  1  0.83792936  0.85546470  0.87529978  1
  S  S6  1  0.77033486  0.27343939  0.34936202  1
  S  S7  1  0.22966514  0.72656061  0.65063798  1
  O  O8  1  0.97788048  0.10655333  0.23872713  1
  O  O9  1  0.02211952  0.89344667  0.76127287  1
  O  O10  1  0.65152380  0.14163604  0.43661771  1
  O  O11  1  0.34847620  0.85836396  0.56338229  1
  O  O12  1  0.84338895  0.36988332  0.50027959  1
  O  O13  1  0.15661105  0.63011668  0.49972041  1
  O  O14  1  0.65004786  0.44317501  0.19854290  1
  O  O15  1  0.34995214  0.55682499  0.80145710  1
  F  F16  1  0.23430187  0.27488076  0.22687519  1
  F  F17  1  0.76569813  0.72511924  0.77312481  1
  F  F18  1  0.09770771  0.25045850  0.93243809  1
  F  F19  1  0.90229229  0.74954150  0.06756191  1
  F  F20  1  0.32794090  0.93734197  0.10114305  1
  F  F21  1  0.67205910  0.06265803  0.89885695  1
