# generated using pymatgen
data_Rb4Fe2S5
_symmetry_space_group_name_H-M   'P 1'
_cell_length_a   7.65584980
_cell_length_b   8.49199069
_cell_length_c   10.47520740
_cell_angle_alpha   78.18625742
_cell_angle_beta   83.53396138
_cell_angle_gamma   80.56556972
_symmetry_Int_Tables_number   1
_chemical_formula_structural   Rb4Fe2S5
_chemical_formula_sum   'Rb8 Fe4 S10'
_cell_volume   655.37929119
_cell_formula_units_Z   2
loop_
 _symmetry_equiv_pos_site_id
 _symmetry_equiv_pos_as_xyz
  1  'x, y, z'
loop_
 _atom_site_type_symbol
 _atom_site_label
 _atom_site_symmetry_multiplicity
 _atom_site_fract_x
 _atom_site_fract_y
 _atom_site_fract_z
 _atom_site_occupancy
  Rb  Rb0  1  0.93977309  0.89324722  0.24395936  1
  Rb  Rb1  1  0.06022691  0.10675278  0.75604064  1
  Rb  Rb2  1  0.57769779  0.16793279  0.91412318  1
  Rb  Rb3  1  0.42230221  0.83206721  0.08587682  1
  Rb  Rb4  1  0.40984933  0.78621392  0.49056675  1
  Rb  Rb5  1  0.59015067  0.21378608  0.50943325  1
  Rb  Rb6  1  0.20544577  0.57643105  0.86965818  1
  Rb  Rb7  1  0.79455423  0.42356895  0.13034182  1
  Fe  Fe8  1  0.72907079  0.76282755  0.77977799  1
  Fe  Fe9  1  0.27092921  0.23717245  0.22022201  1
  Fe  Fe10  1  0.90948670  0.58339690  0.59440235  1
  Fe  Fe11  1  0.09051330  0.41660310  0.40559765  1
  S  S12  1  0.84302274  0.80355874  0.95543686  1
  S  S13  1  0.15697726  0.19644126  0.04456314  1
  S  S14  1  0.45549322  0.90014175  0.76070766  1
  S  S15  1  0.54450678  0.09985825  0.23929234  1
  S  S16  1  0.90711581  0.84154398  0.59790721  1
  S  S17  1  0.09288419  0.15845602  0.40209279  1
  S  S18  1  0.73884051  0.49586800  0.77154041  1
  S  S19  1  0.26115949  0.50413200  0.22845959  1
  S  S20  1  0.80876112  0.54345627  0.41282105  1
  S  S21  1  0.19123888  0.45654373  0.58717895  1
