# generated using pymatgen
data_Eu2Co12P7
_symmetry_space_group_name_H-M   'P 1'
_cell_length_a   3.58348935
_cell_length_b   9.10503478
_cell_length_c   9.08702427
_cell_angle_alpha   120.10969843
_cell_angle_beta   90.00000000
_cell_angle_gamma   90.00000000
_symmetry_Int_Tables_number   1
_chemical_formula_structural   Eu2Co12P7
_chemical_formula_sum   'Eu2 Co12 P7'
_cell_volume   256.48319692
_cell_formula_units_Z   1
loop_
 _symmetry_equiv_pos_site_id
 _symmetry_equiv_pos_as_xyz
  1  'x, y, z'
loop_
 _atom_site_type_symbol
 _atom_site_label
 _atom_site_symmetry_multiplicity
 _atom_site_fract_x
 _atom_site_fract_y
 _atom_site_fract_z
 _atom_site_occupancy
  Eu  Eu0  1  0.00000000  0.66645393  0.33357118  1
  Eu  Eu1  1  0.50000000  0.33360202  0.66659435  1
  Co  Co2  1  0.00000000  0.37587689  0.94373940  1
  Co  Co3  1  -0.00000000  0.05597727  0.43179725  1
  Co  Co4  1  -0.00000000  0.56796175  0.62408667  1
  Co  Co5  1  -0.00000000  0.88141249  0.72942662  1
  Co  Co6  1  -0.00000000  0.27058178  0.15202745  1
  Co  Co7  1  -0.00000000  0.84789637  0.11855312  1
  Co  Co8  1  0.50000000  0.94954512  0.56778686  1
  Co  Co9  1  0.50000000  0.43221468  0.38219313  1
  Co  Co10  1  0.50000000  0.61776151  0.05023656  1
  Co  Co11  1  0.50000000  0.13227968  0.89594668  1
  Co  Co12  1  0.50000000  0.10325454  0.23480517  1
  Co  Co13  1  0.50000000  0.76516520  0.86865043  1
  P  P14  1  0.00000000  0.10997627  0.70760253  1
  P  P15  1  -0.00000000  0.29227651  0.40242153  1
  P  P16  1  0.00000000  0.59766001  0.88990019  1
  P  P17  1  0.50000000  0.70895231  0.60194296  1
  P  P18  1  0.50000000  0.39829182  0.10704632  1
  P  P19  1  0.50000000  0.89297056  0.29119659  1
  P  P20  1  0.00000000  0.99988927  0.00047502  1
