# generated using pymatgen
data_Ca2Ni12As7
_symmetry_space_group_name_H-M   'P 1'
_cell_length_a   3.81937682
_cell_length_b   9.39134319
_cell_length_c   9.38765475
_cell_angle_alpha   120.00658977
_cell_angle_beta   90.00000000
_cell_angle_gamma   90.00000000
_symmetry_Int_Tables_number   1
_chemical_formula_structural   Ca2Ni12As7
_chemical_formula_sum   'Ca2 Ni12 As7'
_cell_volume   291.59435883
_cell_formula_units_Z   1
loop_
 _symmetry_equiv_pos_site_id
 _symmetry_equiv_pos_as_xyz
  1  'x, y, z'
loop_
 _atom_site_type_symbol
 _atom_site_label
 _atom_site_symmetry_multiplicity
 _atom_site_fract_x
 _atom_site_fract_y
 _atom_site_fract_z
 _atom_site_occupancy
  Ca  Ca0  1  0.00000000  0.66652913  0.33334322  1
  Ca  Ca1  1  0.50000000  0.33341850  0.66665775  1
  Ni  Ni2  1  0.00000000  0.38150747  0.94493100  1
  Ni  Ni3  1  -0.00000000  0.05507847  0.43664453  1
  Ni  Ni4  1  -0.00000000  0.56342994  0.61840065  1
  Ni  Ni5  1  0.00000000  0.87159068  0.71965823  1
  Ni  Ni6  1  0.00000000  0.28030007  0.15185564  1
  Ni  Ni7  1  -0.00000000  0.84808324  0.12841348  1
  Ni  Ni8  1  0.50000000  0.95173016  0.57622634  1
  Ni  Ni9  1  0.50000000  0.42376763  0.37557053  1
  Ni  Ni10  1  0.50000000  0.62452115  0.04825400  1
  Ni  Ni11  1  0.50000000  0.11432312  0.90430039  1
  Ni  Ni12  1  0.50000000  0.09572753  0.21005730  1
  Ni  Ni13  1  0.50000000  0.78993462  0.88566880  1
  As  As14  1  0.00000000  0.11732445  0.71277641  1
  As  As15  1  0.00000000  0.28731553  0.40456818  1
  As  As16  1  0.00000000  0.59543335  0.88272443  1
  As  As17  1  0.50000000  0.70167050  0.59536745  1
  As  As18  1  0.50000000  0.40456397  0.10631450  1
  As  As19  1  0.50000000  0.89364126  0.29824834  1
  As  As20  1  0.00000000  0.00010923  0.00001880  1
