# generated using pymatgen
data_Rb2U(PtSe2)3
_symmetry_space_group_name_H-M   'P 1'
_cell_length_a   9.27551958
_cell_length_b   9.27551958
_cell_length_c   10.19173448
_cell_angle_alpha   105.83360732
_cell_angle_beta   105.83360732
_cell_angle_gamma   113.60374063
_symmetry_Int_Tables_number   1
_chemical_formula_structural   Rb2U(PtSe2)3
_chemical_formula_sum   'Rb4 U2 Pt6 Se12'
_cell_volume   696.62193201
_cell_formula_units_Z   2
loop_
 _symmetry_equiv_pos_site_id
 _symmetry_equiv_pos_as_xyz
  1  'x, y, z'
loop_
 _atom_site_type_symbol
 _atom_site_label
 _atom_site_symmetry_multiplicity
 _atom_site_fract_x
 _atom_site_fract_y
 _atom_site_fract_z
 _atom_site_occupancy
  Rb  Rb0  1  0.75000000  0.25000000  0.50000000  1
  Rb  Rb1  1  0.25000000  0.75000000  0.50000000  1
  Rb  Rb2  1  0.67680454  0.32319546  -0.00000000  1
  Rb  Rb3  1  0.32319546  0.67680454  -0.00000000  1
  U  U4  1  0.16831057  0.16831057  0.33662114  1
  U  U5  1  0.83168943  0.83168943  0.66337886  1
  Pt  Pt6  1  0.83195192  0.83195192  0.32716846  1
  Pt  Pt7  1  0.50478346  0.50478346  0.67283154  1
  Pt  Pt8  1  0.16804808  0.16804808  0.67283154  1
  Pt  Pt9  1  0.49521654  0.49521654  0.32716846  1
  Pt  Pt10  1  0.83682515  0.83682515  -0.00000000  1
  Pt  Pt11  1  0.16317485  0.16317485  0.00000000  1
  Se  Se12  1  0.80063488  0.02370723  0.20191997  1
  Se  Se13  1  0.82178726  0.59871491  0.79808003  1
  Se  Se14  1  0.97629277  0.19936512  0.79808003  1
  Se  Se15  1  0.40128509  0.17821274  0.20191997  1
  Se  Se16  1  0.19936512  0.97629277  0.79808003  1
  Se  Se17  1  0.17821274  0.40128509  0.20191997  1
  Se  Se18  1  0.02370723  0.80063488  0.20191997  1
  Se  Se19  1  0.59871491  0.82178726  0.79808003  1
  Se  Se20  1  0.18836422  0.40890488  0.59726910  1
  Se  Se21  1  0.81163578  0.59109512  0.40273090  1
  Se  Se22  1  0.59109512  0.81163578  0.40273090  1
  Se  Se23  1  0.40890488  0.18836422  0.59726910  1
