# generated using pymatgen
data_Na3H2OsO6
_symmetry_space_group_name_H-M   'P 1'
_cell_length_a   5.84949479
_cell_length_b   6.05179355
_cell_length_c   9.55856499
_cell_angle_alpha   90.00000000
_cell_angle_beta   90.00000000
_cell_angle_gamma   119.05726809
_symmetry_Int_Tables_number   1
_chemical_formula_structural   Na3H2OsO6
_chemical_formula_sum   'Na6 H4 Os2 O12'
_cell_volume   295.78320987
_cell_formula_units_Z   2
loop_
 _symmetry_equiv_pos_site_id
 _symmetry_equiv_pos_as_xyz
  1  'x, y, z'
loop_
 _atom_site_type_symbol
 _atom_site_label
 _atom_site_symmetry_multiplicity
 _atom_site_fract_x
 _atom_site_fract_y
 _atom_site_fract_z
 _atom_site_occupancy
  Na  Na0  1  0.98764513  0.01451830  0.75000000  1
  Na  Na1  1  0.01235487  0.98548170  0.25000000  1
  Na  Na2  1  0.54909072  0.25531561  0.57076076  1
  Na  Na3  1  0.45090928  0.74468439  0.07076076  1
  Na  Na4  1  0.45090928  0.74468439  0.42923924  1
  Na  Na5  1  0.54909072  0.25531561  0.92923924  1
  H  H6  1  0.02744079  0.75097931  0.53500485  1
  H  H7  1  0.97255921  0.24902069  0.03500485  1
  H  H8  1  0.97255921  0.24902069  0.46499515  1
  H  H9  1  0.02744079  0.75097931  0.96499515  1
  Os  Os10  1  0.22370818  0.62106893  0.75000000  1
  Os  Os11  1  0.77629182  0.37893107  0.25000000  1
  O  O12  1  0.87336558  0.48221334  0.75000000  1
  O  O13  1  0.12663442  0.51778666  0.25000000  1
  O  O14  1  0.54641339  0.89071792  0.75000000  1
  O  O15  1  0.45358661  0.10928208  0.25000000  1
  O  O16  1  0.25732929  0.42868615  0.61067162  1
  O  O17  1  0.74267071  0.57131385  0.11067162  1
  O  O18  1  0.74267071  0.57131385  0.38932838  1
  O  O19  1  0.25732929  0.42868615  0.88932838  1
  O  O20  1  0.18877499  0.85628520  0.58800818  1
  O  O21  1  0.81122501  0.14371480  0.08800818  1
  O  O22  1  0.81122501  0.14371480  0.41199182  1
  O  O23  1  0.18877499  0.85628520  0.91199182  1
