# generated using pymatgen
data_Ag2S2O7
_symmetry_space_group_name_H-M   'P 1'
_cell_length_a   7.02228578
_cell_length_b   6.94672369
_cell_length_c   7.08549463
_cell_angle_alpha   86.67028792
_cell_angle_beta   63.52569071
_cell_angle_gamma   86.26000180
_symmetry_Int_Tables_number   1
_chemical_formula_structural   Ag2S2O7
_chemical_formula_sum   'Ag4 S4 O14'
_cell_volume   308.57587441
_cell_formula_units_Z   2
loop_
 _symmetry_equiv_pos_site_id
 _symmetry_equiv_pos_as_xyz
  1  'x, y, z'
loop_
 _atom_site_type_symbol
 _atom_site_label
 _atom_site_symmetry_multiplicity
 _atom_site_fract_x
 _atom_site_fract_y
 _atom_site_fract_z
 _atom_site_occupancy
  Ag  Ag0  1  0.20225902  0.87232608  0.78526269  1
  Ag  Ag1  1  0.79774098  0.12767392  0.21473731  1
  Ag  Ag2  1  0.21931283  0.35676640  0.41821779  1
  Ag  Ag3  1  0.78068717  0.64323360  0.58178221  1
  S  S4  1  0.28318797  0.86008170  0.27617260  1
  S  S5  1  0.71681203  0.13991830  0.72382740  1
  S  S6  1  0.69943397  0.64086600  0.12432814  1
  S  S7  1  0.30056603  0.35913400  0.87567186  1
  O  O8  1  0.34899192  0.01805599  0.35896375  1
  O  O9  1  0.65100808  0.98194401  0.64103625  1
  O  O10  1  0.18300424  0.70971629  0.44240143  1
  O  O11  1  0.81699576  0.29028371  0.55759857  1
  O  O12  1  0.16656625  0.91641094  0.15488389  1
  O  O13  1  0.83343375  0.08358906  0.84511611  1
  O  O14  1  0.50102677  0.76101588  0.09038369  1
  O  O15  1  0.49897323  0.23898412  0.90961631  1
  O  O16  1  0.85889965  0.62976070  0.90545965  1
  O  O17  1  0.14110035  0.37023930  0.09454035  1
  O  O18  1  0.75081469  0.76337837  0.25548071  1
  O  O19  1  0.24918531  0.23662163  0.74451929  1
  O  O20  1  0.61272723  0.45637665  0.22710878  1
  O  O21  1  0.38727277  0.54362335  0.77289122  1
