# generated using pymatgen
data_Mg3TiNi2
_symmetry_space_group_name_H-M   'P 1'
_cell_length_a   8.22131409
_cell_length_b   8.22131409
_cell_length_c   8.22131409
_cell_angle_alpha   60.00000000
_cell_angle_beta   60.00000000
_cell_angle_gamma   60.00000000
_symmetry_Int_Tables_number   1
_chemical_formula_structural   Mg3TiNi2
_chemical_formula_sum   'Mg12 Ti4 Ni8'
_cell_volume   392.92415042
_cell_formula_units_Z   4
loop_
 _symmetry_equiv_pos_site_id
 _symmetry_equiv_pos_as_xyz
  1  'x, y, z'
loop_
 _atom_site_type_symbol
 _atom_site_label
 _atom_site_symmetry_multiplicity
 _atom_site_fract_x
 _atom_site_fract_y
 _atom_site_fract_z
 _atom_site_occupancy
  Mg  Mg0  1  0.43238768  0.81761232  0.81761232  1
  Mg  Mg1  1  0.81761232  0.43238768  0.43238768  1
  Mg  Mg2  1  0.81761232  0.43238768  0.81761232  1
  Mg  Mg3  1  0.43238768  0.81761232  0.43238768  1
  Mg  Mg4  1  0.81761232  0.81761232  0.43238768  1
  Mg  Mg5  1  0.43238768  0.43238768  0.81761232  1
  Mg  Mg6  1  0.56761232  0.18238768  0.18238768  1
  Mg  Mg7  1  0.18238768  0.56761232  0.56761232  1
  Mg  Mg8  1  0.18238768  0.56761232  0.18238768  1
  Mg  Mg9  1  0.56761232  0.18238768  0.56761232  1
  Mg  Mg10  1  0.18238768  0.18238768  0.56761232  1
  Mg  Mg11  1  0.56761232  0.56761232  0.18238768  1
  Ti  Ti12  1  -0.00000000  0.00000000  0.50000000  1
  Ti  Ti13  1  -0.00000000  0.50000000  -0.00000000  1
  Ti  Ti14  1  0.50000000  0.00000000  -0.00000000  1
  Ti  Ti15  1  -0.00000000  0.00000000  -0.00000000  1
  Ni  Ni16  1  0.20551182  0.20551182  0.88346453  1
  Ni  Ni17  1  0.20551182  0.88346453  0.20551182  1
  Ni  Ni18  1  0.88346453  0.20551182  0.20551182  1
  Ni  Ni19  1  0.20551182  0.20551182  0.20551182  1
  Ni  Ni20  1  0.79448818  0.79448818  0.11653547  1
  Ni  Ni21  1  0.79448818  0.11653547  0.79448818  1
  Ni  Ni22  1  0.11653547  0.79448818  0.79448818  1
  Ni  Ni23  1  0.79448818  0.79448818  0.79448818  1
