# generated using pymatgen
data_In2As2Cl2O5
_symmetry_space_group_name_H-M   'P 1'
_cell_length_a   6.84376132
_cell_length_b   7.63316270
_cell_length_c   9.17066770
_cell_angle_alpha   108.41518447
_cell_angle_beta   104.79502657
_cell_angle_gamma   102.17767189
_symmetry_Int_Tables_number   1
_chemical_formula_structural   In2As2Cl2O5
_chemical_formula_sum   'In4 As4 Cl4 O10'
_cell_volume   416.67287141
_cell_formula_units_Z   2
loop_
 _symmetry_equiv_pos_site_id
 _symmetry_equiv_pos_as_xyz
  1  'x, y, z'
loop_
 _atom_site_type_symbol
 _atom_site_label
 _atom_site_symmetry_multiplicity
 _atom_site_fract_x
 _atom_site_fract_y
 _atom_site_fract_z
 _atom_site_occupancy
  In  In0  1  0.40108456  0.69474555  0.52378033  1
  In  In1  1  0.59891544  0.30525445  0.47621967  1
  In  In2  1  0.85248811  0.77590788  0.33847750  1
  In  In3  1  0.14751189  0.22409212  0.66152250  1
  As  As4  1  0.88964766  0.84547385  0.75199270  1
  As  As5  1  0.11035234  0.15452615  0.24800730  1
  As  As6  1  0.70210529  0.22890652  0.79744854  1
  As  As7  1  0.29789471  0.77109348  0.20255146  1
  Cl  Cl8  1  0.23611362  0.61027715  0.71801691  1
  Cl  Cl9  1  0.76388638  0.38972285  0.28198309  1
  Cl  Cl10  1  0.75383200  0.71135556  0.04483566  1
  Cl  Cl11  1  0.24616800  0.28864444  0.95516434  1
  O  O12  1  0.83768536  0.26890248  0.65730648  1
  O  O13  1  0.16231464  0.73109752  0.34269352  1
  O  O14  1  0.54157615  0.78756820  0.35002866  1
  O  O15  1  0.45842385  0.21243180  0.64997134  1
  O  O16  1  0.66082142  0.95891366  0.73154868  1
  O  O17  1  0.33917858  0.04108634  0.26845132  1
  O  O18  1  0.68635400  0.62077130  0.61463320  1
  O  O19  1  0.31364600  0.37922870  0.38536680  1
  O  O20  1  0.99168069  0.90638815  0.60450295  1
  O  O21  1  0.00831931  0.09361185  0.39549705  1
