# generated using pymatgen
data_Pr2Fe12P7
_symmetry_space_group_name_H-M   'P 1'
_cell_length_a   3.69475333
_cell_length_b   9.07442153
_cell_length_c   9.07423308
_cell_angle_alpha   120.07226943
_cell_angle_beta   90.00000000
_cell_angle_gamma   90.00000000
_symmetry_Int_Tables_number   1
_chemical_formula_structural   Pr2Fe12P7
_chemical_formula_sum   'Pr2 Fe12 P7'
_cell_volume   263.28628183
_cell_formula_units_Z   1
loop_
 _symmetry_equiv_pos_site_id
 _symmetry_equiv_pos_as_xyz
  1  'x, y, z'
loop_
 _atom_site_type_symbol
 _atom_site_label
 _atom_site_symmetry_multiplicity
 _atom_site_fract_x
 _atom_site_fract_y
 _atom_site_fract_z
 _atom_site_occupancy
  Pr  Pr0  1  0.00000000  0.66693408  0.33321339  1
  Pr  Pr1  1  0.50000000  0.33297888  0.66677607  1
  Fe  Fe2  1  -0.00000000  0.36928581  0.94527569  1
  Fe  Fe3  1  -0.00000000  0.05497431  0.42394700  1
  Fe  Fe4  1  -0.00000000  0.57501361  0.62972462  1
  Fe  Fe5  1  0.00000000  0.87948724  0.72839917  1
  Fe  Fe6  1  -0.00000000  0.27237724  0.15186985  1
  Fe  Fe7  1  -0.00000000  0.84855148  0.12027726  1
  Fe  Fe8  1  0.50000000  0.95212612  0.56991698  1
  Fe  Fe9  1  0.50000000  0.42981442  0.38217141  1
  Fe  Fe10  1  0.50000000  0.61830973  0.04793391  1
  Fe  Fe11  1  0.50000000  0.11709194  0.90320440  1
  Fe  Fe12  1  0.50000000  0.09696423  0.21439005  1
  Fe  Fe13  1  0.50000000  0.78615729  0.88319545  1
  P  P14  1  -0.00000000  0.10549130  0.69981698  1
  P  P15  1  -0.00000000  0.29776506  0.40494332  1
  P  P16  1  -0.00000000  0.59447608  0.89393605  1
  P  P17  1  0.50000000  0.71162633  0.60500985  1
  P  P18  1  0.50000000  0.39539612  0.10555673  1
  P  P19  1  0.50000000  0.89479825  0.28998141  1
  P  P20  1  -0.00000000  0.00038049  0.00046041  1
