# generated using pymatgen
data_TbB4W
_symmetry_space_group_name_H-M   'P 1'
_cell_length_a   3.63528630
_cell_length_b   6.05095993
_cell_length_c   11.69417608
_cell_angle_alpha   90.00000000
_cell_angle_beta   90.00000000
_cell_angle_gamma   90.00000000
_symmetry_Int_Tables_number   1
_chemical_formula_structural   TbB4W
_chemical_formula_sum   'Tb4 B16 W4'
_cell_volume   257.23646070
_cell_formula_units_Z   4
loop_
 _symmetry_equiv_pos_site_id
 _symmetry_equiv_pos_as_xyz
  1  'x, y, z'
loop_
 _atom_site_type_symbol
 _atom_site_label
 _atom_site_symmetry_multiplicity
 _atom_site_fract_x
 _atom_site_fract_y
 _atom_site_fract_z
 _atom_site_occupancy
  Tb  Tb0  1  0.00000000  0.62670618  0.35016527  1
  Tb  Tb1  1  -0.00000000  0.37329382  0.64983473  1
  Tb  Tb2  1  0.00000000  0.12670618  0.14983473  1
  Tb  Tb3  1  0.00000000  0.87329382  0.85016527  1
  B  B4  1  0.50000000  0.78613242  0.18634495  1
  B  B5  1  0.50000000  0.21386758  0.81365505  1
  B  B6  1  0.50000000  0.28613242  0.31365505  1
  B  B7  1  0.50000000  0.71386758  0.68634495  1
  B  B8  1  0.50000000  0.86615708  0.03218911  1
  B  B9  1  0.50000000  0.13384292  0.96781089  1
  B  B10  1  0.50000000  0.36615708  0.46781089  1
  B  B11  1  0.50000000  0.63384292  0.53218911  1
  B  B12  1  0.50000000  0.88620286  0.45290896  1
  B  B13  1  0.50000000  0.11379714  0.54709104  1
  B  B14  1  0.50000000  0.38620286  0.04709104  1
  B  B15  1  0.50000000  0.61379714  0.95290896  1
  B  B16  1  0.50000000  0.97581777  0.30710355  1
  B  B17  1  0.50000000  0.02418223  0.69289645  1
  B  B18  1  0.50000000  0.47581777  0.19289645  1
  B  B19  1  0.50000000  0.52418223  0.80710355  1
  W  W20  1  0.00000000  0.63045169  0.08420587  1
  W  W21  1  0.00000000  0.36954831  0.91579413  1
  W  W22  1  -0.00000000  0.13045169  0.41579413  1
  W  W23  1  -0.00000000  0.86954831  0.58420587  1
