# generated using pymatgen
data_Ba3AlP3
_symmetry_space_group_name_H-M   'P 1'
_cell_length_a   6.80068405
_cell_length_b   10.32660973
_cell_length_c   13.08051799
_cell_angle_alpha   90.00000000
_cell_angle_beta   90.00000000
_cell_angle_gamma   109.22505338
_symmetry_Int_Tables_number   1
_chemical_formula_structural   Ba3AlP3
_chemical_formula_sum   'Ba12 Al4 P12'
_cell_volume   867.38965799
_cell_formula_units_Z   4
loop_
 _symmetry_equiv_pos_site_id
 _symmetry_equiv_pos_as_xyz
  1  'x, y, z'
loop_
 _atom_site_type_symbol
 _atom_site_label
 _atom_site_symmetry_multiplicity
 _atom_site_fract_x
 _atom_site_fract_y
 _atom_site_fract_z
 _atom_site_occupancy
  Ba  Ba0  1  0.66360046  1.00000000  0.15503104  1
  Ba  Ba1  1  0.33639954  0.00000000  0.84496896  1
  Ba  Ba2  1  0.83639954  0.00000000  0.65503104  1
  Ba  Ba3  1  0.16360046  1.00000000  0.34496896  1
  Ba  Ba4  1  0.99189392  0.35220081  0.36985728  1
  Ba  Ba5  1  0.36030689  0.35220081  0.63014272  1
  Ba  Ba6  1  0.86030689  0.35220081  0.86985728  1
  Ba  Ba7  1  0.49189392  0.35220081  0.13014272  1
  Ba  Ba8  1  0.00810608  0.64779919  0.63014272  1
  Ba  Ba9  1  0.63969311  0.64779919  0.36985728  1
  Ba  Ba10  1  0.13969311  0.64779919  0.13014272  1
  Ba  Ba11  1  0.50810608  0.64779919  0.86985728  1
  Al  Al12  1  0.58193057  0.16386114  0.50000000  1
  Al  Al13  1  0.08193057  0.16386114  -0.00000000  1
  Al  Al14  1  0.41806943  0.83613886  0.50000000  1
  Al  Al15  1  0.91806943  0.83613886  -0.00000000  1
  P  P16  1  0.70130034  0.00000000  0.40759812  1
  P  P17  1  0.29869966  1.00000000  0.59240188  1
  P  P18  1  0.79869966  1.00000000  0.90759812  1
  P  P19  1  0.20130034  0.00000000  0.09240188  1
  P  P20  1  0.15894349  0.68976416  0.38318908  1
  P  P21  1  0.53082068  0.68976416  0.61681092  1
  P  P22  1  0.03082068  0.68976416  0.88318908  1
  P  P23  1  0.65894349  0.68976416  0.11681092  1
  P  P24  1  0.84105651  0.31023584  0.61681092  1
  P  P25  1  0.46917932  0.31023584  0.38318908  1
  P  P26  1  0.96917932  0.31023584  0.11681092  1
  P  P27  1  0.34105651  0.31023584  0.88318908  1
