# generated using pymatgen
data_Er2TlCu3S5
_symmetry_space_group_name_H-M   'P 1'
_cell_length_a   3.90938750
_cell_length_b   7.17991281
_cell_length_c   16.31123251
_cell_angle_alpha   90.00000000
_cell_angle_beta   90.00000000
_cell_angle_gamma   105.79788369
_symmetry_Int_Tables_number   1
_chemical_formula_structural   Er2TlCu3S5
_chemical_formula_sum   'Er4 Tl2 Cu6 S10'
_cell_volume   440.54743967
_cell_formula_units_Z   2
loop_
 _symmetry_equiv_pos_site_id
 _symmetry_equiv_pos_as_xyz
  1  'x, y, z'
loop_
 _atom_site_type_symbol
 _atom_site_label
 _atom_site_symmetry_multiplicity
 _atom_site_fract_x
 _atom_site_fract_y
 _atom_site_fract_z
 _atom_site_occupancy
  Er  Er0  1  0.19167007  0.38334013  0.09371876  1
  Er  Er1  1  0.80832993  0.61665987  0.90628124  1
  Er  Er2  1  0.19167007  0.38334013  0.40628124  1
  Er  Er3  1  0.80832993  0.61665987  0.59371876  1
  Tl  Tl4  1  0.92906433  0.85812867  0.25000000  1
  Tl  Tl5  1  0.07093567  0.14187133  0.75000000  1
  Cu  Cu6  1  0.64717188  0.29434377  0.25000000  1
  Cu  Cu7  1  0.35282812  0.70565623  0.75000000  1
  Cu  Cu8  1  0.41712627  0.83425254  0.45907708  1
  Cu  Cu9  1  0.58287373  0.16574746  0.54092292  1
  Cu  Cu10  1  0.41712627  0.83425254  0.04092292  1
  Cu  Cu11  1  0.58287373  0.16574746  0.95907708  1
  S  S12  1  0.24111248  0.48222496  0.25000000  1
  S  S13  1  0.75888752  0.51777504  0.75000000  1
  S  S14  1  0.43851266  0.87702533  0.88473701  1
  S  S15  1  0.56148734  0.12297467  0.11526299  1
  S  S16  1  0.43851266  0.87702533  0.61526299  1
  S  S17  1  0.56148734  0.12297467  0.38473701  1
  S  S18  1  0.16836359  0.33672718  0.92981266  1
  S  S19  1  0.83163641  0.66327282  0.07018734  1
  S  S20  1  0.16836359  0.33672718  0.57018734  1
  S  S21  1  0.83163641  0.66327282  0.42981266  1
