# generated using pymatgen
data_CsInTe3O8
_symmetry_space_group_name_H-M   'P 1'
_cell_length_a   5.92454647
_cell_length_b   7.95190628
_cell_length_c   11.49428461
_cell_angle_alpha   79.30120729
_cell_angle_beta   89.38906527
_cell_angle_gamma   69.72247681
_symmetry_Int_Tables_number   1
_chemical_formula_structural   CsInTe3O8
_chemical_formula_sum   'Cs2 In2 Te6 O16'
_cell_volume   498.27510097
_cell_formula_units_Z   2
loop_
 _symmetry_equiv_pos_site_id
 _symmetry_equiv_pos_as_xyz
  1  'x, y, z'
loop_
 _atom_site_type_symbol
 _atom_site_label
 _atom_site_symmetry_multiplicity
 _atom_site_fract_x
 _atom_site_fract_y
 _atom_site_fract_z
 _atom_site_occupancy
  Cs  Cs0  1  0.18099219  0.11013732  0.83857144  1
  Cs  Cs1  1  0.81900781  0.88986268  0.16142856  1
  In  In2  1  0.50000000  0.50000000  0.00000000  1
  In  In3  1  0.00000000  0.50000000  0.50000000  1
  Te  Te4  1  0.78173556  0.98818920  0.57919953  1
  Te  Te5  1  0.21826444  0.01181080  0.42080047  1
  Te  Te6  1  0.92363947  0.67484569  0.84739718  1
  Te  Te7  1  0.07636053  0.32515431  0.15260282  1
  Te  Te8  1  0.48626144  0.52388658  0.66534642  1
  Te  Te9  1  0.51373856  0.47611342  0.33465358  1
  O  O10  1  0.81559995  0.74336641  0.57716877  1
  O  O11  1  0.18440005  0.25663359  0.42283123  1
  O  O12  1  0.76782906  0.92559323  0.76593585  1
  O  O13  1  0.23217094  0.07440677  0.23406415  1
  O  O14  1  0.11475821  0.96374772  0.60218967  1
  O  O15  1  0.88524179  0.03625228  0.39781033  1
  O  O16  1  0.70563536  0.68672471  0.96979442  1
  O  O17  1  0.29436464  0.31327529  0.03020558  1
  O  O18  1  0.16379606  0.72221683  0.92893753  1
  O  O19  1  0.83620394  0.27778317  0.07106247  1
  O  O20  1  0.59354725  0.42332088  0.82677177  1
  O  O21  1  0.40645275  0.57667912  0.17322823  1
  O  O22  1  0.76018987  0.37204530  0.59777185  1
  O  O23  1  0.23981013  0.62795470  0.40222815  1
  O  O24  1  0.27446065  0.39597076  0.64865195  1
  O  O25  1  0.72553935  0.60402924  0.35134805  1
