# generated using pymatgen
data_Na5Gd4Si4O16F
_symmetry_space_group_name_H-M   'P 1'
_cell_length_a   5.47447421
_cell_length_b   8.78735688
_cell_length_c   8.78735688
_cell_angle_alpha   84.43180057
_cell_angle_beta   71.85051778
_cell_angle_gamma   71.85051778
_symmetry_Int_Tables_number   1
_chemical_formula_structural   Na5Gd4Si4O16F
_chemical_formula_sum   'Na5 Gd4 Si4 O16 F1'
_cell_volume   381.70866639
_cell_formula_units_Z   1
loop_
 _symmetry_equiv_pos_site_id
 _symmetry_equiv_pos_as_xyz
  1  'x, y, z'
loop_
 _atom_site_type_symbol
 _atom_site_label
 _atom_site_symmetry_multiplicity
 _atom_site_fract_x
 _atom_site_fract_y
 _atom_site_fract_z
 _atom_site_occupancy
  Na  Na0  1  0.90272656  0.48459890  0.69443395  1
  Na  Na1  1  0.08175942  0.51540110  0.30556605  1
  Na  Na2  1  0.61267454  0.30556605  0.48459890  1
  Na  Na3  1  0.40283948  0.69443395  0.51540110  1
  Na  Na4  1  0.50000000  -0.00000000  -0.00000000  1
  Gd  Gd5  1  0.86234680  0.93268026  0.29946360  1
  Gd  Gd6  1  0.09449066  0.06731974  0.70053640  1
  Gd  Gd7  1  0.20497294  0.70053640  0.93268026  1
  Gd  Gd8  1  0.83818960  0.29946360  0.06731974  1
  Si  Si9  1  0.75681936  0.85631088  0.64984082  1
  Si  Si10  1  0.26297106  0.14368912  0.35015918  1
  Si  Si11  1  0.38686976  0.35015918  0.85631088  1
  Si  Si12  1  0.59333982  0.64984082  0.14368912  1
  O  O13  1  0.87218092  0.72210492  0.50566694  1
  O  O14  1  0.09995278  0.27789508  0.49433306  1
  O  O15  1  0.40571416  0.49433306  0.72210492  1
  O  O16  1  0.62215214  0.50566694  0.27789508  1
  O  O17  1  0.45429143  0.85966699  0.76370751  1
  O  O18  1  0.07766594  0.14033301  0.23629249  1
  O  O19  1  0.68604157  0.23629249  0.85966699  1
  O  O20  1  0.78200106  0.76370751  0.14033301  1
  O  O21  1  0.96234287  0.82810258  0.75890981  1
  O  O22  1  0.54935526  0.17189742  0.24109019  1
  O  O23  1  0.20955455  0.24109019  0.82810258  1
  O  O24  1  0.27874732  0.75890981  0.17189742  1
  O  O25  1  0.76218713  0.03168417  0.56294662  1
  O  O26  1  0.35681792  0.96831583  0.43705338  1
  O  O27  1  0.20612870  0.43705338  0.03168417  1
  O  O28  1  0.67486625  0.56294662  0.96831583  1
  F  F29  1  -0.00000000  -0.00000000  -0.00000000  1
