# generated using pymatgen
data_HgTe2(OF5)2
_symmetry_space_group_name_H-M   'P 1'
_cell_length_a   6.03262688
_cell_length_b   9.09944636
_cell_length_c   10.74006771
_cell_angle_alpha   115.06344022
_cell_angle_beta   96.80220280
_cell_angle_gamma   90.00000000
_symmetry_Int_Tables_number   1
_chemical_formula_structural   HgTe2(OF5)2
_chemical_formula_sum   'Hg2 Te4 O4 F20'
_cell_volume   529.46227661
_cell_formula_units_Z   2
loop_
 _symmetry_equiv_pos_site_id
 _symmetry_equiv_pos_as_xyz
  1  'x, y, z'
loop_
 _atom_site_type_symbol
 _atom_site_label
 _atom_site_symmetry_multiplicity
 _atom_site_fract_x
 _atom_site_fract_y
 _atom_site_fract_z
 _atom_site_occupancy
  Hg  Hg0  1  0.25000000  0.37311853  1.00000000  1
  Hg  Hg1  1  0.75000000  0.62688147  0.00000000  1
  Te  Te2  1  0.66607094  0.37529958  0.25600417  1
  Te  Te3  1  0.83392906  0.11929541  0.74399583  1
  Te  Te4  1  0.33392906  0.62470042  0.74399583  1
  Te  Te5  1  0.16607094  0.88070459  0.25600417  1
  O  O6  1  0.55106684  0.45441849  0.12497668  1
  O  O7  1  0.94893316  0.32944181  0.87502332  1
  O  O8  1  0.44893316  0.54558151  0.87502332  1
  O  O9  1  0.05106684  0.67055819  0.12497668  1
  F  F10  1  0.93467957  0.32498914  0.17452257  1
  F  F11  1  0.56532043  0.15046657  0.82547743  1
  F  F12  1  0.06532043  0.67501086  0.82547743  1
  F  F13  1  0.43467957  0.84953343  0.17452257  1
  F  F14  1  0.78898465  0.29728892  0.38274306  1
  F  F15  1  0.71101535  0.91454586  0.61725694  1
  F  F16  1  0.21101535  0.70271108  0.61725694  1
  F  F17  1  0.28898465  0.08545414  0.38274306  1
  F  F18  1  0.79477004  0.58161827  0.37492274  1
  F  F19  1  0.70522996  0.20669553  0.62507726  1
  F  F20  1  0.20522996  0.41838173  0.62507726  1
  F  F21  1  0.29477004  0.79330447  0.37492274  1
  F  F22  1  0.40789604  0.41845799  0.34478550  1
  F  F23  1  0.09210396  0.07367249  0.65521450  1
  F  F24  1  0.59210396  0.58154201  0.65521450  1
  F  F25  1  0.90789604  0.92632751  0.34478550  1
  F  F26  1  0.55028686  0.16111958  0.14088745  1
  F  F27  1  0.94971314  0.02023213  0.85911255  1
  F  F28  1  0.44971314  0.83888042  0.85911255  1
  F  F29  1  0.05028686  0.97976787  0.14088745  1
