# generated using pymatgen
data_AgBrO2
_symmetry_space_group_name_H-M   'P 1'
_cell_length_a   4.55627243
_cell_length_b   6.55270336
_cell_length_c   4.57070607
_cell_angle_alpha   90.41811546
_cell_angle_beta   119.85053957
_cell_angle_gamma   86.35005409
_symmetry_Int_Tables_number   1
_chemical_formula_structural   AgBrO2
_chemical_formula_sum   'Ag1 Br1 O2'
_cell_volume   118.07064731
_cell_formula_units_Z   1
loop_
 _symmetry_equiv_pos_site_id
 _symmetry_equiv_pos_as_xyz
  1  'x, y, z'
loop_
 _atom_site_type_symbol
 _atom_site_label
 _atom_site_symmetry_multiplicity
 _atom_site_fract_x
 _atom_site_fract_y
 _atom_site_fract_z
 _atom_site_occupancy
  Ag  Ag0  1  0.58272754  0.95837005  0.67935808  1
  Br  Br1  1  0.91568820  0.96343431  0.34426131  1
  O  O2  1  0.26318417  0.45055574  0.97685329  1
  O  O3  1  0.95372010  0.46878990  0.85983732  1
