# generated using pymatgen
data_Hg3Bi2(TeCl4)2
_symmetry_space_group_name_H-M   'P 1'
_cell_length_a   7.86159368
_cell_length_b   9.83583703
_cell_length_c   13.73814796
_cell_angle_alpha   103.10150490
_cell_angle_beta   90.00000000
_cell_angle_gamma   113.55569369
_symmetry_Int_Tables_number   1
_chemical_formula_structural   Hg3Bi2(TeCl4)2
_chemical_formula_sum   'Hg6 Bi4 Te4 Cl16'
_cell_volume   943.54479362
_cell_formula_units_Z   2
loop_
 _symmetry_equiv_pos_site_id
 _symmetry_equiv_pos_as_xyz
  1  'x, y, z'
loop_
 _atom_site_type_symbol
 _atom_site_label
 _atom_site_symmetry_multiplicity
 _atom_site_fract_x
 _atom_site_fract_y
 _atom_site_fract_z
 _atom_site_occupancy
  Hg  Hg0  1  0.50000000  0.50000000  0.50000000  1
  Hg  Hg1  1  0.00000000  0.50000000  -0.00000000  1
  Hg  Hg2  1  0.26112227  0.49368732  0.75617288  1
  Hg  Hg3  1  0.76743495  0.50631268  0.74382712  1
  Hg  Hg4  1  0.73887773  0.50631268  0.24382712  1
  Hg  Hg5  1  0.23256505  0.49368732  0.25617288  1
  Bi  Bi6  1  0.18918004  0.91571719  0.56121655  1
  Bi  Bi7  1  0.27346286  0.08428281  0.93878345  1
  Bi  Bi8  1  0.81081996  0.08428281  0.43878345  1
  Bi  Bi9  1  0.72653714  0.91571719  0.06121655  1
  Te  Te10  1  0.58549115  0.66765042  0.69356665  1
  Te  Te11  1  0.91784073  0.33234958  0.80643335  1
  Te  Te12  1  0.41450885  0.33234958  0.30643335  1
  Te  Te13  1  0.08215927  0.66765042  0.19356665  1
  Cl  Cl14  1  0.41809112  0.79643969  0.46520767  1
  Cl  Cl15  1  0.62165143  0.20356031  0.03479233  1
  Cl  Cl16  1  0.58190888  0.20356031  0.53479233  1
  Cl  Cl17  1  0.37834857  0.79643969  0.96520767  1
  Cl  Cl18  1  0.16777329  0.79644076  0.72189969  1
  Cl  Cl19  1  0.37133254  0.20355924  0.77810031  1
  Cl  Cl20  1  0.83222671  0.20355924  0.27810031  1
  Cl  Cl21  1  0.62866746  0.79644076  0.22189969  1
  Cl  Cl22  1  0.93327649  0.65295183  0.47595340  1
  Cl  Cl23  1  0.28032466  0.34704817  0.02404660  1
  Cl  Cl24  1  0.06672351  0.34704817  0.52404660  1
  Cl  Cl25  1  0.71967534  0.65295183  0.97595340  1
  Cl  Cl26  1  0.10568283  0.99854764  0.38897283  1
  Cl  Cl27  1  0.10713519  0.00145236  0.11102717  1
  Cl  Cl28  1  0.89431717  0.00145236  0.61102717  1
  Cl  Cl29  1  0.89286481  0.99854764  0.88897283  1
