# generated using pymatgen
data_Cs2Cu2Sb2Se5
_symmetry_space_group_name_H-M   'P 1'
_cell_length_a   7.75265831
_cell_length_b   8.92405840
_cell_length_c   10.43845048
_cell_angle_alpha   91.77291640
_cell_angle_beta   91.79046145
_cell_angle_gamma   102.92067645
_symmetry_Int_Tables_number   1
_chemical_formula_structural   Cs2Cu2Sb2Se5
_chemical_formula_sum   'Cs4 Cu4 Sb4 Se10'
_cell_volume   703.02372160
_cell_formula_units_Z   2
loop_
 _symmetry_equiv_pos_site_id
 _symmetry_equiv_pos_as_xyz
  1  'x, y, z'
loop_
 _atom_site_type_symbol
 _atom_site_label
 _atom_site_symmetry_multiplicity
 _atom_site_fract_x
 _atom_site_fract_y
 _atom_site_fract_z
 _atom_site_occupancy
  Cs  Cs0  1  0.73557106  0.80421486  0.90561001  1
  Cs  Cs1  1  0.26442894  0.19578514  0.09438999  1
  Cs  Cs2  1  0.26470132  0.05717669  0.61345658  1
  Cs  Cs3  1  0.73529868  0.94282331  0.38654342  1
  Cu  Cu4  1  0.59677341  0.49186876  0.61243374  1
  Cu  Cu5  1  0.40322659  0.50813124  0.38756626  1
  Cu  Cu6  1  0.87239832  0.36258427  0.56889994  1
  Cu  Cu7  1  0.12760168  0.63741573  0.43110006  1
  Sb  Sb8  1  0.80124012  0.35971255  0.88203354  1
  Sb  Sb9  1  0.19875988  0.64028745  0.11796646  1
  Sb  Sb10  1  0.81623814  0.42224600  0.26135374  1
  Sb  Sb11  1  0.18376186  0.57775400  0.73864626  1
  Se  Se12  1  0.91804330  0.65480802  0.61192836  1
  Se  Se13  1  0.08195670  0.34519198  0.38807164  1
  Se  Se14  1  0.85688559  0.15826202  0.71884747  1
  Se  Se15  1  0.14311441  0.84173798  0.28115253  1
  Se  Se16  1  0.48661600  0.38399608  0.81374233  1
  Se  Se17  1  0.51338400  0.61600392  0.18625767  1
  Se  Se18  1  0.74470581  0.18440247  0.08793395  1
  Se  Se19  1  0.25529419  0.81559753  0.91206605  1
  Se  Se20  1  0.57313356  0.30353223  0.42385243  1
  Se  Se21  1  0.42686644  0.69646777  0.57614757  1
