# generated using pymatgen
data_BaYZn3GaO7
_symmetry_space_group_name_H-M   'P 1'
_cell_length_a   6.43487897
_cell_length_b   6.43487897
_cell_length_c   10.39218064
_cell_angle_alpha   90.00000000
_cell_angle_beta   90.00000000
_cell_angle_gamma   119.99999579
_symmetry_Int_Tables_number   1
_chemical_formula_structural   BaYZn3GaO7
_chemical_formula_sum   'Ba2 Y2 Zn6 Ga2 O14'
_cell_volume   372.66456804
_cell_formula_units_Z   2
loop_
 _symmetry_equiv_pos_site_id
 _symmetry_equiv_pos_as_xyz
  1  'x, y, z'
loop_
 _atom_site_type_symbol
 _atom_site_label
 _atom_site_symmetry_multiplicity
 _atom_site_fract_x
 _atom_site_fract_y
 _atom_site_fract_z
 _atom_site_occupancy
  Ba  Ba0  1  0.66666700  0.33333300  0.99096456  1
  Ba  Ba1  1  0.33333300  0.66666700  0.49096456  1
  Y  Y2  1  0.66666700  0.33333300  0.63425653  1
  Y  Y3  1  0.33333300  0.66666700  0.13425653  1
  Zn  Zn4  1  0.17062879  0.82937121  0.81713345  1
  Zn  Zn5  1  0.65874241  0.82937121  0.81713345  1
  Zn  Zn6  1  0.17062879  0.34125759  0.81713345  1
  Zn  Zn7  1  0.82937121  0.17062879  0.31713345  1
  Zn  Zn8  1  0.34125759  0.17062879  0.31713345  1
  Zn  Zn9  1  0.82937121  0.65874241  0.31713345  1
  Ga  Ga10  1  -0.00000000  -0.00000000  0.06708607  1
  Ga  Ga11  1  0.00000000  -0.00000000  0.56708607  1
  O  O12  1  0.50533707  0.49466293  0.76331982  1
  O  O13  1  0.98932586  0.49466293  0.76331982  1
  O  O14  1  0.50533707  0.01067414  0.76331982  1
  O  O15  1  0.49466293  0.50533707  0.26331982  1
  O  O16  1  0.01067414  0.50533707  0.26331982  1
  O  O17  1  0.49466293  0.98932586  0.26331982  1
  O  O18  1  -0.00000000  -0.00000000  0.24878489  1
  O  O19  1  -0.00000000  -0.00000000  0.74878489  1
  O  O20  1  0.15908797  0.84091203  0.01026605  1
  O  O21  1  0.68182406  0.84091203  0.01026605  1
  O  O22  1  0.15908797  0.31817594  0.01026605  1
  O  O23  1  0.84091203  0.15908797  0.51026605  1
  O  O24  1  0.31817594  0.15908797  0.51026605  1
  O  O25  1  0.84091203  0.68182406  0.51026605  1
