# generated using pymatgen
data_H2C4(OF2)3
_symmetry_space_group_name_H-M   'P 1'
_cell_length_a   6.11252595
_cell_length_b   6.71879208
_cell_length_c   19.39220730
_cell_angle_alpha   90.00000000
_cell_angle_beta   90.00000000
_cell_angle_gamma   90.00000000
_symmetry_Int_Tables_number   1
_chemical_formula_structural   H2C4(OF2)3
_chemical_formula_sum   'H8 C16 O12 F24'
_cell_volume   796.41450750
_cell_formula_units_Z   4
loop_
 _symmetry_equiv_pos_site_id
 _symmetry_equiv_pos_as_xyz
  1  'x, y, z'
loop_
 _atom_site_type_symbol
 _atom_site_label
 _atom_site_symmetry_multiplicity
 _atom_site_fract_x
 _atom_site_fract_y
 _atom_site_fract_z
 _atom_site_occupancy
  H  H0  1  0.76305187  0.53960724  0.40119666  1
  H  H1  1  0.73694813  0.46039276  0.90119666  1
  H  H2  1  0.26305187  0.96039276  0.59880334  1
  H  H3  1  0.23694813  0.03960724  0.09880334  1
  H  H4  1  0.11501892  0.65090389  0.45629553  1
  H  H5  1  0.38498108  0.34909611  0.95629553  1
  H  H6  1  0.61501892  0.84909611  0.54370447  1
  H  H7  1  0.88498108  0.15090389  0.04370447  1
  C  C8  1  0.44877410  0.55983752  0.41479480  1
  C  C9  1  0.05122590  0.44016248  0.91479480  1
  C  C10  1  0.94877410  0.94016248  0.58520520  1
  C  C11  1  0.55122590  0.05983752  0.08520520  1
  C  C12  1  0.23131973  0.47666588  0.38464921  1
  C  C13  1  0.26868027  0.52333412  0.88464921  1
  C  C14  1  0.73131973  0.02333412  0.61535079  1
  C  C15  1  0.76868027  0.97666588  0.11535079  1
  C  C16  1  0.21404338  0.52869600  0.30641112  1
  C  C17  1  0.28595662  0.47130400  0.80641112  1
  C  C18  1  0.71404338  0.97130400  0.69358888  1
  C  C19  1  0.78595662  0.02869600  0.19358888  1
  C  C20  1  0.21613274  0.24791952  0.39908667  1
  C  C21  1  0.28386726  0.75208048  0.89908667  1
  C  C22  1  0.71613274  0.25208048  0.60091333  1
  C  C23  1  0.78386726  0.74791952  0.10091333  1
  O  O24  1  0.62129995  0.49088751  0.38198095  1
  O  O25  1  0.87870005  0.50911249  0.88198095  1
  O  O26  1  0.12129995  0.00911249  0.61801905  1
  O  O27  1  0.37870005  0.99088751  0.11801905  1
  O  O28  1  0.44236876  0.67514128  0.46347356  1
  O  O29  1  0.05763124  0.32485872  0.96347356  1
  O  O30  1  0.94236876  0.82485872  0.53652644  1
  O  O31  1  0.55763124  0.17514128  0.03652644  1
  O  O32  1  0.05514812  0.56944913  0.41832076  1
  O  O33  1  0.44485188  0.43055087  0.91832076  1
  O  O34  1  0.55514812  0.93055087  0.58167924  1
  O  O35  1  0.94485188  0.06944913  0.08167924  1
  F  F36  1  0.27038222  0.72243077  0.29734204  1
  F  F37  1  0.22961778  0.27756923  0.79734204  1
  F  F38  1  0.77038222  0.77756923  0.70265796  1
  F  F39  1  0.72961778  0.22243077  0.20265796  1
  F  F40  1  0.34540180  0.41529433  0.26631343  1
  F  F41  1  0.15459820  0.58470567  0.76631343  1
  F  F42  1  0.84540180  0.08470567  0.73368657  1
  F  F43  1  0.65459820  0.91529433  0.23368657  1
  F  F44  1  0.00578631  0.50550354  0.28394540  1
  F  F45  1  0.49421369  0.49449646  0.78394540  1
  F  F46  1  0.50578631  0.99449646  0.71605460  1
  F  F47  1  0.99421369  0.00550354  0.21605460  1
  F  F48  1  0.23870740  0.21778368  0.46816779  1
  F  F49  1  0.26129260  0.78221632  0.96816779  1
  F  F50  1  0.73870740  0.28221632  0.53183221  1
  F  F51  1  0.76129260  0.71778368  0.03183221  1
  F  F52  1  0.37170254  0.14000956  0.36667996  1
  F  F53  1  0.12829746  0.85999044  0.86667996  1
  F  F54  1  0.87170254  0.35999044  0.63332004  1
  F  F55  1  0.62829746  0.64000956  0.13332004  1
  F  F56  1  0.01807425  0.17626206  0.38000111  1
  F  F57  1  0.48192575  0.82373794  0.88000111  1
  F  F58  1  0.51807425  0.32373794  0.61999889  1
  F  F59  1  0.98192575  0.67626206  0.11999889  1
