# generated using pymatgen
data_NdMoO4F
_symmetry_space_group_name_H-M   'P 1'
_cell_length_a   6.61203023
_cell_length_b   7.02773521
_cell_length_c   9.48495604
_cell_angle_alpha   105.99428697
_cell_angle_beta   90.00000000
_cell_angle_gamma   90.00000000
_symmetry_Int_Tables_number   1
_chemical_formula_structural   NdMoO4F
_chemical_formula_sum   'Nd4 Mo4 O16 F4'
_cell_volume   423.68159149
_cell_formula_units_Z   4
loop_
 _symmetry_equiv_pos_site_id
 _symmetry_equiv_pos_as_xyz
  1  'x, y, z'
loop_
 _atom_site_type_symbol
 _atom_site_label
 _atom_site_symmetry_multiplicity
 _atom_site_fract_x
 _atom_site_fract_y
 _atom_site_fract_z
 _atom_site_occupancy
  Nd  Nd0  1  0.37184962  0.77414236  0.57793757  1
  Nd  Nd1  1  0.12815038  0.27414236  0.07793757  1
  Nd  Nd2  1  0.62815038  0.22585764  0.42206243  1
  Nd  Nd3  1  0.87184962  0.72585764  0.92206243  1
  Mo  Mo4  1  0.36430238  0.83143347  0.16501415  1
  Mo  Mo5  1  0.13569762  0.33143347  0.66501415  1
  Mo  Mo6  1  0.63569762  0.16856653  0.83498585  1
  Mo  Mo7  1  0.86430238  0.66856653  0.33498585  1
  O  O8  1  0.33977377  0.57265883  0.12696289  1
  O  O9  1  0.16022623  0.07265883  0.62696289  1
  O  O10  1  0.66022623  0.42734117  0.87303711  1
  O  O11  1  0.83977377  0.92734117  0.37303711  1
  O  O12  1  0.09908034  0.62630935  0.41232273  1
  O  O13  1  0.40091966  0.12630935  0.91232273  1
  O  O14  1  0.90091966  0.37369065  0.58767727  1
  O  O15  1  0.59908034  0.87369065  0.08767727  1
  O  O16  1  0.39421431  0.92428013  0.36385151  1
  O  O17  1  0.10578569  0.42428013  0.86385151  1
  O  O18  1  0.60578569  0.07571987  0.63614849  1
  O  O19  1  0.89421431  0.57571987  0.13614849  1
  O  O20  1  0.14216351  0.91569985  0.08054617  1
  O  O21  1  0.35783649  0.41569985  0.58054617  1
  O  O22  1  0.85783649  0.08430015  0.91945383  1
  O  O23  1  0.64216351  0.58430015  0.41945383  1
  F  F24  1  0.11738235  0.72507277  0.73877655  1
  F  F25  1  0.38261765  0.22507277  0.23877655  1
  F  F26  1  0.88261765  0.27492723  0.26122345  1
  F  F27  1  0.61738235  0.77492723  0.76122345  1
