# generated using pymatgen
data_Na5Nd4Ge4O16F
_symmetry_space_group_name_H-M   'P 1'
_cell_length_a   5.74029475
_cell_length_b   9.08038815
_cell_length_c   9.08038815
_cell_angle_alpha   84.26613652
_cell_angle_beta   71.57385368
_cell_angle_gamma   71.57385368
_symmetry_Int_Tables_number   1
_chemical_formula_structural   Na5Nd4Ge4O16F
_chemical_formula_sum   'Na5 Nd4 Ge4 O16 F1'
_cell_volume   426.02001058
_cell_formula_units_Z   1
loop_
 _symmetry_equiv_pos_site_id
 _symmetry_equiv_pos_as_xyz
  1  'x, y, z'
loop_
 _atom_site_type_symbol
 _atom_site_label
 _atom_site_symmetry_multiplicity
 _atom_site_fract_x
 _atom_site_fract_y
 _atom_site_fract_z
 _atom_site_occupancy
  Na  Na0  1  -0.00000000  -0.00000000  -0.00000000  1
  Na  Na1  1  0.91318187  0.69244735  0.51706477  1
  Na  Na2  1  0.12269399  0.30755265  0.48293523  1
  Na  Na3  1  0.39437078  0.48293523  0.69244735  1
  Na  Na4  1  0.56975336  0.51706477  0.30755265  1
  Nd  Nd5  1  0.34239933  0.29737949  0.06667876  1
  Nd  Nd6  1  0.70645757  0.70262051  0.93332124  1
  Nd  Nd7  1  0.36022118  0.93332124  0.29737949  1
  Nd  Nd8  1  0.59092192  0.06667876  0.70262051  1
  Ge  Ge9  1  0.76322322  0.14378904  0.35050840  1
  Ge  Ge10  1  0.25752066  0.85621096  0.64949160  1
  Ge  Ge11  1  0.09298775  0.64949160  0.14378904  1
  Ge  Ge12  1  0.88626838  0.35050840  0.85621096  1
  O  O13  1  0.58982041  0.13016054  0.22530879  1
  O  O14  1  0.94528974  0.86983946  0.77469121  1
  O  O15  1  0.28001905  0.77469121  0.13016054  1
  O  O16  1  0.18487080  0.22530879  0.86983946  1
  O  O17  1  0.58057431  0.28308636  0.49925567  1
  O  O18  1  0.36291634  0.71691364  0.50074433  1
  O  O19  1  0.13633933  0.50074433  0.28308636  1
  O  O20  1  0.92017001  0.49925567  0.71691364  1
  O  O21  1  0.06095226  0.17541055  0.24303849  1
  O  O22  1  0.47940130  0.82458945  0.75696151  1
  O  O23  1  0.76363719  0.75696151  0.17541055  1
  O  O24  1  0.69600925  0.24303849  0.82458945  1
  O  O25  1  0.87275456  0.96350707  0.44433023  1
  O  O26  1  0.28059186  0.03649293  0.55566977  1
  O  O27  1  0.16373838  0.55566977  0.96350707  1
  O  O28  1  0.68291521  0.44433023  0.03649293  1
  F  F29  1  0.50000000  -0.00000000  -0.00000000  1
