# generated using pymatgen
data_U8VSe17
_symmetry_space_group_name_H-M   'P 1'
_cell_length_a   8.18553921
_cell_length_b   8.18553921
_cell_length_c   10.81960278
_cell_angle_alpha   80.65458908
_cell_angle_beta   80.65458908
_cell_angle_gamma   64.67561955
_symmetry_Int_Tables_number   1
_chemical_formula_structural   U8VSe17
_chemical_formula_sum   'U8 V1 Se17'
_cell_volume   643.06318044
_cell_formula_units_Z   1
loop_
 _symmetry_equiv_pos_site_id
 _symmetry_equiv_pos_as_xyz
  1  'x, y, z'
loop_
 _atom_site_type_symbol
 _atom_site_label
 _atom_site_symmetry_multiplicity
 _atom_site_fract_x
 _atom_site_fract_y
 _atom_site_fract_z
 _atom_site_occupancy
  U  U0  1  0.18065061  0.69837025  0.70199521  1
  U  U1  1  0.69837025  0.18065061  0.70199521  1
  U  U2  1  0.81934939  0.30162975  0.29800479  1
  U  U3  1  0.30162975  0.81934939  0.29800479  1
  U  U4  1  0.79692938  0.79692938  0.45835058  1
  U  U5  1  0.20307062  0.20307062  0.54164942  1
  U  U6  1  0.31876767  0.31876767  0.01572117  1
  U  U7  1  0.68123233  0.68123233  0.98427883  1
  V  V8  1  -0.00000000  0.00000000  -0.00000000  1
  Se  Se9  1  0.18089233  0.56567207  0.46341269  1
  Se  Se10  1  0.56567207  0.18089233  0.46341269  1
  Se  Se11  1  0.81910767  0.43432793  0.53658731  1
  Se  Se12  1  0.43432793  0.81910767  0.53658731  1
  Se  Se13  1  0.05716647  0.67621564  0.97255036  1
  Se  Se14  1  0.67621564  0.05716647  0.97255036  1
  Se  Se15  1  0.94283353  0.32378436  0.02744964  1
  Se  Se16  1  0.32378436  0.94283353  0.02744964  1
  Se  Se17  1  0.78602510  0.78602510  0.72345981  1
  Se  Se18  1  0.21397490  0.21397490  0.27654019  1
  Se  Se19  1  0.94016700  0.94016700  0.22854242  1
  Se  Se20  1  0.05983300  0.05983300  0.77145758  1
  Se  Se21  1  0.69938846  0.69938846  0.24489677  1
  Se  Se22  1  0.30061154  0.30061154  0.75510323  1
  Se  Se23  1  0.47863372  0.47863372  0.16862033  1
  Se  Se24  1  0.52136628  0.52136628  0.83137967  1
  Se  Se25  1  -0.00000000  0.00000000  0.50000000  1
