# generated using pymatgen
data_Ba4Li2(CdP2)3
_symmetry_space_group_name_H-M   'P 1'
_cell_length_a   4.51697610
_cell_length_b   10.28560160
_cell_length_c   16.96742061
_cell_angle_alpha   90.00000000
_cell_angle_beta   90.00000000
_cell_angle_gamma   102.68422381
_symmetry_Int_Tables_number   1
_chemical_formula_structural   Ba4Li2(CdP2)3
_chemical_formula_sum   'Ba8 Li4 Cd6 P12'
_cell_volume   769.06474089
_cell_formula_units_Z   2
loop_
 _symmetry_equiv_pos_site_id
 _symmetry_equiv_pos_as_xyz
  1  'x, y, z'
loop_
 _atom_site_type_symbol
 _atom_site_label
 _atom_site_symmetry_multiplicity
 _atom_site_fract_x
 _atom_site_fract_y
 _atom_site_fract_z
 _atom_site_occupancy
  Ba  Ba0  1  0.01621525  0.03243051  0.37771762  1
  Ba  Ba1  1  0.98378475  0.96756949  0.62228238  1
  Ba  Ba2  1  0.01621525  0.03243051  0.12228238  1
  Ba  Ba3  1  0.98378475  0.96756949  0.87771762  1
  Ba  Ba4  1  0.17158709  0.34317417  0.93158401  1
  Ba  Ba5  1  0.82841291  0.65682583  0.06841599  1
  Ba  Ba6  1  0.17158709  0.34317417  0.56841599  1
  Ba  Ba7  1  0.82841291  0.65682583  0.43158401  1
  Li  Li8  1  0.15079059  0.30158117  0.25000000  1
  Li  Li9  1  0.84920941  0.69841883  0.75000000  1
  Li  Li10  1  0.43700398  0.87400796  0.25000000  1
  Li  Li11  1  0.56299602  0.12599204  0.75000000  1
  Cd  Cd12  1  0.65049507  0.30099014  0.37434335  1
  Cd  Cd13  1  0.34950493  0.69900986  0.62565665  1
  Cd  Cd14  1  0.65049507  0.30099014  0.12565665  1
  Cd  Cd15  1  0.34950493  0.69900986  0.87434335  1
  Cd  Cd16  1  0.29614261  0.59228523  0.25000000  1
  Cd  Cd17  1  0.70385739  0.40771477  0.75000000  1
  P  P18  1  0.21947331  0.43894662  0.38154564  1
  P  P19  1  0.78052669  0.56105338  0.61845436  1
  P  P20  1  0.21947331  0.43894662  0.11845436  1
  P  P21  1  0.78052669  0.56105338  0.88154564  1
  P  P22  1  0.44415121  0.88830242  0.48882199  1
  P  P23  1  0.55584879  0.11169758  0.51117801  1
  P  P24  1  0.44415121  0.88830242  0.01117801  1
  P  P25  1  0.55584879  0.11169758  0.98882199  1
  P  P26  1  0.56967746  0.13935491  0.25000000  1
  P  P27  1  0.43032254  0.86064509  0.75000000  1
  P  P28  1  0.87965791  0.75931583  0.25000000  1
  P  P29  1  0.12034209  0.24068417  0.75000000  1
