# generated using pymatgen
data_La2Al(BOs)2
_symmetry_space_group_name_H-M   'P 1'
_cell_length_a   6.10227318
_cell_length_b   8.87360887
_cell_length_c   10.45788072
_cell_angle_alpha   112.01712830
_cell_angle_beta   90.01628847
_cell_angle_gamma   110.10870745
_symmetry_Int_Tables_number   1
_chemical_formula_structural   La2Al(BOs)2
_chemical_formula_sum   'La8 Al4 B8 Os8'
_cell_volume   487.52850234
_cell_formula_units_Z   4
loop_
 _symmetry_equiv_pos_site_id
 _symmetry_equiv_pos_as_xyz
  1  'x, y, z'
loop_
 _atom_site_type_symbol
 _atom_site_label
 _atom_site_symmetry_multiplicity
 _atom_site_fract_x
 _atom_site_fract_y
 _atom_site_fract_z
 _atom_site_occupancy
  La  La0  1  0.08631258  0.50755410  0.15028167  1
  La  La1  1  0.57898085  0.49263990  0.34965992  1
  La  La2  1  0.91367324  0.49242954  0.84971174  1
  La  La3  1  0.42102181  0.50736560  0.65033370  1
  La  La4  1  0.65558339  0.11073330  0.16699097  1
  La  La5  1  0.54462112  0.88918392  0.33299435  1
  La  La6  1  0.34440879  0.88927524  0.83300612  1
  La  La7  1  0.45536759  0.11081030  0.66701221  1
  Al  Al8  1  0.02674784  0.85570685  0.39983000  1
  Al  Al9  1  0.17093533  0.14418399  0.10015502  1
  Al  Al10  1  0.97325545  0.14429652  0.60017421  1
  Al  Al11  1  0.82906515  0.85581754  0.89984233  1
  B  B12  1  0.26905369  0.77517192  0.05921795  1
  B  B13  1  0.49359848  0.22483681  0.44079713  1
  B  B14  1  0.73094116  0.22482497  0.94077425  1
  B  B15  1  0.50639763  0.77516582  0.55921102  1
  B  B16  1  0.09671706  0.38538329  0.38272563  1
  B  B17  1  0.71162695  0.61463537  0.11729160  1
  B  B18  1  0.90328487  0.61461154  0.61727576  1
  B  B19  1  0.28837505  0.38536341  0.88270678  1
  Os  Os20  1  0.99626288  0.84433127  0.13198585  1
  Os  Os21  1  0.15165763  0.15557976  0.36801905  1
  Os  Os22  1  0.00376027  0.15571972  0.86804844  1
  Os  Os23  1  0.84831012  0.84439187  0.63195892  1
  Os  Os24  1  0.15978777  0.65734048  0.48394852  1
  Os  Os25  1  0.50265832  0.34291239  0.01631331  1
  Os  Os26  1  0.84024237  0.34264590  0.51604171  1
  Os  Os27  1  0.49735257  0.65708869  0.98369184  1
