# generated using pymatgen
data_Y10Cd3Pd
_symmetry_space_group_name_H-M   'P 1'
_cell_length_a   9.79754425
_cell_length_b   9.77011965
_cell_length_c   9.77011965
_cell_angle_alpha   120.00000129
_cell_angle_beta   90.00000000
_cell_angle_gamma   90.00000000
_symmetry_Int_Tables_number   1
_chemical_formula_structural   Y10Cd3Pd
_chemical_formula_sum   'Y20 Cd6 Pd2'
_cell_volume   809.93025878
_cell_formula_units_Z   2
loop_
 _symmetry_equiv_pos_site_id
 _symmetry_equiv_pos_as_xyz
  1  'x, y, z'
loop_
 _atom_site_type_symbol
 _atom_site_label
 _atom_site_symmetry_multiplicity
 _atom_site_fract_x
 _atom_site_fract_y
 _atom_site_fract_z
 _atom_site_occupancy
  Y  Y0  1  0.55950479  0.79268532  0.58537066  1
  Y  Y1  1  0.55950479  0.79268534  0.20731468  1
  Y  Y2  1  0.55950479  0.41462934  0.20731466  1
  Y  Y3  1  0.44049521  0.20731468  0.41462934  1
  Y  Y4  1  0.44049521  0.20731466  0.79268532  1
  Y  Y5  1  0.44049521  0.58537066  0.79268534  1
  Y  Y6  1  0.05950479  0.20731468  0.41462934  1
  Y  Y7  1  0.05950479  0.20731466  0.79268532  1
  Y  Y8  1  0.05950479  0.58537066  0.79268534  1
  Y  Y9  1  0.94049521  0.79268532  0.58537066  1
  Y  Y10  1  0.94049521  0.79268534  0.20731468  1
  Y  Y11  1  0.94049521  0.41462934  0.20731466  1
  Y  Y12  1  0.75000000  0.45666770  0.91334265  1
  Y  Y13  1  0.75000000  0.45667495  0.54333230  1
  Y  Y14  1  0.75000000  0.08665735  0.54332505  1
  Y  Y15  1  0.25000000  0.54333230  0.08665735  1
  Y  Y16  1  0.25000000  0.54332505  0.45666770  1
  Y  Y17  1  0.25000000  0.91334265  0.45667495  1
  Y  Y18  1  0.50000000  0.00000000  -0.00000000  1
  Y  Y19  1  0.00000000  0.00000000  -0.00000000  1
  Cd  Cd20  1  0.75000000  0.11583548  0.23166038  1
  Cd  Cd21  1  0.75000000  0.11582490  0.88416452  1
  Cd  Cd22  1  0.75000000  0.76833962  0.88417510  1
  Cd  Cd23  1  0.25000000  0.88416452  0.76833962  1
  Cd  Cd24  1  0.25000000  0.88417510  0.11583548  1
  Cd  Cd25  1  0.25000000  0.23166038  0.11582490  1
  Pd  Pd26  1  0.75000000  0.66666700  0.33333300  1
  Pd  Pd27  1  0.25000000  0.33333300  0.66666700  1
