# generated using pymatgen
data_CsHSO4
_symmetry_space_group_name_H-M   'P 1'
_cell_length_a   6.01735689
_cell_length_b   8.50330983
_cell_length_c   10.15615926
_cell_angle_alpha   105.90034494
_cell_angle_beta   90.00000000
_cell_angle_gamma   90.00000000
_symmetry_Int_Tables_number   1
_chemical_formula_structural   CsHSO4
_chemical_formula_sum   'Cs4 H4 S4 O16'
_cell_volume   499.78222029
_cell_formula_units_Z   4
loop_
 _symmetry_equiv_pos_site_id
 _symmetry_equiv_pos_as_xyz
  1  'x, y, z'
loop_
 _atom_site_type_symbol
 _atom_site_label
 _atom_site_symmetry_multiplicity
 _atom_site_fract_x
 _atom_site_fract_y
 _atom_site_fract_z
 _atom_site_occupancy
  Cs  Cs0  1  0.75759373  0.63642358  0.34867933  1
  Cs  Cs1  1  0.25759373  0.86357642  0.15132067  1
  Cs  Cs2  1  0.24240627  0.36357642  0.65132067  1
  Cs  Cs3  1  0.74240627  0.13642358  0.84867933  1
  H  H4  1  0.01185739  0.25245854  0.22033928  1
  H  H5  1  0.51185739  0.24754146  0.27966072  1
  H  H6  1  0.98814261  0.74754146  0.77966072  1
  H  H7  1  0.48814261  0.75245854  0.72033928  1
  S  S8  1  0.26297204  0.34768855  0.10448004  1
  S  S9  1  0.76297204  0.15231145  0.39551996  1
  S  S10  1  0.73702796  0.65231145  0.89551996  1
  S  S11  1  0.23702796  0.84768855  0.60448004  1
  O  O12  1  0.25190633  0.50625170  0.20690952  1
  O  O13  1  0.75190633  0.99374830  0.29309048  1
  O  O14  1  0.74809367  0.49374830  0.79309048  1
  O  O15  1  0.24809367  0.00625170  0.70690952  1
  O  O16  1  0.25708454  0.35121449  0.96212467  1
  O  O17  1  0.75708454  0.14878551  0.53787533  1
  O  O18  1  0.74291546  0.64878551  0.03787533  1
  O  O19  1  0.24291546  0.85121449  0.46212467  1
  O  O20  1  0.45164847  0.24676424  0.13181505  1
  O  O21  1  0.95164847  0.25323576  0.36818495  1
  O  O22  1  0.54835153  0.75323576  0.86818495  1
  O  O23  1  0.04835153  0.74676424  0.63181505  1
  O  O24  1  0.04220378  0.24929277  0.11983969  1
  O  O25  1  0.54220378  0.25070723  0.38016031  1
  O  O26  1  0.95779622  0.75070723  0.88016031  1
  O  O27  1  0.45779622  0.74929277  0.61983969  1
