# generated using pymatgen
data_SrGaH5
_symmetry_space_group_name_H-M   'P 1'
_cell_length_a   4.72348967
_cell_length_b   8.70621099
_cell_length_c   8.86815212
_cell_angle_alpha   90.00000000
_cell_angle_beta   90.00000000
_cell_angle_gamma   90.00000000
_symmetry_Int_Tables_number   1
_chemical_formula_structural   SrGaH5
_chemical_formula_sum   'Sr4 Ga4 H20'
_cell_volume   364.69120673
_cell_formula_units_Z   4
loop_
 _symmetry_equiv_pos_site_id
 _symmetry_equiv_pos_as_xyz
  1  'x, y, z'
loop_
 _atom_site_type_symbol
 _atom_site_label
 _atom_site_symmetry_multiplicity
 _atom_site_fract_x
 _atom_site_fract_y
 _atom_site_fract_z
 _atom_site_occupancy
  Sr  Sr0  1  0.95402429  0.49376602  0.68169593  1
  Sr  Sr1  1  0.45402429  0.50623398  0.31830407  1
  Sr  Sr2  1  0.45402429  0.00623398  0.18169593  1
  Sr  Sr3  1  0.95402429  0.99376602  0.81830407  1
  Ga  Ga4  1  0.95393900  0.33347614  0.08462374  1
  Ga  Ga5  1  0.45393900  0.66652386  0.91537626  1
  Ga  Ga6  1  0.45393900  0.16652386  0.58462374  1
  Ga  Ga7  1  0.95393900  0.83347614  0.41537626  1
  H  H8  1  0.22896049  0.77384120  0.32919756  1
  H  H9  1  0.72896049  0.22615880  0.67080244  1
  H  H10  1  0.72896049  0.72615880  0.82919756  1
  H  H11  1  0.22896049  0.27384120  0.17080244  1
  H  H12  1  0.95414148  0.51636273  0.09802912  1
  H  H13  1  0.45414148  0.48363727  0.90197088  1
  H  H14  1  0.45414148  0.98363727  0.59802912  1
  H  H15  1  0.95414148  0.01636273  0.40197088  1
  H  H16  1  0.95407913  0.48151868  0.41274016  1
  H  H17  1  0.45407913  0.51848132  0.58725984  1
  H  H18  1  0.45407913  0.01848132  0.91274016  1
  H  H19  1  0.95407913  0.98151868  0.08725984  1
  H  H20  1  0.17882570  0.72604949  0.82931110  1
  H  H21  1  0.67882570  0.27395051  0.17068890  1
  H  H22  1  0.67882570  0.77395051  0.32931110  1
  H  H23  1  0.17882570  0.22604949  0.67068890  1
  H  H24  1  0.95403091  0.28272398  0.91108535  1
  H  H25  1  0.45403091  0.71727602  0.08891465  1
  H  H26  1  0.45403091  0.21727602  0.41108535  1
  H  H27  1  0.95403091  0.78272398  0.58891465  1
