# generated using pymatgen
data_Hf9Mo4P
_symmetry_space_group_name_H-M   'P 1'
_cell_length_a   8.63126864
_cell_length_b   8.64337167
_cell_length_c   8.64337167
_cell_angle_alpha   120.04805368
_cell_angle_beta   90.00000000
_cell_angle_gamma   90.00000000
_symmetry_Int_Tables_number   1
_chemical_formula_structural   Hf9Mo4P
_chemical_formula_sum   'Hf18 Mo8 P2'
_cell_volume   558.16312823
_cell_formula_units_Z   2
loop_
 _symmetry_equiv_pos_site_id
 _symmetry_equiv_pos_as_xyz
  1  'x, y, z'
loop_
 _atom_site_type_symbol
 _atom_site_label
 _atom_site_symmetry_multiplicity
 _atom_site_fract_x
 _atom_site_fract_y
 _atom_site_fract_z
 _atom_site_occupancy
  Hf  Hf0  1  0.54671576  0.80214341  0.60420024  1
  Hf  Hf1  1  0.54674303  0.80200172  0.19799828  1
  Hf  Hf2  1  0.54671576  0.39579976  0.19785659  1
  Hf  Hf3  1  0.45328424  0.19785659  0.39579976  1
  Hf  Hf4  1  0.45325697  0.19799828  0.80200172  1
  Hf  Hf5  1  0.45328424  0.60420024  0.80214341  1
  Hf  Hf6  1  0.04671576  0.19785659  0.39579976  1
  Hf  Hf7  1  0.04674303  0.19799828  0.80200172  1
  Hf  Hf8  1  0.04671576  0.60420024  0.80214341  1
  Hf  Hf9  1  0.95328424  0.80214341  0.60420024  1
  Hf  Hf10  1  0.95325697  0.80200172  0.19799828  1
  Hf  Hf11  1  0.95328424  0.39579976  0.19785659  1
  Hf  Hf12  1  0.75000000  0.46085181  0.92187363  1
  Hf  Hf13  1  0.75000000  0.46098615  0.53901385  1
  Hf  Hf14  1  0.75000000  0.07812637  0.53914819  1
  Hf  Hf15  1  0.25000000  0.53914819  0.07812637  1
  Hf  Hf16  1  0.25000000  0.53901385  0.46098615  1
  Hf  Hf17  1  0.25000000  0.92187363  0.46085181  1
  Mo  Mo18  1  0.75000000  0.11059807  0.22125010  1
  Mo  Mo19  1  0.75000000  0.11069598  0.88930402  1
  Mo  Mo20  1  0.75000000  0.77874990  0.88940193  1
  Mo  Mo21  1  0.25000000  0.88940193  0.77874990  1
  Mo  Mo22  1  0.25000000  0.88930402  0.11069598  1
  Mo  Mo23  1  0.25000000  0.22125010  0.11059807  1
  Mo  Mo24  1  0.50000000  0.00000000  0.00000000  1
  Mo  Mo25  1  0.00000000  0.00000000  0.00000000  1
  P  P26  1  0.75000000  0.66667778  0.33332222  1
  P  P27  1  0.25000000  0.33332222  0.66667778  1
