# generated using pymatgen
data_Lu6Mn23
_symmetry_space_group_name_H-M   'P 1'
_cell_length_a   8.37732126
_cell_length_b   8.37732126
_cell_length_c   8.37732126
_cell_angle_alpha   60.00000000
_cell_angle_beta   60.00000000
_cell_angle_gamma   60.00000000
_symmetry_Int_Tables_number   1
_chemical_formula_structural   Lu6Mn23
_chemical_formula_sum   'Lu6 Mn23'
_cell_volume   415.71961191
_cell_formula_units_Z   1
loop_
 _symmetry_equiv_pos_site_id
 _symmetry_equiv_pos_as_xyz
  1  'x, y, z'
loop_
 _atom_site_type_symbol
 _atom_site_label
 _atom_site_symmetry_multiplicity
 _atom_site_fract_x
 _atom_site_fract_y
 _atom_site_fract_z
 _atom_site_occupancy
  Lu  Lu0  1  0.70368466  0.29631534  0.29631534  1
  Lu  Lu1  1  0.70368466  0.29631534  0.70368466  1
  Lu  Lu2  1  0.70368466  0.70368466  0.29631534  1
  Lu  Lu3  1  0.29631534  0.70368466  0.70368466  1
  Lu  Lu4  1  0.29631534  0.70368466  0.29631534  1
  Lu  Lu5  1  0.29631534  0.29631534  0.70368466  1
  Mn  Mn6  1  0.00000000  -0.00000000  -0.00000000  1
  Mn  Mn7  1  0.50000000  -0.00000000  -0.00000000  1
  Mn  Mn8  1  0.50000000  0.00000000  0.50000000  1
  Mn  Mn9  1  0.50000000  0.50000000  -0.00000000  1
  Mn  Mn10  1  0.00000000  0.50000000  0.50000000  1
  Mn  Mn11  1  0.00000000  0.50000000  -0.00000000  1
  Mn  Mn12  1  0.00000000  -0.00000000  0.50000000  1
  Mn  Mn13  1  0.63566772  0.12144409  0.12144409  1
  Mn  Mn14  1  0.12144409  0.63566772  0.12144409  1
  Mn  Mn15  1  0.12144409  0.12144409  0.63566772  1
  Mn  Mn16  1  0.12144409  0.12144409  0.12144409  1
  Mn  Mn17  1  0.36433228  0.87855591  0.87855591  1
  Mn  Mn18  1  0.87855591  0.36433228  0.87855591  1
  Mn  Mn19  1  0.87855591  0.87855591  0.36433228  1
  Mn  Mn20  1  0.87855591  0.87855591  0.87855591  1
  Mn  Mn21  1  0.02953284  0.32348905  0.32348905  1
  Mn  Mn22  1  0.32348905  0.02953284  0.32348905  1
  Mn  Mn23  1  0.32348905  0.32348905  0.02953284  1
  Mn  Mn24  1  0.32348905  0.32348905  0.32348905  1
  Mn  Mn25  1  0.97046716  0.67651095  0.67651095  1
  Mn  Mn26  1  0.67651095  0.97046716  0.67651095  1
  Mn  Mn27  1  0.67651095  0.67651095  0.97046716  1
  Mn  Mn28  1  0.67651095  0.67651095  0.67651095  1
