# generated using pymatgen
data_LiMgAlF6
_symmetry_space_group_name_H-M   'P 1'
_cell_length_a   4.57500485
_cell_length_b   8.46021364
_cell_length_c   8.46014418
_cell_angle_alpha   119.99972355
_cell_angle_beta   90.00000000
_cell_angle_gamma   90.00081390
_symmetry_Int_Tables_number   1
_chemical_formula_structural   LiMgAlF6
_chemical_formula_sum   'Li3 Mg3 Al3 F18'
_cell_volume   283.58450324
_cell_formula_units_Z   3
loop_
 _symmetry_equiv_pos_site_id
 _symmetry_equiv_pos_as_xyz
  1  'x, y, z'
loop_
 _atom_site_type_symbol
 _atom_site_label
 _atom_site_symmetry_multiplicity
 _atom_site_fract_x
 _atom_site_fract_y
 _atom_site_fract_z
 _atom_site_occupancy
  Li  Li0  1  0.49999683  0.69956392  0.69956745  1
  Li  Li1  1  0.50000317  0.30043608  0.00000353  1
  Li  Li2  1  0.50000000  1.00000000  0.30043626  1
  Mg  Mg3  1  -0.00000055  0.35755935  0.35755851  1
  Mg  Mg4  1  0.00000055  0.64244065  -0.00000084  1
  Mg  Mg5  1  0.00000000  0.00000000  0.64243639  1
  Al  Al6  1  0.00000000  0.00000000  -0.00000463  1
  Al  Al7  1  0.50566318  0.33339940  0.66670008  1
  Al  Al8  1  0.49433682  0.66660060  0.33330067  1
  F  F9  1  0.78218689  0.79141803  0.90410417  1
  F  F10  1  0.78218750  0.09589315  0.88730075  1
  F  F11  1  0.78217941  0.11268301  0.20859057  1
  F  F12  1  0.21781311  0.20858197  0.11268614  1
  F  F13  1  0.21782059  0.88731699  0.09590757  1
  F  F14  1  0.21781250  0.90410685  0.79140760  1
  F  F15  1  0.73333954  0.12775962  0.55591167  1
  F  F16  1  0.73332491  0.44407300  0.57185932  1
  F  F17  1  0.73332398  0.42814049  0.87221704  1
  F  F18  1  0.26666046  0.87224038  0.42815205  1
  F  F19  1  0.26667602  0.57185951  0.44407655  1
  F  F20  1  0.26667509  0.55592700  0.12778633  1
  F  F21  1  0.28052099  0.53950322  0.78096108  1
  F  F22  1  0.28048281  0.21902658  0.75854331  1
  F  F23  1  0.28049449  0.24144102  0.46048243  1
  F  F24  1  0.71947901  0.46049678  0.24145786  1
  F  F25  1  0.71950551  0.75855898  0.21904141  1
  F  F26  1  0.71951719  0.78097342  0.53951673  1
