# generated using pymatgen
data_Ta3Cr3N
_symmetry_space_group_name_H-M   'P 1'
_cell_length_a   8.10536245
_cell_length_b   8.10536245
_cell_length_c   8.10536245
_cell_angle_alpha   60.00000000
_cell_angle_beta   60.00000000
_cell_angle_gamma   60.00000000
_symmetry_Int_Tables_number   1
_chemical_formula_structural   Ta3Cr3N
_chemical_formula_sum   'Ta12 Cr12 N4'
_cell_volume   376.53237351
_cell_formula_units_Z   4
loop_
 _symmetry_equiv_pos_site_id
 _symmetry_equiv_pos_as_xyz
  1  'x, y, z'
loop_
 _atom_site_type_symbol
 _atom_site_label
 _atom_site_symmetry_multiplicity
 _atom_site_fract_x
 _atom_site_fract_y
 _atom_site_fract_z
 _atom_site_occupancy
  Ta  Ta0  1  0.43163618  0.81836382  0.81836382  1
  Ta  Ta1  1  0.81836382  0.43163618  0.43163618  1
  Ta  Ta2  1  0.81836382  0.43163618  0.81836382  1
  Ta  Ta3  1  0.43163618  0.81836382  0.43163618  1
  Ta  Ta4  1  0.81836382  0.81836382  0.43163618  1
  Ta  Ta5  1  0.43163618  0.43163618  0.81836382  1
  Ta  Ta6  1  0.56836382  0.18163618  0.18163618  1
  Ta  Ta7  1  0.18163618  0.56836382  0.56836382  1
  Ta  Ta8  1  0.18163618  0.56836382  0.18163618  1
  Ta  Ta9  1  0.56836382  0.18163618  0.56836382  1
  Ta  Ta10  1  0.18163618  0.18163618  0.56836382  1
  Ta  Ta11  1  0.56836382  0.56836382  0.18163618  1
  Cr  Cr12  1  0.00000000  0.00000000  0.50000000  1
  Cr  Cr13  1  0.00000000  0.50000000  0.00000000  1
  Cr  Cr14  1  0.50000000  0.00000000  0.00000000  1
  Cr  Cr15  1  0.00000000  0.00000000  0.00000000  1
  Cr  Cr16  1  0.20375969  0.20375969  0.88872092  1
  Cr  Cr17  1  0.20375969  0.88872092  0.20375969  1
  Cr  Cr18  1  0.88872092  0.20375969  0.20375969  1
  Cr  Cr19  1  0.20375969  0.20375969  0.20375969  1
  Cr  Cr20  1  0.79624031  0.79624031  0.11127908  1
  Cr  Cr21  1  0.79624031  0.11127908  0.79624031  1
  Cr  Cr22  1  0.11127908  0.79624031  0.79624031  1
  Cr  Cr23  1  0.79624031  0.79624031  0.79624031  1
  N  N24  1  0.50000000  0.50000000  0.00000000  1
  N  N25  1  0.50000000  0.00000000  0.50000000  1
  N  N26  1  0.00000000  0.50000000  0.50000000  1
  N  N27  1  0.50000000  0.50000000  0.50000000  1
