# generated using pymatgen
data_V4P3
_symmetry_space_group_name_H-M   'P 1'
_cell_length_a   3.23242959
_cell_length_b   6.83694742
_cell_length_c   17.23238705
_cell_angle_alpha   90.00000000
_cell_angle_beta   90.00000000
_cell_angle_gamma   103.67382106
_symmetry_Int_Tables_number   1
_chemical_formula_structural   V4P3
_chemical_formula_sum   'V16 P12'
_cell_volume   370.04099663
_cell_formula_units_Z   4
loop_
 _symmetry_equiv_pos_site_id
 _symmetry_equiv_pos_as_xyz
  1  'x, y, z'
loop_
 _atom_site_type_symbol
 _atom_site_label
 _atom_site_symmetry_multiplicity
 _atom_site_fract_x
 _atom_site_fract_y
 _atom_site_fract_z
 _atom_site_occupancy
  V  V0  1  0.26201945  0.52403889  0.66231931  1
  V  V1  1  0.73798055  0.47596111  0.33768069  1
  V  V2  1  0.26201945  0.52403889  0.83768069  1
  V  V3  1  0.73798055  0.47596111  0.16231931  1
  V  V4  1  0.46556317  0.93112633  0.61917939  1
  V  V5  1  0.53443683  0.06887367  0.38082061  1
  V  V6  1  0.46556317  0.93112633  0.88082061  1
  V  V7  1  0.53443683  0.06887367  0.11917939  1
  V  V8  1  0.33285971  0.66571942  0.47160796  1
  V  V9  1  0.66714029  0.33428058  0.52839204  1
  V  V10  1  0.33285971  0.66571942  0.02839204  1
  V  V11  1  0.66714029  0.33428058  0.97160796  1
  V  V12  1  -0.00000000  -0.00000000  0.50000000  1
  V  V13  1  -0.00000000  -0.00000000  0.00000000  1
  V  V14  1  0.94412988  0.88825975  0.25000000  1
  V  V15  1  0.05587012  0.11174025  0.75000000  1
  P  P16  1  0.09691778  0.19383556  0.61755926  1
  P  P17  1  0.90308222  0.80616444  0.38244074  1
  P  P18  1  0.09691778  0.19383556  0.88244074  1
  P  P19  1  0.90308222  0.80616444  0.11755926  1
  P  P20  1  0.15833558  0.31667116  0.42317540  1
  P  P21  1  0.84166442  0.68332884  0.57682460  1
  P  P22  1  0.15833558  0.31667116  0.07682460  1
  P  P23  1  0.84166442  0.68332884  0.92317540  1
  P  P24  1  0.30732468  0.61464936  0.25000000  1
  P  P25  1  0.69267532  0.38535064  0.75000000  1
  P  P26  1  0.58542040  0.17084081  0.25000000  1
  P  P27  1  0.41457960  0.82915919  0.75000000  1
