# generated using pymatgen
data_Cs3Ho2Br9
_symmetry_space_group_name_H-M   'P 1'
_cell_length_a   10.49686362
_cell_length_b   10.49686362
_cell_length_c   10.49686365
_cell_angle_alpha   83.50264260
_cell_angle_beta   83.50264260
_cell_angle_gamma   83.50263882
_symmetry_Int_Tables_number   1
_chemical_formula_structural   Cs3Ho2Br9
_chemical_formula_sum   'Cs6 Ho4 Br18'
_cell_volume   1135.86363376
_cell_formula_units_Z   2
loop_
 _symmetry_equiv_pos_site_id
 _symmetry_equiv_pos_as_xyz
  1  'x, y, z'
loop_
 _atom_site_type_symbol
 _atom_site_label
 _atom_site_symmetry_multiplicity
 _atom_site_fract_x
 _atom_site_fract_y
 _atom_site_fract_z
 _atom_site_occupancy
  Cs  Cs0  1  0.91171874  0.58828126  0.25000000  1
  Cs  Cs1  1  0.58828126  0.25000000  0.91171874  1
  Cs  Cs2  1  0.25000000  0.91171874  0.58828126  1
  Cs  Cs3  1  0.41171874  0.75000000  0.08828126  1
  Cs  Cs4  1  0.75000000  0.08828126  0.41171874  1
  Cs  Cs5  1  0.08828126  0.41171874  0.75000000  1
  Ho  Ho6  1  0.84660332  0.84660332  0.84660332  1
  Ho  Ho7  1  0.34660332  0.34660332  0.34660332  1
  Ho  Ho8  1  0.15339668  0.15339668  0.15339668  1
  Ho  Ho9  1  0.65339668  0.65339668  0.65339668  1
  Br  Br10  1  0.40442704  0.09557296  0.25000000  1
  Br  Br11  1  0.09557296  0.25000000  0.40442704  1
  Br  Br12  1  0.25000000  0.40442704  0.09557296  1
  Br  Br13  1  0.90442704  0.75000000  0.59557296  1
  Br  Br14  1  0.75000000  0.59557296  0.90442704  1
  Br  Br15  1  0.59557296  0.90442704  0.75000000  1
  Br  Br16  1  0.41525123  0.23601636  0.57839931  1
  Br  Br17  1  0.23601636  0.57839931  0.41525123  1
  Br  Br18  1  0.57839931  0.41525123  0.23601636  1
  Br  Br19  1  0.91525123  0.07839931  0.73601636  1
  Br  Br20  1  0.07839931  0.73601636  0.91525123  1
  Br  Br21  1  0.73601636  0.91525123  0.07839931  1
  Br  Br22  1  0.58474877  0.76398364  0.42160069  1
  Br  Br23  1  0.76398364  0.42160069  0.58474877  1
  Br  Br24  1  0.42160069  0.58474877  0.76398364  1
  Br  Br25  1  0.08474877  0.92160069  0.26398364  1
  Br  Br26  1  0.92160069  0.26398364  0.08474877  1
  Br  Br27  1  0.26398364  0.08474877  0.92160069  1
