# generated using pymatgen
data_Er4Zn5Ge6
_symmetry_space_group_name_H-M   'P 1'
_cell_length_a   4.23065846
_cell_length_b   9.55925504
_cell_length_c   15.26673482
_cell_angle_alpha   90.00000000
_cell_angle_beta   90.00000000
_cell_angle_gamma   102.78457970
_symmetry_Int_Tables_number   1
_chemical_formula_structural   Er4Zn5Ge6
_chemical_formula_sum   'Er8 Zn10 Ge12'
_cell_volume   602.11001853
_cell_formula_units_Z   2
loop_
 _symmetry_equiv_pos_site_id
 _symmetry_equiv_pos_as_xyz
  1  'x, y, z'
loop_
 _atom_site_type_symbol
 _atom_site_label
 _atom_site_symmetry_multiplicity
 _atom_site_fract_x
 _atom_site_fract_y
 _atom_site_fract_z
 _atom_site_occupancy
  Er  Er0  1  0.98215730  0.96431460  0.76355362  1
  Er  Er1  1  0.01784270  0.03568540  0.26355362  1
  Er  Er2  1  0.82527829  0.65055659  0.31871770  1
  Er  Er3  1  0.17472171  0.34944341  0.81871770  1
  Er  Er4  1  0.83284667  0.66569334  0.95987830  1
  Er  Er5  1  0.16715333  0.33430666  0.45987830  1
  Er  Er6  1  0.96730872  0.93461745  0.49983726  1
  Er  Er7  1  0.03269128  0.06538255  0.99983726  1
  Zn  Zn8  1  0.65553645  0.31107290  0.99040379  1
  Zn  Zn9  1  0.34446355  0.68892710  0.49040379  1
  Zn  Zn10  1  0.69922492  0.39844985  0.63941274  1
  Zn  Zn11  1  0.30077508  0.60155015  0.13941274  1
  Zn  Zn12  1  0.34963604  0.69927208  0.78230433  1
  Zn  Zn13  1  0.65036396  0.30072792  0.28230433  1
  Zn  Zn14  1  0.84810451  0.69620903  0.63647686  1
  Zn  Zn15  1  0.15189549  0.30379097  0.13647686  1
  Zn  Zn16  1  0.56521558  0.13043116  0.57901322  1
  Zn  Zn17  1  0.43478442  0.86956884  0.07901322  1
  Ge  Ge18  1  0.77118433  0.54236867  0.49760982  1
  Ge  Ge19  1  0.22881567  0.45763133  0.99760982  1
  Ge  Ge20  1  0.56924799  0.13849598  0.85637263  1
  Ge  Ge21  1  0.43075201  0.86150402  0.35637263  1
  Ge  Ge22  1  0.77644074  0.55288148  0.77833278  1
  Ge  Ge23  1  0.22355926  0.44711852  0.27833278  1
  Ge  Ge24  1  0.44009699  0.88019397  0.90908992  1
  Ge  Ge25  1  0.55990301  0.11980603  0.40908992  1
  Ge  Ge26  1  0.43306226  0.86612452  0.63425013  1
  Ge  Ge27  1  0.56693774  0.13387548  0.13425013  1
  Ge  Ge28  1  0.88725096  0.77450192  0.14612091  1
  Ge  Ge29  1  0.11274904  0.22549808  0.64612091  1
