# generated using pymatgen
data_Yb(Al5Ru)2
_symmetry_space_group_name_H-M   'P 1'
_cell_length_a   6.88356789
_cell_length_b   6.88356789
_cell_length_c   9.10521568
_cell_angle_alpha   90.00000000
_cell_angle_beta   90.00000000
_cell_angle_gamma   96.84095332
_symmetry_Int_Tables_number   1
_chemical_formula_structural   Yb(Al5Ru)2
_chemical_formula_sum   'Yb2 Al20 Ru4'
_cell_volume   428.36548686
_cell_formula_units_Z   2
loop_
 _symmetry_equiv_pos_site_id
 _symmetry_equiv_pos_as_xyz
  1  'x, y, z'
loop_
 _atom_site_type_symbol
 _atom_site_label
 _atom_site_symmetry_multiplicity
 _atom_site_fract_x
 _atom_site_fract_y
 _atom_site_fract_z
 _atom_site_occupancy
  Yb  Yb0  1  0.87537362  0.12462638  0.75000000  1
  Yb  Yb1  1  0.12462638  0.87537362  0.25000000  1
  Al  Al2  1  0.85912463  0.58542771  0.75000000  1
  Al  Al3  1  0.58542771  0.85912463  0.25000000  1
  Al  Al4  1  0.14087537  0.41457229  0.25000000  1
  Al  Al5  1  0.41457229  0.14087537  0.75000000  1
  Al  Al6  1  0.21965106  0.47750276  0.75000000  1
  Al  Al7  1  0.47750276  0.21965106  0.25000000  1
  Al  Al8  1  0.78034894  0.52249724  0.25000000  1
  Al  Al9  1  0.52249724  0.78034894  0.75000000  1
  Al  Al10  1  0.84419203  0.15580797  0.09925893  1
  Al  Al11  1  0.15580797  0.84419203  0.90074107  1
  Al  Al12  1  0.84419203  0.15580797  0.40074107  1
  Al  Al13  1  0.15580797  0.84419203  0.59925893  1
  Al  Al14  1  0.62428806  0.37571194  0.95374634  1
  Al  Al15  1  0.37571194  0.62428806  0.04625366  1
  Al  Al16  1  0.62428806  0.37571194  0.54625366  1
  Al  Al17  1  0.37571194  0.62428806  0.45374634  1
  Al  Al18  1  0.22539541  0.22539541  0.50000000  1
  Al  Al19  1  0.22539541  0.22539541  -0.00000000  1
  Al  Al20  1  0.77460459  0.77460459  0.50000000  1
  Al  Al21  1  0.77460459  0.77460459  -0.00000000  1
  Ru  Ru22  1  0.00000000  0.50000000  0.50000000  1
  Ru  Ru23  1  0.50000000  0.00000000  0.50000000  1
  Ru  Ru24  1  0.00000000  0.50000000  0.00000000  1
  Ru  Ru25  1  0.50000000  0.00000000  0.00000000  1
