# generated using pymatgen
data_CsBaVS4
_symmetry_space_group_name_H-M   'P 1'
_cell_length_a   6.95890347
_cell_length_b   10.15612995
_cell_length_c   12.15479553
_cell_angle_alpha   90.00000000
_cell_angle_beta   90.00000000
_cell_angle_gamma   90.00000000
_symmetry_Int_Tables_number   1
_chemical_formula_structural   CsBaVS4
_chemical_formula_sum   'Cs4 Ba4 V4 S16'
_cell_volume   859.04659122
_cell_formula_units_Z   4
loop_
 _symmetry_equiv_pos_site_id
 _symmetry_equiv_pos_as_xyz
  1  'x, y, z'
loop_
 _atom_site_type_symbol
 _atom_site_label
 _atom_site_symmetry_multiplicity
 _atom_site_fract_x
 _atom_site_fract_y
 _atom_site_fract_z
 _atom_site_occupancy
  Cs  Cs0  1  0.25000000  0.86687304  0.93354942  1
  Cs  Cs1  1  0.25000000  0.63312696  0.43354942  1
  Cs  Cs2  1  0.75000000  0.13312696  0.06645058  1
  Cs  Cs3  1  0.75000000  0.36687304  0.56645058  1
  Ba  Ba4  1  0.25000000  0.40520421  0.85049472  1
  Ba  Ba5  1  0.25000000  0.09479579  0.35049472  1
  Ba  Ba6  1  0.75000000  0.59479579  0.14950528  1
  Ba  Ba7  1  0.75000000  0.90520421  0.64950528  1
  V  V8  1  0.25000000  0.11908566  0.66941980  1
  V  V9  1  0.25000000  0.38091434  0.16941980  1
  V  V10  1  0.75000000  0.88091434  0.33058020  1
  V  V11  1  0.75000000  0.61908566  0.83058020  1
  S  S12  1  0.49878922  0.13195515  0.77429163  1
  S  S13  1  0.00121078  0.36804485  0.27429163  1
  S  S14  1  0.99878922  0.86804485  0.22570837  1
  S  S15  1  0.50121078  0.63195515  0.72570837  1
  S  S16  1  0.50121078  0.86804485  0.22570837  1
  S  S17  1  0.99878922  0.63195515  0.72570837  1
  S  S18  1  0.00121078  0.13195515  0.77429163  1
  S  S19  1  0.49878922  0.36804485  0.27429163  1
  S  S20  1  0.25000000  0.28761683  0.56075455  1
  S  S21  1  0.25000000  0.21238317  0.06075455  1
  S  S22  1  0.75000000  0.71238317  0.43924545  1
  S  S23  1  0.75000000  0.78761683  0.93924545  1
  S  S24  1  0.25000000  0.93725781  0.57757222  1
  S  S25  1  0.25000000  0.56274219  0.07757222  1
  S  S26  1  0.75000000  0.06274219  0.42242778  1
  S  S27  1  0.75000000  0.43725781  0.92242778  1
