# generated using pymatgen
data_Cs3Cr2Cl9
_symmetry_space_group_name_H-M   'P 1'
_cell_length_a   7.46012536
_cell_length_b   7.46012536
_cell_length_c   18.37628924
_cell_angle_alpha   90.00000000
_cell_angle_beta   90.00000000
_cell_angle_gamma   119.99886239
_symmetry_Int_Tables_number   1
_chemical_formula_structural   Cs3Cr2Cl9
_chemical_formula_sum   'Cs6 Cr4 Cl18'
_cell_volume   885.69803120
_cell_formula_units_Z   2
loop_
 _symmetry_equiv_pos_site_id
 _symmetry_equiv_pos_as_xyz
  1  'x, y, z'
loop_
 _atom_site_type_symbol
 _atom_site_label
 _atom_site_symmetry_multiplicity
 _atom_site_fract_x
 _atom_site_fract_y
 _atom_site_fract_z
 _atom_site_occupancy
  Cs  Cs0  1  0.00000155  -0.00000155  0.75000000  1
  Cs  Cs1  1  -0.00000155  0.00000155  0.25000000  1
  Cs  Cs2  1  0.66668494  0.33331506  0.57488695  1
  Cs  Cs3  1  0.33331506  0.66668494  0.42511305  1
  Cs  Cs4  1  0.33331506  0.66668494  0.07488695  1
  Cs  Cs5  1  0.66668494  0.33331506  0.92511305  1
  Cr  Cr6  1  0.66675112  0.33324888  0.33718776  1
  Cr  Cr7  1  0.33324888  0.66675112  0.66281224  1
  Cr  Cr8  1  0.33324888  0.66675112  0.83718776  1
  Cr  Cr9  1  0.66675112  0.33324888  0.16281224  1
  Cl  Cl10  1  0.47616218  0.95235873  0.75000000  1
  Cl  Cl11  1  0.47616169  0.52383831  0.75000000  1
  Cl  Cl12  1  0.04764127  0.52383782  0.75000000  1
  Cl  Cl13  1  0.52383782  0.04764127  0.25000000  1
  Cl  Cl14  1  0.52383831  0.47616169  0.25000000  1
  Cl  Cl15  1  0.95235873  0.47616218  0.25000000  1
  Cl  Cl16  1  0.18371100  0.36743453  0.59527110  1
  Cl  Cl17  1  0.18369999  0.81630001  0.59526934  1
  Cl  Cl18  1  0.63256547  0.81628900  0.59527110  1
  Cl  Cl19  1  0.81628900  0.63256547  0.40472890  1
  Cl  Cl20  1  0.81630001  0.18369999  0.40473066  1
  Cl  Cl21  1  0.36743453  0.18371100  0.40472890  1
  Cl  Cl22  1  0.81628900  0.63256547  0.09527110  1
  Cl  Cl23  1  0.81630001  0.18369999  0.09526934  1
  Cl  Cl24  1  0.36743453  0.18371100  0.09527110  1
  Cl  Cl25  1  0.18371100  0.36743453  0.90472890  1
  Cl  Cl26  1  0.18369999  0.81630001  0.90473066  1
  Cl  Cl27  1  0.63256547  0.81628900  0.90472890  1
