# generated using pymatgen
data_Rb3SbS3
_symmetry_space_group_name_H-M   'P 1'
_cell_length_a   10.01442012
_cell_length_b   10.01442012
_cell_length_c   10.01442012
_cell_angle_alpha   90.00000000
_cell_angle_beta   90.00000000
_cell_angle_gamma   90.00000000
_symmetry_Int_Tables_number   1
_chemical_formula_structural   Rb3SbS3
_chemical_formula_sum   'Rb12 Sb4 S12'
_cell_volume   1004.33227719
_cell_formula_units_Z   4
loop_
 _symmetry_equiv_pos_site_id
 _symmetry_equiv_pos_as_xyz
  1  'x, y, z'
loop_
 _atom_site_type_symbol
 _atom_site_label
 _atom_site_symmetry_multiplicity
 _atom_site_fract_x
 _atom_site_fract_y
 _atom_site_fract_z
 _atom_site_occupancy
  Rb  Rb0  1  0.44132756  0.94132756  0.55867244  1
  Rb  Rb1  1  0.94132756  0.55867244  0.44132756  1
  Rb  Rb2  1  0.55867244  0.44132756  0.94132756  1
  Rb  Rb3  1  0.05867244  0.05867244  0.05867244  1
  Rb  Rb4  1  0.93737739  0.43737739  0.06262261  1
  Rb  Rb5  1  0.43737739  0.06262261  0.93737739  1
  Rb  Rb6  1  0.06262261  0.93737739  0.43737739  1
  Rb  Rb7  1  0.56262261  0.56262261  0.56262261  1
  Rb  Rb8  1  0.67874883  0.17874883  0.32125117  1
  Rb  Rb9  1  0.17874883  0.32125117  0.67874883  1
  Rb  Rb10  1  0.32125117  0.67874883  0.17874883  1
  Rb  Rb11  1  0.82125117  0.82125117  0.82125117  1
  Sb  Sb12  1  0.22400339  0.72400339  0.77599661  1
  Sb  Sb13  1  0.72400339  0.77599661  0.22400339  1
  Sb  Sb14  1  0.77599661  0.22400339  0.72400339  1
  Sb  Sb15  1  0.27599661  0.27599661  0.27599661  1
  S  S16  1  0.15448579  0.95845803  0.75585933  1
  S  S17  1  0.24414067  0.65448579  0.54154197  1
  S  S18  1  0.45845803  0.74414067  0.84551421  1
  S  S19  1  0.65448579  0.54154197  0.24414067  1
  S  S20  1  0.74414067  0.84551421  0.45845803  1
  S  S21  1  0.95845803  0.75585933  0.15448579  1
  S  S22  1  0.84551421  0.45845803  0.74414067  1
  S  S23  1  0.75585933  0.15448579  0.95845803  1
  S  S24  1  0.54154197  0.24414067  0.65448579  1
  S  S25  1  0.34551421  0.04154197  0.25585933  1
  S  S26  1  0.25585933  0.34551421  0.04154197  1
  S  S27  1  0.04154197  0.25585933  0.34551421  1
