# generated using pymatgen
data_U8TiS17
_symmetry_space_group_name_H-M   'P 1'
_cell_length_a   7.79637690
_cell_length_b   7.79637690
_cell_length_c   10.36897594
_cell_angle_alpha   80.82156890
_cell_angle_beta   80.82156890
_cell_angle_gamma   64.94190769
_symmetry_Int_Tables_number   1
_chemical_formula_structural   U8TiS17
_chemical_formula_sum   'U8 Ti1 S17'
_cell_volume   560.64404980
_cell_formula_units_Z   1
loop_
 _symmetry_equiv_pos_site_id
 _symmetry_equiv_pos_as_xyz
  1  'x, y, z'
loop_
 _atom_site_type_symbol
 _atom_site_label
 _atom_site_symmetry_multiplicity
 _atom_site_fract_x
 _atom_site_fract_y
 _atom_site_fract_z
 _atom_site_occupancy
  U  U0  1  0.18282216  0.69930246  0.70114312  1
  U  U1  1  0.69930246  0.18282216  0.70114312  1
  U  U2  1  0.81717784  0.30069754  0.29885688  1
  U  U3  1  0.30069754  0.81717784  0.29885688  1
  U  U4  1  0.79580159  0.79580159  0.45817583  1
  U  U5  1  0.20419841  0.20419841  0.54182417  1
  U  U6  1  0.31620785  0.31620785  0.01675239  1
  U  U7  1  0.68379215  0.68379215  0.98324761  1
  Ti  Ti8  1  0.00000000  0.00000000  0.00000000  1
  S  S9  1  0.17886948  0.56776622  0.46467225  1
  S  S10  1  0.56776622  0.17886948  0.46467225  1
  S  S11  1  0.82113052  0.43223378  0.53532775  1
  S  S12  1  0.43223378  0.82113052  0.53532775  1
  S  S13  1  0.06153021  0.67476416  0.96969168  1
  S  S14  1  0.67476416  0.06153021  0.96969168  1
  S  S15  1  0.93846979  0.32523584  0.03030832  1
  S  S16  1  0.32523584  0.93846979  0.03030832  1
  S  S17  1  0.78859518  0.78859518  0.72253499  1
  S  S18  1  0.21140482  0.21140482  0.27746501  1
  S  S19  1  0.93819111  0.93819111  0.23040129  1
  S  S20  1  0.06180889  0.06180889  0.76959871  1
  S  S21  1  0.69766997  0.69766997  0.24546513  1
  S  S22  1  0.30233003  0.30233003  0.75453487  1
  S  S23  1  0.47831584  0.47831584  0.16889005  1
  S  S24  1  0.52168416  0.52168416  0.83110995  1
  S  S25  1  0.00000000  0.00000000  0.50000000  1
