# generated using pymatgen
data_MnAgPO4
_symmetry_space_group_name_H-M   'P 1'
_cell_length_a   5.78139805
_cell_length_b   6.72711966
_cell_length_c   9.82193826
_cell_angle_alpha   74.22972764
_cell_angle_beta   80.64816319
_cell_angle_gamma   77.52883231
_symmetry_Int_Tables_number   1
_chemical_formula_structural   MnAgPO4
_chemical_formula_sum   'Mn4 Ag4 P4 O16'
_cell_volume   356.74663434
_cell_formula_units_Z   4
loop_
 _symmetry_equiv_pos_site_id
 _symmetry_equiv_pos_as_xyz
  1  'x, y, z'
loop_
 _atom_site_type_symbol
 _atom_site_label
 _atom_site_symmetry_multiplicity
 _atom_site_fract_x
 _atom_site_fract_y
 _atom_site_fract_z
 _atom_site_occupancy
  Mn  Mn0  1  0.21862400  0.83193795  0.42680931  1
  Mn  Mn1  1  0.78137600  0.16806205  0.57319069  1
  Mn  Mn2  1  0.66245691  0.06350193  0.21210538  1
  Mn  Mn3  1  0.33754309  0.93649807  0.78789462  1
  Ag  Ag4  1  0.31271729  0.62996285  0.11801587  1
  Ag  Ag5  1  0.68728271  0.37003715  0.88198413  1
  Ag  Ag6  1  0.83183225  0.51820230  0.24678414  1
  Ag  Ag7  1  0.16816775  0.48179770  0.75321586  1
  P  P8  1  0.31227843  0.29103779  0.46136401  1
  P  P9  1  0.68772157  0.70896221  0.53863599  1
  P  P10  1  0.18450074  0.15359777  0.08690125  1
  P  P11  1  0.81549926  0.84640223  0.91309875  1
  O  O12  1  0.12951608  0.16369691  0.44212600  1
  O  O13  1  0.87048392  0.83630309  0.55787400  1
  O  O14  1  0.34914313  0.23604154  0.62422651  1
  O  O15  1  0.65085687  0.76395846  0.37577349  1
  O  O16  1  0.22695901  0.52709147  0.40179786  1
  O  O17  1  0.77304099  0.47290853  0.59820214  1
  O  O18  1  0.56645723  0.21784425  0.38762792  1
  O  O19  1  0.43354277  0.78215575  0.61237208  1
  O  O20  1  0.22880807  0.93615574  0.19814151  1
  O  O21  1  0.77119193  0.06384426  0.80185849  1
  O  O22  1  0.21882103  0.12669197  0.93373842  1
  O  O23  1  0.78117897  0.87330803  0.06626158  1
  O  O24  1  0.92289256  0.26642516  0.12118014  1
  O  O25  1  0.07710744  0.73357484  0.87881986  1
  O  O26  1  0.37053290  0.28167903  0.10396733  1
  O  O27  1  0.62946710  0.71832097  0.89603267  1
