# generated using pymatgen
data_KZn2P2HO8
_symmetry_space_group_name_H-M   'P 1'
_cell_length_a   5.30843739
_cell_length_b   8.98450515
_cell_length_c   9.66090878
_cell_angle_alpha   96.98986205
_cell_angle_beta   101.35955564
_cell_angle_gamma   107.49348860
_symmetry_Int_Tables_number   1
_chemical_formula_structural   KZn2P2HO8
_chemical_formula_sum   'K2 Zn4 P4 H2 O16'
_cell_volume   422.70604989
_cell_formula_units_Z   2
loop_
 _symmetry_equiv_pos_site_id
 _symmetry_equiv_pos_as_xyz
  1  'x, y, z'
loop_
 _atom_site_type_symbol
 _atom_site_label
 _atom_site_symmetry_multiplicity
 _atom_site_fract_x
 _atom_site_fract_y
 _atom_site_fract_z
 _atom_site_occupancy
  K  K0  1  0.40281184  0.69380737  0.67881229  1
  K  K1  1  0.59718816  0.30619263  0.32118771  1
  Zn  Zn2  1  0.21786152  0.61522331  0.23156442  1
  Zn  Zn3  1  0.78213848  0.38477669  0.76843558  1
  Zn  Zn4  1  0.68669025  0.88688921  0.11025763  1
  Zn  Zn5  1  0.31330975  0.11311079  0.88974237  1
  P  P6  1  0.08898161  0.75655289  0.94726944  1
  P  P7  1  0.91101839  0.24344711  0.05273056  1
  P  P8  1  0.84034347  0.74869398  0.39073227  1
  P  P9  1  0.15965653  0.25130602  0.60926773  1
  H  H10  1  0.96684739  0.91516070  0.60118921  1
  H  H11  1  0.03315261  0.08483930  0.39881079  1
  O  O12  1  0.96994517  0.40213835  0.15437923  1
  O  O13  1  0.03005483  0.59786165  0.84562077  1
  O  O14  1  0.28859144  0.76297751  0.09600245  1
  O  O15  1  0.71140856  0.23702249  0.90399755  1
  O  O16  1  0.74356678  0.11205363  0.12029247  1
  O  O17  1  0.25643322  0.88794637  0.87970753  1
  O  O18  1  0.82389450  0.77852480  0.97122390  1
  O  O19  1  0.17610550  0.22147520  0.02877610  1
  O  O20  1  0.57638625  0.60777030  0.32655197  1
  O  O21  1  0.42361375  0.39222970  0.67344803  1
  O  O22  1  0.85199324  0.89385778  0.31668608  1
  O  O23  1  0.14800676  0.10614222  0.68331392  1
  O  O24  1  0.09034679  0.69561598  0.39430090  1
  O  O25  1  0.90965321  0.30438402  0.60569910  1
  O  O26  1  0.84137800  0.80397690  0.55512014  1
  O  O27  1  0.15862200  0.19602310  0.44487986  1
