# generated using pymatgen
data_Ce(Sn2Rh)2
_symmetry_space_group_name_H-M   'P 1'
_cell_length_a   4.53852516
_cell_length_b   7.20781463
_cell_length_c   18.67297223
_cell_angle_alpha   90.00000000
_cell_angle_beta   90.00000000
_cell_angle_gamma   90.00000000
_symmetry_Int_Tables_number   1
_chemical_formula_structural   Ce(Sn2Rh)2
_chemical_formula_sum   'Ce4 Sn16 Rh8'
_cell_volume   610.84610314
_cell_formula_units_Z   4
loop_
 _symmetry_equiv_pos_site_id
 _symmetry_equiv_pos_as_xyz
  1  'x, y, z'
loop_
 _atom_site_type_symbol
 _atom_site_label
 _atom_site_symmetry_multiplicity
 _atom_site_fract_x
 _atom_site_fract_y
 _atom_site_fract_z
 _atom_site_occupancy
  Ce  Ce0  1  0.25000000  0.99875317  0.85886046  1
  Ce  Ce1  1  0.25000000  0.50124683  0.35886046  1
  Ce  Ce2  1  0.75000000  0.00124683  0.14113954  1
  Ce  Ce3  1  0.75000000  0.49875317  0.64113954  1
  Sn  Sn4  1  0.25000000  0.30049330  0.18206746  1
  Sn  Sn5  1  0.25000000  0.19950670  0.68206746  1
  Sn  Sn6  1  0.75000000  0.69950670  0.81793254  1
  Sn  Sn7  1  0.75000000  0.80049330  0.31793254  1
  Sn  Sn8  1  0.25000000  0.72383653  0.19457203  1
  Sn  Sn9  1  0.25000000  0.77616347  0.69457203  1
  Sn  Sn10  1  0.75000000  0.27616347  0.80542797  1
  Sn  Sn11  1  0.75000000  0.22383653  0.30542797  1
  Sn  Sn12  1  0.25000000  0.86415790  0.03186427  1
  Sn  Sn13  1  0.25000000  0.63584210  0.53186427  1
  Sn  Sn14  1  0.75000000  0.13584210  0.96813573  1
  Sn  Sn15  1  0.75000000  0.36415790  0.46813573  1
  Sn  Sn16  1  0.25000000  0.51750609  0.93169618  1
  Sn  Sn17  1  0.25000000  0.98249391  0.43169618  1
  Sn  Sn18  1  0.75000000  0.48249391  0.06830382  1
  Sn  Sn19  1  0.75000000  0.01750609  0.56830382  1
  Rh  Rh20  1  0.25000000  0.25086594  0.03437131  1
  Rh  Rh21  1  0.25000000  0.24913406  0.53437131  1
  Rh  Rh22  1  0.75000000  0.74913406  0.96562869  1
  Rh  Rh23  1  0.75000000  0.75086594  0.46562869  1
  Rh  Rh24  1  0.25000000  0.01796085  0.28755940  1
  Rh  Rh25  1  0.25000000  0.48203915  0.78755940  1
  Rh  Rh26  1  0.75000000  0.98203915  0.71244060  1
  Rh  Rh27  1  0.75000000  0.51796085  0.21244060  1
