# generated using pymatgen
data_Sr4Ru6ClO18
_symmetry_space_group_name_H-M   'P 1'
_cell_length_a   8.10104609
_cell_length_b   8.10104609
_cell_length_c   8.10104609
_cell_angle_alpha   109.47122063
_cell_angle_beta   109.47122063
_cell_angle_gamma   109.47122063
_symmetry_Int_Tables_number   1
_chemical_formula_structural   Sr4Ru6ClO18
_chemical_formula_sum   'Sr4 Ru6 Cl1 O18'
_cell_volume   409.26199616
_cell_formula_units_Z   1
loop_
 _symmetry_equiv_pos_site_id
 _symmetry_equiv_pos_as_xyz
  1  'x, y, z'
loop_
 _atom_site_type_symbol
 _atom_site_label
 _atom_site_symmetry_multiplicity
 _atom_site_fract_x
 _atom_site_fract_y
 _atom_site_fract_z
 _atom_site_occupancy
  Sr  Sr0  1  0.00000000  0.00000000  0.37438906  1
  Sr  Sr1  1  0.62561094  0.62561094  0.62561094  1
  Sr  Sr2  1  0.00000000  0.37438906  0.00000000  1
  Sr  Sr3  1  0.37438906  -0.00000000  -0.00000000  1
  Ru  Ru4  1  0.50000000  0.66345104  0.16345104  1
  Ru  Ru5  1  0.33654896  0.83654896  0.50000000  1
  Ru  Ru6  1  0.83654896  0.50000000  0.33654896  1
  Ru  Ru7  1  0.50000000  0.33654896  0.83654896  1
  Ru  Ru8  1  0.16345104  0.50000000  0.66345104  1
  Ru  Ru9  1  0.66345104  0.16345104  0.50000000  1
  Cl  Cl10  1  0.00000000  0.00000000  0.00000000  1
  O  O11  1  0.64719696  0.95619876  0.26646354  1
  O  O12  1  0.38073342  0.73353646  0.68973522  1
  O  O13  1  0.69099821  0.31026478  0.04380124  1
  O  O14  1  0.68973522  0.38073342  0.73353646  1
  O  O15  1  0.04380124  0.69099821  0.31026478  1
  O  O16  1  0.26646354  0.64719696  0.95619876  1
  O  O17  1  0.31026478  0.04380124  0.69099821  1
  O  O18  1  0.95619876  0.26646354  0.64719696  1
  O  O19  1  0.73353646  0.68973522  0.38073342  1
  O  O20  1  0.35280304  0.61926658  0.30900179  1
  O  O21  1  0.61926658  0.30900179  0.35280304  1
  O  O22  1  0.30900179  0.35280304  0.61926658  1
  O  O23  1  0.62657812  0.62657812  0.00000000  1
  O  O24  1  0.62657812  0.00000000  0.62657812  1
  O  O25  1  -0.00000000  0.37342188  0.37342188  1
  O  O26  1  0.37342188  -0.00000000  0.37342188  1
  O  O27  1  0.00000000  0.62657812  0.62657812  1
  O  O28  1  0.37342188  0.37342188  -0.00000000  1
