# generated using pymatgen
data_Pb3Se2(BrO3)2
_symmetry_space_group_name_H-M   'P 1'
_cell_length_a   5.73331566
_cell_length_b   7.40336286
_cell_length_c   13.65386867
_cell_angle_alpha   93.23130048
_cell_angle_beta   90.00000000
_cell_angle_gamma   112.78102273
_symmetry_Int_Tables_number   1
_chemical_formula_structural   Pb3Se2(BrO3)2
_chemical_formula_sum   'Pb6 Se4 Br4 O12'
_cell_volume   533.34026284
_cell_formula_units_Z   2
loop_
 _symmetry_equiv_pos_site_id
 _symmetry_equiv_pos_as_xyz
  1  'x, y, z'
loop_
 _atom_site_type_symbol
 _atom_site_label
 _atom_site_symmetry_multiplicity
 _atom_site_fract_x
 _atom_site_fract_y
 _atom_site_fract_z
 _atom_site_occupancy
  Pb  Pb0  1  0.55416815  -0.00000000  0.25000000  1
  Pb  Pb1  1  0.44583185  -0.00000000  0.75000000  1
  Pb  Pb2  1  0.80648275  0.58795311  0.14679665  1
  Pb  Pb3  1  0.21852964  0.41204689  0.35320335  1
  Pb  Pb4  1  0.19351725  0.41204689  0.85320335  1
  Pb  Pb5  1  0.78147036  0.58795311  0.64679665  1
  Se  Se6  1  0.10885739  0.21268938  0.11836356  1
  Se  Se7  1  0.89616801  0.78731062  0.38163644  1
  Se  Se8  1  0.89114261  0.78731062  0.88163644  1
  Se  Se9  1  0.10383199  0.21268938  0.61836356  1
  Br  Br10  1  0.34839805  0.71583801  0.05678587  1
  Br  Br11  1  0.63256005  0.28416199  0.44321413  1
  Br  Br12  1  0.65160195  0.28416199  0.94321413  1
  Br  Br13  1  0.36743995  0.71583801  0.55678587  1
  O  O14  1  0.93263409  0.31296202  0.19504338  1
  O  O15  1  0.61967207  0.68703798  0.30495662  1
  O  O16  1  0.06736591  0.68703798  0.80495662  1
  O  O17  1  0.38032793  0.31296202  0.69504338  1
  O  O18  1  0.37696571  0.28157503  0.19676413  1
  O  O19  1  0.09539067  0.71842497  0.30323587  1
  O  O20  1  0.62303429  0.71842497  0.80323587  1
  O  O21  1  0.90460933  0.28157503  0.69676413  1
  O  O22  1  0.94292751  0.97186758  0.13496258  1
  O  O23  1  0.97105993  0.02813242  0.36503742  1
  O  O24  1  0.05707249  0.02813242  0.86503742  1
  O  O25  1  0.02894007  0.97186758  0.63496258  1
