# generated using pymatgen
data_Eu2BiS4
_symmetry_space_group_name_H-M   'P 1'
_cell_length_a   4.06651347
_cell_length_b   11.59124205
_cell_length_c   14.64614126
_cell_angle_alpha   90.00000000
_cell_angle_beta   90.00000000
_cell_angle_gamma   90.00000000
_symmetry_Int_Tables_number   1
_chemical_formula_structural   Eu2BiS4
_chemical_formula_sum   'Eu8 Bi4 S16'
_cell_volume   690.35966394
_cell_formula_units_Z   4
loop_
 _symmetry_equiv_pos_site_id
 _symmetry_equiv_pos_as_xyz
  1  'x, y, z'
loop_
 _atom_site_type_symbol
 _atom_site_label
 _atom_site_symmetry_multiplicity
 _atom_site_fract_x
 _atom_site_fract_y
 _atom_site_fract_z
 _atom_site_occupancy
  Eu  Eu0  1  0.25000000  0.77186297  0.84531141  1
  Eu  Eu1  1  0.25000000  0.27186297  0.65468859  1
  Eu  Eu2  1  0.75000000  0.22813703  0.15468859  1
  Eu  Eu3  1  0.75000000  0.72813703  0.34531141  1
  Eu  Eu4  1  0.25000000  0.61057588  0.59749755  1
  Eu  Eu5  1  0.25000000  0.11057588  0.90250245  1
  Eu  Eu6  1  0.75000000  0.38942412  0.40250245  1
  Eu  Eu7  1  0.75000000  0.88942412  0.09749755  1
  Bi  Bi8  1  0.25000000  0.56362587  0.10806964  1
  Bi  Bi9  1  0.25000000  0.06362587  0.39193036  1
  Bi  Bi10  1  0.75000000  0.43637413  0.89193036  1
  Bi  Bi11  1  0.75000000  0.93637413  0.60806964  1
  S  S12  1  0.25000000  0.51539538  0.78771604  1
  S  S13  1  0.25000000  0.01539538  0.71228396  1
  S  S14  1  0.75000000  0.48460462  0.21228396  1
  S  S15  1  0.75000000  0.98460462  0.28771604  1
  S  S16  1  0.25000000  0.76237134  0.20067430  1
  S  S17  1  0.25000000  0.26237134  0.29932570  1
  S  S18  1  0.75000000  0.23762866  0.79932570  1
  S  S19  1  0.75000000  0.73762866  0.70067430  1
  S  S20  1  0.25000000  0.56130557  0.40496646  1
  S  S21  1  0.25000000  0.06130557  0.09503354  1
  S  S22  1  0.75000000  0.43869443  0.59503354  1
  S  S23  1  0.75000000  0.93869443  0.90496646  1
  S  S24  1  0.25000000  0.82806286  0.48331353  1
  S  S25  1  0.25000000  0.32806286  0.01668647  1
  S  S26  1  0.75000000  0.17193714  0.51668647  1
  S  S27  1  0.75000000  0.67193714  0.98331353  1
