# generated using pymatgen
data_SrCa7Mn7FeO24
_symmetry_space_group_name_H-M   'P 1'
_cell_length_a   7.64752239
_cell_length_b   7.64752239
_cell_length_c   7.64752239
_cell_angle_alpha   89.99889178
_cell_angle_beta   90.00110822
_cell_angle_gamma   89.99889178
_symmetry_Int_Tables_number   1
_chemical_formula_structural   SrCa7Mn7FeO24
_chemical_formula_sum   'Sr1 Ca7 Mn7 Fe1 O24'
_cell_volume   447.26227795
_cell_formula_units_Z   1
loop_
 _symmetry_equiv_pos_site_id
 _symmetry_equiv_pos_as_xyz
  1  'x, y, z'
loop_
 _atom_site_type_symbol
 _atom_site_label
 _atom_site_symmetry_multiplicity
 _atom_site_fract_x
 _atom_site_fract_y
 _atom_site_fract_z
 _atom_site_occupancy
  Sr  Sr0  1  0.75011514  0.24988486  0.75011514  1
  Ca  Ca1  1  0.24994634  0.24988920  0.24994634  1
  Ca  Ca2  1  0.24996388  0.24994667  0.75005333  1
  Ca  Ca3  1  0.24986162  0.75013838  0.24986162  1
  Ca  Ca4  1  0.24994634  0.75005366  0.75011080  1
  Ca  Ca5  1  0.75005333  0.24994667  0.24996388  1
  Ca  Ca6  1  0.75011080  0.75005366  0.24994634  1
  Ca  Ca7  1  0.75005333  0.75003612  0.75005333  1
  Mn  Mn8  1  0.00054726  0.99945274  0.49941859  1
  Mn  Mn9  1  0.00054726  0.50058141  0.00054726  1
  Mn  Mn10  1  0.00061320  0.50055253  0.49944747  1
  Mn  Mn11  1  0.49941859  0.99945274  0.00054726  1
  Mn  Mn12  1  0.49944747  0.99938680  0.49944747  1
  Mn  Mn13  1  0.49944747  0.50055253  0.00061320  1
  Mn  Mn14  1  0.49948617  0.50051383  0.49948617  1
  Fe  Fe15  1  0.00052905  0.99947095  0.00052905  1
  O  O16  1  0.25294800  0.99947681  0.00052319  1
  O  O17  1  0.25052476  0.99963150  0.49964768  1
  O  O18  1  0.25052476  0.50035232  0.00036850  1
  O  O19  1  0.25025853  0.50033799  0.49966201  1
  O  O20  1  0.74697617  0.99736545  0.00263455  1
  O  O21  1  0.74940582  0.99717120  0.49720069  1
  O  O22  1  0.74940582  0.50279931  0.00282880  1
  O  O23  1  0.74980002  0.50283100  0.49716900  1
  O  O24  1  0.00263455  0.25302383  0.00263455  1
  O  O25  1  0.00282880  0.25059418  0.49720069  1
  O  O26  1  0.00052319  0.74705200  0.00052319  1
  O  O27  1  0.00036850  0.74947524  0.49964768  1
  O  O28  1  0.49720069  0.25059418  0.00282880  1
  O  O29  1  0.49716900  0.25019998  0.49716900  1
  O  O30  1  0.49964768  0.74947524  0.00036850  1
  O  O31  1  0.49966201  0.74974147  0.49966201  1
  O  O32  1  0.00052319  0.99947681  0.25294800  1
  O  O33  1  0.00263455  0.99736545  0.74697617  1
  O  O34  1  0.00036850  0.50035232  0.25052476  1
  O  O35  1  0.00282880  0.50279931  0.74940582  1
  O  O36  1  0.49964768  0.99963150  0.25052476  1
  O  O37  1  0.49720069  0.99717120  0.74940582  1
  O  O38  1  0.49966201  0.50033799  0.25025853  1
  O  O39  1  0.49716900  0.50283100  0.74980002  1
