# generated using pymatgen
data_NaBOF2
_symmetry_space_group_name_H-M   'P 1'
_cell_length_a   6.91740198
_cell_length_b   6.91740198
_cell_length_c   9.44267249
_cell_angle_alpha   69.68491354
_cell_angle_beta   69.68491354
_cell_angle_gamma   60.34978092
_symmetry_Int_Tables_number   1
_chemical_formula_structural   NaBOF2
_chemical_formula_sum   'Na6 B6 O6 F12'
_cell_volume   359.61604559
_cell_formula_units_Z   6
loop_
 _symmetry_equiv_pos_site_id
 _symmetry_equiv_pos_as_xyz
  1  'x, y, z'
loop_
 _atom_site_type_symbol
 _atom_site_label
 _atom_site_symmetry_multiplicity
 _atom_site_fract_x
 _atom_site_fract_y
 _atom_site_fract_z
 _atom_site_occupancy
  Na  Na0  1  -0.00000000  0.50000000  0.50000000  1
  Na  Na1  1  0.50000000  0.00000000  -0.00000000  1
  Na  Na2  1  0.86861075  0.31769868  0.00184893  1
  Na  Na3  1  0.68230132  0.13138925  0.49815107  1
  Na  Na4  1  0.13138925  0.68230132  0.99815107  1
  Na  Na5  1  0.31769868  0.86861075  0.50184893  1
  B  B6  1  0.21080693  0.78919307  0.25000000  1
  B  B7  1  0.78919307  0.21080693  0.75000000  1
  B  B8  1  0.62927796  0.57924861  0.25436435  1
  B  B9  1  0.42075139  0.37072204  0.24563565  1
  B  B10  1  0.37072204  0.42075139  0.74563565  1
  B  B11  1  0.57924861  0.62927796  0.75436435  1
  O  O12  1  0.41844198  0.78168349  0.25537538  1
  O  O13  1  0.21831651  0.58155802  0.24462462  1
  O  O14  1  0.58155802  0.21831651  0.74462462  1
  O  O15  1  0.78168349  0.41844198  0.75537538  1
  O  O16  1  0.62252308  0.37747692  0.25000000  1
  O  O17  1  0.37747692  0.62252308  0.75000000  1
  F  F18  1  0.80047251  0.62674519  0.11761115  1
  F  F19  1  0.37325481  0.19952749  0.38238885  1
  F  F20  1  0.19952749  0.37325481  0.88238885  1
  F  F21  1  0.62674519  0.80047251  0.61761115  1
  F  F22  1  0.12692381  0.96580974  0.11501252  1
  F  F23  1  0.03419026  0.87307619  0.38498748  1
  F  F24  1  0.87307619  0.03419026  0.88498748  1
  F  F25  1  0.96580974  0.12692381  0.61501252  1
  F  F26  1  0.71778121  0.53426381  0.38770399  1
  F  F27  1  0.46573619  0.28221879  0.11229601  1
  F  F28  1  0.28221879  0.46573619  0.61229601  1
  F  F29  1  0.53426381  0.71778121  0.88770399  1
