# generated using pymatgen
data_Sr(LuSe2)2
_symmetry_space_group_name_H-M   'P 1'
_cell_length_a   4.08980272
_cell_length_b   12.53058225
_cell_length_c   14.77710466
_cell_angle_alpha   90.00000000
_cell_angle_beta   90.00000000
_cell_angle_gamma   90.00000000
_symmetry_Int_Tables_number   1
_chemical_formula_structural   Sr(LuSe2)2
_chemical_formula_sum   'Sr4 Lu8 Se16'
_cell_volume   757.29128722
_cell_formula_units_Z   4
loop_
 _symmetry_equiv_pos_site_id
 _symmetry_equiv_pos_as_xyz
  1  'x, y, z'
loop_
 _atom_site_type_symbol
 _atom_site_label
 _atom_site_symmetry_multiplicity
 _atom_site_fract_x
 _atom_site_fract_y
 _atom_site_fract_z
 _atom_site_occupancy
  Sr  Sr0  1  0.75000000  0.74002351  0.16621223  1
  Sr  Sr1  1  0.75000000  0.24002351  0.33378777  1
  Sr  Sr2  1  0.25000000  0.25997649  0.83378777  1
  Sr  Sr3  1  0.25000000  0.75997649  0.66621223  1
  Lu  Lu4  1  0.75000000  0.06074506  0.11080112  1
  Lu  Lu5  1  0.75000000  0.56074506  0.38919888  1
  Lu  Lu6  1  0.25000000  0.93925494  0.88919888  1
  Lu  Lu7  1  0.25000000  0.43925494  0.61080112  1
  Lu  Lu8  1  0.75000000  0.08279872  0.59735085  1
  Lu  Lu9  1  0.75000000  0.58279872  0.90264915  1
  Lu  Lu10  1  0.25000000  0.91720128  0.40264915  1
  Lu  Lu11  1  0.25000000  0.41720128  0.09735085  1
  Se  Se12  1  0.75000000  0.29530236  0.66842529  1
  Se  Se13  1  0.75000000  0.79530236  0.83157471  1
  Se  Se14  1  0.25000000  0.70469764  0.33157471  1
  Se  Se15  1  0.25000000  0.20469764  0.16842529  1
  Se  Se16  1  0.75000000  0.37196667  0.96960738  1
  Se  Se17  1  0.75000000  0.87196667  0.53039262  1
  Se  Se18  1  0.25000000  0.62803333  0.03039262  1
  Se  Se19  1  0.25000000  0.12803333  0.46960738  1
  Se  Se20  1  0.75000000  0.47178811  0.21543094  1
  Se  Se21  1  0.75000000  0.97178811  0.28456906  1
  Se  Se22  1  0.25000000  0.52821189  0.78456906  1
  Se  Se23  1  0.25000000  0.02821189  0.71543094  1
  Se  Se24  1  0.75000000  0.09065559  0.92353944  1
  Se  Se25  1  0.75000000  0.59065559  0.57646056  1
  Se  Se26  1  0.25000000  0.90934441  0.07646056  1
  Se  Se27  1  0.25000000  0.40934441  0.42353944  1
