# generated using pymatgen
data_CsCeSiS4
_symmetry_space_group_name_H-M   'P 1'
_cell_length_a   6.52829162
_cell_length_b   6.77232540
_cell_length_c   18.25809447
_cell_angle_alpha   90.00000000
_cell_angle_beta   90.00000000
_cell_angle_gamma   90.00000000
_symmetry_Int_Tables_number   1
_chemical_formula_structural   CsCeSiS4
_chemical_formula_sum   'Cs4 Ce4 Si4 S16'
_cell_volume   807.22167201
_cell_formula_units_Z   4
loop_
 _symmetry_equiv_pos_site_id
 _symmetry_equiv_pos_as_xyz
  1  'x, y, z'
loop_
 _atom_site_type_symbol
 _atom_site_label
 _atom_site_symmetry_multiplicity
 _atom_site_fract_x
 _atom_site_fract_y
 _atom_site_fract_z
 _atom_site_occupancy
  Cs  Cs0  1  0.99771282  0.75000000  0.28469641  1
  Cs  Cs1  1  0.50228718  0.75000000  0.78469641  1
  Cs  Cs2  1  0.00228718  0.25000000  0.71530359  1
  Cs  Cs3  1  0.49771282  0.25000000  0.21530359  1
  Ce  Ce4  1  0.20777232  0.75000000  0.02218619  1
  Ce  Ce5  1  0.29222768  0.75000000  0.52218619  1
  Ce  Ce6  1  0.79222768  0.25000000  0.97781381  1
  Ce  Ce7  1  0.70777232  0.25000000  0.47781381  1
  Si  Si8  1  0.71220323  0.75000000  0.08470916  1
  Si  Si9  1  0.78779677  0.75000000  0.58470916  1
  Si  Si10  1  0.28779677  0.25000000  0.91529084  1
  Si  Si11  1  0.21220323  0.25000000  0.41529084  1
  S  S12  1  0.45274332  0.75000000  0.15388424  1
  S  S13  1  0.04725668  0.75000000  0.65388424  1
  S  S14  1  0.54725668  0.25000000  0.84611576  1
  S  S15  1  0.95274332  0.25000000  0.34611576  1
  S  S16  1  0.87457041  0.75000000  0.47207169  1
  S  S17  1  0.62542959  0.75000000  0.97207169  1
  S  S18  1  0.12542959  0.25000000  0.52792831  1
  S  S19  1  0.37457041  0.25000000  0.02792831  1
  S  S20  1  0.90967572  0.99790006  0.10197740  1
  S  S21  1  0.59032428  0.50209994  0.60197740  1
  S  S22  1  0.09032428  0.49790006  0.89802260  1
  S  S23  1  0.40967572  0.00209994  0.39802260  1
  S  S24  1  0.09032428  0.00209994  0.89802260  1
  S  S25  1  0.40967572  0.49790006  0.39802260  1
  S  S26  1  0.90967572  0.50209994  0.10197740  1
  S  S27  1  0.59032428  0.99790006  0.60197740  1
