# generated using pymatgen
data_Sc6Al16Os7
_symmetry_space_group_name_H-M   'P 1'
_cell_length_a   8.77271947
_cell_length_b   8.77271947
_cell_length_c   8.77271947
_cell_angle_alpha   60.00000000
_cell_angle_beta   60.00000000
_cell_angle_gamma   60.00000000
_symmetry_Int_Tables_number   1
_chemical_formula_structural   Sc6Al16Os7
_chemical_formula_sum   'Sc6 Al16 Os7'
_cell_volume   477.40584139
_cell_formula_units_Z   1
loop_
 _symmetry_equiv_pos_site_id
 _symmetry_equiv_pos_as_xyz
  1  'x, y, z'
loop_
 _atom_site_type_symbol
 _atom_site_label
 _atom_site_symmetry_multiplicity
 _atom_site_fract_x
 _atom_site_fract_y
 _atom_site_fract_z
 _atom_site_occupancy
  Sc  Sc0  1  0.71224547  0.28775453  0.28775453  1
  Sc  Sc1  1  0.71224547  0.28775453  0.71224547  1
  Sc  Sc2  1  0.71224547  0.71224547  0.28775453  1
  Sc  Sc3  1  0.28775453  0.71224547  0.71224547  1
  Sc  Sc4  1  0.28775453  0.71224547  0.28775453  1
  Sc  Sc5  1  0.28775453  0.28775453  0.71224547  1
  Al  Al6  1  0.63767555  0.12077482  0.12077482  1
  Al  Al7  1  0.12077482  0.63767555  0.12077482  1
  Al  Al8  1  0.12077482  0.12077482  0.63767555  1
  Al  Al9  1  0.12077482  0.12077482  0.12077482  1
  Al  Al10  1  0.36232445  0.87922518  0.87922518  1
  Al  Al11  1  0.87922518  0.36232445  0.87922518  1
  Al  Al12  1  0.87922518  0.87922518  0.36232445  1
  Al  Al13  1  0.87922518  0.87922518  0.87922518  1
  Al  Al14  1  0.98874399  0.33708534  0.33708534  1
  Al  Al15  1  0.33708534  0.98874399  0.33708534  1
  Al  Al16  1  0.33708534  0.33708534  0.98874399  1
  Al  Al17  1  0.33708534  0.33708534  0.33708534  1
  Al  Al18  1  0.01125601  0.66291466  0.66291466  1
  Al  Al19  1  0.66291466  0.01125601  0.66291466  1
  Al  Al20  1  0.66291466  0.66291466  0.01125601  1
  Al  Al21  1  0.66291466  0.66291466  0.66291466  1
  Os  Os22  1  -0.00000000  0.00000000  -0.00000000  1
  Os  Os23  1  0.50000000  0.00000000  -0.00000000  1
  Os  Os24  1  0.50000000  0.00000000  0.50000000  1
  Os  Os25  1  0.50000000  0.50000000  -0.00000000  1
  Os  Os26  1  -0.00000000  0.50000000  0.50000000  1
  Os  Os27  1  -0.00000000  0.50000000  -0.00000000  1
  Os  Os28  1  -0.00000000  0.00000000  0.50000000  1
