# generated using pymatgen
data_K4Eu2U(GeO4)4
_symmetry_space_group_name_H-M   'P 1'
_cell_length_a   7.09057271
_cell_length_b   7.06183892
_cell_length_c   10.16048449
_cell_angle_alpha   93.92284992
_cell_angle_beta   99.15444346
_cell_angle_gamma   110.92129739
_symmetry_Int_Tables_number   1
_chemical_formula_structural   K4Eu2U(GeO4)4
_chemical_formula_sum   'K4 Eu2 U1 Ge4 O16'
_cell_volume   464.82045527
_cell_formula_units_Z   1
loop_
 _symmetry_equiv_pos_site_id
 _symmetry_equiv_pos_as_xyz
  1  'x, y, z'
loop_
 _atom_site_type_symbol
 _atom_site_label
 _atom_site_symmetry_multiplicity
 _atom_site_fract_x
 _atom_site_fract_y
 _atom_site_fract_z
 _atom_site_occupancy
  K  K0  1  0.96133345  0.24228132  0.40005176  1
  K  K1  1  0.03866655  0.75771868  0.59994824  1
  K  K2  1  0.83647457  0.19147425  0.03728855  1
  K  K3  1  0.16352543  0.80852575  0.96271145  1
  Eu  Eu4  1  0.52068308  0.27252142  0.59922447  1
  Eu  Eu5  1  0.47931692  0.72747858  0.40077553  1
  U  U6  1  0.50000000  0.50000000  -0.00000000  1
  Ge  Ge7  1  0.96357786  0.75878601  0.26277014  1
  Ge  Ge8  1  0.03642214  0.24121399  0.73722986  1
  Ge  Ge9  1  0.37625510  0.17079077  0.26495450  1
  Ge  Ge10  1  0.62374490  0.82920923  0.73504550  1
  O  O11  1  0.82780801  0.61151973  0.10355920  1
  O  O12  1  0.17219199  0.38848027  0.89644080  1
  O  O13  1  0.81043922  0.81349978  0.36635158  1
  O  O14  1  0.18956078  0.18650022  0.63364842  1
  O  O15  1  0.12702743  0.65307683  0.34932711  1
  O  O16  1  0.87297257  0.34692317  0.65067289  1
  O  O17  1  0.10936545  0.00067498  0.20704086  1
  O  O18  1  0.89063455  0.99932502  0.79295914  1
  O  O19  1  0.38183751  0.37176538  0.37992804  1
  O  O20  1  0.61816249  0.62823462  0.62007196  1
  O  O21  1  0.52393944  0.06695180  0.37075247  1
  O  O22  1  0.47606056  0.93304820  0.62924753  1
  O  O23  1  0.45594720  0.22678518  0.11099286  1
  O  O24  1  0.54405280  0.77321482  0.88900714  1
  O  O25  1  0.56927758  0.36116137  0.86130240  1
  O  O26  1  0.43072242  0.63883863  0.13869760  1
