# generated using pymatgen
data_Rb3Sb2Br9
_symmetry_space_group_name_H-M   'P 1'
_cell_length_a   7.94563518
_cell_length_b   14.00039944
_cell_length_c   19.60283252
_cell_angle_alpha   90.22517711
_cell_angle_beta   90.00000000
_cell_angle_gamma   90.00000000
_symmetry_Int_Tables_number   1
_chemical_formula_structural   Rb3Sb2Br9
_chemical_formula_sum   'Rb12 Sb8 Br36'
_cell_volume   2180.64275471
_cell_formula_units_Z   4
loop_
 _symmetry_equiv_pos_site_id
 _symmetry_equiv_pos_as_xyz
  1  'x, y, z'
loop_
 _atom_site_type_symbol
 _atom_site_label
 _atom_site_symmetry_multiplicity
 _atom_site_fract_x
 _atom_site_fract_y
 _atom_site_fract_z
 _atom_site_occupancy
  Rb  Rb0  1  0.51574358  0.52280000  0.76511623  1
  Rb  Rb1  1  0.98425642  0.02280000  0.26511623  1
  Rb  Rb2  1  0.48425642  0.47720000  0.23488377  1
  Rb  Rb3  1  0.01574358  0.97720000  0.73488377  1
  Rb  Rb4  1  0.49773531  0.17288775  0.42535417  1
  Rb  Rb5  1  0.00226469  0.67288775  0.92535417  1
  Rb  Rb6  1  0.50226469  0.82711225  0.57464583  1
  Rb  Rb7  1  0.99773531  0.32711225  0.07464583  1
  Rb  Rb8  1  0.48708463  0.15946260  0.90356478  1
  Rb  Rb9  1  0.01291537  0.65946260  0.40356478  1
  Rb  Rb10  1  0.51291537  0.84053740  0.09643522  1
  Rb  Rb11  1  0.98708463  0.34053740  0.59643522  1
  Sb  Sb12  1  0.49483830  0.16673178  0.65709463  1
  Sb  Sb13  1  0.00516170  0.66673178  0.15709463  1
  Sb  Sb14  1  0.50516170  0.83326822  0.34290537  1
  Sb  Sb15  1  0.99483830  0.33326822  0.84290537  1
  Sb  Sb16  1  0.49940238  0.16326334  0.15539776  1
  Sb  Sb17  1  0.00059762  0.66326334  0.65539776  1
  Sb  Sb18  1  0.50059762  0.83673666  0.84460224  1
  Sb  Sb19  1  0.99940238  0.33673666  0.34460224  1
  Br  Br20  1  0.06471012  0.49720408  0.74746234  1
  Br  Br21  1  0.43528988  0.99720408  0.24746234  1
  Br  Br22  1  0.93528988  0.50279592  0.25253766  1
  Br  Br23  1  0.56471012  0.00279592  0.75253766  1
  Br  Br24  1  0.04022521  0.17641192  0.42086446  1
  Br  Br25  1  0.45977479  0.67641192  0.92086446  1
  Br  Br26  1  0.95977479  0.82358808  0.57913554  1
  Br  Br27  1  0.54022521  0.32358808  0.07913554  1
  Br  Br28  1  0.94916074  0.17718273  0.92128530  1
  Br  Br29  1  0.55083926  0.67718273  0.42128530  1
  Br  Br30  1  0.05083926  0.82281727  0.07871470  1
  Br  Br31  1  0.44916074  0.32281727  0.57871470  1
  Br  Br32  1  0.79322512  0.41605045  0.43711686  1
  Br  Br33  1  0.70677488  0.91605045  0.93711686  1
  Br  Br34  1  0.20677488  0.58394955  0.56288314  1
  Br  Br35  1  0.29322512  0.08394955  0.06288314  1
  Br  Br36  1  0.79045375  0.44160260  0.92203380  1
  Br  Br37  1  0.70954625  0.94160260  0.42203380  1
  Br  Br38  1  0.20954625  0.55839740  0.07796620  1
  Br  Br39  1  0.29045375  0.05839740  0.57796620  1
  Br  Br40  1  0.77618802  0.07861097  0.10199444  1
  Br  Br41  1  0.72381198  0.57861097  0.60199444  1
  Br  Br42  1  0.22381198  0.92138903  0.89800556  1
  Br  Br43  1  0.27618802  0.42138903  0.39800556  1
  Br  Br44  1  0.77045686  0.11267905  0.58538751  1
  Br  Br45  1  0.72954314  0.61267905  0.08538751  1
  Br  Br46  1  0.22954314  0.88732095  0.41461249  1
  Br  Br47  1  0.27045686  0.38732095  0.91461249  1
  Br  Br48  1  0.79821079  0.74472031  0.77513678  1
  Br  Br49  1  0.70178921  0.24472031  0.27513678  1
  Br  Br50  1  0.20178921  0.25527969  0.22486322  1
  Br  Br51  1  0.29821079  0.75527969  0.72486322  1
  Br  Br52  1  0.80891654  0.79101962  0.25517912  1
  Br  Br53  1  0.69108346  0.29101962  0.75517912  1
  Br  Br54  1  0.19108346  0.20898038  0.74482088  1
  Br  Br55  1  0.30891654  0.70898038  0.24482088  1
