# generated using pymatgen
data_Nd2SeOF2
_symmetry_space_group_name_H-M   'P 1'
_cell_length_a   3.90812657
_cell_length_b   13.92576300
_cell_length_c   13.92576300
_cell_angle_alpha   119.99999666
_cell_angle_beta   90.00000000
_cell_angle_gamma   90.00000000
_symmetry_Int_Tables_number   1
_chemical_formula_structural   Nd2SeOF2
_chemical_formula_sum   'Nd12 Se6 O6 F12'
_cell_volume   656.35268484
_cell_formula_units_Z   6
loop_
 _symmetry_equiv_pos_site_id
 _symmetry_equiv_pos_as_xyz
  1  'x, y, z'
loop_
 _atom_site_type_symbol
 _atom_site_label
 _atom_site_symmetry_multiplicity
 _atom_site_fract_x
 _atom_site_fract_y
 _atom_site_fract_z
 _atom_site_occupancy
  Nd  Nd0  1  0.75000000  0.60292634  0.48433129  1
  Nd  Nd1  1  0.75000000  0.51566871  0.11859506  1
  Nd  Nd2  1  0.75000000  0.88140494  0.39707366  1
  Nd  Nd3  1  0.25000000  0.39707366  0.51566871  1
  Nd  Nd4  1  0.25000000  0.48433129  0.88140494  1
  Nd  Nd5  1  0.25000000  0.11859506  0.60292634  1
  Nd  Nd6  1  0.75000000  0.94498060  0.71027456  1
  Nd  Nd7  1  0.75000000  0.28972544  0.23470604  1
  Nd  Nd8  1  0.75000000  0.76529396  0.05501940  1
  Nd  Nd9  1  0.25000000  0.05501940  0.28972544  1
  Nd  Nd10  1  0.25000000  0.71027456  0.76529396  1
  Nd  Nd11  1  0.25000000  0.23470604  0.94498060  1
  Se  Se12  1  0.75000000  0.28186658  0.79467749  1
  Se  Se13  1  0.75000000  0.20532251  0.48718909  1
  Se  Se14  1  0.75000000  0.51281091  0.71813342  1
  Se  Se15  1  0.25000000  0.71813342  0.20532251  1
  Se  Se16  1  0.25000000  0.79467749  0.51281091  1
  Se  Se17  1  0.25000000  0.48718909  0.28186658  1
  O  O18  1  0.75000000  0.01490946  0.58727648  1
  O  O19  1  0.75000000  0.41272352  0.42763298  1
  O  O20  1  0.75000000  0.57236702  0.98509054  1
  O  O21  1  0.25000000  0.98509054  0.41272352  1
  O  O22  1  0.25000000  0.58727648  0.57236702  1
  O  O23  1  0.25000000  0.42763298  0.01490946  1
  F  F24  1  0.75000000  0.10871485  0.89803119  1
  F  F25  1  0.75000000  0.10196881  0.21068366  1
  F  F26  1  0.75000000  0.78931634  0.89128515  1
  F  F27  1  0.25000000  0.89128515  0.10196881  1
  F  F28  1  0.25000000  0.89803119  0.78931634  1
  F  F29  1  0.25000000  0.21068366  0.10871485  1
  F  F30  1  0.75000000  0.75176852  0.68397582  1
  F  F31  1  0.75000000  0.31602418  0.06779270  1
  F  F32  1  0.75000000  0.93220730  0.24823148  1
  F  F33  1  0.25000000  0.24823148  0.31602418  1
  F  F34  1  0.25000000  0.68397582  0.93220730  1
  F  F35  1  0.25000000  0.06779270  0.75176852  1
