# generated using pymatgen
data_Sm10As8Au3O10
_symmetry_space_group_name_H-M   'P 1'
_cell_length_a   9.16980895
_cell_length_b   9.16980895
_cell_length_c   9.73529780
_cell_angle_alpha   118.09642092
_cell_angle_beta   118.09642092
_cell_angle_gamma   90.00000000
_symmetry_Int_Tables_number   1
_chemical_formula_structural   Sm10As8Au3O10
_chemical_formula_sum   'Sm10 As8 Au3 O10'
_cell_volume   610.60893270
_cell_formula_units_Z   1
loop_
 _symmetry_equiv_pos_site_id
 _symmetry_equiv_pos_as_xyz
  1  'x, y, z'
loop_
 _atom_site_type_symbol
 _atom_site_label
 _atom_site_symmetry_multiplicity
 _atom_site_fract_x
 _atom_site_fract_y
 _atom_site_fract_z
 _atom_site_occupancy
  Sm  Sm0  1  0.33592921  0.33592921  0.67185842  1
  Sm  Sm1  1  0.66407079  0.66407079  0.32814158  1
  Sm  Sm2  1  0.72452961  0.11940092  0.64840313  1
  Sm  Sm3  1  0.92387351  0.52900221  0.64840313  1
  Sm  Sm4  1  0.52900221  0.72452961  0.64840313  1
  Sm  Sm5  1  0.11940092  0.92387351  0.64840313  1
  Sm  Sm6  1  0.27547039  0.88059908  0.35159687  1
  Sm  Sm7  1  0.07612649  0.47099779  0.35159687  1
  Sm  Sm8  1  0.47099779  0.27547039  0.35159687  1
  Sm  Sm9  1  0.88059908  0.07612649  0.35159687  1
  As  As10  1  0.12837896  0.24812493  0.00000000  1
  As  As11  1  0.87162104  0.75187507  0.00000000  1
  As  As12  1  0.75187507  0.12837896  0.00000000  1
  As  As13  1  0.24812493  0.87162104  0.00000000  1
  As  As14  1  0.40927089  0.27253380  0.00000000  1
  As  As15  1  0.59072911  0.72746620  0.00000000  1
  As  As16  1  0.72746620  0.40927089  0.00000000  1
  As  As17  1  0.27253380  0.59072911  0.00000000  1
  Au  Au18  1  -0.00000000  0.00000000  0.00000000  1
  Au  Au19  1  0.50000000  0.00000000  0.00000000  1
  Au  Au20  1  -0.00000000  0.50000000  0.00000000  1
  O  O21  1  0.35457527  0.45168491  0.50827747  1
  O  O22  1  0.15370221  0.05659257  0.50827747  1
  O  O23  1  0.05659257  0.35457527  0.50827747  1
  O  O24  1  0.45168491  0.15370221  0.50827747  1
  O  O25  1  0.64542473  0.54831509  0.49172253  1
  O  O26  1  0.84629779  0.94340743  0.49172253  1
  O  O27  1  0.94340743  0.64542473  0.49172253  1
  O  O28  1  0.54831509  0.84629779  0.49172253  1
  O  O29  1  0.75000000  0.25000000  0.50000000  1
  O  O30  1  0.25000000  0.75000000  0.50000000  1
