# generated using pymatgen
data_K2SbH5O6
_symmetry_space_group_name_H-M   'P 1'
_cell_length_a   5.37858508
_cell_length_b   6.68462125
_cell_length_c   9.24454335
_cell_angle_alpha   83.86933238
_cell_angle_beta   75.99441730
_cell_angle_gamma   84.65866065
_symmetry_Int_Tables_number   1
_chemical_formula_structural   K2SbH5O6
_chemical_formula_sum   'K4 Sb2 H10 O12'
_cell_volume   319.87142923
_cell_formula_units_Z   2
loop_
 _symmetry_equiv_pos_site_id
 _symmetry_equiv_pos_as_xyz
  1  'x, y, z'
loop_
 _atom_site_type_symbol
 _atom_site_label
 _atom_site_symmetry_multiplicity
 _atom_site_fract_x
 _atom_site_fract_y
 _atom_site_fract_z
 _atom_site_occupancy
  K  K0  1  0.77213240  0.19564526  0.93244100  1
  K  K1  1  0.22786760  0.80435474  0.06755900  1
  K  K2  1  0.67263239  0.72682179  0.42451283  1
  K  K3  1  0.32736761  0.27317821  0.57548717  1
  Sb  Sb4  1  0.95859612  0.73505633  0.72658185  1
  Sb  Sb5  1  0.04140388  0.26494367  0.27341815  1
  H  H6  1  0.35367971  0.92428785  0.73564997  1
  H  H7  1  0.64632029  0.07571215  0.26435003  1
  H  H8  1  0.79149398  0.44085980  0.62330831  1
  H  H9  1  0.20850602  0.55914020  0.37669169  1
  H  H10  1  0.36535900  0.53783601  0.78572929  1
  H  H11  1  0.63464100  0.46216399  0.21427071  1
  H  H12  1  0.78999479  0.65692917  0.00620771  1
  H  H13  1  0.21000521  0.34307083  0.99379229  1
  H  H14  1  0.78488966  0.06400659  0.59266899  1
  H  H15  1  0.21511034  0.93599341  0.40733101  1
  O  O16  1  0.15599651  0.71226908  0.52256611  1
  O  O17  1  0.84400349  0.28773092  0.47743389  1
  O  O18  1  0.73484014  0.76198435  0.93442493  1
  O  O19  1  0.26515986  0.23801565  0.06557507  1
  O  O20  1  0.16530848  0.95148062  0.77235570  1
  O  O21  1  0.83469152  0.04851938  0.22764430  1
  O  O22  1  0.72080572  0.51722716  0.71440012  1
  O  O23  1  0.27919428  0.48277284  0.28559988  1
  O  O24  1  0.70225164  0.95570272  0.66944042  1
  O  O25  1  0.29774836  0.04429728  0.33055958  1
  O  O26  1  0.17964755  0.51559477  0.82378301  1
  O  O27  1  0.82035245  0.48440523  0.17621699  1
