# generated using pymatgen
data_MnPb2WO6
_symmetry_space_group_name_H-M   'P 1'
_cell_length_a   5.92744864
_cell_length_b   8.16925955
_cell_length_c   11.82941065
_cell_angle_alpha   90.00000000
_cell_angle_beta   90.00000000
_cell_angle_gamma   90.00000000
_symmetry_Int_Tables_number   1
_chemical_formula_structural   MnPb2WO6
_chemical_formula_sum   'Mn4 Pb8 W4 O24'
_cell_volume   572.81397161
_cell_formula_units_Z   4
loop_
 _symmetry_equiv_pos_site_id
 _symmetry_equiv_pos_as_xyz
  1  'x, y, z'
loop_
 _atom_site_type_symbol
 _atom_site_label
 _atom_site_symmetry_multiplicity
 _atom_site_fract_x
 _atom_site_fract_y
 _atom_site_fract_z
 _atom_site_occupancy
  Mn  Mn0  1  0.48772770  0.50000000  0.65937315  1
  Mn  Mn1  1  0.51227230  0.50000000  0.15937315  1
  Mn  Mn2  1  0.99007728  -0.00000000  0.39357419  1
  Mn  Mn3  1  0.00992272  -0.00000000  0.89357419  1
  Pb  Pb4  1  0.95161161  0.24387789  0.62933355  1
  Pb  Pb5  1  0.95161161  0.75612211  0.62933355  1
  Pb  Pb6  1  0.04838839  0.75612211  0.12933355  1
  Pb  Pb7  1  0.04838839  0.24387789  0.12933355  1
  Pb  Pb8  1  0.54748342  0.25462517  0.92197043  1
  Pb  Pb9  1  0.54748342  0.74537483  0.92197043  1
  Pb  Pb10  1  0.45251658  0.74537483  0.42197043  1
  Pb  Pb11  1  0.45251658  0.25462517  0.42197043  1
  W  W12  1  0.49802939  -0.00000000  0.65749618  1
  W  W13  1  0.50197061  -0.00000000  0.15749618  1
  W  W14  1  0.99815035  0.50000000  0.89519025  1
  W  W15  1  0.00184965  0.50000000  0.39519025  1
  O  O16  1  0.72795639  -0.00000000  0.77262826  1
  O  O17  1  0.27204361  -0.00000000  0.27262826  1
  O  O18  1  0.30360206  -0.00000000  0.52285987  1
  O  O19  1  0.69639794  -0.00000000  0.02285987  1
  O  O20  1  0.76974418  0.50000000  0.77962862  1
  O  O21  1  0.23025582  0.50000000  0.27962862  1
  O  O22  1  0.23954922  0.50000000  0.79480917  1
  O  O23  1  0.76045078  0.50000000  0.29480917  1
  O  O24  1  0.26007365  -0.00000000  0.75991057  1
  O  O25  1  0.73992635  -0.00000000  0.25991057  1
  O  O26  1  0.18919796  0.50000000  0.03109249  1
  O  O27  1  0.81080204  0.50000000  0.53109249  1
  O  O28  1  0.96677076  0.26229495  0.91541697  1
  O  O29  1  0.96677076  0.73770505  0.91541697  1
  O  O30  1  0.03322924  0.73770505  0.41541697  1
  O  O31  1  0.03322924  0.26229495  0.41541697  1
  O  O32  1  0.28773105  0.50000000  0.50652876  1
  O  O33  1  0.71226895  0.50000000  0.00652876  1
  O  O34  1  0.52901115  0.23747205  0.63682686  1
  O  O35  1  0.52901115  0.76252795  0.63682686  1
  O  O36  1  0.47098885  0.76252795  0.13682686  1
  O  O37  1  0.47098885  0.23747205  0.13682686  1
  O  O38  1  0.78257282  -0.00000000  0.54487286  1
  O  O39  1  0.21742718  -0.00000000  0.04487286  1
