# generated using pymatgen
data_NaSc(SeO3)2
_symmetry_space_group_name_H-M   'P 1'
_cell_length_a   5.57198950
_cell_length_b   8.29111732
_cell_length_c   13.03045607
_cell_angle_alpha   90.00000000
_cell_angle_beta   90.00000000
_cell_angle_gamma   90.00000000
_symmetry_Int_Tables_number   1
_chemical_formula_structural   NaSc(SeO3)2
_chemical_formula_sum   'Na4 Sc4 Se8 O24'
_cell_volume   601.98125254
_cell_formula_units_Z   4
loop_
 _symmetry_equiv_pos_site_id
 _symmetry_equiv_pos_as_xyz
  1  'x, y, z'
loop_
 _atom_site_type_symbol
 _atom_site_label
 _atom_site_symmetry_multiplicity
 _atom_site_fract_x
 _atom_site_fract_y
 _atom_site_fract_z
 _atom_site_occupancy
  Na  Na0  1  0.25000000  0.01167489  0.88765310  1
  Na  Na1  1  0.25000000  0.48832511  0.38765310  1
  Na  Na2  1  0.75000000  0.98832511  0.11234690  1
  Na  Na3  1  0.75000000  0.51167489  0.61234690  1
  Sc  Sc4  1  0.25000000  0.20001143  0.59997999  1
  Sc  Sc5  1  0.25000000  0.29998857  0.09997999  1
  Sc  Sc6  1  0.75000000  0.79998857  0.40002001  1
  Sc  Sc7  1  0.75000000  0.70001143  0.90002001  1
  Se  Se8  1  0.25000000  0.78193297  0.56964305  1
  Se  Se9  1  0.25000000  0.71806703  0.06964305  1
  Se  Se10  1  0.75000000  0.21806703  0.43035695  1
  Se  Se11  1  0.75000000  0.28193297  0.93035695  1
  Se  Se12  1  0.25000000  0.49561189  0.79242810  1
  Se  Se13  1  0.25000000  0.00438811  0.29242810  1
  Se  Se14  1  0.75000000  0.50438811  0.20757190  1
  Se  Se15  1  0.75000000  0.99561189  0.70757190  1
  O  O16  1  0.25000000  0.97756932  0.52678989  1
  O  O17  1  0.25000000  0.52243068  0.02678989  1
  O  O18  1  0.75000000  0.02243068  0.47321011  1
  O  O19  1  0.75000000  0.47756932  0.97321011  1
  O  O20  1  0.25000000  0.43633583  0.66551540  1
  O  O21  1  0.25000000  0.06366417  0.16551540  1
  O  O22  1  0.75000000  0.56366417  0.33448460  1
  O  O23  1  0.75000000  0.93633583  0.83448460  1
  O  O24  1  0.48875347  0.69951169  0.50273731  1
  O  O25  1  0.01124653  0.80048831  0.00273731  1
  O  O26  1  0.98875347  0.30048831  0.49726269  1
  O  O27  1  0.51124653  0.19951169  0.99726269  1
  O  O28  1  0.51124653  0.30048831  0.49726269  1
  O  O29  1  0.98875347  0.19951169  0.99726269  1
  O  O30  1  0.01124653  0.69951169  0.50273731  1
  O  O31  1  0.48875347  0.80048831  0.00273731  1
  O  O32  1  0.50746394  0.12492709  0.71037599  1
  O  O33  1  0.99253606  0.37507291  0.21037599  1
  O  O34  1  0.00746394  0.87507291  0.28962401  1
  O  O35  1  0.49253606  0.62492709  0.78962401  1
  O  O36  1  0.49253606  0.87507291  0.28962401  1
  O  O37  1  0.00746394  0.62492709  0.78962401  1
  O  O38  1  0.99253606  0.12492709  0.71037599  1
  O  O39  1  0.50746394  0.37507291  0.21037599  1
