# generated using pymatgen
data_HfH8(SO6)2
_symmetry_space_group_name_H-M   'P 1'
_cell_length_a   5.62897287
_cell_length_b   6.45074485
_cell_length_c   13.35795540
_cell_angle_alpha   84.72545875
_cell_angle_beta   77.83677535
_cell_angle_gamma   64.13169500
_symmetry_Int_Tables_number   1
_chemical_formula_structural   HfH8(SO6)2
_chemical_formula_sum   'Hf2 H16 S4 O24'
_cell_volume   426.64260074
_cell_formula_units_Z   2
loop_
 _symmetry_equiv_pos_site_id
 _symmetry_equiv_pos_as_xyz
  1  'x, y, z'
loop_
 _atom_site_type_symbol
 _atom_site_label
 _atom_site_symmetry_multiplicity
 _atom_site_fract_x
 _atom_site_fract_y
 _atom_site_fract_z
 _atom_site_occupancy
  Hf  Hf0  1  0.62500000  0.75000000  0.75000000  1
  Hf  Hf1  1  0.37500000  0.25000000  0.25000000  1
  H  H2  1  0.46212089  0.78470065  0.55289599  1
  H  H3  1  0.29971753  0.71529935  0.94710401  1
  H  H4  1  0.75317846  0.78470065  0.94710401  1
  H  H5  1  0.98498312  0.71529935  0.55289599  1
  H  H6  1  0.53787911  0.21529935  0.44710401  1
  H  H7  1  0.70028247  0.28470065  0.05289599  1
  H  H8  1  0.24682154  0.21529935  0.05289599  1
  H  H9  1  0.01501688  0.28470065  0.44710401  1
  H  H10  1  0.25371734  0.00798283  0.61909109  1
  H  H11  1  0.38079126  0.49201717  0.88090891  1
  H  H12  1  0.73829983  0.00798283  0.88090891  1
  H  H13  1  0.12719156  0.49201717  0.61909109  1
  H  H14  1  0.74628266  0.99201717  0.38090891  1
  H  H15  1  0.61920874  0.50798283  0.11909109  1
  H  H16  1  0.26170017  0.99201717  0.11909109  1
  H  H17  1  0.87280844  0.50798283  0.38090891  1
  S  S18  1  0.68163876  0.25000000  0.63672247  1
  S  S19  1  0.06836124  0.25000000  0.86327753  1
  S  S20  1  0.31836124  0.75000000  0.36327753  1
  S  S21  1  0.93163876  0.75000000  0.13672247  1
  O  O22  1  0.42141908  0.86388431  0.61902693  1
  O  O23  1  0.40433033  0.63611569  0.88097307  1
  O  O24  1  0.71469661  0.86388431  0.88097307  1
  O  O25  1  0.95955399  0.63611569  0.61902693  1
  O  O26  1  0.57858092  0.13611569  0.38097307  1
  O  O27  1  0.59566967  0.36388431  0.11902693  1
  O  O28  1  0.28530339  0.13611569  0.11902693  1
  O  O29  1  0.04044601  0.36388431  0.38097307  1
  O  O30  1  0.94898108  0.20242518  0.57275253  1
  O  O31  1  0.22415880  0.29757482  0.92724747  1
  O  O32  1  0.84859373  0.20242518  0.92724747  1
  O  O33  1  0.47826638  0.29757482  0.57275253  1
  O  O34  1  0.05101892  0.79757482  0.42724747  1
  O  O35  1  0.77584120  0.70242518  0.07275253  1
  O  O36  1  0.15140627  0.79757482  0.07275253  1
  O  O37  1  0.52173362  0.70242518  0.42724747  1
  O  O38  1  0.58199114  0.45295354  0.70568395  1
  O  O39  1  0.24062863  0.04704646  0.79431605  1
  O  O40  1  0.96505532  0.45295354  0.79431605  1
  O  O41  1  0.71232491  0.04704646  0.70568395  1
  O  O42  1  0.41800886  0.54704646  0.29431605  1
  O  O43  1  0.75937137  0.95295354  0.20568395  1
  O  O44  1  0.03494468  0.54704646  0.20568395  1
  O  O45  1  0.28767509  0.95295354  0.29431605  1
