# generated using pymatgen
data_Rb2Mo3Se3O16
_symmetry_space_group_name_H-M   'P 1'
_cell_length_a   8.32269005
_cell_length_b   13.90471508
_cell_length_c   14.05995551
_cell_angle_alpha   92.17750735
_cell_angle_beta   90.00000000
_cell_angle_gamma   90.00000000
_symmetry_Int_Tables_number   1
_chemical_formula_structural   Rb2Mo3Se3O16
_chemical_formula_sum   'Rb8 Mo12 Se12 O64'
_cell_volume   1625.90830162
_cell_formula_units_Z   4
loop_
 _symmetry_equiv_pos_site_id
 _symmetry_equiv_pos_as_xyz
  1  'x, y, z'
loop_
 _atom_site_type_symbol
 _atom_site_label
 _atom_site_symmetry_multiplicity
 _atom_site_fract_x
 _atom_site_fract_y
 _atom_site_fract_z
 _atom_site_occupancy
  Rb  Rb0  1  0.27200652  0.90569704  0.67492178  1
  Rb  Rb1  1  0.77200652  0.09430296  0.82507822  1
  Rb  Rb2  1  0.72799348  0.09430296  0.32507822  1
  Rb  Rb3  1  0.22799348  0.90569704  0.17492178  1
  Rb  Rb4  1  0.48441692  0.61066274  0.17379922  1
  Rb  Rb5  1  0.98441692  0.38933726  0.32620078  1
  Rb  Rb6  1  0.51558308  0.38933726  0.82620078  1
  Rb  Rb7  1  0.01558308  0.61066274  0.67379922  1
  Mo  Mo8  1  0.71518162  0.85057038  0.59744580  1
  Mo  Mo9  1  0.21518162  0.14942962  0.90255420  1
  Mo  Mo10  1  0.28481838  0.14942962  0.40255420  1
  Mo  Mo11  1  0.78481838  0.85057038  0.09744580  1
  Mo  Mo12  1  0.79941849  0.64120040  0.40830831  1
  Mo  Mo13  1  0.29941849  0.35879960  0.09169169  1
  Mo  Mo14  1  0.20058151  0.35879960  0.59169169  1
  Mo  Mo15  1  0.70058151  0.64120040  0.90830831  1
  Mo  Mo16  1  0.20358064  0.66789834  0.40420350  1
  Mo  Mo17  1  0.70358064  0.33210166  0.09579650  1
  Mo  Mo18  1  0.79641936  0.33210166  0.59579650  1
  Mo  Mo19  1  0.29641936  0.66789834  0.90420350  1
  Se  Se20  1  0.52141151  0.64775799  0.67864513  1
  Se  Se21  1  0.02141151  0.35224201  0.82135487  1
  Se  Se22  1  0.47858849  0.35224201  0.32135487  1
  Se  Se23  1  0.97858849  0.64775799  0.17864513  1
  Se  Se24  1  0.00557587  0.88434447  0.42999104  1
  Se  Se25  1  0.50557587  0.11565553  0.07000896  1
  Se  Se26  1  0.99442413  0.11565553  0.57000896  1
  Se  Se27  1  0.49442413  0.88434447  0.92999104  1
  Se  Se28  1  0.51871584  0.82794515  0.37937367  1
  Se  Se29  1  0.01871584  0.17205485  0.12062633  1
  Se  Se30  1  0.48128416  0.17205485  0.62062633  1
  Se  Se31  1  0.98128416  0.82794515  0.87937367  1
  O  O32  1  0.64974462  0.96203050  0.64244808  1
  O  O33  1  0.14974462  0.03796950  0.85755192  1
  O  O34  1  0.35025538  0.03796950  0.35755192  1
  O  O35  1  0.85025538  0.96203050  0.14244808  1
  O  O36  1  0.90029634  0.83185424  0.65207044  1
  O  O37  1  0.40029634  0.16814576  0.84792956  1
  O  O38  1  0.09970366  0.16814576  0.34792956  1
  O  O39  1  0.59970366  0.83185424  0.15207044  1
  O  O40  1  0.56923086  0.77393072  0.67611934  1
  O  O41  1  0.06923086  0.22606928  0.82388066  1
  O  O42  1  0.43076914  0.22606928  0.32388066  1
  O  O43  1  0.93076914  0.77393072  0.17611934  1
  O  O44  1  0.80296135  0.89948858  0.47382868  1
  O  O45  1  0.30296135  0.10051142  0.02617132  1
  O  O46  1  0.19703865  0.10051142  0.52617132  1
  O  O47  1  0.69703865  0.89948858  0.97382868  1
  O  O48  1  0.50849913  0.83087235  0.50016389  1
  O  O49  1  0.00849913  0.16912765  0.99983611  1
  O  O50  1  0.49150087  0.16912765  0.49983611  1
  O  O51  1  0.99150087  0.83087235  0.00016389  1
  O  O52  1  0.76605073  0.69890857  0.52318371  1
  O  O53  1  0.26605073  0.30109143  0.97681629  1
  O  O54  1  0.23394927  0.30109143  0.47681629  1
  O  O55  1  0.73394927  0.69890857  0.02318371  1
  O  O56  1  0.69816100  0.53419509  0.41621165  1
  O  O57  1  0.19816100  0.46580491  0.08378835  1
  O  O58  1  0.30183900  0.46580491  0.58378835  1
  O  O59  1  0.80183900  0.53419509  0.91621165  1
  O  O60  1  0.01333959  0.58721097  0.42078517  1
  O  O61  1  0.51333959  0.41278903  0.07921483  1
  O  O62  1  0.98666041  0.41278903  0.57921483  1
  O  O63  1  0.48666041  0.58721097  0.92078517  1
  O  O64  1  0.63303344  0.72557940  0.34741446  1
  O  O65  1  0.13303344  0.27442060  0.15258554  1
  O  O66  1  0.36696656  0.27442060  0.65258554  1
  O  O67  1  0.86696656  0.72557940  0.84741446  1
  O  O68  1  0.66569415  0.61094480  0.75744005  1
  O  O69  1  0.16569415  0.38905520  0.74255995  1
  O  O70  1  0.33430585  0.38905520  0.24255995  1
  O  O71  1  0.83430585  0.61094480  0.25744005  1
  O  O72  1  0.99013557  0.76437485  0.38524502  1
  O  O73  1  0.49013557  0.23562515  0.11475498  1
  O  O74  1  0.00986443  0.23562515  0.61475498  1
  O  O75  1  0.50986443  0.76437485  0.88524502  1
  O  O76  1  0.34956625  0.58138988  0.38333601  1
  O  O77  1  0.84956625  0.41861012  0.11666399  1
  O  O78  1  0.65043375  0.41861012  0.61666399  1
  O  O79  1  0.15043375  0.58138988  0.88333601  1
  O  O80  1  0.22998274  0.70546856  0.52320218  1
  O  O81  1  0.72998274  0.29453144  0.97679782  1
  O  O82  1  0.77001726  0.29453144  0.47679782  1
  O  O83  1  0.27001726  0.70546856  0.02320218  1
  O  O84  1  0.32664800  0.78409574  0.34874745  1
  O  O85  1  0.82664800  0.21590426  0.15125255  1
  O  O86  1  0.67335200  0.21590426  0.65125255  1
  O  O87  1  0.17335200  0.78409574  0.84874745  1
  O  O88  1  0.35067758  0.65171697  0.74471075  1
  O  O89  1  0.85067758  0.34828303  0.75528925  1
  O  O90  1  0.64932242  0.34828303  0.25528925  1
  O  O91  1  0.14932242  0.65171697  0.24471075  1
  O  O92  1  0.99462730  0.95076678  0.33541827  1
  O  O93  1  0.49462730  0.04923322  0.16458173  1
  O  O94  1  0.00537270  0.04923322  0.66458173  1
  O  O95  1  0.50537270  0.95076678  0.83541827  1
