# generated using pymatgen
data_La7SmMn8O20
_symmetry_space_group_name_H-M   'P 1'
_cell_length_a   11.51886318
_cell_length_b   11.86838804
_cell_length_c   17.74980999
_cell_angle_alpha   109.49523198
_cell_angle_beta   109.00482938
_cell_angle_gamma   89.99482070
_symmetry_Int_Tables_number   1
_chemical_formula_structural   La7SmMn8O20
_chemical_formula_sum   'La28 Sm4 Mn32 O80'
_cell_volume   2146.66641054
_cell_formula_units_Z   4
loop_
 _symmetry_equiv_pos_site_id
 _symmetry_equiv_pos_as_xyz
  1  'x, y, z'
loop_
 _atom_site_type_symbol
 _atom_site_label
 _atom_site_symmetry_multiplicity
 _atom_site_fract_x
 _atom_site_fract_y
 _atom_site_fract_z
 _atom_site_occupancy
  La  La0  1  0.29563533  0.06436550  0.11267318  1
  La  La1  1  0.29751689  0.06399502  0.61091162  1
  La  La2  1  0.29747283  0.56470895  0.61145722  1
  La  La3  1  0.79727064  0.06481741  0.61147669  1
  La  La4  1  0.79796209  0.56477690  0.11111723  1
  La  La5  1  0.79751270  0.56448391  0.61176362  1
  La  La6  1  0.18563212  0.43397579  0.38782358  1
  La  La7  1  0.18580124  0.43592754  0.88957283  1
  La  La8  1  0.18434834  0.93494684  0.38664214  1
  La  La9  1  0.18649783  0.93666346  0.88868100  1
  La  La10  1  0.68554747  0.43551986  0.38810363  1
  La  La11  1  0.68531825  0.93501255  0.38805500  1
  La  La12  1  0.68503586  0.93619086  0.88865251  1
  La  La13  1  0.04607581  0.29699228  0.11163831  1
  La  La14  1  0.04717357  0.29752347  0.61160896  1
  La  La15  1  0.04706950  0.79664022  0.61119502  1
  La  La16  1  0.54719354  0.29591758  0.11128077  1
  La  La17  1  0.54777564  0.29839509  0.61340001  1
  La  La18  1  0.54533723  0.79761004  0.11239958  1
  La  La19  1  0.54752202  0.79604373  0.61106859  1
  La  La20  1  0.43580803  0.20313037  0.38835158  1
  La  La21  1  0.43843731  0.20421285  0.88864623  1
  La  La22  1  0.43404574  0.70217677  0.38643846  1
  La  La23  1  0.43550197  0.70206566  0.88884073  1
  La  La24  1  0.93394637  0.20160484  0.38646009  1
  La  La25  1  0.93374113  0.20353508  0.88874752  1
  La  La26  1  0.93506793  0.70298285  0.38746386  1
  La  La27  1  0.93567258  0.70197086  0.88918536  1
  Sm  Sm28  1  0.29271961  0.56611435  0.11069419  1
  Sm  Sm29  1  0.79519642  0.06510577  0.11039418  1
  Sm  Sm30  1  0.68430311  0.43479304  0.89028436  1
  Sm  Sm31  1  0.04672827  0.79624875  0.11173845  1
  Mn  Mn32  1  0.00093414  0.99904804  0.00150798  1
  Mn  Mn33  1  0.00101705  0.00013952  0.49954313  1
  Mn  Mn34  1  0.00058347  0.50086841  0.00067637  1
  Mn  Mn35  1  0.00097905  0.49962081  0.49950825  1
  Mn  Mn36  1  0.50160056  0.00007859  0.00087246  1
  Mn  Mn37  1  0.50063024  0.99979685  0.49948733  1
  Mn  Mn38  1  0.50125197  0.50144679  0.00141077  1
  Mn  Mn39  1  0.50096017  0.49979547  0.49973960  1
  Mn  Mn40  1  0.25181088  0.25177413  0.00141186  1
  Mn  Mn41  1  0.25047156  0.24935464  0.49929960  1
  Mn  Mn42  1  0.25016606  0.75069121  0.00103703  1
  Mn  Mn43  1  0.25092548  0.74974773  0.49947257  1
  Mn  Mn44  1  0.75094770  0.24972528  0.00065476  1
  Mn  Mn45  1  0.75087760  0.25004017  0.50007925  1
  Mn  Mn46  1  0.75242719  0.75089356  0.00119621  1
  Mn  Mn47  1  0.75060484  0.74977340  0.49942815  1
  Mn  Mn48  1  0.10256764  0.09723845  0.24707758  1
  Mn  Mn49  1  0.10804467  0.10091815  0.75084159  1
  Mn  Mn50  1  0.10792855  0.60015081  0.24845582  1
  Mn  Mn51  1  0.10738920  0.59938910  0.75055277  1
  Mn  Mn52  1  0.60820486  0.09888276  0.24900578  1
  Mn  Mn53  1  0.60778482  0.10103266  0.75045614  1
  Mn  Mn54  1  0.60363684  0.59900905  0.24751539  1
  Mn  Mn55  1  0.60849692  0.59946815  0.75247543  1
  Mn  Mn56  1  0.35607942  0.40106605  0.24794267  1
  Mn  Mn57  1  0.35908412  0.40055400  0.75074800  1
  Mn  Mn58  1  0.35393923  0.89777526  0.24805738  1
  Mn  Mn59  1  0.35762189  0.90076557  0.75044246  1
  Mn  Mn60  1  0.85648252  0.39907244  0.24895327  1
  Mn  Mn61  1  0.85584798  0.40034275  0.75196843  1
  Mn  Mn62  1  0.85700427  0.89957199  0.24673911  1
  Mn  Mn63  1  0.85790816  0.90067649  0.75091502  1
  O  O64  1  0.10877142  0.11608795  0.47217353  1
  O  O65  1  0.10857771  0.11750417  0.97352615  1
  O  O66  1  0.10884181  0.61678304  0.47280768  1
  O  O67  1  0.10962178  0.61786478  0.97570923  1
  O  O68  1  0.60900765  0.11605091  0.47231712  1
  O  O69  1  0.60922643  0.11632935  0.97343583  1
  O  O70  1  0.60918424  0.61715798  0.47379814  1
  O  O71  1  0.61023945  0.61491500  0.97177592  1
  O  O72  1  0.13829945  0.38677273  0.02978630  1
  O  O73  1  0.13652187  0.38354494  0.52684441  1
  O  O74  1  0.13393169  0.88129162  0.03168361  1
  O  O75  1  0.13577078  0.88315665  0.52535116  1
  O  O76  1  0.63354176  0.38154108  0.02455169  1
  O  O77  1  0.63575334  0.38312361  0.52650963  1
  O  O78  1  0.63907599  0.88602426  0.02930459  1
  O  O79  1  0.63652153  0.88394427  0.52643828  1
  O  O80  1  0.35869774  0.10595173  0.47272284  1
  O  O81  1  0.36060041  0.10840027  0.97407436  1
  O  O82  1  0.35938058  0.60660356  0.47333530  1
  O  O83  1  0.35923344  0.60741382  0.97379420  1
  O  O84  1  0.85963592  0.10725926  0.47376487  1
  O  O85  1  0.85842307  0.10504008  0.97503437  1
  O  O86  1  0.85938915  0.60677802  0.47313620  1
  O  O87  1  0.85480465  0.60207848  0.96979353  1
  O  O88  1  0.38471585  0.40032494  0.03112711  1
  O  O89  1  0.38548693  0.39164123  0.52484479  1
  O  O90  1  0.38437104  0.89430273  0.02670180  1
  O  O91  1  0.38682341  0.89285770  0.52696060  1
  O  O92  1  0.88427115  0.39293234  0.02515246  1
  O  O93  1  0.88607428  0.39320352  0.52654105  1
  O  O94  1  0.88855156  0.89723116  0.03387752  1
  O  O95  1  0.88557055  0.89218970  0.52491187  1
  O  O96  1  0.11042788  0.12553170  0.14221589  1
  O  O97  1  0.10594139  0.12260788  0.64133487  1
  O  O98  1  0.11248550  0.62581314  0.14159820  1
  O  O99  1  0.10588918  0.62258845  0.64165012  1
  O  O100  1  0.61485168  0.12288946  0.14228008  1
  O  O101  1  0.60581615  0.12321758  0.64117904  1
  O  O102  1  0.61325570  0.62446186  0.14178082  1
  O  O103  1  0.60652114  0.62111433  0.64270310  1
  O  O104  1  0.46378280  0.37805962  0.35734264  1
  O  O105  1  0.47233097  0.37796722  0.85810539  1
  O  O106  1  0.46168695  0.87721885  0.35799253  1
  O  O107  1  0.46450840  0.87723363  0.85935596  1
  O  O108  1  0.96413234  0.37683541  0.35830776  1
  O  O109  1  0.96911467  0.37670425  0.85906286  1
  O  O110  1  0.96404510  0.87764479  0.35671853  1
  O  O111  1  0.96590372  0.87774635  0.86008851  1
  O  O112  1  0.35992004  0.26676640  0.14212067  1
  O  O113  1  0.35708389  0.26894728  0.64143786  1
  O  O114  1  0.36008746  0.76544635  0.14177208  1
  O  O115  1  0.35601995  0.76914890  0.64157659  1
  O  O116  1  0.85570083  0.26640919  0.14063840  1
  O  O117  1  0.85413526  0.26993166  0.64217624  1
  O  O118  1  0.86753623  0.76625385  0.14233755  1
  O  O119  1  0.85639761  0.76921308  0.64177344  1
  O  O120  1  0.21178494  0.22800908  0.35669654  1
  O  O121  1  0.21873265  0.23224834  0.85915522  1
  O  O122  1  0.21499529  0.73148115  0.35814340  1
  O  O123  1  0.21397335  0.73174296  0.85938848  1
  O  O124  1  0.71446708  0.23116997  0.35816200  1
  O  O125  1  0.71532382  0.23342464  0.85928149  1
  O  O126  1  0.71160804  0.72986515  0.35727936  1
  O  O127  1  0.71661935  0.73370161  0.85980930  1
  O  O128  1  0.42546445  0.06518052  0.25009105  1
  O  O129  1  0.42480597  0.06782561  0.75018576  1
  O  O130  1  0.41751000  0.56825262  0.24427286  1
  O  O131  1  0.42403701  0.56805738  0.75000456  1
  O  O132  1  0.91730713  0.06814404  0.24456954  1
  O  O133  1  0.92467016  0.06806053  0.75055344  1
  O  O134  1  0.92584407  0.56620495  0.24963446  1
  O  O135  1  0.92393886  0.56649963  0.75057425  1
  O  O136  1  0.17405568  0.43277436  0.24992315  1
  O  O137  1  0.17587830  0.43267722  0.75041513  1
  O  O138  1  0.16789203  0.92780884  0.24456807  1
  O  O139  1  0.17438754  0.93293760  0.75023817  1
  O  O140  1  0.67345048  0.43319729  0.24954231  1
  O  O141  1  0.67375284  0.43221532  0.75613983  1
  O  O142  1  0.67544932  0.93198649  0.25004372  1
  O  O143  1  0.67448376  0.93332614  0.74975393  1
