# generated using pymatgen
data_Ba2B6PbO12
_symmetry_space_group_name_H-M   'P 1'
_cell_length_a   7.28154651
_cell_length_b   7.28154651
_cell_length_c   13.43347447
_cell_angle_alpha   74.27487974
_cell_angle_beta   74.27487974
_cell_angle_gamma   59.99999413
_symmetry_Int_Tables_number   1
_chemical_formula_structural   Ba2B6PbO12
_chemical_formula_sum   'Ba4 B12 Pb2 O24'
_cell_volume   585.84740388
_cell_formula_units_Z   2
loop_
 _symmetry_equiv_pos_site_id
 _symmetry_equiv_pos_as_xyz
  1  'x, y, z'
loop_
 _atom_site_type_symbol
 _atom_site_label
 _atom_site_symmetry_multiplicity
 _atom_site_fract_x
 _atom_site_fract_y
 _atom_site_fract_z
 _atom_site_occupancy
  Ba  Ba0  1  0.85114431  0.85114431  0.44656708  1
  Ba  Ba1  1  0.35114431  0.35114431  0.94656708  1
  Ba  Ba2  1  0.14885569  0.14885569  0.55343292  1
  Ba  Ba3  1  0.64885569  0.64885569  0.05343292  1
  B  B4  1  0.75408221  0.50141140  0.37832683  1
  B  B5  1  0.50141140  0.36617957  0.37832683  1
  B  B6  1  0.36617957  0.75408221  0.37832683  1
  B  B7  1  0.25408221  0.86617957  0.87832683  1
  B  B8  1  0.86617957  0.00141140  0.87832683  1
  B  B9  1  0.00141140  0.25408221  0.87832683  1
  B  B10  1  0.24591779  0.49858860  0.62167317  1
  B  B11  1  0.49858860  0.63382043  0.62167317  1
  B  B12  1  0.63382043  0.24591779  0.62167317  1
  B  B13  1  0.74591779  0.13382043  0.12167317  1
  B  B14  1  0.13382043  0.99858860  0.12167317  1
  B  B15  1  0.99858860  0.74591779  0.12167317  1
  Pb  Pb16  1  0.75000000  0.75000000  0.75000000  1
  Pb  Pb17  1  0.25000000  0.25000000  0.25000000  1
  O  O18  1  0.57912940  0.71112504  0.37481692  1
  O  O19  1  0.71112504  0.33492864  0.37481692  1
  O  O20  1  0.33492864  0.57912940  0.37481692  1
  O  O21  1  0.07912940  0.83492864  0.87481692  1
  O  O22  1  0.83492864  0.21112504  0.87481692  1
  O  O23  1  0.21112504  0.07912940  0.87481692  1
  O  O24  1  0.42087060  0.28887496  0.62518308  1
  O  O25  1  0.28887496  0.66507136  0.62518308  1
  O  O26  1  0.66507136  0.42087060  0.62518308  1
  O  O27  1  0.92087060  0.16507136  0.12518308  1
  O  O28  1  0.16507136  0.78887496  0.12518308  1
  O  O29  1  0.78887496  0.92087060  0.12518308  1
  O  O30  1  0.19747250  0.94670776  0.38708156  1
  O  O31  1  0.94670776  0.46873818  0.38708156  1
  O  O32  1  0.46873818  0.19747250  0.38708156  1
  O  O33  1  0.69747250  0.96873818  0.88708156  1
  O  O34  1  0.96873818  0.44670776  0.88708156  1
  O  O35  1  0.44670776  0.69747250  0.88708156  1
  O  O36  1  0.80252750  0.05329224  0.61291844  1
  O  O37  1  0.05329224  0.53126182  0.61291844  1
  O  O38  1  0.53126182  0.80252750  0.61291844  1
  O  O39  1  0.30252750  0.03126182  0.11291844  1
  O  O40  1  0.03126182  0.55329224  0.11291844  1
  O  O41  1  0.55329224  0.30252750  0.11291844  1
