# generated using pymatgen
data_K2Zn(SnSe3)2
_symmetry_space_group_name_H-M   'P 1'
_cell_length_a   8.39939449
_cell_length_b   8.39939449
_cell_length_c   19.90874841
_cell_angle_alpha   90.00000000
_cell_angle_beta   90.00000000
_cell_angle_gamma   90.00000000
_symmetry_Int_Tables_number   1
_chemical_formula_structural   K2Zn(SnSe3)2
_chemical_formula_sum   'K8 Zn4 Sn8 Se24'
_cell_volume   1404.55877201
_cell_formula_units_Z   4
loop_
 _symmetry_equiv_pos_site_id
 _symmetry_equiv_pos_as_xyz
  1  'x, y, z'
loop_
 _atom_site_type_symbol
 _atom_site_label
 _atom_site_symmetry_multiplicity
 _atom_site_fract_x
 _atom_site_fract_y
 _atom_site_fract_z
 _atom_site_occupancy
  K  K0  1  0.25000000  0.25000000  0.17677860  1
  K  K1  1  0.25000000  0.25000000  0.67677860  1
  K  K2  1  0.75000000  0.75000000  0.82322140  1
  K  K3  1  0.75000000  0.75000000  0.32322140  1
  K  K4  1  0.75000000  0.75000000  0.02563957  1
  K  K5  1  0.75000000  0.75000000  0.52563957  1
  K  K6  1  0.25000000  0.25000000  0.97436043  1
  K  K7  1  0.25000000  0.25000000  0.47436043  1
  Zn  Zn8  1  0.25000000  0.75000000  -0.00000000  1
  Zn  Zn9  1  0.25000000  0.75000000  0.50000000  1
  Zn  Zn10  1  0.75000000  0.25000000  0.50000000  1
  Zn  Zn11  1  0.75000000  0.25000000  0.00000000  1
  Sn  Sn12  1  0.25000000  0.75000000  0.16171108  1
  Sn  Sn13  1  0.25000000  0.75000000  0.66171108  1
  Sn  Sn14  1  0.75000000  0.25000000  0.66171108  1
  Sn  Sn15  1  0.75000000  0.25000000  0.16171108  1
  Sn  Sn16  1  0.75000000  0.25000000  0.83828892  1
  Sn  Sn17  1  0.75000000  0.25000000  0.33828892  1
  Sn  Sn18  1  0.25000000  0.75000000  0.33828892  1
  Sn  Sn19  1  0.25000000  0.75000000  0.83828892  1
  Se  Se20  1  0.09515357  0.57391392  0.08145926  1
  Se  Se21  1  0.40484643  0.57391392  0.58145926  1
  Se  Se22  1  0.09515357  0.92608608  0.58145926  1
  Se  Se23  1  0.40484643  0.92608608  0.08145926  1
  Se  Se24  1  0.57391392  0.09515357  0.58145926  1
  Se  Se25  1  0.92608608  0.09515357  0.08145926  1
  Se  Se26  1  0.57391392  0.40484643  0.08145926  1
  Se  Se27  1  0.92608608  0.40484643  0.58145926  1
  Se  Se28  1  0.90484643  0.42608608  0.91854074  1
  Se  Se29  1  0.59515357  0.42608608  0.41854074  1
  Se  Se30  1  0.90484643  0.07391392  0.41854074  1
  Se  Se31  1  0.59515357  0.07391392  0.91854074  1
  Se  Se32  1  0.42608608  0.90484643  0.41854074  1
  Se  Se33  1  0.07391392  0.90484643  0.91854074  1
  Se  Se34  1  0.42608608  0.59515357  0.91854074  1
  Se  Se35  1  0.07391392  0.59515357  0.41854074  1
  Se  Se36  1  0.41245024  0.58754976  0.25000000  1
  Se  Se37  1  0.08754976  0.58754976  0.75000000  1
  Se  Se38  1  0.41245024  0.91245024  0.75000000  1
  Se  Se39  1  0.08754976  0.91245024  0.25000000  1
  Se  Se40  1  0.58754976  0.41245024  0.75000000  1
  Se  Se41  1  0.91245024  0.41245024  0.25000000  1
  Se  Se42  1  0.58754976  0.08754976  0.25000000  1
  Se  Se43  1  0.91245024  0.08754976  0.75000000  1
