# generated using pymatgen
data_CsY(SeO3)2
_symmetry_space_group_name_H-M   'P 1'
_cell_length_a   8.97462820
_cell_length_b   8.97462820
_cell_length_c   8.97462820
_cell_angle_alpha   90.00000000
_cell_angle_beta   90.00000000
_cell_angle_gamma   90.00000000
_symmetry_Int_Tables_number   1
_chemical_formula_structural   CsY(SeO3)2
_chemical_formula_sum   'Cs4 Y4 Se8 O24'
_cell_volume   722.85201693
_cell_formula_units_Z   4
loop_
 _symmetry_equiv_pos_site_id
 _symmetry_equiv_pos_as_xyz
  1  'x, y, z'
loop_
 _atom_site_type_symbol
 _atom_site_label
 _atom_site_symmetry_multiplicity
 _atom_site_fract_x
 _atom_site_fract_y
 _atom_site_fract_z
 _atom_site_occupancy
  Cs  Cs0  1  0.50000000  0.50000000  -0.00000000  1
  Cs  Cs1  1  0.50000000  -0.00000000  0.50000000  1
  Cs  Cs2  1  -0.00000000  0.50000000  0.50000000  1
  Cs  Cs3  1  -0.00000000  -0.00000000  -0.00000000  1
  Y  Y4  1  0.50000000  -0.00000000  -0.00000000  1
  Y  Y5  1  0.50000000  0.50000000  0.50000000  1
  Y  Y6  1  -0.00000000  -0.00000000  0.50000000  1
  Y  Y7  1  -0.00000000  0.50000000  -0.00000000  1
  Se  Se8  1  0.26267689  0.73732311  0.23732311  1
  Se  Se9  1  0.73732311  0.23732311  0.26267689  1
  Se  Se10  1  0.23732311  0.26267689  0.73732311  1
  Se  Se11  1  0.76267689  0.76267689  0.76267689  1
  Se  Se12  1  0.73732311  0.26267689  0.76267689  1
  Se  Se13  1  0.26267689  0.76267689  0.73732311  1
  Se  Se14  1  0.76267689  0.73732311  0.26267689  1
  Se  Se15  1  0.23732311  0.23732311  0.23732311  1
  O  O16  1  0.17941877  0.66104526  0.08127679  1
  O  O17  1  0.82058123  0.16104526  0.41872321  1
  O  O18  1  0.32058123  0.33895474  0.58127679  1
  O  O19  1  0.67941877  0.83895474  0.91872321  1
  O  O20  1  0.08127679  0.17941877  0.66104526  1
  O  O21  1  0.41872321  0.82058123  0.16104526  1
  O  O22  1  0.58127679  0.32058123  0.33895474  1
  O  O23  1  0.91872321  0.67941877  0.83895474  1
  O  O24  1  0.66104526  0.08127679  0.17941877  1
  O  O25  1  0.16104526  0.41872321  0.82058123  1
  O  O26  1  0.33895474  0.58127679  0.32058123  1
  O  O27  1  0.83895474  0.91872321  0.67941877  1
  O  O28  1  0.82058123  0.33895474  0.91872321  1
  O  O29  1  0.17941877  0.83895474  0.58127679  1
  O  O30  1  0.67941877  0.66104526  0.41872321  1
  O  O31  1  0.32058123  0.16104526  0.08127679  1
  O  O32  1  0.91872321  0.82058123  0.33895474  1
  O  O33  1  0.58127679  0.17941877  0.83895474  1
  O  O34  1  0.41872321  0.67941877  0.66104526  1
  O  O35  1  0.08127679  0.32058123  0.16104526  1
  O  O36  1  0.33895474  0.91872321  0.82058123  1
  O  O37  1  0.83895474  0.58127679  0.17941877  1
  O  O38  1  0.66104526  0.41872321  0.67941877  1
  O  O39  1  0.16104526  0.08127679  0.32058123  1
