# generated using pymatgen
data_HgAs2HF13
_symmetry_space_group_name_H-M   'P 1'
_cell_length_a   9.77517226
_cell_length_b   9.73154054
_cell_length_c   10.92901042
_cell_angle_alpha   103.03226020
_cell_angle_beta   90.00000000
_cell_angle_gamma   90.00000000
_symmetry_Int_Tables_number   1
_chemical_formula_structural   HgAs2HF13
_chemical_formula_sum   'Hg4 As8 H4 F52'
_cell_volume   1012.87129240
_cell_formula_units_Z   4
loop_
 _symmetry_equiv_pos_site_id
 _symmetry_equiv_pos_as_xyz
  1  'x, y, z'
loop_
 _atom_site_type_symbol
 _atom_site_label
 _atom_site_symmetry_multiplicity
 _atom_site_fract_x
 _atom_site_fract_y
 _atom_site_fract_z
 _atom_site_occupancy
  Hg  Hg0  1  0.16735104  0.74879502  0.48508036  1
  Hg  Hg1  1  0.66735104  0.25120498  0.01491964  1
  Hg  Hg2  1  0.83264896  0.25120498  0.51491964  1
  Hg  Hg3  1  0.33264896  0.74879502  0.98508036  1
  As  As4  1  0.16498305  0.49042522  0.67738721  1
  As  As5  1  0.66498305  0.50957478  0.82261279  1
  As  As6  1  0.83501695  0.50957478  0.32261279  1
  As  As7  1  0.33501695  0.49042522  0.17738721  1
  As  As8  1  0.86005924  0.99569894  0.69675180  1
  As  As9  1  0.36005924  0.00430106  0.80324820  1
  As  As10  1  0.13994076  0.00430106  0.30324820  1
  As  As11  1  0.63994076  0.99569894  0.19675180  1
  H  H12  1  0.47550339  0.79527651  0.42428341  1
  H  H13  1  0.97550339  0.20472349  0.07571659  1
  H  H14  1  0.52449661  0.20472349  0.57571659  1
  H  H15  1  0.02449661  0.79527651  0.92428341  1
  F  F16  1  0.42677481  0.75133120  0.47990979  1
  F  F17  1  0.92677481  0.24866880  0.02009021  1
  F  F18  1  0.57322519  0.24866880  0.52009021  1
  F  F19  1  0.07322519  0.75133120  0.97990979  1
  F  F20  1  0.28806418  0.59946263  0.77735246  1
  F  F21  1  0.78806418  0.40053737  0.72264754  1
  F  F22  1  0.71193582  0.40053737  0.22264754  1
  F  F23  1  0.21193582  0.59946263  0.27735246  1
  F  F24  1  0.04645939  0.38890757  0.56767107  1
  F  F25  1  0.54645939  0.61109243  0.93232893  1
  F  F26  1  0.95354061  0.61109243  0.43232893  1
  F  F27  1  0.45354061  0.38890757  0.06767107  1
  F  F28  1  0.05745002  0.64040338  0.69339814  1
  F  F29  1  0.55745002  0.35959662  0.80660186  1
  F  F30  1  0.94254998  0.35959662  0.30660186  1
  F  F31  1  0.44254998  0.64040338  0.19339814  1
  F  F32  1  0.24187589  0.55089743  0.54452142  1
  F  F33  1  0.74187589  0.44910257  0.95547858  1
  F  F34  1  0.75812411  0.44910257  0.45547858  1
  F  F35  1  0.25812411  0.55089743  0.04452142  1
  F  F36  1  0.28247951  0.35316941  0.64513099  1
  F  F37  1  0.78247951  0.64683059  0.85486901  1
  F  F38  1  0.71752049  0.64683059  0.35486901  1
  F  F39  1  0.21752049  0.35316941  0.14513099  1
  F  F40  1  0.09063913  0.43849592  0.80324040  1
  F  F41  1  0.59063913  0.56150408  0.69675960  1
  F  F42  1  0.90936087  0.56150408  0.19675960  1
  F  F43  1  0.40936087  0.43849592  0.30324040  1
  F  F44  1  0.97076469  0.89258014  0.58079851  1
  F  F45  1  0.47076469  0.10741986  0.91920149  1
  F  F46  1  0.02923531  0.10741986  0.41920149  1
  F  F47  1  0.52923531  0.89258014  0.08079851  1
  F  F48  1  0.74631522  0.10601962  0.80407353  1
  F  F49  1  0.24631522  0.89398038  0.69592647  1
  F  F50  1  0.25368478  0.89398038  0.19592647  1
  F  F51  1  0.75368478  0.10601962  0.30407353  1
  F  F52  1  0.96045792  0.14667254  0.69301756  1
  F  F53  1  0.46045792  0.85332746  0.80698244  1
  F  F54  1  0.03954208  0.85332746  0.30698244  1
  F  F55  1  0.53954208  0.14667254  0.19301756  1
  F  F56  1  0.76337711  0.04337705  0.56725862  1
  F  F57  1  0.26337711  0.95662295  0.93274138  1
  F  F58  1  0.23662289  0.95662295  0.43274138  1
  F  F59  1  0.73662289  0.04337705  0.06725862  1
  F  F60  1  0.75061736  0.85362975  0.68456668  1
  F  F61  1  0.25061736  0.14637025  0.81543332  1
  F  F62  1  0.24938264  0.14637025  0.31543332  1
  F  F63  1  0.74938264  0.85362975  0.18456668  1
  F  F64  1  0.95604275  0.95612742  0.81977104  1
  F  F65  1  0.45604275  0.04387258  0.68022896  1
  F  F66  1  0.04395725  0.04387258  0.18022896  1
  F  F67  1  0.54395725  0.95612742  0.31977104  1
