# generated using pymatgen
data_Ba2As2O7
_symmetry_space_group_name_H-M   'P 1'
_cell_length_a   7.56537878
_cell_length_b   7.57054650
_cell_length_c   13.60371008
_cell_angle_alpha   86.87595675
_cell_angle_beta   83.32034508
_cell_angle_gamma   89.65971816
_symmetry_Int_Tables_number   1
_chemical_formula_structural   Ba2As2O7
_chemical_formula_sum   'Ba8 As8 O28'
_cell_volume   772.70071710
_cell_formula_units_Z   4
loop_
 _symmetry_equiv_pos_site_id
 _symmetry_equiv_pos_as_xyz
  1  'x, y, z'
loop_
 _atom_site_type_symbol
 _atom_site_label
 _atom_site_symmetry_multiplicity
 _atom_site_fract_x
 _atom_site_fract_y
 _atom_site_fract_z
 _atom_site_occupancy
  Ba  Ba0  1  0.87954500  0.34605343  0.63789202  1
  Ba  Ba1  1  0.12045500  0.65394657  0.36210798  1
  Ba  Ba2  1  0.26825005  0.76455225  0.65135717  1
  Ba  Ba3  1  0.73174995  0.23544775  0.34864283  1
  Ba  Ba4  1  0.71141807  0.66675349  0.13807296  1
  Ba  Ba5  1  0.28858193  0.33324651  0.86192704  1
  Ba  Ba6  1  0.66747242  0.91291784  0.84366107  1
  Ba  Ba7  1  0.33252758  0.08708216  0.15633893  1
  As  As8  1  0.59776895  0.76584236  0.39509782  1
  As  As9  1  0.40223105  0.23415764  0.60490218  1
  As  As10  1  0.79868023  0.81383282  0.58972605  1
  As  As11  1  0.20131977  0.18616718  0.41027395  1
  As  As12  1  0.80081585  0.42345015  0.89192879  1
  As  As13  1  0.19918415  0.57654985  0.10807121  1
  As  As14  1  0.19306605  0.84349303  0.91350439  1
  As  As15  1  0.80693395  0.15650697  0.08649561  1
  O  O16  1  0.97783036  0.48192714  0.80709355  1
  O  O17  1  0.02216964  0.51807286  0.19290645  1
  O  O18  1  0.87124456  0.98951963  0.64658797  1
  O  O19  1  0.12875544  0.01048037  0.35341203  1
  O  O20  1  0.74098194  0.60352984  0.35336330  1
  O  O21  1  0.25901806  0.39647016  0.64663670  1
  O  O22  1  0.71513590  0.89946738  0.47611085  1
  O  O23  1  0.28486410  0.10053262  0.52388915  1
  O  O24  1  0.68033657  0.99740479  0.04292518  1
  O  O25  1  0.31966343  0.00259521  0.95707482  1
  O  O26  1  0.69748199  0.59510672  0.94909546  1
  O  O27  1  0.30251801  0.40489328  0.05090454  1
  O  O28  1  0.33303345  0.70477363  0.84557403  1
  O  O29  1  0.66696655  0.29522637  0.15442597  1
  O  O30  1  0.63648040  0.69783267  0.66270400  1
  O  O31  1  0.36351960  0.30216733  0.33729600  1
  O  O32  1  0.40392158  0.70003241  0.46072326  1
  O  O33  1  0.59607842  0.29996759  0.53927674  1
  O  O34  1  0.57826472  0.91683404  0.29896415  1
  O  O35  1  0.42173528  0.08316596  0.70103585  1
  O  O36  1  0.97473323  0.67961978  0.55333703  1
  O  O37  1  0.02526677  0.32038022  0.44666297  1
  O  O38  1  0.02968776  0.92832833  0.85025713  1
  O  O39  1  0.97031224  0.07167167  0.14974287  1
  O  O40  1  0.91474396  0.29126537  0.98125957  1
  O  O41  1  0.08525604  0.70873463  0.01874043  1
  O  O42  1  0.66277102  0.28778039  0.83832841  1
  O  O43  1  0.33722898  0.71221961  0.16167159  1
