# generated using pymatgen
data_K6U5As2O23
_symmetry_space_group_name_H-M   'P 1'
_cell_length_a   7.10661622
_cell_length_b   7.20729467
_cell_length_c   24.88358283
_cell_angle_alpha   90.00000000
_cell_angle_beta   90.00000000
_cell_angle_gamma   98.54818427
_symmetry_Int_Tables_number   1
_chemical_formula_structural   K6U5As2O23
_chemical_formula_sum   'K12 U10 As4 O46'
_cell_volume   1260.36568294
_cell_formula_units_Z   2
loop_
 _symmetry_equiv_pos_site_id
 _symmetry_equiv_pos_as_xyz
  1  'x, y, z'
loop_
 _atom_site_type_symbol
 _atom_site_label
 _atom_site_symmetry_multiplicity
 _atom_site_fract_x
 _atom_site_fract_y
 _atom_site_fract_z
 _atom_site_occupancy
  K  K0  1  0.36761264  0.73167090  0.88498597  1
  K  K1  1  0.63238736  0.76832910  0.38498597  1
  K  K2  1  0.63238736  0.26832910  0.11501403  1
  K  K3  1  0.36761264  0.23167090  0.61501403  1
  K  K4  1  0.54589532  0.76552878  0.04048325  1
  K  K5  1  0.45410468  0.73447122  0.54048325  1
  K  K6  1  0.45410468  0.23447122  0.95951675  1
  K  K7  1  0.54589532  0.26552878  0.45951675  1
  K  K8  1  0.24356187  0.19597778  0.78611613  1
  K  K9  1  0.75643813  0.30402222  0.28611613  1
  K  K10  1  0.75643813  0.80402222  0.21388387  1
  K  K11  1  0.24356187  0.69597778  0.71388387  1
  U  U12  1  0.90599309  0.98421719  0.91897007  1
  U  U13  1  0.09400691  0.51578281  0.41897007  1
  U  U14  1  0.09400691  0.01578281  0.08102993  1
  U  U15  1  0.90599309  0.48421719  0.58102993  1
  U  U16  1  0.84709958  0.47049174  0.85652404  1
  U  U17  1  0.15290042  0.02950826  0.35652404  1
  U  U18  1  0.15290042  0.52950826  0.14347596  1
  U  U19  1  0.84709958  0.97049174  0.64347596  1
  U  U20  1  -0.00000000  0.50000000  -0.00000000  1
  U  U21  1  -0.00000000  -0.00000000  0.50000000  1
  As  As22  1  0.71408521  0.95336308  0.79538678  1
  As  As23  1  0.28591479  0.54663692  0.29538678  1
  As  As24  1  0.28591479  0.04663692  0.20461322  1
  As  As25  1  0.71408521  0.45336308  0.70461322  1
  O  O26  1  0.47548133  0.91955530  0.78897815  1
  O  O27  1  0.52451867  0.58044470  0.28897815  1
  O  O28  1  0.52451867  0.08044470  0.21102185  1
  O  O29  1  0.47548133  0.41955530  0.71102185  1
  O  O30  1  0.83903591  0.97123838  0.73671056  1
  O  O31  1  0.16096409  0.52876162  0.23671056  1
  O  O32  1  0.16096409  0.02876162  0.26328944  1
  O  O33  1  0.83903591  0.47123838  0.76328944  1
  O  O34  1  0.80577162  0.14416084  0.83588660  1
  O  O35  1  0.19422838  0.35583916  0.33588660  1
  O  O36  1  0.19422838  0.85583916  0.16411340  1
  O  O37  1  0.80577162  0.64416084  0.66411340  1
  O  O38  1  0.79808842  0.78934520  0.83732255  1
  O  O39  1  0.20191158  0.71065480  0.33732255  1
  O  O40  1  0.20191158  0.21065480  0.16267745  1
  O  O41  1  0.79808842  0.28934520  0.66267745  1
  O  O42  1  0.15682739  0.03406300  0.89350814  1
  O  O43  1  0.84317261  0.46593700  0.39350814  1
  O  O44  1  0.84317261  0.96593700  0.10649186  1
  O  O45  1  0.15682739  0.53406300  0.60649186  1
  O  O46  1  0.65015116  0.93702026  0.94106435  1
  O  O47  1  0.34984884  0.56297974  0.44106435  1
  O  O48  1  0.34984884  0.06297974  0.05893565  1
  O  O49  1  0.65015116  0.43702026  0.55893565  1
  O  O50  1  -0.00000000  -0.00000000  -0.00000000  1
  O  O51  1  -0.00000000  0.50000000  0.50000000  1
  O  O52  1  0.93590367  0.67159558  0.92812506  1
  O  O53  1  0.06409633  0.82840442  0.42812506  1
  O  O54  1  0.06409633  0.32840442  0.07187494  1
  O  O55  1  0.93590367  0.17159558  0.57187494  1
  O  O56  1  0.09966803  0.69885837  0.06877647  1
  O  O57  1  0.90033197  0.80114163  0.56877647  1
  O  O58  1  0.90033197  0.30114163  0.93122353  1
  O  O59  1  0.09966803  0.19885837  0.43122353  1
  O  O60  1  0.10341645  0.49200913  0.83970023  1
  O  O61  1  0.89658355  0.00799087  0.33970023  1
  O  O62  1  0.89658355  0.50799087  0.16029977  1
  O  O63  1  0.10341645  0.99200913  0.66029977  1
  O  O64  1  0.58673152  0.43782518  0.86937088  1
  O  O65  1  0.41326848  0.06217482  0.36937088  1
  O  O66  1  0.41326848  0.56217482  0.13062912  1
  O  O67  1  0.58673152  0.93782518  0.63062912  1
  O  O68  1  0.74468577  0.47659223  0.02155562  1
  O  O69  1  0.25531423  0.02340777  0.52155562  1
  O  O70  1  0.25531423  0.52340777  0.97844438  1
  O  O71  1  0.74468577  0.97659223  0.47844438  1
