# generated using pymatgen
data_Cs2LiNd(BO3)2
_symmetry_space_group_name_H-M   'P 1'
_cell_length_a   7.32350784
_cell_length_b   10.18131473
_cell_length_c   10.47063571
_cell_angle_alpha   90.00000000
_cell_angle_beta   90.00000000
_cell_angle_gamma   90.00000000
_symmetry_Int_Tables_number   1
_chemical_formula_structural   Cs2LiNd(BO3)2
_chemical_formula_sum   'Cs8 Li4 Nd4 B8 O24'
_cell_volume   780.72136385
_cell_formula_units_Z   4
loop_
 _symmetry_equiv_pos_site_id
 _symmetry_equiv_pos_as_xyz
  1  'x, y, z'
loop_
 _atom_site_type_symbol
 _atom_site_label
 _atom_site_symmetry_multiplicity
 _atom_site_fract_x
 _atom_site_fract_y
 _atom_site_fract_z
 _atom_site_occupancy
  Cs  Cs0  1  0.72758249  0.42308815  0.94643001  1
  Cs  Cs1  1  0.27241751  0.57691185  0.44643001  1
  Cs  Cs2  1  0.72758249  0.07691185  0.05356999  1
  Cs  Cs3  1  0.27241751  0.92308815  0.55356999  1
  Cs  Cs4  1  0.27241751  0.57691185  0.05356999  1
  Cs  Cs5  1  0.72758249  0.42308815  0.55356999  1
  Cs  Cs6  1  0.27241751  0.92308815  0.94643001  1
  Cs  Cs7  1  0.72758249  0.07691185  0.44643001  1
  Li  Li8  1  0.55571765  0.16213530  0.75000000  1
  Li  Li9  1  0.44428235  0.83786470  0.25000000  1
  Li  Li10  1  0.55571765  0.33786470  0.25000000  1
  Li  Li11  1  0.44428235  0.66213530  0.75000000  1
  Nd  Nd12  1  0.14241539  0.27637274  0.75000000  1
  Nd  Nd13  1  0.85758461  0.72362726  0.25000000  1
  Nd  Nd14  1  0.14241539  0.22362726  0.25000000  1
  Nd  Nd15  1  0.85758461  0.77637274  0.75000000  1
  B  B16  1  0.30711786  0.25000000  0.00000000  1
  B  B17  1  0.69288214  0.75000000  0.50000000  1
  B  B18  1  0.69288214  0.75000000  0.00000000  1
  B  B19  1  0.30711786  0.25000000  0.50000000  1
  B  B20  1  0.14834906  0.56762498  0.75000000  1
  B  B21  1  0.85165094  0.43237502  0.25000000  1
  B  B22  1  0.14834906  0.93237502  0.25000000  1
  B  B23  1  0.85165094  0.06762498  0.75000000  1
  O  O24  1  -0.02250434  0.50915881  0.75000000  1
  O  O25  1  0.02250434  0.49084119  0.25000000  1
  O  O26  1  -0.02250434  0.99084119  0.25000000  1
  O  O27  1  0.02250434  0.00915881  0.75000000  1
  O  O28  1  0.11544629  0.25000000  0.00000000  1
  O  O29  1  0.88455371  0.75000000  0.50000000  1
  O  O30  1  0.88455371  0.75000000  0.00000000  1
  O  O31  1  0.11544629  0.25000000  0.50000000  1
  O  O32  1  0.82889354  0.20342382  0.75000000  1
  O  O33  1  0.17110646  0.79657618  0.25000000  1
  O  O34  1  0.82889354  0.29657618  0.25000000  1
  O  O35  1  0.17110646  0.70342382  0.75000000  1
  O  O36  1  0.30192095  0.48702764  0.75000000  1
  O  O37  1  0.69807905  0.51297236  0.25000000  1
  O  O38  1  0.30192095  0.01297236  0.25000000  1
  O  O39  1  0.69807905  0.98702764  0.75000000  1
  O  O40  1  0.39617877  0.21487076  0.61171181  1
  O  O41  1  0.60382123  0.78512924  0.11171181  1
  O  O42  1  0.39617877  0.28512924  0.38828819  1
  O  O43  1  0.60382123  0.71487076  0.88828819  1
  O  O44  1  0.60382123  0.78512924  0.38828819  1
  O  O45  1  0.39617877  0.21487076  0.88828819  1
  O  O46  1  0.60382123  0.71487076  0.61171181  1
  O  O47  1  0.39617877  0.28512924  0.11171181  1
