# generated using pymatgen
data_Sc2Se3O10
_symmetry_space_group_name_H-M   'P 1'
_cell_length_a   6.63940735
_cell_length_b   11.05261682
_cell_length_c   12.92110951
_cell_angle_alpha   90.00000000
_cell_angle_beta   103.22580284
_cell_angle_gamma   90.00000000
_symmetry_Int_Tables_number   1
_chemical_formula_structural   Sc2Se3O10
_chemical_formula_sum   'Sc8 Se12 O40'
_cell_volume   923.03776543
_cell_formula_units_Z   4
loop_
 _symmetry_equiv_pos_site_id
 _symmetry_equiv_pos_as_xyz
  1  'x, y, z'
loop_
 _atom_site_type_symbol
 _atom_site_label
 _atom_site_symmetry_multiplicity
 _atom_site_fract_x
 _atom_site_fract_y
 _atom_site_fract_z
 _atom_site_occupancy
  Sc  Sc0  1  0.80076495  0.15766571  0.59073983  1
  Sc  Sc1  1  0.19923505  0.65766571  0.90926017  1
  Sc  Sc2  1  0.19923505  0.84233429  0.40926017  1
  Sc  Sc3  1  0.80076495  0.34233429  0.09073983  1
  Sc  Sc4  1  0.26267695  0.29377448  0.53412885  1
  Sc  Sc5  1  0.73732305  0.79377448  0.96587115  1
  Sc  Sc6  1  0.73732305  0.70622552  0.46587115  1
  Sc  Sc7  1  0.26267695  0.20622552  0.03412885  1
  Se  Se8  1  0.32010709  0.03032245  0.64905869  1
  Se  Se9  1  0.67989291  0.53032245  0.85094131  1
  Se  Se10  1  0.67989291  0.96967755  0.35094131  1
  Se  Se11  1  0.32010709  0.46967755  0.14905869  1
  Se  Se12  1  0.71194192  0.39500790  0.45567174  1
  Se  Se13  1  0.28805808  0.89500790  0.04432826  1
  Se  Se14  1  0.28805808  0.60499210  0.54432826  1
  Se  Se15  1  0.71194192  0.10499210  0.95567174  1
  Se  Se16  1  0.13594634  0.35091917  0.77869154  1
  Se  Se17  1  0.86405366  0.85091917  0.72130846  1
  Se  Se18  1  0.86405366  0.64908083  0.22130846  1
  Se  Se19  1  0.13594634  0.14908083  0.27869154  1
  O  O20  1  0.12795931  0.13432775  0.58852724  1
  O  O21  1  0.87204069  0.63432775  0.91147276  1
  O  O22  1  0.87204069  0.86567225  0.41147276  1
  O  O23  1  0.12795931  0.36567225  0.08852724  1
  O  O24  1  0.30733466  0.92618843  0.55175790  1
  O  O25  1  0.69266534  0.42618843  0.94824210  1
  O  O26  1  0.69266534  0.07381157  0.44824210  1
  O  O27  1  0.30733466  0.57381157  0.05175790  1
  O  O28  1  0.51605828  0.12744033  0.63444386  1
  O  O29  1  0.48394172  0.62744033  0.86555614  1
  O  O30  1  0.48394172  0.87255967  0.36555614  1
  O  O31  1  0.51605828  0.37255967  0.13444386  1
  O  O32  1  0.58356416  0.31538719  0.53857667  1
  O  O33  1  0.41643584  0.81538719  0.96142333  1
  O  O34  1  0.41643584  0.68461281  0.46142333  1
  O  O35  1  0.58356416  0.18461281  0.03857667  1
  O  O36  1  0.92839027  0.30361544  0.49844821  1
  O  O37  1  0.07160973  0.80361544  0.00155179  1
  O  O38  1  0.07160973  0.69638456  0.50155179  1
  O  O39  1  0.92839027  0.19638456  0.99844821  1
  O  O40  1  0.76838294  0.52677673  0.52382525  1
  O  O41  1  0.23161706  0.02677673  0.97617475  1
  O  O42  1  0.23161706  0.47322327  0.47617475  1
  O  O43  1  0.76838294  0.97322327  0.02382525  1
  O  O44  1  0.28691223  0.36632853  0.69100600  1
  O  O45  1  0.71308777  0.86632853  0.80899400  1
  O  O46  1  0.71308777  0.63367147  0.30899400  1
  O  O47  1  0.28691223  0.13367147  0.19100600  1
  O  O48  1  0.91533600  0.27912748  0.72729252  1
  O  O49  1  0.08466400  0.77912748  0.77270748  1
  O  O50  1  0.08466400  0.72087252  0.27270748  1
  O  O51  1  0.91533600  0.22087252  0.22729252  1
  O  O52  1  0.26796853  0.27077876  0.88079845  1
  O  O53  1  0.73203147  0.77077876  0.61920155  1
  O  O54  1  0.73203147  0.72922124  0.11920155  1
  O  O55  1  0.26796853  0.22922124  0.38079845  1
  O  O56  1  0.08642183  0.48867029  0.81796118  1
  O  O57  1  0.91357817  0.98867029  0.68203882  1
  O  O58  1  0.91357817  0.51132971  0.18203882  1
  O  O59  1  0.08642183  0.01132971  0.31796118  1
