# generated using pymatgen
data_CsInHgS3
_symmetry_space_group_name_H-M   'P 1'
_cell_length_a   8.24053408
_cell_length_b   8.24053408
_cell_length_c   22.43219522
_cell_angle_alpha   95.26504753
_cell_angle_beta   95.26504753
_cell_angle_gamma   89.98637227
_symmetry_Int_Tables_number   1
_chemical_formula_structural   CsInHgS3
_chemical_formula_sum   'Cs8 In8 Hg8 S24'
_cell_volume   1510.41141189
_cell_formula_units_Z   8
loop_
 _symmetry_equiv_pos_site_id
 _symmetry_equiv_pos_as_xyz
  1  'x, y, z'
loop_
 _atom_site_type_symbol
 _atom_site_label
 _atom_site_symmetry_multiplicity
 _atom_site_fract_x
 _atom_site_fract_y
 _atom_site_fract_z
 _atom_site_occupancy
  Cs  Cs0  1  0.10512309  0.23111321  0.42287309  1
  Cs  Cs1  1  0.76888679  0.89487691  0.07712691  1
  Cs  Cs2  1  0.89487691  0.76888679  0.57712691  1
  Cs  Cs3  1  0.23111321  0.10512309  0.92287309  1
  Cs  Cs4  1  0.60604531  0.23056425  0.42276253  1
  Cs  Cs5  1  0.76943575  0.39395469  0.07723747  1
  Cs  Cs6  1  0.39395469  0.76943575  0.57723747  1
  Cs  Cs7  1  0.23056425  0.60604531  0.92276253  1
  In  In8  1  0.28005683  0.65542231  0.12202035  1
  In  In9  1  0.34457769  0.71994317  0.37797965  1
  In  In10  1  0.71994317  0.34457769  0.87797965  1
  In  In11  1  0.65542231  0.28005683  0.62202035  1
  In  In12  1  0.84435784  0.71894650  0.37719923  1
  In  In13  1  0.28105350  0.15564216  0.12280077  1
  In  In14  1  0.15564216  0.28105350  0.62280077  1
  In  In15  1  0.71894650  0.84435784  0.87719923  1
  Hg  Hg16  1  0.06561087  0.43974358  0.24999753  1
  Hg  Hg17  1  0.56025642  0.93438913  0.25000247  1
  Hg  Hg18  1  0.93438913  0.56025642  0.75000247  1
  Hg  Hg19  1  0.43974358  0.06561087  0.74999753  1
  Hg  Hg20  1  0.06447285  0.93552715  0.25000000  1
  Hg  Hg21  1  0.93552715  0.06447285  0.75000000  1
  Hg  Hg22  1  0.55960811  0.44039189  0.25000000  1
  Hg  Hg23  1  0.44039189  0.55960811  0.75000000  1
  S  S24  1  0.11052373  0.73557457  0.44349224  1
  S  S25  1  0.26442543  0.88947627  0.05650776  1
  S  S26  1  0.88947627  0.26442543  0.55650776  1
  S  S27  1  0.73557457  0.11052373  0.94349224  1
  S  S28  1  0.33047911  0.44462611  0.32150199  1
  S  S29  1  0.55537389  0.66952089  0.17849801  1
  S  S30  1  0.66952089  0.55537389  0.67849801  1
  S  S31  1  0.44462611  0.33047911  0.82150199  1
  S  S32  1  0.03349654  0.66981215  0.17879392  1
  S  S33  1  0.33018785  0.96650346  0.32120608  1
  S  S34  1  0.96650346  0.33018785  0.82120608  1
  S  S35  1  0.66981215  0.03349654  0.67879392  1
  S  S36  1  0.26365009  0.38878457  0.05648605  1
  S  S37  1  0.61121543  0.73634991  0.44351395  1
  S  S38  1  0.73634991  0.61121543  0.94351395  1
  S  S39  1  0.38878457  0.26365009  0.55648605  1
  S  S40  1  0.83002856  0.44477279  0.31998211  1
  S  S41  1  0.55522721  0.16997144  0.18001789  1
  S  S42  1  0.16997144  0.55522721  0.68001789  1
  S  S43  1  0.44477279  0.83002856  0.81998211  1
  S  S44  1  0.03472416  0.17005143  0.17972726  1
  S  S45  1  0.82994857  0.96527584  0.32027274  1
  S  S46  1  0.96527584  0.82994857  0.82027274  1
  S  S47  1  0.17005143  0.03472416  0.67972726  1
