# generated using pymatgen
data_LiH4SNO4
_symmetry_space_group_name_H-M   'P 1'
_cell_length_a   5.03679536
_cell_length_b   10.38199775
_cell_length_c   17.12870771
_cell_angle_alpha   90.00000000
_cell_angle_beta   90.00000000
_cell_angle_gamma   90.00000000
_symmetry_Int_Tables_number   1
_chemical_formula_structural   LiH4SNO4
_chemical_formula_sum   'Li8 H32 S8 N8 O32'
_cell_volume   895.69435094
_cell_formula_units_Z   8
loop_
 _symmetry_equiv_pos_site_id
 _symmetry_equiv_pos_as_xyz
  1  'x, y, z'
loop_
 _atom_site_type_symbol
 _atom_site_label
 _atom_site_symmetry_multiplicity
 _atom_site_fract_x
 _atom_site_fract_y
 _atom_site_fract_z
 _atom_site_occupancy
  Li  Li0  1  0.95430147  0.47389543  0.99993571  1
  Li  Li1  1  0.04569853  0.52610457  0.49993571  1
  Li  Li2  1  0.95430147  0.02610457  0.49993571  1
  Li  Li3  1  0.04569853  0.97389543  0.99993571  1
  Li  Li4  1  0.45437584  0.27588992  0.99674216  1
  Li  Li5  1  0.54562416  0.72411008  0.49674216  1
  Li  Li6  1  0.45437584  0.22411008  0.49674216  1
  Li  Li7  1  0.54562416  0.77588992  0.99674216  1
  H  H8  1  0.99879231  0.26883799  0.77099798  1
  H  H9  1  0.00120769  0.73116201  0.27099798  1
  H  H10  1  0.99879231  0.23116201  0.27099798  1
  H  H11  1  0.00120769  0.76883799  0.77099798  1
  H  H12  1  0.04118299  0.37016109  0.84984415  1
  H  H13  1  0.95881701  0.62983891  0.34984415  1
  H  H14  1  0.04118299  0.12983891  0.34984415  1
  H  H15  1  0.95881701  0.87016109  0.84984415  1
  H  H16  1  0.11034650  0.21230316  0.85765954  1
  H  H17  1  0.88965350  0.78769684  0.35765954  1
  H  H18  1  0.11034650  0.28769684  0.35765954  1
  H  H19  1  0.88965350  0.71230316  0.85765954  1
  H  H20  1  0.79162923  0.26188864  0.84967811  1
  H  H21  1  0.20837077  0.73811136  0.34967811  1
  H  H22  1  0.79162923  0.23811136  0.34967811  1
  H  H23  1  0.20837077  0.76188864  0.84967811  1
  H  H24  1  0.48651615  0.48800120  0.22460862  1
  H  H25  1  0.51348385  0.51199880  0.72460862  1
  H  H26  1  0.48651615  0.01199880  0.72460862  1
  H  H27  1  0.51348385  0.98800120  0.22460862  1
  H  H28  1  0.54340631  0.38547142  0.14719945  1
  H  H29  1  0.45659369  0.61452858  0.64719945  1
  H  H30  1  0.54340631  0.11452858  0.64719945  1
  H  H31  1  0.45659369  0.88547142  0.14719945  1
  H  H32  1  0.29677916  0.49522684  0.14273674  1
  H  H33  1  0.70322084  0.50477316  0.64273674  1
  H  H34  1  0.29677916  0.00477316  0.64273674  1
  H  H35  1  0.70322084  0.99522684  0.14273674  1
  H  H36  1  0.38222113  0.04254820  0.13920168  1
  H  H37  1  0.61777887  0.95745180  0.63920168  1
  H  H38  1  0.38222113  0.45745180  0.63920168  1
  H  H39  1  0.61777887  0.54254820  0.13920168  1
  S  S40  1  0.95771906  0.22844039  0.09979262  1
  S  S41  1  0.04228094  0.77155961  0.59979262  1
  S  S42  1  0.95771906  0.27155961  0.59979262  1
  S  S43  1  0.04228094  0.72844039  0.09979262  1
  S  S44  1  0.54232494  0.02273253  0.89709509  1
  S  S45  1  0.45767506  0.97726747  0.39709509  1
  S  S46  1  0.54232494  0.47726747  0.39709509  1
  S  S47  1  0.45767506  0.52273253  0.89709509  1
  N  N48  1  0.98430683  0.27842409  0.83182096  1
  N  N49  1  0.01569317  0.72157591  0.33182096  1
  N  N50  1  0.98430683  0.22157591  0.33182096  1
  N  N51  1  0.01569317  0.77842409  0.83182096  1
  N  N52  1  0.48569378  0.47782394  0.16368671  1
  N  N53  1  0.51430622  0.52217606  0.66368671  1
  N  N54  1  0.48569378  0.02217606  0.66368671  1
  N  N55  1  0.51430622  0.97782394  0.16368671  1
  O  O56  1  0.66309661  0.24275850  0.09184560  1
  O  O57  1  0.33690339  0.75724150  0.59184560  1
  O  O58  1  0.66309661  0.25724150  0.59184560  1
  O  O59  1  0.33690339  0.74275850  0.09184560  1
  O  O60  1  0.08858456  0.30229222  0.03500626  1
  O  O61  1  0.91141544  0.69770778  0.53500626  1
  O  O62  1  0.08858456  0.19770778  0.53500626  1
  O  O63  1  0.91141544  0.80229222  0.03500626  1
  O  O64  1  0.04533032  0.27932129  0.17607056  1
  O  O65  1  0.95466968  0.72067871  0.67607056  1
  O  O66  1  0.04533032  0.22067871  0.67607056  1
  O  O67  1  0.95466968  0.77932129  0.17607056  1
  O  O68  1  0.02905160  0.08873855  0.09251490  1
  O  O69  1  0.97094840  0.91126145  0.59251490  1
  O  O70  1  0.02905160  0.41126145  0.59251490  1
  O  O71  1  0.97094840  0.58873855  0.09251490  1
  O  O72  1  0.83719693  0.01067901  0.90550993  1
  O  O73  1  0.16280307  0.98932099  0.40550993  1
  O  O74  1  0.83719693  0.48932099  0.40550993  1
  O  O75  1  0.16280307  0.51067901  0.90550993  1
  O  O76  1  0.58740868  0.44846940  0.96197305  1
  O  O77  1  0.41259132  0.55153060  0.46197305  1
  O  O78  1  0.58740868  0.05153060  0.46197305  1
  O  O79  1  0.41259132  0.94846940  0.96197305  1
  O  O80  1  0.54209654  0.46971819  0.82093552  1
  O  O81  1  0.45790346  0.53028181  0.32093552  1
  O  O82  1  0.54209654  0.03028181  0.32093552  1
  O  O83  1  0.45790346  0.96971819  0.82093552  1
  O  O84  1  0.46625810  0.16176608  0.90361566  1
  O  O85  1  0.53374190  0.83823392  0.40361566  1
  O  O86  1  0.46625810  0.33823392  0.40361566  1
  O  O87  1  0.53374190  0.66176608  0.90361566  1
