# generated using pymatgen
data_KHS2O7
_symmetry_space_group_name_H-M   'P 1'
_cell_length_a   7.38797085
_cell_length_b   8.50441256
_cell_length_c   10.88525147
_cell_angle_alpha   90.00000000
_cell_angle_beta   90.00000000
_cell_angle_gamma   109.16049641
_symmetry_Int_Tables_number   1
_chemical_formula_structural   KHS2O7
_chemical_formula_sum   'K4 H4 S8 O28'
_cell_volume   646.03675789
_cell_formula_units_Z   4
loop_
 _symmetry_equiv_pos_site_id
 _symmetry_equiv_pos_as_xyz
  1  'x, y, z'
loop_
 _atom_site_type_symbol
 _atom_site_label
 _atom_site_symmetry_multiplicity
 _atom_site_fract_x
 _atom_site_fract_y
 _atom_site_fract_z
 _atom_site_occupancy
  K  K0  1  0.65666693  0.53624852  0.70451029  1
  K  K1  1  0.34333307  0.96375148  0.20451029  1
  K  K2  1  0.34333307  0.46375148  0.29548971  1
  K  K3  1  0.65666693  0.03624852  0.79548971  1
  H  H4  1  0.90036765  0.21286239  0.45048021  1
  H  H5  1  0.09963235  0.28713761  0.95048021  1
  H  H6  1  0.09963235  0.78713761  0.54951979  1
  H  H7  1  0.90036765  0.71286239  0.04951979  1
  S  S8  1  0.09485099  0.32990566  0.59891027  1
  S  S9  1  0.90514901  0.17009434  0.09891027  1
  S  S10  1  0.90514901  0.67009434  0.40108973  1
  S  S11  1  0.09485099  0.82990566  0.90108973  1
  S  S12  1  0.32636786  0.11423639  0.55661752  1
  S  S13  1  0.67363214  0.38576361  0.05661752  1
  S  S14  1  0.67363214  0.88576361  0.44338248  1
  S  S15  1  0.32636786  0.61423639  0.94338248  1
  O  O16  1  0.02041753  0.31664137  0.46414004  1
  O  O17  1  0.97958247  0.18335863  0.96414004  1
  O  O18  1  0.97958247  0.68335863  0.53585996  1
  O  O19  1  0.02041753  0.81664137  0.03585996  1
  O  O20  1  0.94401203  0.32390768  0.68429185  1
  O  O21  1  0.05598797  0.17609232  0.18429185  1
  O  O22  1  0.05598797  0.67609232  0.31570815  1
  O  O23  1  0.94401203  0.82390768  0.81570815  1
  O  O24  1  0.13126576  0.15568600  0.62178240  1
  O  O25  1  0.86873424  0.34431400  0.12178240  1
  O  O26  1  0.86873424  0.84431400  0.37821760  1
  O  O27  1  0.13126576  0.65568600  0.87821760  1
  O  O28  1  0.48894305  0.21271168  0.62829904  1
  O  O29  1  0.51105695  0.28728832  0.12829904  1
  O  O30  1  0.51105695  0.78728832  0.37170096  1
  O  O31  1  0.48894305  0.71271168  0.87170096  1
  O  O32  1  0.32430618  0.15791336  0.42817812  1
  O  O33  1  0.67569382  0.34208664  0.92817812  1
  O  O34  1  0.67569382  0.84208664  0.57182188  1
  O  O35  1  0.32430618  0.65791336  0.07182188  1
  O  O36  1  0.26918300  0.93640562  0.58410957  1
  O  O37  1  0.73081700  0.56359438  0.08410957  1
  O  O38  1  0.73081700  0.06359438  0.41589043  1
  O  O39  1  0.26918300  0.43640562  0.91589043  1
  O  O40  1  0.27261484  0.46499422  0.60002451  1
  O  O41  1  0.72738516  0.03500578  0.10002451  1
  O  O42  1  0.72738516  0.53500578  0.39997549  1
  O  O43  1  0.27261484  0.96499422  0.89997549  1
