# generated using pymatgen
data_BaAlB4H3O10
_symmetry_space_group_name_H-M   'P 1'
_cell_length_a   7.21252500
_cell_length_b   7.23925011
_cell_length_c   18.84156472
_cell_angle_alpha   84.13643258
_cell_angle_beta   78.96554324
_cell_angle_gamma   60.12204805
_symmetry_Int_Tables_number   1
_chemical_formula_structural   BaAlB4H3O10
_chemical_formula_sum   'Ba4 Al4 B16 H12 O40'
_cell_volume   837.22679241
_cell_formula_units_Z   4
loop_
 _symmetry_equiv_pos_site_id
 _symmetry_equiv_pos_as_xyz
  1  'x, y, z'
loop_
 _atom_site_type_symbol
 _atom_site_label
 _atom_site_symmetry_multiplicity
 _atom_site_fract_x
 _atom_site_fract_y
 _atom_site_fract_z
 _atom_site_occupancy
  Ba  Ba0  1  0.97959486  0.79878931  0.60183611  1
  Ba  Ba1  1  0.38022028  0.70121069  0.89816389  1
  Ba  Ba2  1  0.02040514  0.20121069  0.39816389  1
  Ba  Ba3  1  0.61977972  0.29878931  0.10183611  1
  Al  Al4  1  0.33124001  0.14364338  0.55783419  1
  Al  Al5  1  0.03271759  0.35635662  0.94216581  1
  Al  Al6  1  0.66875999  0.85635662  0.44216581  1
  Al  Al7  1  0.96728241  0.64364338  0.05783419  1
  B  B8  1  0.58628822  0.70308736  0.60096825  1
  B  B9  1  0.89034383  0.79691264  0.89903175  1
  B  B10  1  0.41371178  0.29691264  0.39903175  1
  B  B11  1  0.10965617  0.20308736  0.10096825  1
  B  B12  1  0.86725165  0.32392202  0.56998722  1
  B  B13  1  0.76116088  0.17607798  0.93001278  1
  B  B14  1  0.13274835  0.67607798  0.43001278  1
  B  B15  1  0.23883912  0.82392202  0.06998722  1
  B  B16  1  0.48701805  0.43020198  0.57633556  1
  B  B17  1  0.49355559  0.06979802  0.92366444  1
  B  B18  1  0.51298195  0.56979802  0.42366444  1
  B  B19  1  0.50644441  0.93020198  0.07633556  1
  B  B20  1  0.38445507  0.96727134  0.70414374  1
  B  B21  1  0.05587014  0.53272866  0.79585626  1
  B  B22  1  0.61554493  0.03272866  0.29585626  1
  B  B23  1  0.94412986  0.46727134  0.20414374  1
  H  H24  1  0.23362335  0.12904287  0.79928282  1
  H  H25  1  0.16194905  0.37095713  0.70071718  1
  H  H26  1  0.76637665  0.87095713  0.20071718  1
  H  H27  1  0.83805095  0.62904287  0.29928282  1
  H  H28  1  0.96910356  0.09186784  0.71588081  1
  H  H29  1  0.77685220  0.40813216  0.78411919  1
  H  H30  1  0.03089644  0.90813216  0.28411919  1
  H  H31  1  0.22314780  0.59186784  0.21588081  1
  H  H32  1  0.92380583  0.91964034  0.76225443  1
  H  H33  1  0.60570060  0.58035966  0.73774557  1
  H  H34  1  0.07619417  0.08035966  0.23774557  1
  H  H35  1  0.39429940  0.41964034  0.26225443  1
  O  O36  1  0.42926983  0.63392362  0.59399393  1
  O  O37  1  0.65718738  0.86607638  0.90600607  1
  O  O38  1  0.57073017  0.36607638  0.40600607  1
  O  O39  1  0.34281262  0.13392362  0.09399393  1
  O  O40  1  0.33257635  0.38947607  0.56391000  1
  O  O41  1  0.28596242  0.11052393  0.93609000  1
  O  O42  1  0.66742365  0.61052393  0.43609000  1
  O  O43  1  0.71403758  0.88947607  0.06391000  1
  O  O44  1  0.70594983  0.26879179  0.56889579  1
  O  O45  1  0.54363740  0.23120821  0.93110421  1
  O  O46  1  0.29405017  0.73120821  0.43110421  1
  O  O47  1  0.45636260  0.76879179  0.06889579  1
  O  O48  1  0.07433183  0.16780643  0.54821993  1
  O  O49  1  0.79035818  0.33219357  0.95178007  1
  O  O50  1  0.92566817  0.83219357  0.45178007  1
  O  O51  1  0.20964182  0.66780643  0.04821993  1
  O  O52  1  0.81308266  0.52464966  0.58766943  1
  O  O53  1  0.92540175  0.97535034  0.91233057  1
  O  O54  1  0.18691734  0.47535034  0.41233057  1
  O  O55  1  0.07459825  0.02464966  0.08766943  1
  O  O56  1  0.55205617  0.77159735  0.67663233  1
  O  O57  1  0.00028586  0.72840265  0.82336767  1
  O  O58  1  0.44794383  0.22840265  0.32336767  1
  O  O59  1  0.99971414  0.27159735  0.17663233  1
  O  O60  1  0.56859071  0.87662120  0.54932049  1
  O  O61  1  0.99453239  0.62337880  0.95067951  1
  O  O62  1  0.43140929  0.12337880  0.45067951  1
  O  O63  1  0.00546761  0.37662120  0.04932049  1
  O  O64  1  0.27106426  0.13049014  0.66027559  1
  O  O65  1  0.06183000  0.36950986  0.83972441  1
  O  O66  1  0.72893574  0.86950986  0.33972441  1
  O  O67  1  0.93817000  0.63049014  0.16027559  1
  O  O68  1  0.33912848  0.98241317  0.77927561  1
  O  O69  1  0.10081726  0.51758683  0.72072439  1
  O  O70  1  0.66087152  0.01758683  0.22072439  1
  O  O71  1  0.89918274  0.48241317  0.27927561  1
  O  O72  1  0.88148429  0.02256298  0.72040349  1
  O  O73  1  0.62445076  0.47743702  0.77959651  1
  O  O74  1  0.11851571  0.97743702  0.27959651  1
  O  O75  1  0.37554924  0.52256298  0.22040349  1
