# generated using pymatgen
data_Cs2Sn3HgSe8
_symmetry_space_group_name_H-M   'P 1'
_cell_length_a   8.25886624
_cell_length_b   13.53569527
_cell_length_c   18.97191844
_cell_angle_alpha   90.00000000
_cell_angle_beta   90.00000000
_cell_angle_gamma   90.00000000
_symmetry_Int_Tables_number   1
_chemical_formula_structural   Cs2Sn3HgSe8
_chemical_formula_sum   'Cs8 Sn12 Hg4 Se32'
_cell_volume   2120.86121385
_cell_formula_units_Z   4
loop_
 _symmetry_equiv_pos_site_id
 _symmetry_equiv_pos_as_xyz
  1  'x, y, z'
loop_
 _atom_site_type_symbol
 _atom_site_label
 _atom_site_symmetry_multiplicity
 _atom_site_fract_x
 _atom_site_fract_y
 _atom_site_fract_z
 _atom_site_occupancy
  Cs  Cs0  1  0.74858547  0.62687924  0.04928847  1
  Cs  Cs1  1  0.75141453  0.37312076  0.54928847  1
  Cs  Cs2  1  0.24858547  0.87312076  0.95071153  1
  Cs  Cs3  1  0.25141453  0.12687924  0.45071153  1
  Cs  Cs4  1  0.23895870  0.81127676  0.33995485  1
  Cs  Cs5  1  0.26104130  0.18872324  0.83995485  1
  Cs  Cs6  1  0.73895870  0.68872324  0.66004515  1
  Cs  Cs7  1  0.76104130  0.31127676  0.16004515  1
  Sn  Sn8  1  0.76181206  0.04976871  0.32271687  1
  Sn  Sn9  1  0.73818794  0.95023129  0.82271687  1
  Sn  Sn10  1  0.26181206  0.45023129  0.67728313  1
  Sn  Sn11  1  0.23818794  0.54976871  0.17728313  1
  Sn  Sn12  1  0.73253218  0.93131531  0.48466169  1
  Sn  Sn13  1  0.76746782  0.06868469  0.98466169  1
  Sn  Sn14  1  0.23253218  0.56868469  0.51533831  1
  Sn  Sn15  1  0.26746782  0.43131531  0.01533831  1
  Sn  Sn16  1  0.51470383  0.97994661  0.15308189  1
  Sn  Sn17  1  0.98529617  0.02005339  0.65308189  1
  Sn  Sn18  1  0.01470383  0.52005339  0.84691811  1
  Sn  Sn19  1  0.48529617  0.47994661  0.34691811  1
  Hg  Hg20  1  0.98450651  0.50162693  0.34720461  1
  Hg  Hg21  1  0.51549349  0.49837307  0.84720461  1
  Hg  Hg22  1  0.48450651  0.99837307  0.65279539  1
  Hg  Hg23  1  0.01549349  0.00162693  0.15279539  1
  Se  Se24  1  0.98145358  0.61703751  0.22908752  1
  Se  Se25  1  0.51854642  0.38296249  0.72908752  1
  Se  Se26  1  0.48145358  0.88296249  0.77091248  1
  Se  Se27  1  0.01854642  0.11703751  0.27091248  1
  Se  Se28  1  0.97421571  0.62694776  0.45892140  1
  Se  Se29  1  0.52578429  0.37305224  0.95892140  1
  Se  Se30  1  0.47421571  0.87305224  0.54107860  1
  Se  Se31  1  0.02578429  0.12694776  0.04107860  1
  Se  Se32  1  0.76407775  0.87250753  0.15881174  1
  Se  Se33  1  0.73592225  0.12749247  0.65881174  1
  Se  Se34  1  0.26407775  0.62749247  0.84118826  1
  Se  Se35  1  0.23592225  0.37250753  0.34118826  1
  Se  Se36  1  0.76609379  0.62938297  0.85197607  1
  Se  Se37  1  0.73390621  0.37061703  0.35197607  1
  Se  Se38  1  0.26609379  0.87061703  0.14802393  1
  Se  Se39  1  0.23390621  0.12938297  0.64802393  1
  Se  Se40  1  0.75904677  0.86346416  0.35679498  1
  Se  Se41  1  0.74095323  0.13653584  0.85679498  1
  Se  Se42  1  0.25904677  0.63653584  0.64320502  1
  Se  Se43  1  0.24095323  0.36346416  0.14320502  1
  Se  Se44  1  0.73414092  0.11826667  0.45135971  1
  Se  Se45  1  0.76585908  0.88173333  0.95135971  1
  Se  Se46  1  0.23414092  0.38173333  0.54864029  1
  Se  Se47  1  0.26585908  0.61826667  0.04864029  1
  Se  Se48  1  0.50410075  0.60019517  0.23861644  1
  Se  Se49  1  0.99589925  0.39980483  0.73861644  1
  Se  Se50  1  0.00410075  0.89980483  0.76138356  1
  Se  Se51  1  0.49589925  0.10019517  0.26138356  1
  Se  Se52  1  0.49730541  0.61070233  0.44906977  1
  Se  Se53  1  0.00269459  0.38929767  0.94906977  1
  Se  Se54  1  0.99730541  0.88929767  0.55093023  1
  Se  Se55  1  0.50269459  0.11070233  0.05093023  1
