# generated using pymatgen
data_Bi12Rh3Cl2
_symmetry_space_group_name_H-M   'P 1'
_cell_length_a   7.37065123
_cell_length_b   9.16514755
_cell_length_c   16.50256201
_cell_angle_alpha   84.84808375
_cell_angle_beta   77.09598857
_cell_angle_gamma   66.29034299
_symmetry_Int_Tables_number   1
_chemical_formula_structural   Bi12Rh3Cl2
_chemical_formula_sum   'Bi24 Rh6 Cl4'
_cell_volume   994.92717963
_cell_formula_units_Z   2
loop_
 _symmetry_equiv_pos_site_id
 _symmetry_equiv_pos_as_xyz
  1  'x, y, z'
loop_
 _atom_site_type_symbol
 _atom_site_label
 _atom_site_symmetry_multiplicity
 _atom_site_fract_x
 _atom_site_fract_y
 _atom_site_fract_z
 _atom_site_occupancy
  Bi  Bi0  1  0.82318240  0.00512942  0.85510069  1
  Bi  Bi1  1  0.18341252  0.49487058  0.64489931  1
  Bi  Bi2  1  0.17168818  0.00512942  0.64489931  1
  Bi  Bi3  1  0.32171691  0.49487058  0.85510069  1
  Bi  Bi4  1  0.17681760  0.99487058  0.14489931  1
  Bi  Bi5  1  0.81658748  0.50512942  0.35510069  1
  Bi  Bi6  1  0.82831182  0.99487058  0.35510069  1
  Bi  Bi7  1  0.67828309  0.50512942  0.14489931  1
  Bi  Bi8  1  0.30426161  0.85685527  0.85564428  1
  Bi  Bi9  1  0.51676115  0.64314473  0.64435572  1
  Bi  Bi10  1  0.83888312  0.85685527  0.64435572  1
  Bi  Bi11  1  0.84009411  0.64314473  0.85564428  1
  Bi  Bi12  1  0.69573839  0.14314473  0.14435572  1
  Bi  Bi13  1  0.48323885  0.35685527  0.35564428  1
  Bi  Bi14  1  0.16111688  0.14314473  0.35564428  1
  Bi  Bi15  1  0.15990589  0.35685527  0.14435572  1
  Bi  Bi16  1  0.76828005  0.32735917  0.97369426  1
  Bi  Bi17  1  0.56933347  0.17264083  0.52630574  1
  Bi  Bi18  1  0.90436078  0.32735917  0.52630574  1
  Bi  Bi19  1  0.25802570  0.17264083  0.97369426  1
  Bi  Bi20  1  0.23171995  0.67264083  0.02630574  1
  Bi  Bi21  1  0.43066653  0.82735917  0.47369426  1
  Bi  Bi22  1  0.09563922  0.67264083  0.47369426  1
  Bi  Bi23  1  0.74197430  0.82735917  0.02630574  1
  Rh  Rh24  1  -0.00000000  0.00000000  0.00000000  1
  Rh  Rh25  1  0.50000000  0.50000000  0.50000000  1
  Rh  Rh26  1  -0.00000000  0.00000000  0.50000000  1
  Rh  Rh27  1  -0.00000000  0.50000000  0.00000000  1
  Rh  Rh28  1  0.12500000  0.75000000  0.75000000  1
  Rh  Rh29  1  0.87500000  0.25000000  0.25000000  1
  Cl  Cl30  1  0.83428938  0.33142124  0.75000000  1
  Cl  Cl31  1  0.41571062  0.16857876  0.75000000  1
  Cl  Cl32  1  0.16571062  0.66857876  0.25000000  1
  Cl  Cl33  1  0.58428938  0.83142124  0.25000000  1
