# generated using pymatgen
data_KSr(BH4)3
_symmetry_space_group_name_H-M   'P 1'
_cell_length_a   8.13887138
_cell_length_b   8.76193656
_cell_length_c   11.61249525
_cell_angle_alpha   90.00000000
_cell_angle_beta   90.00000000
_cell_angle_gamma   90.00000000
_symmetry_Int_Tables_number   1
_chemical_formula_structural   KSr(BH4)3
_chemical_formula_sum   'K4 Sr4 B12 H48'
_cell_volume   828.11345124
_cell_formula_units_Z   4
loop_
 _symmetry_equiv_pos_site_id
 _symmetry_equiv_pos_as_xyz
  1  'x, y, z'
loop_
 _atom_site_type_symbol
 _atom_site_label
 _atom_site_symmetry_multiplicity
 _atom_site_fract_x
 _atom_site_fract_y
 _atom_site_fract_z
 _atom_site_occupancy
  K  K0  1  0.53080574  0.94379066  0.75489657  1
  K  K1  1  0.46919426  0.05620934  0.25489657  1
  K  K2  1  0.96919426  0.44379066  0.25489657  1
  K  K3  1  0.03080574  0.55620934  0.75489657  1
  Sr  Sr4  1  0.95709837  0.97199877  0.49660953  1
  Sr  Sr5  1  0.04290163  0.02800123  0.99660953  1
  Sr  Sr6  1  0.54290163  0.47199877  0.99660953  1
  Sr  Sr7  1  0.45709837  0.52800123  0.49660953  1
  B  B8  1  0.42068481  0.48427115  0.76868810  1
  B  B9  1  0.57931519  0.51572885  0.26868810  1
  B  B10  1  0.07931519  0.98427115  0.26868810  1
  B  B11  1  0.92068481  0.01572885  0.76868810  1
  B  B12  1  0.17006714  0.35527189  0.47065674  1
  B  B13  1  0.82993286  0.64472811  0.97065674  1
  B  B14  1  0.32993286  0.85527189  0.97065674  1
  B  B15  1  0.67006714  0.14472811  0.47065674  1
  B  B16  1  0.80788499  0.68276981  0.53843015  1
  B  B17  1  0.19211501  0.31723019  0.03843015  1
  B  B18  1  0.69211501  0.18276981  0.03843015  1
  B  B19  1  0.30788499  0.81723019  0.53843015  1
  H  H20  1  0.32495736  0.48927708  0.84981179  1
  H  H21  1  0.67504264  0.51072292  0.34981179  1
  H  H22  1  0.17504264  0.98927708  0.34981179  1
  H  H23  1  0.82495736  0.01072292  0.84981179  1
  H  H24  1  0.51070596  0.59564393  0.77042573  1
  H  H25  1  0.48929404  0.40435607  0.27042573  1
  H  H26  1  0.98929404  0.09564393  0.27042573  1
  H  H27  1  0.01070596  0.90435607  0.77042573  1
  H  H28  1  0.50285344  0.36610982  0.77348075  1
  H  H29  1  0.49714656  0.63389018  0.27348075  1
  H  H30  1  0.99714656  0.86610982  0.27348075  1
  H  H31  1  0.00285344  0.13389018  0.77348075  1
  H  H32  1  0.33352490  0.48245525  0.68358716  1
  H  H33  1  0.66647510  0.51754475  0.18358716  1
  H  H34  1  0.16647510  0.98245525  0.18358716  1
  H  H35  1  0.83352490  0.01754475  0.68358716  1
  H  H36  1  0.04353006  0.28120909  0.46200990  1
  H  H37  1  0.95646994  0.71879091  0.96200990  1
  H  H38  1  0.45646994  0.78120909  0.96200990  1
  H  H39  1  0.54353006  0.21879091  0.46200990  1
  H  H40  1  0.25492345  0.34331802  0.38302236  1
  H  H41  1  0.74507655  0.65668198  0.88302236  1
  H  H42  1  0.24507655  0.84331802  0.88302236  1
  H  H43  1  0.75492345  0.15668198  0.38302236  1
  H  H44  1  0.13342809  0.49090328  0.48307452  1
  H  H45  1  0.86657191  0.50909672  0.98307452  1
  H  H46  1  0.36657191  0.99090328  0.98307452  1
  H  H47  1  0.63342809  0.00909672  0.48307452  1
  H  H48  1  0.25074118  0.31315835  0.55406040  1
  H  H49  1  0.74925882  0.68684165  0.05406040  1
  H  H50  1  0.24925882  0.81315835  0.05406040  1
  H  H51  1  0.75074118  0.18684165  0.55406040  1
  H  H52  1  0.69357079  0.76689927  0.51147016  1
  H  H53  1  0.30642921  0.23310073  0.01147016  1
  H  H54  1  0.80642921  0.26689927  0.01147016  1
  H  H55  1  0.19357079  0.73310073  0.51147016  1
  H  H56  1  0.87519093  0.73949989  0.62300917  1
  H  H57  1  0.12480907  0.26050011  0.12300917  1
  H  H58  1  0.62480907  0.23949989  0.12300917  1
  H  H59  1  0.37519093  0.76050011  0.62300917  1
  H  H60  1  0.76078920  0.55442057  0.56347368  1
  H  H61  1  0.23921080  0.44557943  0.06347368  1
  H  H62  1  0.73921080  0.05442057  0.06347368  1
  H  H63  1  0.26078920  0.94557943  0.56347368  1
  H  H64  1  0.90703054  0.67613182  0.45878330  1
  H  H65  1  0.09296946  0.32386818  0.95878330  1
  H  H66  1  0.59296946  0.17613182  0.95878330  1
  H  H67  1  0.40703054  0.82386818  0.45878330  1
