# generated using pymatgen
data_K2U3MnO11
_symmetry_space_group_name_H-M   'P 1'
_cell_length_a   6.87526648
_cell_length_b   6.87526648
_cell_length_c   13.17538190
_cell_angle_alpha   74.87573656
_cell_angle_beta   74.87573656
_cell_angle_gamma   59.99999462
_symmetry_Int_Tables_number   1
_chemical_formula_structural   K2U3MnO11
_chemical_formula_sum   'K4 U6 Mn2 O22'
_cell_volume   514.29265523
_cell_formula_units_Z   2
loop_
 _symmetry_equiv_pos_site_id
 _symmetry_equiv_pos_as_xyz
  1  'x, y, z'
loop_
 _atom_site_type_symbol
 _atom_site_label
 _atom_site_symmetry_multiplicity
 _atom_site_fract_x
 _atom_site_fract_y
 _atom_site_fract_z
 _atom_site_occupancy
  K  K0  1  0.67182920  0.67182920  0.98451240  1
  K  K1  1  0.17182920  0.17182920  0.48451240  1
  K  K2  1  0.32817080  0.32817080  0.01548760  1
  K  K3  1  0.82817080  0.82817080  0.51548760  1
  U  U4  1  0.38673122  0.11326878  0.75000000  1
  U  U5  1  0.11326878  0.75000000  0.75000000  1
  U  U6  1  0.75000000  0.38673122  0.75000000  1
  U  U7  1  0.88673122  0.25000000  0.25000000  1
  U  U8  1  0.25000000  0.61326878  0.25000000  1
  U  U9  1  0.61326878  0.88673122  0.25000000  1
  Mn  Mn10  1  0.50000000  0.50000000  0.50000000  1
  Mn  Mn11  1  -0.00000000  0.00000000  -0.00000000  1
  O  O12  1  0.55322020  0.79310495  0.40176425  1
  O  O13  1  0.79310495  0.25191060  0.40176425  1
  O  O14  1  0.25191060  0.55322020  0.40176425  1
  O  O15  1  0.05322020  0.75191060  0.90176425  1
  O  O16  1  0.75191060  0.29310495  0.90176425  1
  O  O17  1  0.29310495  0.05322020  0.90176425  1
  O  O18  1  0.44677980  0.20689505  0.59823575  1
  O  O19  1  0.20689505  0.74808940  0.59823575  1
  O  O20  1  0.74808940  0.44677980  0.59823575  1
  O  O21  1  0.94677980  0.24808940  0.09823575  1
  O  O22  1  0.24808940  0.70689505  0.09823575  1
  O  O23  1  0.70689505  0.94677980  0.09823575  1
  O  O24  1  0.00124840  0.49875160  0.75000000  1
  O  O25  1  0.49875160  0.75000000  0.75000000  1
  O  O26  1  0.75000000  0.00124840  0.75000000  1
  O  O27  1  0.50124840  0.25000000  0.25000000  1
  O  O28  1  0.25000000  0.99875160  0.25000000  1
  O  O29  1  0.99875160  0.50124840  0.25000000  1
  O  O30  1  0.59415102  0.59415102  0.21754693  1
  O  O31  1  0.09415102  0.09415102  0.71754693  1
  O  O32  1  0.40584898  0.40584898  0.78245307  1
  O  O33  1  0.90584898  0.90584898  0.28245307  1
