# generated using pymatgen
data_Pr2TiO5
_symmetry_space_group_name_H-M   'P 1'
_cell_length_a   3.90036676
_cell_length_b   10.95135011
_cell_length_c   11.52453242
_cell_angle_alpha   90.00000000
_cell_angle_beta   90.00000000
_cell_angle_gamma   90.00000000
_symmetry_Int_Tables_number   1
_chemical_formula_structural   Pr2TiO5
_chemical_formula_sum   'Pr8 Ti4 O20'
_cell_volume   492.26212709
_cell_formula_units_Z   4
loop_
 _symmetry_equiv_pos_site_id
 _symmetry_equiv_pos_as_xyz
  1  'x, y, z'
loop_
 _atom_site_type_symbol
 _atom_site_label
 _atom_site_symmetry_multiplicity
 _atom_site_fract_x
 _atom_site_fract_y
 _atom_site_fract_z
 _atom_site_occupancy
  Pr  Pr0  1  0.75000000  0.36324635  0.55811298  1
  Pr  Pr1  1  0.75000000  0.86324635  0.94188702  1
  Pr  Pr2  1  0.25000000  0.63675365  0.44188702  1
  Pr  Pr3  1  0.25000000  0.13675365  0.05811298  1
  Pr  Pr4  1  0.25000000  0.10229841  0.71957869  1
  Pr  Pr5  1  0.25000000  0.60229841  0.78042131  1
  Pr  Pr6  1  0.75000000  0.89770159  0.28042131  1
  Pr  Pr7  1  0.75000000  0.39770159  0.21957869  1
  Ti  Ti8  1  0.75000000  0.31198851  0.87489503  1
  Ti  Ti9  1  0.75000000  0.81198851  0.62510497  1
  Ti  Ti10  1  0.25000000  0.68801149  0.12510497  1
  Ti  Ti11  1  0.25000000  0.18801149  0.37489503  1
  O  O12  1  0.75000000  0.27481666  0.03572533  1
  O  O13  1  0.75000000  0.77481666  0.46427467  1
  O  O14  1  0.25000000  0.72518334  0.96427467  1
  O  O15  1  0.25000000  0.22518334  0.53572533  1
  O  O16  1  0.75000000  0.00845028  0.10259452  1
  O  O17  1  0.75000000  0.50845028  0.39740548  1
  O  O18  1  0.25000000  0.99154972  0.89740548  1
  O  O19  1  0.25000000  0.49154972  0.60259452  1
  O  O20  1  0.75000000  0.23812735  0.37865455  1
  O  O21  1  0.75000000  0.73812735  0.12134545  1
  O  O22  1  0.25000000  0.76187265  0.62134545  1
  O  O23  1  0.25000000  0.26187265  0.87865455  1
  O  O24  1  0.75000000  0.46975329  0.83568264  1
  O  O25  1  0.75000000  0.96975329  0.66431736  1
  O  O26  1  0.25000000  0.53024671  0.16431736  1
  O  O27  1  0.25000000  0.03024671  0.33568264  1
  O  O28  1  0.75000000  0.22595940  0.73002820  1
  O  O29  1  0.75000000  0.72595940  0.76997180  1
  O  O30  1  0.25000000  0.77404060  0.26997180  1
  O  O31  1  0.25000000  0.27404060  0.23002820  1
