# generated using pymatgen
data_Ba3B3Pb2ClO9
_symmetry_space_group_name_H-M   'P 1'
_cell_length_a   8.02874228
_cell_length_b   8.99898225
_cell_length_c   8.99898225
_cell_angle_alpha   108.03172766
_cell_angle_beta   90.00000000
_cell_angle_gamma   90.00000000
_symmetry_Int_Tables_number   1
_chemical_formula_structural   Ba3B3Pb2ClO9
_chemical_formula_sum   'Ba6 B6 Pb4 Cl2 O18'
_cell_volume   618.24757168
_cell_formula_units_Z   2
loop_
 _symmetry_equiv_pos_site_id
 _symmetry_equiv_pos_as_xyz
  1  'x, y, z'
loop_
 _atom_site_type_symbol
 _atom_site_label
 _atom_site_symmetry_multiplicity
 _atom_site_fract_x
 _atom_site_fract_y
 _atom_site_fract_z
 _atom_site_occupancy
  Ba  Ba0  1  0.50000000  0.76596657  0.76596657  1
  Ba  Ba1  1  -0.00000000  0.23403343  0.23403343  1
  Ba  Ba2  1  0.25000000  0.35644621  0.64355379  1
  Ba  Ba3  1  0.75000000  0.64355379  0.35644621  1
  Ba  Ba4  1  0.25000000  0.64946075  0.35053925  1
  Ba  Ba5  1  0.75000000  0.35053925  0.64946075  1
  B  B6  1  0.50000000  0.37526727  0.37526727  1
  B  B7  1  -0.00000000  0.62473273  0.62473273  1
  B  B8  1  0.04212635  0.99160856  0.42402237  1
  B  B9  1  0.95787365  0.42402237  0.99160856  1
  B  B10  1  0.54212635  0.00839144  0.57597763  1
  B  B11  1  0.45787365  0.57597763  0.00839144  1
  Pb  Pb12  1  0.42490596  0.02351764  0.26653445  1
  Pb  Pb13  1  0.57509404  0.26653445  0.02351764  1
  Pb  Pb14  1  0.92490596  0.97648236  0.73346555  1
  Pb  Pb15  1  0.07509404  0.73346555  0.97648236  1
  Cl  Cl16  1  0.75000000  0.94093541  0.05906459  1
  Cl  Cl17  1  0.25000000  0.05906459  0.94093541  1
  O  O18  1  0.49596608  0.85938896  0.48384607  1
  O  O19  1  0.50403392  0.48384607  0.85938896  1
  O  O20  1  0.99596608  0.14061104  0.51615393  1
  O  O21  1  0.00403392  0.51615393  0.14061104  1
  O  O22  1  0.48849666  0.13889328  0.53765936  1
  O  O23  1  0.51150334  0.53765936  0.13889328  1
  O  O24  1  0.98849666  0.86110672  0.46234064  1
  O  O25  1  0.01150334  0.46234064  0.86110672  1
  O  O26  1  0.50000000  0.50714861  0.50714861  1
  O  O27  1  -0.00000000  0.49285139  0.49285139  1
  O  O28  1  0.34793056  0.30481174  0.31763826  1
  O  O29  1  0.65206944  0.31763826  0.30481174  1
  O  O30  1  0.84793056  0.69518826  0.68236174  1
  O  O31  1  0.15206944  0.68236174  0.69518826  1
  O  O32  1  0.14212874  0.96986598  0.29224169  1
  O  O33  1  0.85787126  0.29224169  0.96986598  1
  O  O34  1  0.64212874  0.03013402  0.70775831  1
  O  O35  1  0.35787126  0.70775831  0.03013402  1
