# generated using pymatgen
data_V3(SbCl12)2
_symmetry_space_group_name_H-M   'P 1'
_cell_length_a   15.26707759
_cell_length_b   15.26707759
_cell_length_c   15.50685579
_cell_angle_alpha   90.00000000
_cell_angle_beta   90.00000000
_cell_angle_gamma   90.00000000
_symmetry_Int_Tables_number   1
_chemical_formula_structural   V3(SbCl12)2
_chemical_formula_sum   'V12 Sb8 Cl96'
_cell_volume   3614.39467377
_cell_formula_units_Z   4
loop_
 _symmetry_equiv_pos_site_id
 _symmetry_equiv_pos_as_xyz
  1  'x, y, z'
loop_
 _atom_site_type_symbol
 _atom_site_label
 _atom_site_symmetry_multiplicity
 _atom_site_fract_x
 _atom_site_fract_y
 _atom_site_fract_z
 _atom_site_occupancy
  V  V0  1  0.50000000  0.50000000  0.75000000  1
  V  V1  1  0.50000000  0.50000000  0.25000000  1
  V  V2  1  -0.00000000  -0.00000000  0.75000000  1
  V  V3  1  -0.00000000  -0.00000000  0.25000000  1
  V  V4  1  0.62962238  0.12962238  0.25000000  1
  V  V5  1  0.12962238  0.37037762  0.75000000  1
  V  V6  1  0.87037762  0.62962238  0.25000000  1
  V  V7  1  0.62962238  0.12962238  0.75000000  1
  V  V8  1  0.12962238  0.37037762  0.25000000  1
  V  V9  1  0.87037762  0.62962238  0.75000000  1
  V  V10  1  0.37037762  0.87037762  0.75000000  1
  V  V11  1  0.37037762  0.87037762  0.25000000  1
  Sb  Sb12  1  0.37638511  0.24054763  -0.00000000  1
  Sb  Sb13  1  0.24054763  0.62361489  0.50000000  1
  Sb  Sb14  1  0.12361489  0.74054763  -0.00000000  1
  Sb  Sb15  1  0.74054763  0.87638511  0.50000000  1
  Sb  Sb16  1  0.62361489  0.75945237  -0.00000000  1
  Sb  Sb17  1  0.75945237  0.37638511  0.50000000  1
  Sb  Sb18  1  0.87638511  0.25945237  -0.00000000  1
  Sb  Sb19  1  0.25945237  0.12361489  0.50000000  1
  Cl  Cl20  1  0.62944585  0.01796202  0.17093006  1
  Cl  Cl21  1  0.01796202  0.37055415  0.67093006  1
  Cl  Cl22  1  0.87055415  0.51796202  0.17093006  1
  Cl  Cl23  1  0.51796202  0.12944585  0.67093006  1
  Cl  Cl24  1  0.62944585  0.01796202  0.82906994  1
  Cl  Cl25  1  0.01796202  0.37055415  0.32906994  1
  Cl  Cl26  1  0.87055415  0.51796202  0.82906994  1
  Cl  Cl27  1  0.51796202  0.12944585  0.32906994  1
  Cl  Cl28  1  0.37055415  0.98203798  0.82906994  1
  Cl  Cl29  1  0.98203798  0.62944585  0.32906994  1
  Cl  Cl30  1  0.12944585  0.48203798  0.82906994  1
  Cl  Cl31  1  0.48203798  0.87055415  0.32906994  1
  Cl  Cl32  1  0.37055415  0.98203798  0.17093006  1
  Cl  Cl33  1  0.98203798  0.62944585  0.67093006  1
  Cl  Cl34  1  0.12944585  0.48203798  0.17093006  1
  Cl  Cl35  1  0.48203798  0.87055415  0.67093006  1
  Cl  Cl36  1  0.62948625  0.24239734  0.17291393  1
  Cl  Cl37  1  0.24239734  0.37051375  0.67291393  1
  Cl  Cl38  1  0.87051375  0.74239734  0.17291393  1
  Cl  Cl39  1  0.74239734  0.12948625  0.67291393  1
  Cl  Cl40  1  0.62948625  0.24239734  0.82708607  1
  Cl  Cl41  1  0.24239734  0.37051375  0.32708607  1
  Cl  Cl42  1  0.87051375  0.74239734  0.82708607  1
  Cl  Cl43  1  0.74239734  0.12948625  0.32708607  1
  Cl  Cl44  1  0.37051375  0.75760266  0.82708607  1
  Cl  Cl45  1  0.75760266  0.62948625  0.32708607  1
  Cl  Cl46  1  0.12948625  0.25760266  0.82708607  1
  Cl  Cl47  1  0.25760266  0.87051375  0.32708607  1
  Cl  Cl48  1  0.37051375  0.75760266  0.17291393  1
  Cl  Cl49  1  0.75760266  0.62948625  0.67291393  1
  Cl  Cl50  1  0.12948625  0.25760266  0.17291393  1
  Cl  Cl51  1  0.25760266  0.87051375  0.67291393  1
  Cl  Cl52  1  0.38790250  0.50801150  0.82880069  1
  Cl  Cl53  1  0.50801150  0.61209750  0.32880069  1
  Cl  Cl54  1  0.11209750  0.00801150  0.82880069  1
  Cl  Cl55  1  0.00801150  0.88790250  0.32880069  1
  Cl  Cl56  1  0.38790250  0.50801150  0.17119931  1
  Cl  Cl57  1  0.50801150  0.61209750  0.67119931  1
  Cl  Cl58  1  0.11209750  0.00801150  0.17119931  1
  Cl  Cl59  1  0.00801150  0.88790250  0.67119931  1
  Cl  Cl60  1  0.61209750  0.49198850  0.17119931  1
  Cl  Cl61  1  0.49198850  0.38790250  0.67119931  1
  Cl  Cl62  1  0.88790250  0.99198850  0.17119931  1
  Cl  Cl63  1  0.99198850  0.11209750  0.67119931  1
  Cl  Cl64  1  0.61209750  0.49198850  0.82880069  1
  Cl  Cl65  1  0.49198850  0.38790250  0.32880069  1
  Cl  Cl66  1  0.88790250  0.99198850  0.82880069  1
  Cl  Cl67  1  0.99198850  0.11209750  0.32880069  1
  Cl  Cl68  1  0.25991040  0.13282291  -0.00000000  1
  Cl  Cl69  1  0.13282291  0.74008960  0.50000000  1
  Cl  Cl70  1  0.24008960  0.63282291  -0.00000000  1
  Cl  Cl71  1  0.63282291  0.75991040  0.50000000  1
  Cl  Cl72  1  0.74008960  0.86717709  -0.00000000  1
  Cl  Cl73  1  0.86717709  0.25991040  0.50000000  1
  Cl  Cl74  1  0.75991040  0.36717709  -0.00000000  1
  Cl  Cl75  1  0.36717709  0.24008960  0.50000000  1
  Cl  Cl76  1  0.49290498  0.34798670  -0.00000000  1
  Cl  Cl77  1  0.34798670  0.50709502  0.50000000  1
  Cl  Cl78  1  0.00709502  0.84798670  -0.00000000  1
  Cl  Cl79  1  0.84798670  0.99290498  0.50000000  1
  Cl  Cl80  1  0.50709502  0.65201330  -0.00000000  1
  Cl  Cl81  1  0.65201330  0.49290498  0.50000000  1
  Cl  Cl82  1  0.99290498  0.15201330  -0.00000000  1
  Cl  Cl83  1  0.15201330  0.00709502  0.50000000  1
  Cl  Cl84  1  0.27051555  0.35766676  -0.00000000  1
  Cl  Cl85  1  0.35766676  0.72948445  0.50000000  1
  Cl  Cl86  1  0.22948445  0.85766676  -0.00000000  1
  Cl  Cl87  1  0.85766676  0.77051555  0.50000000  1
  Cl  Cl88  1  0.72948445  0.64233324  -0.00000000  1
  Cl  Cl89  1  0.64233324  0.27051555  0.50000000  1
  Cl  Cl90  1  0.77051555  0.14233324  -0.00000000  1
  Cl  Cl91  1  0.14233324  0.22948445  0.50000000  1
  Cl  Cl92  1  0.48306553  0.12412135  -0.00000000  1
  Cl  Cl93  1  0.12412135  0.51693447  0.50000000  1
  Cl  Cl94  1  0.01693447  0.62412135  -0.00000000  1
  Cl  Cl95  1  0.62412135  0.98306553  0.50000000  1
  Cl  Cl96  1  0.51693447  0.87587865  -0.00000000  1
  Cl  Cl97  1  0.87587865  0.48306553  0.50000000  1
  Cl  Cl98  1  0.98306553  0.37587865  -0.00000000  1
  Cl  Cl99  1  0.37587865  0.01693447  0.50000000  1
  Cl  Cl100  1  0.37626466  0.23985646  0.15577334  1
  Cl  Cl101  1  0.23985646  0.62373534  0.65577334  1
  Cl  Cl102  1  0.12373534  0.73985646  0.15577334  1
  Cl  Cl103  1  0.73985646  0.87626466  0.65577334  1
  Cl  Cl104  1  0.37626466  0.23985646  0.84422666  1
  Cl  Cl105  1  0.23985646  0.62373534  0.34422666  1
  Cl  Cl106  1  0.12373534  0.73985646  0.84422666  1
  Cl  Cl107  1  0.73985646  0.87626466  0.34422666  1
  Cl  Cl108  1  0.62373534  0.76014354  0.84422666  1
  Cl  Cl109  1  0.76014354  0.37626466  0.34422666  1
  Cl  Cl110  1  0.87626466  0.26014354  0.84422666  1
  Cl  Cl111  1  0.26014354  0.12373534  0.34422666  1
  Cl  Cl112  1  0.62373534  0.76014354  0.15577334  1
  Cl  Cl113  1  0.76014354  0.37626466  0.65577334  1
  Cl  Cl114  1  0.87626466  0.26014354  0.15577334  1
  Cl  Cl115  1  0.26014354  0.12373534  0.65577334  1
