# generated using pymatgen
data_Ca2Sn7S16
_symmetry_space_group_name_H-M   'P 1'
_cell_length_a   6.11486606
_cell_length_b   14.71684835
_cell_length_c   14.69995508
_cell_angle_alpha   90.00000000
_cell_angle_beta   90.00000000
_cell_angle_gamma   90.00000000
_symmetry_Int_Tables_number   1
_chemical_formula_structural   Ca2Sn7S16
_chemical_formula_sum   'Ca4 Sn14 S32'
_cell_volume   1322.87183792
_cell_formula_units_Z   2
loop_
 _symmetry_equiv_pos_site_id
 _symmetry_equiv_pos_as_xyz
  1  'x, y, z'
loop_
 _atom_site_type_symbol
 _atom_site_label
 _atom_site_symmetry_multiplicity
 _atom_site_fract_x
 _atom_site_fract_y
 _atom_site_fract_z
 _atom_site_occupancy
  Ca  Ca0  1  0.50351668  0.16069056  0.83870256  1
  Ca  Ca1  1  0.50351668  0.83930944  0.16129744  1
  Ca  Ca2  1  0.50351668  0.33930944  0.33870256  1
  Ca  Ca3  1  0.50351668  0.66069056  0.66129744  1
  Sn  Sn4  1  0.00364385  0.50000000  0.50000000  1
  Sn  Sn5  1  0.00364385  -0.00000000  0.00000000  1
  Sn  Sn6  1  0.50452166  0.36346158  0.63628131  1
  Sn  Sn7  1  0.50452166  0.63653842  0.36371869  1
  Sn  Sn8  1  0.50452166  0.13653842  0.13628131  1
  Sn  Sn9  1  0.50452166  0.86346158  0.86371869  1
  Sn  Sn10  1  0.01706980  0.43583397  0.81589132  1
  Sn  Sn11  1  0.01706980  0.56416603  0.18410868  1
  Sn  Sn12  1  0.01706980  0.06416603  0.31589132  1
  Sn  Sn13  1  0.01706980  0.93583397  0.68410868  1
  Sn  Sn14  1  0.99185150  0.18384228  0.56409251  1
  Sn  Sn15  1  0.99185150  0.81615772  0.43590749  1
  Sn  Sn16  1  0.99185150  0.31615772  0.06409251  1
  Sn  Sn17  1  0.99185150  0.68384228  0.93590749  1
  S  S18  1  0.24876019  0.50515812  0.62996278  1
  S  S19  1  0.24876019  0.49484188  0.37003722  1
  S  S20  1  0.24876019  0.99484188  0.12996278  1
  S  S21  1  0.24876019  0.00515812  0.87003722  1
  S  S22  1  0.72040936  0.48817311  0.71779749  1
  S  S23  1  0.72040936  0.51182689  0.28220251  1
  S  S24  1  0.72040936  0.01182689  0.21779749  1
  S  S25  1  0.72040936  0.98817311  0.78220251  1
  S  S26  1  0.26601548  0.31331273  0.76968532  1
  S  S27  1  0.26601548  0.68668727  0.23031468  1
  S  S28  1  0.26601548  0.18668727  0.26968532  1
  S  S29  1  0.26601548  0.81331273  0.73031468  1
  S  S30  1  0.74377035  0.23054093  0.68685423  1
  S  S31  1  0.74377035  0.76945907  0.31314577  1
  S  S32  1  0.74377035  0.26945907  0.18685423  1
  S  S33  1  0.74377035  0.73054093  0.81314577  1
  S  S34  1  0.75985496  0.36979249  0.49430878  1
  S  S35  1  0.75985496  0.63020751  0.50569122  1
  S  S36  1  0.75985496  0.13020751  0.99430878  1
  S  S37  1  0.75985496  0.86979249  0.00569122  1
  S  S38  1  0.28877779  0.28164984  0.51170803  1
  S  S39  1  0.28877779  0.71835016  0.48829197  1
  S  S40  1  0.28877779  0.21835016  0.01170803  1
  S  S41  1  0.28877779  0.78164984  0.98829197  1
  S  S42  1  0.77911382  0.36757487  0.93314477  1
  S  S43  1  0.77911382  0.63242513  0.06685523  1
  S  S44  1  0.77911382  0.13242513  0.43314477  1
  S  S45  1  0.77911382  0.86757487  0.56685523  1
  S  S46  1  0.22931649  0.06691417  0.63288804  1
  S  S47  1  0.22931649  0.93308583  0.36711196  1
  S  S48  1  0.22931649  0.43308583  0.13288804  1
  S  S49  1  0.22931649  0.56691417  0.86711196  1
