# generated using pymatgen
data_P2PdPbO7
_symmetry_space_group_name_H-M   'P 1'
_cell_length_a   6.13434819
_cell_length_b   7.48559544
_cell_length_c   13.66918466
_cell_angle_alpha   90.00000000
_cell_angle_beta   90.00000000
_cell_angle_gamma   90.00000000
_symmetry_Int_Tables_number   1
_chemical_formula_structural   P2PdPbO7
_chemical_formula_sum   'P8 Pd4 Pb4 O28'
_cell_volume   627.67869182
_cell_formula_units_Z   4
loop_
 _symmetry_equiv_pos_site_id
 _symmetry_equiv_pos_as_xyz
  1  'x, y, z'
loop_
 _atom_site_type_symbol
 _atom_site_label
 _atom_site_symmetry_multiplicity
 _atom_site_fract_x
 _atom_site_fract_y
 _atom_site_fract_z
 _atom_site_occupancy
  P  P0  1  0.25000000  0.78400800  0.62181667  1
  P  P1  1  0.25000000  0.71599200  0.12181667  1
  P  P2  1  0.75000000  0.21599200  0.37818333  1
  P  P3  1  0.75000000  0.28400800  0.87818333  1
  P  P4  1  0.75000000  0.17771483  0.58773056  1
  P  P5  1  0.75000000  0.32228517  0.08773056  1
  P  P6  1  0.25000000  0.82228517  0.41226944  1
  P  P7  1  0.25000000  0.67771483  0.91226944  1
  Pd  Pd8  1  0.00000000  0.50000000  0.50000000  1
  Pd  Pd9  1  0.50000000  0.00000000  -0.00000000  1
  Pd  Pd10  1  0.50000000  0.50000000  0.50000000  1
  Pd  Pd11  1  0.00000000  -0.00000000  -0.00000000  1
  Pb  Pb12  1  0.25000000  0.24053221  0.74282557  1
  Pb  Pb13  1  0.25000000  0.25946779  0.24282557  1
  Pb  Pb14  1  0.75000000  0.75946779  0.25717443  1
  Pb  Pb15  1  0.75000000  0.74053221  0.75717443  1
  O  O16  1  0.75000000  0.02779022  0.66009822  1
  O  O17  1  0.75000000  0.47220978  0.16009822  1
  O  O18  1  0.25000000  0.97220978  0.33990178  1
  O  O19  1  0.25000000  0.52779022  0.83990178  1
  O  O20  1  0.25000000  0.90374228  0.52311127  1
  O  O21  1  0.25000000  0.59625772  0.02311127  1
  O  O22  1  0.75000000  0.09625772  0.47688873  1
  O  O23  1  0.75000000  0.40374228  0.97688873  1
  O  O24  1  0.96267546  0.29116796  0.59477596  1
  O  O25  1  0.53732454  0.20883204  0.09477596  1
  O  O26  1  0.46267546  0.70883204  0.40522404  1
  O  O27  1  0.03732454  0.79116796  0.90522404  1
  O  O28  1  0.03732454  0.70883204  0.40522404  1
  O  O29  1  0.46267546  0.79116796  0.90522404  1
  O  O30  1  0.53732454  0.29116796  0.59477596  1
  O  O31  1  0.96267546  0.20883204  0.09477596  1
  O  O32  1  0.25000000  0.90812243  0.70837406  1
  O  O33  1  0.25000000  0.59187757  0.20837406  1
  O  O34  1  0.75000000  0.09187757  0.29162594  1
  O  O35  1  0.75000000  0.40812243  0.79162594  1
  O  O36  1  0.03995143  0.66597837  0.61930557  1
  O  O37  1  0.46004857  0.83402163  0.11930557  1
  O  O38  1  0.53995143  0.33402163  0.38069443  1
  O  O39  1  0.96004857  0.16597837  0.88069443  1
  O  O40  1  0.96004857  0.33402163  0.38069443  1
  O  O41  1  0.53995143  0.16597837  0.88069443  1
  O  O42  1  0.46004857  0.66597837  0.61930557  1
  O  O43  1  0.03995143  0.83402163  0.11930557  1
