# generated using pymatgen
data_Th(As4O9)2
_symmetry_space_group_name_H-M   'P 1'
_cell_length_a   5.30552088
_cell_length_b   9.65746803
_cell_length_c   17.75829557
_cell_angle_alpha   98.97570465
_cell_angle_beta   90.00000000
_cell_angle_gamma   105.94323306
_symmetry_Int_Tables_number   1
_chemical_formula_structural   Th(As4O9)2
_chemical_formula_sum   'Th2 As16 O36'
_cell_volume   863.30422803
_cell_formula_units_Z   2
loop_
 _symmetry_equiv_pos_site_id
 _symmetry_equiv_pos_as_xyz
  1  'x, y, z'
loop_
 _atom_site_type_symbol
 _atom_site_label
 _atom_site_symmetry_multiplicity
 _atom_site_fract_x
 _atom_site_fract_y
 _atom_site_fract_z
 _atom_site_occupancy
  Th  Th0  1  0.28083546  1.00000000  0.25000000  1
  Th  Th1  1  0.71916454  0.00000000  0.75000000  1
  As  As2  1  0.69900983  0.75431012  0.51816636  1
  As  As3  1  0.94469970  0.24568988  0.98183364  1
  As  As4  1  0.30099017  0.24568988  0.48183364  1
  As  As5  1  0.05530030  0.75431012  0.01816636  1
  As  As6  1  0.95087220  0.62216793  0.36193640  1
  As  As7  1  0.32870427  0.37783207  0.13806360  1
  As  As8  1  0.04912780  0.37783207  0.63806360  1
  As  As9  1  0.67129573  0.62216793  0.86193640  1
  As  As10  1  0.93440424  0.30014939  0.27621488  1
  As  As11  1  0.63425485  0.69985061  0.22378512  1
  As  As12  1  0.06559576  0.69985061  0.72378512  1
  As  As13  1  0.36574515  0.30014939  0.77621488  1
  As  As14  1  0.77291371  0.99729584  0.40684475  1
  As  As15  1  0.77561787  0.00270416  0.09315525  1
  As  As16  1  0.22708629  0.00270416  0.59315525  1
  As  As17  1  0.22438213  0.99729584  0.90684475  1
  O  O18  1  0.91381610  0.42440884  0.35810196  1
  O  O19  1  0.48940726  0.57559116  0.14189804  1
  O  O20  1  0.08618390  0.57559116  0.64189804  1
  O  O21  1  0.51059274  0.42440884  0.85810196  1
  O  O22  1  0.10942194  0.41714648  0.21540185  1
  O  O23  1  0.69227546  0.58285352  0.28459815  1
  O  O24  1  0.89057806  0.58285352  0.78459815  1
  O  O25  1  0.30772454  0.41714648  0.71540185  1
  O  O26  1  0.95037237  0.14115900  0.47709833  1
  O  O27  1  0.80921337  0.85884100  0.02290167  1
  O  O28  1  0.04962763  0.85884100  0.52290167  1
  O  O29  1  0.19078663  0.14115900  0.97709833  1
  O  O30  1  0.63400729  0.21223112  0.23522329  1
  O  O31  1  0.42177617  0.78776888  0.26477671  1
  O  O32  1  0.36599271  0.78776888  0.76477671  1
  O  O33  1  0.57822383  0.21223112  0.73522329  1
  O  O34  1  0.55627778  0.06316909  0.36410725  1
  O  O35  1  0.49310870  0.93683091  0.13589275  1
  O  O36  1  0.44372222  0.93683091  0.63589275  1
  O  O37  1  0.50689130  0.06316909  0.86410725  1
  O  O38  1  0.58532083  0.87105785  0.46072450  1
  O  O39  1  0.71426299  0.12894215  0.03927550  1
  O  O40  1  0.41467917  0.12894215  0.53927550  1
  O  O41  1  0.28573701  0.87105785  0.96072450  1
  O  O42  1  0.73357008  0.61524359  0.44158591  1
  O  O43  1  0.11832649  0.38475641  0.05841409  1
  O  O44  1  0.26642992  0.38475641  0.55841409  1
  O  O45  1  0.88167351  0.61524359  0.94158591  1
  O  O46  1  0.11091290  0.19557173  0.30651845  1
  O  O47  1  0.91534117  0.80442827  0.19348155  1
  O  O48  1  0.88908710  0.80442827  0.69348155  1
  O  O49  1  0.08465883  0.19557173  0.80651845  1
  O  O50  1  0.97181432  0.91728304  0.35117414  1
  O  O51  1  0.05453128  0.08271696  0.14882586  1
  O  O52  1  0.02818568  0.08271696  0.64882586  1
  O  O53  1  0.94546872  0.91728304  0.85117414  1
