# generated using pymatgen
data_Ho9Sb5CO4
_symmetry_space_group_name_H-M   'P 1'
_cell_length_a   8.95070170
_cell_length_b   9.89769927
_cell_length_c   9.89769927
_cell_angle_alpha   90.00000000
_cell_angle_beta   90.00000000
_cell_angle_gamma   90.00000000
_symmetry_Int_Tables_number   1
_chemical_formula_structural   Ho9Sb5CO4
_chemical_formula_sum   'Ho18 Sb10 C2 O8'
_cell_volume   876.85057667
_cell_formula_units_Z   2
loop_
 _symmetry_equiv_pos_site_id
 _symmetry_equiv_pos_as_xyz
  1  'x, y, z'
loop_
 _atom_site_type_symbol
 _atom_site_label
 _atom_site_symmetry_multiplicity
 _atom_site_fract_x
 _atom_site_fract_y
 _atom_site_fract_z
 _atom_site_occupancy
  Ho  Ho0  1  0.31352348  0.75000000  0.75000000  1
  Ho  Ho1  1  0.68647652  0.25000000  0.25000000  1
  Ho  Ho2  1  0.66278604  0.04552753  0.85476784  1
  Ho  Ho3  1  0.66278604  0.45447247  0.64523216  1
  Ho  Ho4  1  0.66278604  0.85476784  0.45447247  1
  Ho  Ho5  1  0.66278604  0.64523216  0.04552753  1
  Ho  Ho6  1  0.33721396  0.95447247  0.14523216  1
  Ho  Ho7  1  0.33721396  0.54552753  0.35476784  1
  Ho  Ho8  1  0.33721396  0.14523216  0.54552753  1
  Ho  Ho9  1  0.33721396  0.35476784  0.95447247  1
  Ho  Ho10  1  0.99727507  0.97420038  0.66957626  1
  Ho  Ho11  1  0.99727507  0.52579962  0.83042374  1
  Ho  Ho12  1  0.99727507  0.66957626  0.52579962  1
  Ho  Ho13  1  0.99727507  0.83042374  0.97420038  1
  Ho  Ho14  1  0.00272493  0.02579962  0.33042374  1
  Ho  Ho15  1  0.00272493  0.47420038  0.16957626  1
  Ho  Ho16  1  0.00272493  0.33042374  0.47420038  1
  Ho  Ho17  1  0.00272493  0.16957626  0.02579962  1
  Sb  Sb18  1  0.67431925  0.75000000  0.75000000  1
  Sb  Sb19  1  0.32568075  0.25000000  0.25000000  1
  Sb  Sb20  1  0.30822508  0.05711820  0.84727690  1
  Sb  Sb21  1  0.30822508  0.44288180  0.65272310  1
  Sb  Sb22  1  0.30822508  0.84727690  0.44288180  1
  Sb  Sb23  1  0.30822508  0.65272310  0.05711820  1
  Sb  Sb24  1  0.69177492  0.94288180  0.15272310  1
  Sb  Sb25  1  0.69177492  0.55711820  0.34727690  1
  Sb  Sb26  1  0.69177492  0.15272310  0.55711820  1
  Sb  Sb27  1  0.69177492  0.34727690  0.94288180  1
  C  C28  1  0.06064424  0.75000000  0.75000000  1
  C  C29  1  0.93935576  0.25000000  0.25000000  1
  O  O30  1  0.90785756  0.02411657  0.87124096  1
  O  O31  1  0.90785756  0.47588343  0.62875904  1
  O  O32  1  0.90785756  0.87124096  0.47588343  1
  O  O33  1  0.90785756  0.62875904  0.02411657  1
  O  O34  1  0.09214244  0.97588343  0.12875904  1
  O  O35  1  0.09214244  0.52411657  0.37124096  1
  O  O36  1  0.09214244  0.12875904  0.52411657  1
  O  O37  1  0.09214244  0.37124096  0.97588343  1
