# generated using pymatgen
data_BaEr4Si5O17
_symmetry_space_group_name_H-M   'P 1'
_cell_length_a   5.55370342
_cell_length_b   6.90553336
_cell_length_c   19.89926593
_cell_angle_alpha   90.00000000
_cell_angle_beta   90.00000000
_cell_angle_gamma   106.61619979
_symmetry_Int_Tables_number   1
_chemical_formula_structural   BaEr4Si5O17
_chemical_formula_sum   'Ba2 Er8 Si10 O34'
_cell_volume   731.29408594
_cell_formula_units_Z   2
loop_
 _symmetry_equiv_pos_site_id
 _symmetry_equiv_pos_as_xyz
  1  'x, y, z'
loop_
 _atom_site_type_symbol
 _atom_site_label
 _atom_site_symmetry_multiplicity
 _atom_site_fract_x
 _atom_site_fract_y
 _atom_site_fract_z
 _atom_site_occupancy
  Ba  Ba0  1  0.75803890  0.18644419  0.75000000  1
  Ba  Ba1  1  0.24196110  0.81355581  0.25000000  1
  Er  Er2  1  0.69826186  0.88260344  0.53862105  1
  Er  Er3  1  0.30173814  0.11739656  0.03862105  1
  Er  Er4  1  0.30173814  0.11739656  0.46137895  1
  Er  Er5  1  0.69826186  0.88260344  0.96137895  1
  Er  Er6  1  0.35278237  0.51928218  0.65846317  1
  Er  Er7  1  0.64721763  0.48071782  0.15846317  1
  Er  Er8  1  0.64721763  0.48071782  0.34153683  1
  Er  Er9  1  0.35278237  0.51928218  0.84153683  1
  Si  Si10  1  0.93603350  0.71881695  0.75000000  1
  Si  Si11  1  0.06396650  0.28118305  0.25000000  1
  Si  Si12  1  0.22962637  0.99391236  0.63552338  1
  Si  Si13  1  0.77037363  0.00608764  0.13552338  1
  Si  Si14  1  0.77037363  0.00608764  0.36447662  1
  Si  Si15  1  0.22962637  0.99391236  0.86447662  1
  Si  Si16  1  0.80337034  0.40477898  0.56102453  1
  Si  Si17  1  0.19662966  0.59522102  0.06102453  1
  Si  Si18  1  0.19662966  0.59522102  0.43897547  1
  Si  Si19  1  0.80337034  0.40477898  0.93897547  1
  O  O20  1  0.13660329  0.58493788  0.75000000  1
  O  O21  1  0.86339671  0.41506212  0.25000000  1
  O  O22  1  0.64158912  0.58150544  0.75000000  1
  O  O23  1  0.35841088  0.41849456  0.25000000  1
  O  O24  1  0.98179876  0.87074724  0.68367773  1
  O  O25  1  0.01820124  0.12925276  0.18367773  1
  O  O26  1  0.01820124  0.12925276  0.31632227  1
  O  O27  1  0.98179876  0.87074724  0.81632227  1
  O  O28  1  0.36241647  0.20593871  0.67358227  1
  O  O29  1  0.63758353  0.79406129  0.17358227  1
  O  O30  1  0.63758353  0.79406129  0.32641773  1
  O  O31  1  0.36241647  0.20593871  0.82641773  1
  O  O32  1  0.10214547  0.01873957  0.56277142  1
  O  O33  1  0.89785453  0.98126043  0.06277142  1
  O  O34  1  0.89785453  0.98126043  0.43722858  1
  O  O35  1  0.10214547  0.01873957  0.93722858  1
  O  O36  1  0.42275849  0.85183811  0.62951864  1
  O  O37  1  0.57724151  0.14816189  0.12951864  1
  O  O38  1  0.57724151  0.14816189  0.37048136  1
  O  O39  1  0.42275849  0.85183811  0.87048136  1
  O  O40  1  0.95990712  0.38599058  0.62856781  1
  O  O41  1  0.04009288  0.61400942  0.12856781  1
  O  O42  1  0.04009288  0.61400942  0.37143219  1
  O  O43  1  0.95990712  0.38599058  0.87143219  1
  O  O44  1  0.62521336  0.18567877  0.53374786  1
  O  O45  1  0.37478664  0.81432123  0.03374786  1
  O  O46  1  0.37478664  0.81432123  0.46625214  1
  O  O47  1  0.62521336  0.18567877  0.96625214  1
  O  O48  1  0.00000000  0.50000000  0.50000000  1
  O  O49  1  0.00000000  0.50000000  -0.00000000  1
  O  O50  1  0.62972854  0.56092654  0.57364360  1
  O  O51  1  0.37027146  0.43907346  0.07364360  1
  O  O52  1  0.37027146  0.43907346  0.42635640  1
  O  O53  1  0.62972854  0.56092654  0.92635640  1
