# generated using pymatgen
data_Ba7Al4Sb9
_symmetry_space_group_name_H-M   'P 1'
_cell_length_a   7.33431821
_cell_length_b   10.89698653
_cell_length_c   18.42250501
_cell_angle_alpha   90.00000000
_cell_angle_beta   90.00000000
_cell_angle_gamma   90.00000000
_symmetry_Int_Tables_number   1
_chemical_formula_structural   Ba7Al4Sb9
_chemical_formula_sum   'Ba14 Al8 Sb18'
_cell_volume   1472.36283270
_cell_formula_units_Z   2
loop_
 _symmetry_equiv_pos_site_id
 _symmetry_equiv_pos_as_xyz
  1  'x, y, z'
loop_
 _atom_site_type_symbol
 _atom_site_label
 _atom_site_symmetry_multiplicity
 _atom_site_fract_x
 _atom_site_fract_y
 _atom_site_fract_z
 _atom_site_occupancy
  Ba  Ba0  1  0.45518383  0.75000000  0.03712496  1
  Ba  Ba1  1  0.45518383  0.75000000  0.46287504  1
  Ba  Ba2  1  0.54481617  0.25000000  0.96287504  1
  Ba  Ba3  1  0.54481617  0.25000000  0.53712496  1
  Ba  Ba4  1  0.95257521  0.52386678  0.12579840  1
  Ba  Ba5  1  0.95257521  0.97613322  0.12579840  1
  Ba  Ba6  1  0.95257521  0.52386678  0.37420160  1
  Ba  Ba7  1  0.95257521  0.97613322  0.37420160  1
  Ba  Ba8  1  0.04742479  0.47613322  0.87420160  1
  Ba  Ba9  1  0.04742479  0.02386678  0.87420160  1
  Ba  Ba10  1  0.04742479  0.47613322  0.62579840  1
  Ba  Ba11  1  0.04742479  0.02386678  0.62579840  1
  Ba  Ba12  1  0.41336738  0.75000000  0.75000000  1
  Ba  Ba13  1  0.58663262  0.25000000  0.25000000  1
  Al  Al14  1  0.75904165  0.75000000  0.62342651  1
  Al  Al15  1  0.75904165  0.75000000  0.87657349  1
  Al  Al16  1  0.24095835  0.25000000  0.37657349  1
  Al  Al17  1  0.24095835  0.25000000  0.12342651  1
  Al  Al18  1  0.56011739  0.07512316  0.75000000  1
  Al  Al19  1  0.56011739  0.42487684  0.75000000  1
  Al  Al20  1  0.43988261  0.92487684  0.25000000  1
  Al  Al21  1  0.43988261  0.57512316  0.25000000  1
  Sb  Sb22  1  0.54732785  0.54134147  0.61893328  1
  Sb  Sb23  1  0.54732785  0.95865853  0.61893328  1
  Sb  Sb24  1  0.54732785  0.54134147  0.88106672  1
  Sb  Sb25  1  0.54732785  0.95865853  0.88106672  1
  Sb  Sb26  1  0.45267215  0.45865853  0.38106672  1
  Sb  Sb27  1  0.45267215  0.04134147  0.38106672  1
  Sb  Sb28  1  0.45267215  0.45865853  0.11893328  1
  Sb  Sb29  1  0.45267215  0.04134147  0.11893328  1
  Sb  Sb30  1  0.97970537  0.75000000  0.50870924  1
  Sb  Sb31  1  0.97970537  0.75000000  0.99129076  1
  Sb  Sb32  1  0.02029463  0.25000000  0.49129076  1
  Sb  Sb33  1  0.02029463  0.25000000  0.00870924  1
  Sb  Sb34  1  0.70995382  0.75000000  0.25000000  1
  Sb  Sb35  1  0.29004618  0.25000000  0.75000000  1
  Sb  Sb36  1  0.16904867  0.75000000  0.25000000  1
  Sb  Sb37  1  0.83095133  0.25000000  0.75000000  1
  Sb  Sb38  1  0.95267230  0.75000000  0.75000000  1
  Sb  Sb39  1  0.04732770  0.25000000  0.25000000  1
