# generated using pymatgen
data_NaMg2HSe2O7
_symmetry_space_group_name_H-M   'P 1'
_cell_length_a   6.17777910
_cell_length_b   8.37769249
_cell_length_c   13.53325072
_cell_angle_alpha   90.00000000
_cell_angle_beta   90.00000000
_cell_angle_gamma   90.00000000
_symmetry_Int_Tables_number   1
_chemical_formula_structural   NaMg2HSe2O7
_chemical_formula_sum   'Na4 Mg8 H4 Se8 O28'
_cell_volume   700.42061196
_cell_formula_units_Z   4
loop_
 _symmetry_equiv_pos_site_id
 _symmetry_equiv_pos_as_xyz
  1  'x, y, z'
loop_
 _atom_site_type_symbol
 _atom_site_label
 _atom_site_symmetry_multiplicity
 _atom_site_fract_x
 _atom_site_fract_y
 _atom_site_fract_z
 _atom_site_occupancy
  Na  Na0  1  0.75000000  0.86941093  0.75090496  1
  Na  Na1  1  0.75000000  0.63058907  0.25090496  1
  Na  Na2  1  0.25000000  0.13058907  0.24909504  1
  Na  Na3  1  0.25000000  0.36941093  0.74909504  1
  Mg  Mg4  1  -0.00000000  0.50000000  0.00000000  1
  Mg  Mg5  1  0.50000000  0.00000000  0.50000000  1
  Mg  Mg6  1  0.50000000  0.50000000  0.00000000  1
  Mg  Mg7  1  -0.00000000  0.00000000  0.50000000  1
  Mg  Mg8  1  0.75000000  0.21369583  0.88774794  1
  Mg  Mg9  1  0.75000000  0.28630417  0.38774794  1
  Mg  Mg10  1  0.25000000  0.78630417  0.11225206  1
  Mg  Mg11  1  0.25000000  0.71369583  0.61225206  1
  H  H12  1  0.75000000  0.52808599  0.84458312  1
  H  H13  1  0.75000000  0.97191401  0.34458312  1
  H  H14  1  0.25000000  0.47191401  0.15541688  1
  H  H15  1  0.25000000  0.02808599  0.65541688  1
  Se  Se16  1  0.25000000  0.11992828  0.97286005  1
  Se  Se17  1  0.25000000  0.38007172  0.47286005  1
  Se  Se18  1  0.75000000  0.88007172  0.02713995  1
  Se  Se19  1  0.75000000  0.61992828  0.52713995  1
  Se  Se20  1  0.75000000  0.22598857  0.67269830  1
  Se  Se21  1  0.75000000  0.27401143  0.17269830  1
  Se  Se22  1  0.25000000  0.77401143  0.32730170  1
  Se  Se23  1  0.25000000  0.72598857  0.82730170  1
  O  O24  1  0.25000000  0.03078003  0.08717455  1
  O  O25  1  0.25000000  0.46921997  0.58717455  1
  O  O26  1  0.75000000  0.96921997  0.91282545  1
  O  O27  1  0.75000000  0.53078003  0.41282545  1
  O  O28  1  0.03097774  0.24939458  0.98122343  1
  O  O29  1  0.46902226  0.25060542  0.48122343  1
  O  O30  1  0.53097774  0.75060542  0.01877657  1
  O  O31  1  0.96902226  0.74939458  0.51877657  1
  O  O32  1  0.96902226  0.75060542  0.01877657  1
  O  O33  1  0.53097774  0.74939458  0.51877657  1
  O  O34  1  0.46902226  0.24939458  0.98122343  1
  O  O35  1  0.03097774  0.25060542  0.48122343  1
  O  O36  1  0.95616240  0.19847890  0.75726990  1
  O  O37  1  0.54383760  0.30152110  0.25726990  1
  O  O38  1  0.45616240  0.80152110  0.24273010  1
  O  O39  1  0.04383760  0.69847890  0.74273010  1
  O  O40  1  0.04383760  0.80152110  0.24273010  1
  O  O41  1  0.45616240  0.69847890  0.74273010  1
  O  O42  1  0.54383760  0.19847890  0.75726990  1
  O  O43  1  0.95616240  0.30152110  0.25726990  1
  O  O44  1  0.75000000  0.04268353  0.60974686  1
  O  O45  1  0.75000000  0.45731647  0.10974686  1
  O  O46  1  0.25000000  0.95731647  0.39025314  1
  O  O47  1  0.25000000  0.54268353  0.89025314  1
  O  O48  1  0.75000000  0.46268741  0.90408851  1
  O  O49  1  0.75000000  0.03731259  0.40408851  1
  O  O50  1  0.25000000  0.53731259  0.09591149  1
  O  O51  1  0.25000000  0.96268741  0.59591149  1
