# generated using pymatgen
data_UP2S7
_symmetry_space_group_name_H-M   'P 1'
_cell_length_a   8.96552699
_cell_length_b   8.96552699
_cell_length_c   15.97984761
_cell_angle_alpha   98.46356073
_cell_angle_beta   98.46356073
_cell_angle_gamma   118.38158590
_symmetry_Int_Tables_number   1
_chemical_formula_structural   UP2S7
_chemical_formula_sum   'U4 P8 S28'
_cell_volume   1082.41549731
_cell_formula_units_Z   4
loop_
 _symmetry_equiv_pos_site_id
 _symmetry_equiv_pos_as_xyz
  1  'x, y, z'
loop_
 _atom_site_type_symbol
 _atom_site_label
 _atom_site_symmetry_multiplicity
 _atom_site_fract_x
 _atom_site_fract_y
 _atom_site_fract_z
 _atom_site_occupancy
  U  U0  1  0.26431806  0.01431806  0.02863611  1
  U  U1  1  0.48568194  0.23568194  0.47136389  1
  U  U2  1  0.73568194  0.98568194  0.97136389  1
  U  U3  1  0.51431806  0.76431806  0.52863611  1
  P  P4  1  0.13079593  0.26674633  0.13721295  1
  P  P5  1  0.62953337  0.99358298  0.36278705  1
  P  P6  1  0.23325367  0.36920407  0.36278705  1
  P  P7  1  0.50641702  0.87046663  0.13721295  1
  P  P8  1  0.86920407  0.73325367  0.86278705  1
  P  P9  1  0.37046663  0.00641702  0.63721295  1
  P  P10  1  0.76674633  0.63079593  0.63721295  1
  P  P11  1  0.49358298  0.12953337  0.86278705  1
  S  S12  1  0.61450067  0.12549962  0.61155894  1
  S  S13  1  0.01394068  0.00294173  0.88844106  1
  S  S14  1  0.37450038  0.88549933  0.88844106  1
  S  S15  1  0.49705827  0.48605932  0.61155894  1
  S  S16  1  0.38549933  0.87450038  0.38844106  1
  S  S17  1  0.98605932  0.99705827  0.11155894  1
  S  S18  1  0.62549962  0.11450067  0.11155894  1
  S  S19  1  0.50294173  0.51394068  0.38844106  1
  S  S20  1  0.01789650  0.33121700  0.04000854  1
  S  S21  1  0.79120847  0.97788797  0.45999146  1
  S  S22  1  0.16878300  0.48210350  0.45999146  1
  S  S23  1  0.52211203  0.70879153  0.04000854  1
  S  S24  1  0.98210350  0.66878300  0.95999146  1
  S  S25  1  0.20879153  0.02211203  0.54000854  1
  S  S26  1  0.83121700  0.51789650  0.54000854  1
  S  S27  1  0.47788797  0.29120847  0.95999146  1
  S  S28  1  0.26743243  0.81931053  0.14988015  1
  S  S29  1  0.16943039  0.11755229  0.35011985  1
  S  S30  1  0.68068947  0.23256757  0.35011985  1
  S  S31  1  0.38244771  0.33056961  0.14988015  1
  S  S32  1  0.73256757  0.18068947  0.85011985  1
  S  S33  1  0.83056961  0.88244771  0.64988015  1
  S  S34  1  0.31931053  0.76743243  0.64988015  1
  S  S35  1  0.61755229  0.66943039  0.85011985  1
  S  S36  1  0.09998863  0.40001137  0.25000000  1
  S  S37  1  0.65001137  0.84998863  0.25000000  1
  S  S38  1  0.90001137  0.59998863  0.75000000  1
  S  S39  1  0.34998863  0.15001137  0.75000000  1
