# generated using pymatgen
data_NaMg3P3(HO6)2
_symmetry_space_group_name_H-M   'P 1'
_cell_length_a   6.56166282
_cell_length_b   8.52768202
_cell_length_c   8.52768202
_cell_angle_alpha   91.06772331
_cell_angle_beta   106.53145766
_cell_angle_gamma   106.53145766
_symmetry_Int_Tables_number   1
_chemical_formula_structural   NaMg3P3(HO6)2
_chemical_formula_sum   'Na2 Mg6 P6 H4 O24'
_cell_volume   435.95637312
_cell_formula_units_Z   2
loop_
 _symmetry_equiv_pos_site_id
 _symmetry_equiv_pos_as_xyz
  1  'x, y, z'
loop_
 _atom_site_type_symbol
 _atom_site_label
 _atom_site_symmetry_multiplicity
 _atom_site_fract_x
 _atom_site_fract_y
 _atom_site_fract_z
 _atom_site_occupancy
  Na  Na0  1  0.75000000  0.02505035  0.97494965  1
  Na  Na1  1  0.25000000  0.97494965  0.02505035  1
  Mg  Mg2  1  0.25000000  0.27644190  0.72355810  1
  Mg  Mg3  1  0.75000000  0.72355810  0.27644190  1
  Mg  Mg4  1  0.12565574  0.37464819  0.05020558  1
  Mg  Mg5  1  0.37434426  0.94979442  0.62535181  1
  Mg  Mg6  1  0.87434426  0.62535181  0.94979442  1
  Mg  Mg7  1  0.62565574  0.05020558  0.37464819  1
  P  P8  1  0.25000000  0.68446149  0.31553851  1
  P  P9  1  0.75000000  0.31553851  0.68446149  1
  P  P10  1  0.11282898  0.10521766  0.32848103  1
  P  P11  1  0.38717102  0.67151897  0.89478234  1
  P  P12  1  0.88717102  0.89478234  0.67151897  1
  P  P13  1  0.61282898  0.32848103  0.10521766  1
  H  H14  1  0.19558829  0.37408979  0.39109919  1
  H  H15  1  0.30441171  0.60890081  0.62591021  1
  H  H16  1  0.80441171  0.62591021  0.60890081  1
  H  H17  1  0.69558829  0.39109919  0.37408979  1
  O  O18  1  0.03712742  0.72115312  0.20438152  1
  O  O19  1  0.46287258  0.79561848  0.27884688  1
  O  O20  1  0.96287258  0.27884688  0.79561848  1
  O  O21  1  0.53712742  0.20438152  0.72115312  1
  O  O22  1  0.23612002  0.50082013  0.28346579  1
  O  O23  1  0.26387998  0.71653421  0.49917987  1
  O  O24  1  0.76387998  0.49917987  0.71653421  1
  O  O25  1  0.73612002  0.28346579  0.50082013  1
  O  O26  1  0.88780303  0.98203604  0.32598973  1
  O  O27  1  0.61219697  0.67401027  0.01796396  1
  O  O28  1  0.11219697  0.01796396  0.67401027  1
  O  O29  1  0.38780303  0.32598973  0.98203604  1
  O  O30  1  0.15878909  0.26596899  0.45168252  1
  O  O31  1  0.34121091  0.54831748  0.73403101  1
  O  O32  1  0.84121091  0.73403101  0.54831748  1
  O  O33  1  0.65878909  0.45168252  0.26596899  1
  O  O34  1  0.30763483  0.03467245  0.39381018  1
  O  O35  1  0.19236517  0.60618982  0.96532755  1
  O  O36  1  0.69236517  0.96532755  0.60618982  1
  O  O37  1  0.80763483  0.39381018  0.03467245  1
  O  O38  1  0.09908989  0.15755804  0.15515122  1
  O  O39  1  0.40091011  0.84484878  0.84244196  1
  O  O40  1  0.90091011  0.84244196  0.84484878  1
  O  O41  1  0.59908989  0.15515122  0.15755804  1
