# generated using pymatgen
data_La4(YS2)11
_symmetry_space_group_name_H-M   'P 1'
_cell_length_a   3.99307123
_cell_length_b   11.44709131
_cell_length_c   19.85295527
_cell_angle_alpha   91.55521502
_cell_angle_beta   95.77177235
_cell_angle_gamma   90.00000000
_symmetry_Int_Tables_number   1
_chemical_formula_structural   La4(YS2)11
_chemical_formula_sum   'La4 Y11 S22'
_cell_volume   902.52328326
_cell_formula_units_Z   1
loop_
 _symmetry_equiv_pos_site_id
 _symmetry_equiv_pos_as_xyz
  1  'x, y, z'
loop_
 _atom_site_type_symbol
 _atom_site_label
 _atom_site_symmetry_multiplicity
 _atom_site_fract_x
 _atom_site_fract_y
 _atom_site_fract_z
 _atom_site_occupancy
  La  La0  1  0.10422377  0.01154933  0.20844753  1
  La  La1  1  0.89577623  0.98845067  0.79155247  1
  La  La2  1  0.36718296  0.34692319  0.73436592  1
  La  La3  1  0.63281704  0.65307681  0.26563408  1
  Y  Y4  1  0.79786630  0.05802292  0.59573260  1
  Y  Y5  1  0.20213370  0.94197708  0.40426740  1
  Y  Y6  1  0.46205434  0.27115650  0.92410867  1
  Y  Y7  1  0.53794566  0.72884350  0.07589133  1
  Y  Y8  1  0.65772104  0.30123768  0.31544207  1
  Y  Y9  1  0.34227896  0.69876232  0.68455793  1
  Y  Y10  1  0.26388718  0.35186811  0.52777435  1
  Y  Y11  1  0.73611282  0.64813189  0.47222565  1
  Y  Y12  1  0.06958810  0.36051139  0.13917619  1
  Y  Y13  1  0.93041190  0.63948861  0.86082381  1
  Y  Y14  1  -0.00000000  0.00000000  -0.00000000  1
  S  S15  1  0.08748089  0.75165047  0.17496178  1
  S  S16  1  0.91251911  0.24834953  0.82503822  1
  S  S17  1  0.18883010  0.69173536  0.37766019  1
  S  S18  1  0.81116990  0.30826464  0.62233981  1
  S  S19  1  0.27985498  0.59007033  0.55970996  1
  S  S20  1  0.72014502  0.40992967  0.44029004  1
  S  S21  1  0.44537177  0.49514264  0.89074354  1
  S  S22  1  0.55462823  0.50485736  0.10925646  1
  S  S23  1  0.13482533  0.45360117  0.26965065  1
  S  S24  1  0.86517467  0.54639883  0.73034935  1
  S  S25  1  0.59286498  0.21209433  0.18572996  1
  S  S26  1  0.40713502  0.78790567  0.81427004  1
  S  S27  1  0.45309268  0.03113660  0.90618536  1
  S  S28  1  0.54690732  0.96886340  0.09381464  1
  S  S29  1  0.35064454  0.09133899  0.70128908  1
  S  S30  1  0.64935546  0.90866101  0.29871092  1
  S  S31  1  0.16829770  0.15131010  0.33659540  1
  S  S32  1  0.83170230  0.84868990  0.66340460  1
  S  S33  1  0.00777256  0.23901524  0.01554512  1
  S  S34  1  0.99222744  0.76098476  0.98445488  1
  S  S35  1  0.25532221  0.11880159  0.51064442  1
  S  S36  1  0.74467779  0.88119841  0.48935558  1
