# generated using pymatgen
data_Sr2P7Br
_symmetry_space_group_name_H-M   'P 1'
_cell_length_a   9.91756796
_cell_length_b   9.91756796
_cell_length_c   9.91756796
_cell_angle_alpha   90.00000000
_cell_angle_beta   90.00000000
_cell_angle_gamma   90.00000000
_symmetry_Int_Tables_number   1
_chemical_formula_structural   Sr2P7Br
_chemical_formula_sum   'Sr8 P28 Br4'
_cell_volume   975.47367911
_cell_formula_units_Z   4
loop_
 _symmetry_equiv_pos_site_id
 _symmetry_equiv_pos_as_xyz
  1  'x, y, z'
loop_
 _atom_site_type_symbol
 _atom_site_label
 _atom_site_symmetry_multiplicity
 _atom_site_fract_x
 _atom_site_fract_y
 _atom_site_fract_z
 _atom_site_occupancy
  Sr  Sr0  1  0.64764472  0.14764472  0.35235528  1
  Sr  Sr1  1  0.14764472  0.35235528  0.64764472  1
  Sr  Sr2  1  0.35235528  0.64764472  0.14764472  1
  Sr  Sr3  1  0.85235528  0.85235528  0.85235528  1
  Sr  Sr4  1  0.91293053  0.41293053  0.08706947  1
  Sr  Sr5  1  0.41293053  0.08706947  0.91293053  1
  Sr  Sr6  1  0.08706947  0.91293053  0.41293053  1
  Sr  Sr7  1  0.58706947  0.58706947  0.58706947  1
  P  P8  1  0.46341332  0.96341332  0.53658668  1
  P  P9  1  0.96341332  0.53658668  0.46341332  1
  P  P10  1  0.53658668  0.46341332  0.96341332  1
  P  P11  1  0.03658668  0.03658668  0.03658668  1
  P  P12  1  0.21862064  0.94329763  0.11946032  1
  P  P13  1  0.88053968  0.71862064  0.55670237  1
  P  P14  1  0.44329763  0.38053968  0.78137936  1
  P  P15  1  0.71862064  0.55670237  0.88053968  1
  P  P16  1  0.38053968  0.78137936  0.44329763  1
  P  P17  1  0.94329763  0.11946032  0.21862064  1
  P  P18  1  0.78137936  0.44329763  0.38053968  1
  P  P19  1  0.11946032  0.21862064  0.94329763  1
  P  P20  1  0.55670237  0.88053968  0.71862064  1
  P  P21  1  0.28137936  0.05670237  0.61946032  1
  P  P22  1  0.61946032  0.28137936  0.05670237  1
  P  P23  1  0.05670237  0.61946032  0.28137936  1
  P  P24  1  0.20089645  0.88717951  0.73150890  1
  P  P25  1  0.26849110  0.70089645  0.61282049  1
  P  P26  1  0.38717951  0.76849110  0.79910355  1
  P  P27  1  0.70089645  0.61282049  0.26849110  1
  P  P28  1  0.76849110  0.79910355  0.38717951  1
  P  P29  1  0.88717951  0.73150890  0.20089645  1
  P  P30  1  0.79910355  0.38717951  0.76849110  1
  P  P31  1  0.73150890  0.20089645  0.88717951  1
  P  P32  1  0.61282049  0.26849110  0.70089645  1
  P  P33  1  0.29910355  0.11282049  0.23150890  1
  P  P34  1  0.23150890  0.29910355  0.11282049  1
  P  P35  1  0.11282049  0.23150890  0.29910355  1
  Br  Br36  1  0.09687712  0.59687712  0.90312288  1
  Br  Br37  1  0.59687712  0.90312288  0.09687712  1
  Br  Br38  1  0.90312288  0.09687712  0.59687712  1
  Br  Br39  1  0.40312288  0.40312288  0.40312288  1
