# generated using pymatgen
data_Ba3Ga3P5
_symmetry_space_group_name_H-M   'P 1'
_cell_length_a   12.92897535
_cell_length_b   12.92897535
_cell_length_c   12.92897509
_cell_angle_alpha   69.64630600
_cell_angle_beta   69.64630600
_cell_angle_gamma   69.64630891
_symmetry_Int_Tables_number   1
_chemical_formula_structural   Ba3Ga3P5
_chemical_formula_sum   'Ba18 Ga18 P30'
_cell_volume   1835.39230166
_cell_formula_units_Z   6
loop_
 _symmetry_equiv_pos_site_id
 _symmetry_equiv_pos_as_xyz
  1  'x, y, z'
loop_
 _atom_site_type_symbol
 _atom_site_label
 _atom_site_symmetry_multiplicity
 _atom_site_fract_x
 _atom_site_fract_y
 _atom_site_fract_z
 _atom_site_occupancy
  Ba  Ba0  1  0.22631518  0.14070264  0.64906786  1
  Ba  Ba1  1  0.14070264  0.64906786  0.22631518  1
  Ba  Ba2  1  0.64906786  0.22631518  0.14070264  1
  Ba  Ba3  1  0.72631518  0.14906786  0.64070264  1
  Ba  Ba4  1  0.14906786  0.64070264  0.72631518  1
  Ba  Ba5  1  0.64070264  0.72631518  0.14906786  1
  Ba  Ba6  1  0.77368482  0.85929736  0.35093214  1
  Ba  Ba7  1  0.85929736  0.35093214  0.77368482  1
  Ba  Ba8  1  0.35093214  0.77368482  0.85929736  1
  Ba  Ba9  1  0.27368482  0.85093214  0.35929736  1
  Ba  Ba10  1  0.85093214  0.35929736  0.27368482  1
  Ba  Ba11  1  0.35929736  0.27368482  0.85093214  1
  Ba  Ba12  1  0.39875319  0.39875319  0.39875319  1
  Ba  Ba13  1  0.89875319  0.89875319  0.89875319  1
  Ba  Ba14  1  0.60124681  0.60124681  0.60124681  1
  Ba  Ba15  1  0.10124681  0.10124681  0.10124681  1
  Ba  Ba16  1  0.25000000  0.25000000  0.25000000  1
  Ba  Ba17  1  0.75000000  0.75000000  0.75000000  1
  Ga  Ga18  1  0.57500273  0.08360694  0.48871276  1
  Ga  Ga19  1  0.08360694  0.48871276  0.57500273  1
  Ga  Ga20  1  0.48871276  0.57500273  0.08360694  1
  Ga  Ga21  1  0.07500273  0.98871276  0.58360694  1
  Ga  Ga22  1  0.98871276  0.58360694  0.07500273  1
  Ga  Ga23  1  0.58360694  0.07500273  0.98871276  1
  Ga  Ga24  1  0.42499727  0.91639306  0.51128724  1
  Ga  Ga25  1  0.91639306  0.51128724  0.42499727  1
  Ga  Ga26  1  0.51128724  0.42499727  0.91639306  1
  Ga  Ga27  1  0.92499727  0.01128724  0.41639306  1
  Ga  Ga28  1  0.01128724  0.41639306  0.92499727  1
  Ga  Ga29  1  0.41639306  0.92499727  0.01128724  1
  Ga  Ga30  1  0.52061557  0.97938443  0.25000000  1
  Ga  Ga31  1  0.97938443  0.25000000  0.52061557  1
  Ga  Ga32  1  0.25000000  0.52061557  0.97938443  1
  Ga  Ga33  1  0.02061557  0.75000000  0.47938443  1
  Ga  Ga34  1  0.75000000  0.47938443  0.02061557  1
  Ga  Ga35  1  0.47938443  0.02061557  0.75000000  1
  P  P36  1  0.44686831  0.10975324  0.37721139  1
  P  P37  1  0.10975324  0.37721139  0.44686831  1
  P  P38  1  0.37721139  0.44686831  0.10975324  1
  P  P39  1  0.94686831  0.87721139  0.60975324  1
  P  P40  1  0.87721139  0.60975324  0.94686831  1
  P  P41  1  0.60975324  0.94686831  0.87721139  1
  P  P42  1  0.55313169  0.89024676  0.62278861  1
  P  P43  1  0.89024676  0.62278861  0.55313169  1
  P  P44  1  0.62278861  0.55313169  0.89024676  1
  P  P45  1  0.05313169  0.12278861  0.39024676  1
  P  P46  1  0.12278861  0.39024676  0.05313169  1
  P  P47  1  0.39024676  0.05313169  0.12278861  1
  P  P48  1  0.47160628  0.20516814  0.61438270  1
  P  P49  1  0.20516814  0.61438270  0.47160628  1
  P  P50  1  0.61438270  0.47160628  0.20516814  1
  P  P51  1  0.97160628  0.11438270  0.70516814  1
  P  P52  1  0.11438270  0.70516814  0.97160628  1
  P  P53  1  0.70516814  0.97160628  0.11438270  1
  P  P54  1  0.52839372  0.79483186  0.38561730  1
  P  P55  1  0.79483186  0.38561730  0.52839372  1
  P  P56  1  0.38561730  0.52839372  0.79483186  1
  P  P57  1  0.02839372  0.88561730  0.29483186  1
  P  P58  1  0.88561730  0.29483186  0.02839372  1
  P  P59  1  0.29483186  0.02839372  0.88561730  1
  P  P60  1  0.87546740  0.62453260  0.25000000  1
  P  P61  1  0.62453260  0.25000000  0.87546740  1
  P  P62  1  0.25000000  0.87546740  0.62453260  1
  P  P63  1  0.37546740  0.75000000  0.12453260  1
  P  P64  1  0.75000000  0.12453260  0.37546740  1
  P  P65  1  0.12453260  0.37546740  0.75000000  1
