# generated using pymatgen
data_MnTl(PO3)3
_symmetry_space_group_name_H-M   'P 1'
_cell_length_a   7.45148077
_cell_length_b   9.61175565
_cell_length_c   12.38921250
_cell_angle_alpha   90.00000000
_cell_angle_beta   90.00000000
_cell_angle_gamma   90.00000000
_symmetry_Int_Tables_number   1
_chemical_formula_structural   MnTl(PO3)3
_chemical_formula_sum   'Mn4 Tl4 P12 O36'
_cell_volume   887.33785336
_cell_formula_units_Z   4
loop_
 _symmetry_equiv_pos_site_id
 _symmetry_equiv_pos_as_xyz
  1  'x, y, z'
loop_
 _atom_site_type_symbol
 _atom_site_label
 _atom_site_symmetry_multiplicity
 _atom_site_fract_x
 _atom_site_fract_y
 _atom_site_fract_z
 _atom_site_occupancy
  Mn  Mn0  1  0.75000000  0.51307135  0.28165030  1
  Mn  Mn1  1  0.75000000  0.01307135  0.21834970  1
  Mn  Mn2  1  0.25000000  0.48692865  0.71834970  1
  Mn  Mn3  1  0.25000000  0.98692865  0.78165030  1
  Tl  Tl4  1  0.75000000  0.90620812  0.92099168  1
  Tl  Tl5  1  0.75000000  0.40620812  0.57900832  1
  Tl  Tl6  1  0.25000000  0.09379188  0.07900832  1
  Tl  Tl7  1  0.25000000  0.59379188  0.42099168  1
  P  P8  1  0.75000000  0.29371805  0.04500694  1
  P  P9  1  0.75000000  0.79371805  0.45499306  1
  P  P10  1  0.25000000  0.70628195  0.95499306  1
  P  P11  1  0.25000000  0.20628195  0.54500694  1
  P  P12  1  0.95225784  0.25446409  0.84924856  1
  P  P13  1  0.54774216  0.75446409  0.65075144  1
  P  P14  1  0.45225784  0.74553591  0.15075144  1
  P  P15  1  0.04774216  0.24553591  0.34924856  1
  P  P16  1  0.04774216  0.74553591  0.15075144  1
  P  P17  1  0.45225784  0.24553591  0.34924856  1
  P  P18  1  0.54774216  0.25446409  0.84924856  1
  P  P19  1  0.95225784  0.75446409  0.65075144  1
  O  O20  1  0.75000000  0.39763433  0.13342603  1
  O  O21  1  0.75000000  0.89763433  0.36657397  1
  O  O22  1  0.25000000  0.60236567  0.86657397  1
  O  O23  1  0.25000000  0.10236567  0.63342603  1
  O  O24  1  0.91763633  0.32970660  0.96464933  1
  O  O25  1  0.58236367  0.82970660  0.53535067  1
  O  O26  1  0.41763633  0.67029340  0.03535067  1
  O  O27  1  0.08236367  0.17029340  0.46464933  1
  O  O28  1  0.08236367  0.67029340  0.03535067  1
  O  O29  1  0.41763633  0.17029340  0.46464933  1
  O  O30  1  0.58236367  0.32970660  0.96464933  1
  O  O31  1  0.91763633  0.82970660  0.53535067  1
  O  O32  1  0.75000000  0.13951321  0.06778089  1
  O  O33  1  0.75000000  0.63951321  0.43221911  1
  O  O34  1  0.25000000  0.86048679  0.93221911  1
  O  O35  1  0.25000000  0.36048679  0.56778089  1
  O  O36  1  0.75000000  0.21260783  0.81123141  1
  O  O37  1  0.75000000  0.71260783  0.68876859  1
  O  O38  1  0.25000000  0.78739217  0.18876859  1
  O  O39  1  0.25000000  0.28739217  0.31123141  1
  O  O40  1  0.05013570  0.11950309  0.86753352  1
  O  O41  1  0.44986430  0.61950309  0.63246648  1
  O  O42  1  0.55013570  0.88049691  0.13246648  1
  O  O43  1  0.94986430  0.38049691  0.36753352  1
  O  O44  1  0.94986430  0.88049691  0.13246648  1
  O  O45  1  0.55013570  0.38049691  0.36753352  1
  O  O46  1  0.44986430  0.11950309  0.86753352  1
  O  O47  1  0.05013570  0.61950309  0.63246648  1
  O  O48  1  0.02519186  0.35986191  0.77238317  1
  O  O49  1  0.47480814  0.85986191  0.72761683  1
  O  O50  1  0.52519186  0.64013809  0.22761683  1
  O  O51  1  0.97480814  0.14013809  0.27238317  1
  O  O52  1  0.97480814  0.64013809  0.22761683  1
  O  O53  1  0.52519186  0.14013809  0.27238317  1
  O  O54  1  0.47480814  0.35986191  0.77238317  1
  O  O55  1  0.02519186  0.85986191  0.72761683  1
