# generated using pymatgen
data_ScCo5P3
_symmetry_space_group_name_H-M   'P 1'
_cell_length_a   3.57909030
_cell_length_b   10.16641682
_cell_length_c   11.61734762
_cell_angle_alpha   90.00000000
_cell_angle_beta   90.00000000
_cell_angle_gamma   90.00000000
_symmetry_Int_Tables_number   1
_chemical_formula_structural   ScCo5P3
_chemical_formula_sum   'Sc4 Co20 P12'
_cell_volume   422.71489597
_cell_formula_units_Z   4
loop_
 _symmetry_equiv_pos_site_id
 _symmetry_equiv_pos_as_xyz
  1  'x, y, z'
loop_
 _atom_site_type_symbol
 _atom_site_label
 _atom_site_symmetry_multiplicity
 _atom_site_fract_x
 _atom_site_fract_y
 _atom_site_fract_z
 _atom_site_occupancy
  Sc  Sc0  1  0.25000000  0.58223702  0.70323599  1
  Sc  Sc1  1  0.25000000  0.91776298  0.20323599  1
  Sc  Sc2  1  0.75000000  0.41776298  0.29676401  1
  Sc  Sc3  1  0.75000000  0.08223702  0.79676401  1
  Co  Co4  1  0.25000000  0.71774801  0.99091914  1
  Co  Co5  1  0.25000000  0.78225199  0.49091914  1
  Co  Co6  1  0.75000000  0.28225199  0.00908086  1
  Co  Co7  1  0.75000000  0.21774801  0.50908086  1
  Co  Co8  1  0.25000000  0.40826776  0.48559659  1
  Co  Co9  1  0.25000000  0.09173224  0.98559659  1
  Co  Co10  1  0.75000000  0.59173224  0.51440341  1
  Co  Co11  1  0.75000000  0.90826776  0.01440341  1
  Co  Co12  1  0.25000000  0.22099050  0.17655535  1
  Co  Co13  1  0.25000000  0.27900950  0.67655535  1
  Co  Co14  1  0.75000000  0.77900950  0.82344465  1
  Co  Co15  1  0.75000000  0.72099050  0.32344465  1
  Co  Co16  1  0.25000000  0.88328878  0.69921500  1
  Co  Co17  1  0.25000000  0.61671122  0.19921500  1
  Co  Co18  1  0.75000000  0.11671122  0.30078500  1
  Co  Co19  1  0.75000000  0.38328878  0.80078500  1
  Co  Co20  1  0.25000000  0.46680357  0.93118279  1
  Co  Co21  1  0.25000000  0.03319643  0.43118279  1
  Co  Co22  1  0.75000000  0.53319643  0.06881721  1
  Co  Co23  1  0.75000000  0.96680357  0.56881721  1
  P  P24  1  0.25000000  0.41832683  0.11421631  1
  P  P25  1  0.25000000  0.08167317  0.61421631  1
  P  P26  1  0.75000000  0.58167317  0.88578369  1
  P  P27  1  0.75000000  0.91832683  0.38578369  1
  P  P28  1  0.25000000  0.26651099  0.86907246  1
  P  P29  1  0.25000000  0.23348901  0.36907246  1
  P  P30  1  0.75000000  0.73348901  0.13092754  1
  P  P31  1  0.75000000  0.76651099  0.63092754  1
  P  P32  1  0.25000000  0.59847329  0.38942417  1
  P  P33  1  0.25000000  0.90152671  0.88942417  1
  P  P34  1  0.75000000  0.40152671  0.61057583  1
  P  P35  1  0.75000000  0.09847329  0.11057583  1
