# generated using pymatgen
data_P2H19C6I7N
_symmetry_space_group_name_H-M   'P 1'
_cell_length_a   8.78114142
_cell_length_b   17.23750438
_cell_length_c   18.28439902
_cell_angle_alpha   87.54447688
_cell_angle_beta   79.73035745
_cell_angle_gamma   78.34637980
_symmetry_Int_Tables_number   1
_chemical_formula_structural   P2H19C6I7N
_chemical_formula_sum   'P8 H76 C24 I28 N4'
_cell_volume   2667.07620091
_cell_formula_units_Z   4
loop_
 _symmetry_equiv_pos_site_id
 _symmetry_equiv_pos_as_xyz
  1  'x, y, z'
loop_
 _atom_site_type_symbol
 _atom_site_label
 _atom_site_symmetry_multiplicity
 _atom_site_fract_x
 _atom_site_fract_y
 _atom_site_fract_z
 _atom_site_occupancy
  P  P0  1  0.80053266  0.32107567  0.65783999  1
  P  P1  1  0.19946734  0.67892433  0.34216001  1
  P  P2  1  0.07127008  0.17848281  0.65939284  1
  P  P3  1  0.92872992  0.82151719  0.34060716  1
  P  P4  1  0.42540819  0.81079260  0.86632842  1
  P  P5  1  0.57459181  0.18920740  0.13367158  1
  P  P6  1  0.27557056  0.66813143  0.85074756  1
  P  P7  1  0.72442944  0.33186857  0.14925244  1
  H  H8  1  0.89910868  0.24901683  0.75526683  1
  H  H9  1  0.10089132  0.75098317  0.24473317  1
  H  H10  1  0.31267299  0.72908001  0.95410848  1
  H  H11  1  0.68732701  0.27091999  0.04589152  1
  H  H12  1  0.80907361  0.41360764  0.74959265  1
  H  H13  1  0.19092639  0.58639236  0.25040735  1
  H  H14  1  0.63927879  0.44092295  0.70466827  1
  H  H15  1  0.36072121  0.55907705  0.29533173  1
  H  H16  1  0.64323063  0.36355009  0.77385153  1
  H  H17  1  0.35676937  0.63644991  0.22614847  1
  H  H18  1  0.58615620  0.25333241  0.67273648  1
  H  H19  1  0.41384380  0.74666759  0.32726352  1
  H  H20  1  0.56447624  0.33557386  0.60866966  1
  H  H21  1  0.43552376  0.66442614  0.39133034  1
  H  H22  1  0.69552345  0.24480528  0.57866059  1
  H  H23  1  0.30447655  0.75519472  0.42133941  1
  H  H24  1  0.95789975  0.32238571  0.53554975  1
  H  H25  1  0.04210025  0.67761429  0.46445025  1
  H  H26  1  0.82969773  0.41467821  0.56101313  1
  H  H27  1  0.17030227  0.58532179  0.43898687  1
  H  H28  1  0.00706479  0.38678794  0.59955659  1
  H  H29  1  0.99293521  0.61321206  0.40044341  1
  H  H30  1  0.98567030  0.08354665  0.74788564  1
  H  H31  1  0.01432970  0.91645335  0.25211436  1
  H  H32  1  0.19087420  0.05644848  0.70634938  1
  H  H33  1  0.80912580  0.94355152  0.29365062  1
  H  H34  1  0.13022336  0.13115648  0.77717444  1
  H  H35  1  0.86977664  0.86884352  0.22282556  1
  H  H36  1  0.02188067  0.18026017  0.53330014  1
  H  H37  1  0.97811933  0.81973983  0.46669986  1
  H  H38  1  0.12730249  0.08773792  0.56101480  1
  H  H39  1  0.87269751  0.91226208  0.43898520  1
  H  H40  1  0.91884674  0.11407583  0.59338671  1
  H  H41  1  0.08115326  0.88592417  0.40661329  1
  H  H42  1  0.26963506  0.24725359  0.68105924  1
  H  H43  1  0.73036494  0.75274641  0.31894076  1
  H  H44  1  0.34655604  0.16397861  0.61989989  1
  H  H45  1  0.65344396  0.83602139  0.38010011  1
  H  H46  1  0.24505880  0.25454384  0.58478126  1
  H  H47  1  0.75494120  0.74545616  0.41521874  1
  H  H48  1  0.64070870  0.74198542  0.77500446  1
  H  H49  1  0.35929130  0.25801458  0.22499554  1
  H  H50  1  0.67373116  0.83363250  0.80577556  1
  H  H51  1  0.32626884  0.16636750  0.19422444  1
  H  H52  1  0.69228830  0.74731390  0.86508480  1
  H  H53  1  0.30771170  0.25268610  0.13491520  1
  H  H54  1  0.48789060  0.82940014  0.98427545  1
  H  H55  1  0.51210940  0.17059986  0.01572455  1
  H  H56  1  0.46511473  0.91906888  0.93029016  1
  H  H57  1  0.53488527  0.08093112  0.06970984  1
  H  H58  1  0.29254746  0.88247601  0.97540382  1
  H  H59  1  0.70745254  0.11752399  0.02459618  1
  H  H60  1  0.19759956  0.89407206  0.82845935  1
  H  H61  1  0.80240044  0.10592794  0.17154065  1
  H  H62  1  0.38176202  0.91967188  0.78487967  1
  H  H63  1  0.61823798  0.08032812  0.21512033  1
  H  H64  1  0.32062312  0.83752227  0.75138706  1
  H  H65  1  0.67937688  0.16247773  0.24861294  1
  H  H66  1  0.17252526  0.60707275  0.96204532  1
  H  H67  1  0.82747474  0.39292725  0.03795468  1
  H  H68  1  0.22254421  0.54128677  0.88398113  1
  H  H69  1  0.77745579  0.45871323  0.11601887  1
  H  H70  1  0.37649259  0.56306137  0.92861634  1
  H  H71  1  0.62350741  0.43693863  0.07138366  1
  H  H72  1  0.53157926  0.61975431  0.77866784  1
  H  H73  1  0.46842074  0.38024569  0.22133216  1
  H  H74  1  0.37401476  0.58658534  0.74637495  1
  H  H75  1  0.62598524  0.41341466  0.25362505  1
  H  H76  1  0.40429233  0.68441557  0.72409273  1
  H  H77  1  0.59570767  0.31558443  0.27590727  1
  H  H78  1  0.08461927  0.76323924  0.79545413  1
  H  H79  1  0.91538073  0.23676076  0.20454587  1
  H  H80  1  0.05235503  0.66383033  0.79594849  1
  H  H81  1  0.94764497  0.33616967  0.20405151  1
  H  H82  1  0.99953331  0.72031085  0.88032943  1
  H  H83  1  0.00046669  0.27968915  0.11967057  1
  C  C84  1  0.71514859  0.39184915  0.72910828  1
  C  C85  1  0.28485141  0.60815085  0.27089172  1
  C  C86  1  0.64732820  0.28438972  0.62633115  1
  C  C87  1  0.35267180  0.71561028  0.37366885  1
  C  C88  1  0.91121200  0.36457013  0.58130753  1
  C  C89  1  0.08878800  0.63542987  0.41869247  1
  C  C90  1  0.09625662  0.10512178  0.73008415  1
  C  C91  1  0.90374338  0.89487822  0.26991585  1
  C  C92  1  0.02834032  0.13721367  0.57921328  1
  C  C93  1  0.97165968  0.86278633  0.42078672  1
  C  C94  1  0.24979700  0.21549428  0.63374882  1
  C  C95  1  0.75020300  0.78450572  0.36625118  1
  C  C96  1  0.62733553  0.77976015  0.82348908  1
  C  C97  1  0.37266447  0.22023985  0.17651092  1
  C  C98  1  0.41608526  0.86601112  0.94724271  1
  C  C99  1  0.58391474  0.13398888  0.05275729  1
  C  C100  1  0.31970890  0.87047078  0.80168414  1
  C  C101  1  0.68029110  0.12952922  0.19831586  1
  C  C102  1  0.26115768  0.58664155  0.91253053  1
  C  C103  1  0.73884232  0.41335845  0.08746947  1
  C  C104  1  0.41103999  0.63782251  0.76700082  1
  C  C105  1  0.58896001  0.36217749  0.23299918  1
  C  C106  1  0.08489134  0.70853075  0.82827441  1
  C  C107  1  0.91510866  0.29146925  0.17172559  1
  I  I108  1  0.73099262  0.69587388  0.59320580  1
  I  I109  1  0.26900738  0.30412612  0.40679420  1
  I  I110  1  0.96965759  0.57425632  0.65751318  1
  I  I111  1  0.03034241  0.42574368  0.34248682  1
  I  I112  1  0.18268620  0.45009359  0.72266443  1
  I  I113  1  0.81731380  0.54990641  0.27733557  1
  I  I114  1  0.11631157  0.74365515  0.09325265  1
  I  I115  1  0.88368843  0.25634485  0.90674735  1
  I  I116  1  0.94034984  0.86714629  0.99805875  1
  I  I117  1  0.05965016  0.13285371  0.00194125  1
  I  I118  1  0.79795604  0.97436017  0.89303554  1
  I  I119  1  0.20204396  0.02563983  0.10696446  1
  I  I120  1  0.76763720  0.55144852  0.90377090  1
  I  I121  1  0.23236280  0.44855148  0.09622910  1
  I  I122  1  0.67380686  0.65658686  0.03434457  1
  I  I123  1  0.32619314  0.34341314  0.96565543  1
  I  I124  1  0.57622356  0.76377331  0.16391592  1
  I  I125  1  0.42377644  0.23622669  0.83608408  1
  I  I126  1  0.20955798  0.79957727  0.59919461  1
  I  I127  1  0.79044202  0.20042273  0.40080539  1
  I  I128  1  0.91209850  0.91910099  0.65220944  1
  I  I129  1  0.08790150  0.08089901  0.34779056  1
  I  I130  1  0.64183655  0.04217473  0.70829818  1
  I  I131  1  0.35816345  0.95782527  0.29170182  1
  I  I132  1  0.58327793  0.05958021  0.46896345  1
  I  I133  1  0.41672207  0.94041979  0.53103655  1
  I  I134  1  0.56600171  0.55855164  0.52920448  1
  I  I135  1  0.43399829  0.44144836  0.47079552  1
  N  N136  1  0.91963743  0.24902585  0.69726476  1
  N  N137  1  0.08036257  0.75097415  0.30273524  1
  N  N138  1  0.34241719  0.73307040  0.89648711  1
  N  N139  1  0.65758281  0.26692960  0.10351289  1
