# generated using pymatgen
data_HoNi5Ge3
_symmetry_space_group_name_H-M   'P 1'
_cell_length_a   3.82960392
_cell_length_b   6.84416827
_cell_length_c   19.01397530
_cell_angle_alpha   90.00000000
_cell_angle_beta   90.00000000
_cell_angle_gamma   90.00000000
_symmetry_Int_Tables_number   1
_chemical_formula_structural   HoNi5Ge3
_chemical_formula_sum   'Ho4 Ni20 Ge12'
_cell_volume   498.36491804
_cell_formula_units_Z   4
loop_
 _symmetry_equiv_pos_site_id
 _symmetry_equiv_pos_as_xyz
  1  'x, y, z'
loop_
 _atom_site_type_symbol
 _atom_site_label
 _atom_site_symmetry_multiplicity
 _atom_site_fract_x
 _atom_site_fract_y
 _atom_site_fract_z
 _atom_site_occupancy
  Ho  Ho0  1  0.25000000  0.61977097  0.64470511  1
  Ho  Ho1  1  0.25000000  0.88022903  0.14470511  1
  Ho  Ho2  1  0.75000000  0.38022903  0.35529489  1
  Ho  Ho3  1  0.75000000  0.11977097  0.85529489  1
  Ni  Ni4  1  0.25000000  0.81162539  0.79939584  1
  Ni  Ni5  1  0.25000000  0.68837461  0.29939584  1
  Ni  Ni6  1  0.75000000  0.18837461  0.20060416  1
  Ni  Ni7  1  0.75000000  0.31162539  0.70060416  1
  Ni  Ni8  1  0.25000000  0.13013430  0.99540231  1
  Ni  Ni9  1  0.25000000  0.36986570  0.49540231  1
  Ni  Ni10  1  0.75000000  0.86986570  0.00459769  1
  Ni  Ni11  1  0.75000000  0.63013430  0.50459769  1
  Ni  Ni12  1  0.25000000  0.88039390  0.51287672  1
  Ni  Ni13  1  0.25000000  0.61960610  0.01287672  1
  Ni  Ni14  1  0.75000000  0.11960610  0.48712328  1
  Ni  Ni15  1  0.75000000  0.38039390  0.98712328  1
  Ni  Ni16  1  0.25000000  0.14027922  0.61162790  1
  Ni  Ni17  1  0.25000000  0.35972078  0.11162790  1
  Ni  Ni18  1  0.75000000  0.85972078  0.38837210  1
  Ni  Ni19  1  0.75000000  0.64027922  0.88837210  1
  Ni  Ni20  1  0.25000000  0.42503038  0.79268600  1
  Ni  Ni21  1  0.25000000  0.07496962  0.29268600  1
  Ni  Ni22  1  0.75000000  0.57496962  0.20731400  1
  Ni  Ni23  1  0.75000000  0.92503038  0.70731400  1
  Ge  Ge24  1  0.25000000  0.40395005  0.91427676  1
  Ge  Ge25  1  0.25000000  0.09604995  0.41427676  1
  Ge  Ge26  1  0.75000000  0.59604995  0.08572324  1
  Ge  Ge27  1  0.75000000  0.90395005  0.58572324  1
  Ge  Ge28  1  0.25000000  0.11697741  0.73682259  1
  Ge  Ge29  1  0.25000000  0.38302259  0.23682259  1
  Ge  Ge30  1  0.75000000  0.88302259  0.26317741  1
  Ge  Ge31  1  0.75000000  0.61697741  0.76317741  1
  Ge  Ge32  1  0.25000000  0.85018886  0.92359012  1
  Ge  Ge33  1  0.25000000  0.64981114  0.42359012  1
  Ge  Ge34  1  0.75000000  0.14981114  0.07640988  1
  Ge  Ge35  1  0.75000000  0.35018886  0.57640988  1
