# generated using pymatgen
data_Rb2Cu3P4(O3F)4
_symmetry_space_group_name_H-M   'P 1'
_cell_length_a   7.86967104
_cell_length_b   9.37608852
_cell_length_c   9.61414782
_cell_angle_alpha   90.00000000
_cell_angle_beta   90.00000000
_cell_angle_gamma   95.39249360
_symmetry_Int_Tables_number   1
_chemical_formula_structural   Rb2Cu3P4(O3F)4
_chemical_formula_sum   'Rb4 Cu6 P8 O24 F8'
_cell_volume   706.25696505
_cell_formula_units_Z   2
loop_
 _symmetry_equiv_pos_site_id
 _symmetry_equiv_pos_as_xyz
  1  'x, y, z'
loop_
 _atom_site_type_symbol
 _atom_site_label
 _atom_site_symmetry_multiplicity
 _atom_site_fract_x
 _atom_site_fract_y
 _atom_site_fract_z
 _atom_site_occupancy
  Rb  Rb0  1  0.38102889  0.31350252  0.03969420  1
  Rb  Rb1  1  0.61897111  0.18649748  0.53969420  1
  Rb  Rb2  1  0.61897111  0.68649748  0.96030580  1
  Rb  Rb3  1  0.38102889  0.81350252  0.46030580  1
  Cu  Cu4  1  0.88835597  0.31588148  0.14561017  1
  Cu  Cu5  1  0.11164403  0.18411852  0.64561017  1
  Cu  Cu6  1  0.11164403  0.68411852  0.85438983  1
  Cu  Cu7  1  0.88835597  0.81588148  0.35438983  1
  Cu  Cu8  1  0.00000000  0.00000000  -0.00000000  1
  Cu  Cu9  1  0.00000000  0.50000000  0.50000000  1
  P  P10  1  0.10845101  0.61186687  0.18869490  1
  P  P11  1  0.89154899  0.88813313  0.68869490  1
  P  P12  1  0.89154899  0.38813313  0.81130510  1
  P  P13  1  0.10845101  0.11186687  0.31130510  1
  P  P14  1  0.68771217  0.51803173  0.31452294  1
  P  P15  1  0.31228783  0.98196827  0.81452294  1
  P  P16  1  0.31228783  0.48196827  0.68547706  1
  P  P17  1  0.68771217  0.01803173  0.18547706  1
  O  O18  1  0.09373497  0.45121249  0.15936361  1
  O  O19  1  0.90626503  0.04878751  0.65936361  1
  O  O20  1  0.90626503  0.54878751  0.84063639  1
  O  O21  1  0.09373497  0.95121249  0.34063639  1
  O  O22  1  0.73149641  0.47268249  0.16621715  1
  O  O23  1  0.26850359  0.02731751  0.66621715  1
  O  O24  1  0.26850359  0.52731751  0.83378285  1
  O  O25  1  0.73149641  0.97268249  0.33378285  1
  O  O26  1  0.31786693  0.32053782  0.66857154  1
  O  O27  1  0.68213307  0.17946218  0.16857154  1
  O  O28  1  0.68213307  0.67946218  0.33142846  1
  O  O29  1  0.31786693  0.82053782  0.83142846  1
  O  O30  1  0.04050337  0.14583023  0.16314548  1
  O  O31  1  0.95949663  0.35416977  0.66314548  1
  O  O32  1  0.95949663  0.85416977  0.83685452  1
  O  O33  1  0.04050337  0.64583023  0.33685452  1
  O  O34  1  0.22074844  0.05785401  0.92903849  1
  O  O35  1  0.77925156  0.44214599  0.42903849  1
  O  O36  1  0.77925156  0.94214599  0.07096151  1
  O  O37  1  0.22074844  0.55785401  0.57096151  1
  O  O38  1  0.94393824  0.28623446  0.92003255  1
  O  O39  1  0.05606176  0.21376554  0.42003255  1
  O  O40  1  0.05606176  0.71376554  0.07996745  1
  O  O41  1  0.94393824  0.78623446  0.57996745  1
  F  F42  1  0.31279103  0.64718826  0.20285676  1
  F  F43  1  0.68720897  0.85281174  0.70285676  1
  F  F44  1  0.68720897  0.35281174  0.79714324  1
  F  F45  1  0.31279103  0.14718826  0.29714324  1
  F  F46  1  0.49416208  0.45409291  0.33598281  1
  F  F47  1  0.50583792  0.04590709  0.83598281  1
  F  F48  1  0.50583792  0.54590709  0.66401719  1
  F  F49  1  0.49416208  0.95409291  0.16401719  1
