# generated using pymatgen
data_Y5IrCl9
_symmetry_space_group_name_H-M   'P 1'
_cell_length_a   12.45827107
_cell_length_b   12.45827107
_cell_length_c   23.86942723
_cell_angle_alpha   105.12745391
_cell_angle_beta   105.12745391
_cell_angle_gamma   90.00000000
_symmetry_Int_Tables_number   1
_chemical_formula_structural   Y5IrCl9
_chemical_formula_sum   'Y40 Ir8 Cl72'
_cell_volume   3443.19981897
_cell_formula_units_Z   8
loop_
 _symmetry_equiv_pos_site_id
 _symmetry_equiv_pos_as_xyz
  1  'x, y, z'
loop_
 _atom_site_type_symbol
 _atom_site_label
 _atom_site_symmetry_multiplicity
 _atom_site_fract_x
 _atom_site_fract_y
 _atom_site_fract_z
 _atom_site_occupancy
  Y  Y0  1  0.07011067  0.51083783  0.42609183  1
  Y  Y1  1  0.35598115  0.41525400  0.42609183  1
  Y  Y2  1  0.01083783  0.85598115  0.92609183  1
  Y  Y3  1  0.91525400  0.57011067  0.92609183  1
  Y  Y4  1  0.92988933  0.48916217  0.57390817  1
  Y  Y5  1  0.64401885  0.58474600  0.57390817  1
  Y  Y6  1  0.98916217  0.14401885  0.07390817  1
  Y  Y7  1  0.08474600  0.42988933  0.07390817  1
  Y  Y8  1  0.10812978  0.23572076  0.32235521  1
  Y  Y9  1  0.21422543  0.58663445  0.32235521  1
  Y  Y10  1  0.73572076  0.71422543  0.82235521  1
  Y  Y11  1  0.08663445  0.60812978  0.82235521  1
  Y  Y12  1  0.89187022  0.76427924  0.67764479  1
  Y  Y13  1  0.78577457  0.41336555  0.67764479  1
  Y  Y14  1  0.26427924  0.28577457  0.17764479  1
  Y  Y15  1  0.91336555  0.39187022  0.17764479  1
  Y  Y16  1  0.91048861  0.63235078  0.30725831  1
  Y  Y17  1  0.39676970  0.17490753  0.30725831  1
  Y  Y18  1  0.13235078  0.89676970  0.80725831  1
  Y  Y19  1  0.67490753  0.41048861  0.80725831  1
  Y  Y20  1  0.08951139  0.36764922  0.69274169  1
  Y  Y21  1  0.60323030  0.82509247  0.69274169  1
  Y  Y22  1  0.86764922  0.10323030  0.19274169  1
  Y  Y23  1  0.32509247  0.58951139  0.19274169  1
  Y  Y24  1  0.82771810  0.35470109  0.31290935  1
  Y  Y25  1  0.48519124  0.45820826  0.31290935  1
  Y  Y26  1  0.85470109  0.98519124  0.81290935  1
  Y  Y27  1  0.95820826  0.32771810  0.81290935  1
  Y  Y28  1  0.17228190  0.64529891  0.68709065  1
  Y  Y29  1  0.51480876  0.54179174  0.68709065  1
  Y  Y30  1  0.14529891  0.01480876  0.18709065  1
  Y  Y31  1  0.04179174  0.67228190  0.18709065  1
  Y  Y32  1  0.86830780  0.91558609  0.43439577  1
  Y  Y33  1  0.56608797  0.01880969  0.43439577  1
  Y  Y34  1  0.41558609  0.06608797  0.93439577  1
  Y  Y35  1  0.51880969  0.36830780  0.93439577  1
  Y  Y36  1  0.13169220  0.08441391  0.56560423  1
  Y  Y37  1  0.43391203  0.98119031  0.56560423  1
  Y  Y38  1  0.58441391  0.93391203  0.06560423  1
  Y  Y39  1  0.48119031  0.63169220  0.06560423  1
  Ir  Ir40  1  0.02392893  0.44045741  0.30293945  1
  Ir  Ir41  1  0.27901051  0.36248203  0.30293945  1
  Ir  Ir42  1  0.94045741  0.77901051  0.80293945  1
  Ir  Ir43  1  0.86248203  0.52392893  0.80293945  1
  Ir  Ir44  1  0.97607107  0.55954259  0.69706055  1
  Ir  Ir45  1  0.72098949  0.63751797  0.69706055  1
  Ir  Ir46  1  0.05954259  0.22098949  0.19706055  1
  Ir  Ir47  1  0.13751797  0.47607107  0.19706055  1
  Cl  Cl48  1  0.96843782  0.71715234  0.43235039  1
  Cl  Cl49  1  0.46391257  0.21519805  0.43235039  1
  Cl  Cl50  1  0.21715234  0.96391257  0.93235039  1
  Cl  Cl51  1  0.71519805  0.46843782  0.93235039  1
  Cl  Cl52  1  0.03156218  0.28284766  0.56764961  1
  Cl  Cl53  1  0.53608743  0.78480195  0.56764961  1
  Cl  Cl54  1  0.78284766  0.03608743  0.06764961  1
  Cl  Cl55  1  0.28480195  0.53156218  0.06764961  1
  Cl  Cl56  1  0.71456145  0.54268778  0.31857403  1
  Cl  Cl57  1  0.60401258  0.27588626  0.31857403  1
  Cl  Cl58  1  0.04268778  0.10401258  0.81857403  1
  Cl  Cl59  1  0.77588626  0.21456145  0.81857403  1
  Cl  Cl60  1  0.28543855  0.45731222  0.68142597  1
  Cl  Cl61  1  0.39598742  0.72411374  0.68142597  1
  Cl  Cl62  1  0.95731222  0.89598742  0.18142597  1
  Cl  Cl63  1  0.22411374  0.78543855  0.18142597  1
  Cl  Cl64  1  0.88574489  0.41514471  0.43914022  1
  Cl  Cl65  1  0.55339533  0.52399551  0.43914022  1
  Cl  Cl66  1  0.91514471  0.05339533  0.93914022  1
  Cl  Cl67  1  0.02399551  0.38574489  0.93914022  1
  Cl  Cl68  1  0.11425511  0.58485529  0.56085978  1
  Cl  Cl69  1  0.44660467  0.47600449  0.56085978  1
  Cl  Cl70  1  0.08485529  0.94660467  0.06085978  1
  Cl  Cl71  1  0.97600449  0.61425511  0.06085978  1
  Cl  Cl72  1  0.17966848  0.33006713  0.45357186  1
  Cl  Cl73  1  0.27390338  0.62350472  0.45357186  1
  Cl  Cl74  1  0.83006713  0.77390338  0.95357186  1
  Cl  Cl75  1  0.12350472  0.67966848  0.95357186  1
  Cl  Cl76  1  0.82033152  0.66993287  0.54642814  1
  Cl  Cl77  1  0.72609662  0.37649528  0.54642814  1
  Cl  Cl78  1  0.16993287  0.22609662  0.04642814  1
  Cl  Cl79  1  0.87649528  0.32033152  0.04642814  1
  Cl  Cl80  1  0.88670674  0.14162844  0.31371048  1
  Cl  Cl81  1  0.42700375  0.67208204  0.31371048  1
  Cl  Cl82  1  0.64162844  0.92700375  0.81371048  1
  Cl  Cl83  1  0.17208204  0.38670674  0.81371048  1
  Cl  Cl84  1  0.11329326  0.85837156  0.68628952  1
  Cl  Cl85  1  0.57299625  0.32791796  0.68628952  1
  Cl  Cl86  1  0.35837156  0.07299625  0.18628952  1
  Cl  Cl87  1  0.82791796  0.61329326  0.18628952  1
  Cl  Cl88  1  0.22526393  0.03435277  0.30890927  1
  Cl  Cl89  1  0.08364534  0.77455651  0.30890927  1
  Cl  Cl90  1  0.53435277  0.58364534  0.80890927  1
  Cl  Cl91  1  0.27455651  0.72526393  0.80890927  1
  Cl  Cl92  1  0.77473607  0.96564723  0.69109073  1
  Cl  Cl93  1  0.91635466  0.22544349  0.69109073  1
  Cl  Cl94  1  0.46564723  0.41635466  0.19109073  1
  Cl  Cl95  1  0.72544349  0.27473607  0.19109073  1
  Cl  Cl96  1  0.80721280  0.83637614  0.31920272  1
  Cl  Cl97  1  0.51198992  0.98282658  0.31920272  1
  Cl  Cl98  1  0.33637614  0.01198992  0.81920272  1
  Cl  Cl99  1  0.48282658  0.30721280  0.81920272  1
  Cl  Cl100  1  0.19278720  0.16362386  0.68079728  1
  Cl  Cl101  1  0.48801008  0.01717342  0.68079728  1
  Cl  Cl102  1  0.66362386  0.98801008  0.18079728  1
  Cl  Cl103  1  0.51717342  0.69278720  0.18079728  1
  Cl  Cl104  1  0.94405264  0.97121252  0.55581767  1
  Cl  Cl105  1  0.61176502  0.08460515  0.55581767  1
  Cl  Cl106  1  0.47121252  0.11176502  0.05581767  1
  Cl  Cl107  1  0.58460515  0.44405264  0.05581767  1
  Cl  Cl108  1  0.05594736  0.02878748  0.44418233  1
  Cl  Cl109  1  0.38823498  0.91539485  0.44418233  1
  Cl  Cl110  1  0.52878748  0.88823498  0.94418233  1
  Cl  Cl111  1  0.41539485  0.55594736  0.94418233  1
  Cl  Cl112  1  0.67495186  0.83763332  0.44160119  1
  Cl  Cl113  1  0.76664933  0.10396787  0.44160119  1
  Cl  Cl114  1  0.33763332  0.26664933  0.94160119  1
  Cl  Cl115  1  0.60396787  0.17495186  0.94160119  1
  Cl  Cl116  1  0.32504814  0.16236668  0.55839881  1
  Cl  Cl117  1  0.23335067  0.89603213  0.55839881  1
  Cl  Cl118  1  0.66236668  0.73335067  0.05839881  1
  Cl  Cl119  1  0.39603213  0.82504814  0.05839881  1
