# generated using pymatgen
data_Li9Mn2Co5O16
_symmetry_space_group_name_H-M   'P 1'
_cell_length_a   2.90513462
_cell_length_b   19.64208679
_cell_length_c   5.14967550
_cell_angle_alpha   100.76146061
_cell_angle_beta   90.00000000
_cell_angle_gamma   90.00000000
_symmetry_Int_Tables_number   1
_chemical_formula_structural   Li9Mn2Co5O16
_chemical_formula_sum   'Li9 Mn2 Co5 O16'
_cell_volume   288.68743497
_cell_formula_units_Z   1
loop_
 _symmetry_equiv_pos_site_id
 _symmetry_equiv_pos_as_xyz
  1  'x, y, z'
loop_
 _atom_site_type_symbol
 _atom_site_label
 _atom_site_symmetry_multiplicity
 _atom_site_fract_x
 _atom_site_fract_y
 _atom_site_fract_z
 _atom_site_occupancy
  Li  Li0  1  0.50000000  0.99601415  0.49951145  1
  Li  Li1  1  -0.00000000  0.12491518  0.74093868  1
  Li  Li2  1  0.50000000  0.24671180  0.98998957  1
  Li  Li3  1  -0.00000000  0.36843495  0.23908724  1
  Li  Li4  1  0.50000000  0.50291782  0.51175839  1
  Li  Li5  1  -0.00000000  0.87568169  0.26272702  1
  Li  Li6  1  0.50000000  0.75273719  0.99416788  1
  Li  Li7  1  -0.00000000  0.63282063  0.77693610  1
  Li  Li8  1  0.50000000  0.87557962  0.73932818  1
  Mn  Mn9  1  0.00000000  0.99587023  0.98365658  1
  Mn  Mn10  1  0.00000000  0.50082523  0.01518941  1
  Co  Co11  1  0.50000000  0.12439227  0.24659350  1
  Co  Co12  1  -0.00000000  0.24965620  0.49217680  1
  Co  Co13  1  0.50000000  0.37336213  0.74287750  1
  Co  Co14  1  0.50000000  0.63120131  0.28483353  1
  Co  Co15  1  -0.00000000  0.75884414  0.50481518  1
  O  O16  1  0.50000000  0.94482287  0.10705114  1
  O  O17  1  0.00000000  0.06284650  0.34275431  1
  O  O18  1  0.50000000  0.18869713  0.60364170  1
  O  O19  1  -0.00000000  0.31449771  0.85642901  1
  O  O20  1  0.50000000  0.44466947  0.11974637  1
  O  O21  1  -0.00000000  0.80496846  0.83339956  1
  O  O22  1  0.50000000  0.68360943  0.61684052  1
  O  O23  1  0.00000000  0.56033261  0.35365630  1
  O  O24  1  0.50000000  0.05604870  0.88993718  1
  O  O25  1  -0.00000000  0.18373815  0.12902004  1
  O  O26  1  0.50000000  0.31189179  0.38008250  1
  O  O27  1  -0.00000000  0.44085244  0.66623309  1
  O  O28  1  0.50000000  0.55630807  0.90908504  1
  O  O29  1  -0.00000000  0.94294241  0.65021454  1
  O  O30  1  0.50000000  0.80904167  0.36584272  1
  O  O31  1  -0.00000000  0.68476807  0.15147897  1
