# generated using pymatgen
data_Ba6Y2Co4O15
_symmetry_space_group_name_H-M   'P 1'
_cell_length_a   6.06106283
_cell_length_b   8.08409469
_cell_length_c   18.51297341
_cell_angle_alpha   90.81023181
_cell_angle_beta   90.00000000
_cell_angle_gamma   90.00000000
_symmetry_Int_Tables_number   1
_chemical_formula_structural   Ba6Y2Co4O15
_chemical_formula_sum   'Ba12 Y4 Co8 O30'
_cell_volume   907.01178495
_cell_formula_units_Z   2
loop_
 _symmetry_equiv_pos_site_id
 _symmetry_equiv_pos_as_xyz
  1  'x, y, z'
loop_
 _atom_site_type_symbol
 _atom_site_label
 _atom_site_symmetry_multiplicity
 _atom_site_fract_x
 _atom_site_fract_y
 _atom_site_fract_z
 _atom_site_occupancy
  Ba  Ba0  1  0.28370770  -0.00000000  0.25000000  1
  Ba  Ba1  1  0.71629230  -0.00000000  0.75000000  1
  Ba  Ba2  1  0.32629509  0.50000000  0.25000000  1
  Ba  Ba3  1  0.67370491  0.50000000  0.75000000  1
  Ba  Ba4  1  0.74930278  0.97989914  0.41151438  1
  Ba  Ba5  1  0.74930278  0.02010086  0.08848562  1
  Ba  Ba6  1  0.25069722  0.02010086  0.58848562  1
  Ba  Ba7  1  0.25069722  0.97989914  0.91151438  1
  Ba  Ba8  1  0.25007946  0.49691169  0.92209877  1
  Ba  Ba9  1  0.25007946  0.50308831  0.57790123  1
  Ba  Ba10  1  0.74992054  0.50308831  0.07790123  1
  Ba  Ba11  1  0.74992054  0.49691169  0.42209877  1
  Y  Y12  1  0.25134874  0.75356960  0.08917016  1
  Y  Y13  1  0.25134874  0.24643040  0.41082984  1
  Y  Y14  1  0.74865126  0.24643040  0.91082984  1
  Y  Y15  1  0.74865126  0.75356960  0.58917016  1
  Co  Co16  1  0.25238844  0.75319974  0.43726318  1
  Co  Co17  1  0.25238844  0.24680026  0.06273682  1
  Co  Co18  1  0.74761156  0.24680026  0.56273682  1
  Co  Co19  1  0.74761156  0.75319974  0.93726318  1
  Co  Co20  1  0.77289245  0.76851965  0.23648892  1
  Co  Co21  1  0.77289245  0.23148035  0.26351108  1
  Co  Co22  1  0.22710755  0.23148035  0.76351108  1
  Co  Co23  1  0.22710755  0.76851965  0.73648892  1
  O  O24  1  0.80735575  -0.00000000  0.25000000  1
  O  O25  1  0.19264425  -0.00000000  0.75000000  1
  O  O26  1  0.76665067  0.95763558  0.89356548  1
  O  O27  1  0.76665067  0.04236442  0.60643452  1
  O  O28  1  0.23334933  0.04236442  0.10643452  1
  O  O29  1  0.23334933  0.95763558  0.39356548  1
  O  O30  1  0.24601142  0.53285812  0.41029394  1
  O  O31  1  0.24601142  0.46714188  0.08970606  1
  O  O32  1  0.75398858  0.46714188  0.58970606  1
  O  O33  1  0.75398858  0.53285812  0.91029394  1
  O  O34  1  0.03409190  0.72022051  0.18970785  1
  O  O35  1  0.03409190  0.27977949  0.31029215  1
  O  O36  1  0.96590810  0.27977949  0.81029215  1
  O  O37  1  0.96590810  0.72022051  0.68970785  1
  O  O38  1  0.54162593  0.74962991  0.16471826  1
  O  O39  1  0.54162593  0.25037009  0.33528174  1
  O  O40  1  0.45837407  0.25037009  0.83528174  1
  O  O41  1  0.45837407  0.74962991  0.66471826  1
  O  O42  1  0.49114208  0.76431309  0.99783301  1
  O  O43  1  0.49114208  0.23568691  0.50216699  1
  O  O44  1  0.50885792  0.23568691  0.00216699  1
  O  O45  1  0.50885792  0.76431309  0.49783301  1
  O  O46  1  0.01298531  0.76351757  0.50607014  1
  O  O47  1  0.01298531  0.23648243  0.99392986  1
  O  O48  1  0.98701469  0.23648243  0.49392986  1
  O  O49  1  0.98701469  0.76351757  0.00607014  1
  O  O50  1  0.35095926  0.69826550  0.81873116  1
  O  O51  1  0.35095926  0.30173450  0.68126884  1
  O  O52  1  0.64904074  0.30173450  0.18126884  1
  O  O53  1  0.64904074  0.69826550  0.31873116  1
