# generated using pymatgen
data_Lu11Ge10
_symmetry_space_group_name_H-M   'P 1'
_cell_length_a   10.71090953
_cell_length_b   10.71090953
_cell_length_c   11.02183982
_cell_angle_alpha   119.07111164
_cell_angle_beta   119.07111164
_cell_angle_gamma   90.00000000
_symmetry_Int_Tables_number   1
_chemical_formula_structural   Lu11Ge10
_chemical_formula_sum   'Lu22 Ge20'
_cell_volume   918.64275666
_cell_formula_units_Z   2
loop_
 _symmetry_equiv_pos_site_id
 _symmetry_equiv_pos_as_xyz
  1  'x, y, z'
loop_
 _atom_site_type_symbol
 _atom_site_label
 _atom_site_symmetry_multiplicity
 _atom_site_fract_x
 _atom_site_fract_y
 _atom_site_fract_z
 _atom_site_occupancy
  Lu  Lu0  1  0.93726531  0.18988571  0.37977141  1
  Lu  Lu1  1  0.44250611  0.18988571  0.37977141  1
  Lu  Lu2  1  0.18988571  0.44250611  0.37977141  1
  Lu  Lu3  1  0.18988571  0.93726531  0.37977141  1
  Lu  Lu4  1  0.06273469  0.81011429  0.62022859  1
  Lu  Lu5  1  0.55749389  0.81011429  0.62022859  1
  Lu  Lu6  1  0.81011429  0.55749389  0.62022859  1
  Lu  Lu7  1  0.81011429  0.06273469  0.62022859  1
  Lu  Lu8  1  0.82309546  0.17690454  -0.00000000  1
  Lu  Lu9  1  0.17690454  0.82309546  -0.00000000  1
  Lu  Lu10  1  0.17690454  0.17690454  0.00000000  1
  Lu  Lu11  1  0.82309546  0.82309546  1.00000000  1
  Lu  Lu12  1  0.33954500  0.33954500  0.67909000  1
  Lu  Lu13  1  0.66045500  0.66045500  0.32091000  1
  Lu  Lu14  1  0.07280125  0.39716939  0.79433878  1
  Lu  Lu15  1  0.72153753  0.39716939  0.79433878  1
  Lu  Lu16  1  0.39716939  0.72153753  0.79433878  1
  Lu  Lu17  1  0.39716939  0.07280125  0.79433878  1
  Lu  Lu18  1  0.92719875  0.60283061  0.20566122  1
  Lu  Lu19  1  0.27846247  0.60283061  0.20566122  1
  Lu  Lu20  1  0.60283061  0.27846247  0.20566122  1
  Lu  Lu21  1  0.60283061  0.92719875  0.20566122  1
  Ge  Ge22  1  1.00000000  0.35939653  1.00000000  1
  Ge  Ge23  1  0.00000000  0.64060347  0.00000000  1
  Ge  Ge24  1  0.35939653  1.00000000  1.00000000  1
  Ge  Ge25  1  0.64060347  0.00000000  0.00000000  1
  Ge  Ge26  1  0.11582409  0.11582409  0.23164818  1
  Ge  Ge27  1  0.88417591  0.88417591  0.76835182  1
  Ge  Ge28  1  0.62117125  0.37882875  -0.00000000  1
  Ge  Ge29  1  0.37882875  0.62117125  -0.00000000  1
  Ge  Ge30  1  0.37882875  0.37882875  1.00000000  1
  Ge  Ge31  1  0.62117125  0.62117125  0.00000000  1
  Ge  Ge32  1  0.75000000  0.25000000  0.50000000  1
  Ge  Ge33  1  0.25000000  0.75000000  0.50000000  1
  Ge  Ge34  1  0.11022370  0.52958625  0.63980995  1
  Ge  Ge35  1  0.52958625  0.11022370  0.63980995  1
  Ge  Ge36  1  0.52958625  0.52958625  0.63980995  1
  Ge  Ge37  1  0.11022370  0.11022370  0.63980995  1
  Ge  Ge38  1  0.88977630  0.47041375  0.36019005  1
  Ge  Ge39  1  0.47041375  0.88977630  0.36019005  1
  Ge  Ge40  1  0.47041375  0.47041375  0.36019005  1
  Ge  Ge41  1  0.88977630  0.88977630  0.36019005  1
