# generated using pymatgen
data_La4InSbS9
_symmetry_space_group_name_H-M   'P 1'
_cell_length_a   10.36929085
_cell_length_b   10.36929085
_cell_length_c   28.44829739
_cell_angle_alpha   90.00000000
_cell_angle_beta   90.00000000
_cell_angle_gamma   90.00000000
_symmetry_Int_Tables_number   1
_chemical_formula_structural   La4InSbS9
_chemical_formula_sum   'La32 In8 Sb8 S72'
_cell_volume   3058.82331486
_cell_formula_units_Z   8
loop_
 _symmetry_equiv_pos_site_id
 _symmetry_equiv_pos_as_xyz
  1  'x, y, z'
loop_
 _atom_site_type_symbol
 _atom_site_label
 _atom_site_symmetry_multiplicity
 _atom_site_fract_x
 _atom_site_fract_y
 _atom_site_fract_z
 _atom_site_occupancy
  La  La0  1  0.72425164  0.05958365  0.66158982  1
  La  La1  1  0.27574836  0.94041635  0.16158982  1
  La  La2  1  0.55958365  0.77574836  0.41158982  1
  La  La3  1  0.44041635  0.22425164  0.91158982  1
  La  La4  1  0.94041635  0.27574836  0.83841018  1
  La  La5  1  0.05958365  0.72425164  0.33841018  1
  La  La6  1  0.77574836  0.55958365  0.58841018  1
  La  La7  1  0.22425164  0.44041635  0.08841018  1
  La  La8  1  0.98964579  0.35137276  0.69766752  1
  La  La9  1  0.01035421  0.64862724  0.19766752  1
  La  La10  1  0.85137276  0.51035421  0.44766752  1
  La  La11  1  0.14862724  0.48964579  0.94766752  1
  La  La12  1  0.64862724  0.01035421  0.80233248  1
  La  La13  1  0.35137276  0.98964579  0.30233248  1
  La  La14  1  0.51035421  0.85137276  0.55233248  1
  La  La15  1  0.48964579  0.14862724  0.05233248  1
  La  La16  1  0.99723609  0.23174006  0.55089721  1
  La  La17  1  0.00276391  0.76825994  0.05089721  1
  La  La18  1  0.73174006  0.50276391  0.30089721  1
  La  La19  1  0.26825994  0.49723609  0.80089721  1
  La  La20  1  0.76825994  0.00276391  0.94910279  1
  La  La21  1  0.23174006  0.99723609  0.44910279  1
  La  La22  1  0.50276391  0.73174006  0.69910279  1
  La  La23  1  0.49723609  0.26825994  0.19910279  1
  La  La24  1  0.55568148  0.22904593  0.40795459  1
  La  La25  1  0.44431852  0.77095407  0.90795459  1
  La  La26  1  0.72904593  0.94431852  0.15795459  1
  La  La27  1  0.27095407  0.05568148  0.65795459  1
  La  La28  1  0.77095407  0.44431852  0.09204541  1
  La  La29  1  0.22904593  0.55568148  0.59204541  1
  La  La30  1  0.94431852  0.72904593  0.84204541  1
  La  La31  1  0.05568148  0.27095407  0.34204541  1
  In  In32  1  0.51338102  0.29776164  0.54708566  1
  In  In33  1  0.48661898  0.70223836  0.04708566  1
  In  In34  1  0.79776164  0.98661898  0.29708566  1
  In  In35  1  0.20223836  0.01338102  0.79708566  1
  In  In36  1  0.70223836  0.48661898  0.95291434  1
  In  In37  1  0.29776164  0.51338102  0.45291434  1
  In  In38  1  0.98661898  0.79776164  0.70291434  1
  In  In39  1  0.01338102  0.20223836  0.20291434  1
  Sb  Sb40  1  0.86122123  0.00742855  0.44416052  1
  Sb  Sb41  1  0.13877877  0.99257145  0.94416052  1
  Sb  Sb42  1  0.50742855  0.63877877  0.19416052  1
  Sb  Sb43  1  0.49257145  0.36122123  0.69416052  1
  Sb  Sb44  1  0.99257145  0.13877877  0.05583948  1
  Sb  Sb45  1  0.00742855  0.86122123  0.55583948  1
  Sb  Sb46  1  0.63877877  0.50742855  0.80583948  1
  Sb  Sb47  1  0.36122123  0.49257145  0.30583948  1
  S  S48  1  0.82421802  0.00904700  0.53788163  1
  S  S49  1  0.17578198  0.99095300  0.03788163  1
  S  S50  1  0.50904700  0.67578198  0.28788163  1
  S  S51  1  0.49095300  0.32421802  0.78788163  1
  S  S52  1  0.99095300  0.17578198  0.96211837  1
  S  S53  1  0.00904700  0.82421802  0.46211837  1
  S  S54  1  0.67578198  0.50904700  0.71211837  1
  S  S55  1  0.32421802  0.49095300  0.21211837  1
  S  S56  1  0.51845258  0.31416113  0.29993984  1
  S  S57  1  0.48154742  0.68583887  0.79993984  1
  S  S58  1  0.81416113  0.98154742  0.04993984  1
  S  S59  1  0.18583887  0.01845258  0.54993984  1
  S  S60  1  0.68583887  0.48154742  0.20006016  1
  S  S61  1  0.31416113  0.51845258  0.70006016  1
  S  S62  1  0.98154742  0.81416113  0.95006016  1
  S  S63  1  0.01845258  0.18583887  0.45006016  1
  S  S64  1  0.50564500  0.48612343  0.60266780  1
  S  S65  1  0.49435500  0.51387657  0.10266780  1
  S  S66  1  0.98612343  0.99435500  0.35266780  1
  S  S67  1  0.01387657  0.00564500  0.85266780  1
  S  S68  1  0.51387657  0.49435500  0.89733220  1
  S  S69  1  0.48612343  0.50564500  0.39733220  1
  S  S70  1  0.99435500  0.98612343  0.64733220  1
  S  S71  1  0.00564500  0.01387657  0.14733220  1
  S  S72  1  0.50217365  0.10455209  0.59908578  1
  S  S73  1  0.49782635  0.89544791  0.09908578  1
  S  S74  1  0.60455209  0.99782635  0.34908578  1
  S  S75  1  0.39544791  0.00217365  0.84908578  1
  S  S76  1  0.89544791  0.49782635  0.90091422  1
  S  S77  1  0.10455209  0.50217365  0.40091422  1
  S  S78  1  0.99782635  0.60455209  0.65091422  1
  S  S79  1  0.00217365  0.39544791  0.15091422  1
  S  S80  1  0.19016076  0.80983924  0.75000000  1
  S  S81  1  0.80983924  0.19016076  0.25000000  1
  S  S82  1  0.30983924  0.30983924  0.50000000  1
  S  S83  1  0.69016076  0.69016076  0.00000000  1
  S  S84  1  0.70597443  0.30610550  0.49586204  1
  S  S85  1  0.29402557  0.69389450  0.99586204  1
  S  S86  1  0.80610550  0.79402557  0.24586204  1
  S  S87  1  0.19389450  0.20597443  0.74586204  1
  S  S88  1  0.69389450  0.29402557  0.00413796  1
  S  S89  1  0.30610550  0.70597443  0.50413796  1
  S  S90  1  0.79402557  0.80610550  0.75413796  1
  S  S91  1  0.20597443  0.19389450  0.25413796  1
  S  S92  1  0.50298742  0.00213900  0.46784782  1
  S  S93  1  0.49701258  0.99786100  0.96784782  1
  S  S94  1  0.50213900  0.99701258  0.21784782  1
  S  S95  1  0.49786100  0.00298742  0.71784782  1
  S  S96  1  0.99786100  0.49701258  0.03215218  1
  S  S97  1  0.00213900  0.50298742  0.53215218  1
  S  S98  1  0.99701258  0.50213900  0.78215218  1
  S  S99  1  0.00298742  0.49786100  0.28215218  1
  S  S100  1  0.79746849  0.32539789  0.37368662  1
  S  S101  1  0.20253151  0.67460211  0.87368662  1
  S  S102  1  0.82539789  0.70253151  0.12368662  1
  S  S103  1  0.17460211  0.29746849  0.62368662  1
  S  S104  1  0.67460211  0.20253151  0.12631338  1
  S  S105  1  0.32539789  0.79746849  0.62631338  1
  S  S106  1  0.70253151  0.82539789  0.87631338  1
  S  S107  1  0.29746849  0.17460211  0.37631338  1
  S  S108  1  0.81155646  0.29875403  0.62267425  1
  S  S109  1  0.18844354  0.70124597  0.12267425  1
  S  S110  1  0.79875403  0.68844354  0.37267425  1
  S  S111  1  0.20124597  0.31155646  0.87267425  1
  S  S112  1  0.70124597  0.18844354  0.87732575  1
  S  S113  1  0.29875403  0.81155646  0.37732575  1
  S  S114  1  0.68844354  0.79875403  0.62732575  1
  S  S115  1  0.31155646  0.20124597  0.12732575  1
  S  S116  1  0.81688954  0.18311046  0.75000000  1
  S  S117  1  0.18311046  0.81688954  0.25000000  1
  S  S118  1  0.68311046  0.68311046  0.50000000  1
  S  S119  1  0.31688954  0.31688954  0.00000000  1
