# generated using pymatgen
data_CdP2(H4O5)2
_symmetry_space_group_name_H-M   'P 1'
_cell_length_a   5.58119625
_cell_length_b   7.50895079
_cell_length_c   10.45647479
_cell_angle_alpha   90.00000000
_cell_angle_beta   90.00000000
_cell_angle_gamma   95.64335593
_symmetry_Int_Tables_number   1
_chemical_formula_structural   CdP2(H4O5)2
_chemical_formula_sum   'Cd2 P4 H16 O20'
_cell_volume   436.09571879
_cell_formula_units_Z   2
loop_
 _symmetry_equiv_pos_site_id
 _symmetry_equiv_pos_as_xyz
  1  'x, y, z'
loop_
 _atom_site_type_symbol
 _atom_site_label
 _atom_site_symmetry_multiplicity
 _atom_site_fract_x
 _atom_site_fract_y
 _atom_site_fract_z
 _atom_site_occupancy
  Cd  Cd0  1  0.00000000  0.00000000  -0.00000000  1
  Cd  Cd1  1  0.50000000  0.50000000  0.50000000  1
  P  P2  1  0.75573455  0.67330621  0.78206119  1
  P  P3  1  0.25573455  0.17330621  0.71793881  1
  P  P4  1  0.24426545  0.32669379  0.21793881  1
  P  P5  1  0.74426545  0.82669379  0.28206119  1
  H  H6  1  0.57443060  0.17803877  0.91915263  1
  H  H7  1  0.07443060  0.67803877  0.58084737  1
  H  H8  1  0.42556940  0.82196123  0.08084737  1
  H  H9  1  0.92556940  0.32196123  0.41915263  1
  H  H10  1  0.68283092  0.27486061  0.04234041  1
  H  H11  1  0.18283092  0.77486061  0.45765959  1
  H  H12  1  0.31716908  0.72513939  0.95765959  1
  H  H13  1  0.81716908  0.22513939  0.54234041  1
  H  H14  1  0.84856876  0.43067743  0.88684019  1
  H  H15  1  0.34856876  0.93067743  0.61315981  1
  H  H16  1  0.15143124  0.56932257  0.11315981  1
  H  H17  1  0.65143124  0.06932257  0.38684019  1
  H  H18  1  0.40258627  0.51694750  0.77879038  1
  H  H19  1  0.90258627  0.01694750  0.72120962  1
  H  H20  1  0.59741373  0.48305250  0.22120962  1
  H  H21  1  0.09741373  0.98305250  0.27879038  1
  O  O22  1  0.83260003  0.86659099  0.81956257  1
  O  O23  1  0.33260003  0.36659099  0.68043743  1
  O  O24  1  0.16739997  0.13340901  0.18043743  1
  O  O25  1  0.66739997  0.63340901  0.31956257  1
  O  O26  1  0.78223632  0.63712756  0.63917624  1
  O  O27  1  0.28223632  0.13712756  0.86082376  1
  O  O28  1  0.21776368  0.36287244  0.36082376  1
  O  O29  1  0.71776368  0.86287244  0.13917624  1
  O  O30  1  0.91848629  0.55400899  0.86372758  1
  O  O31  1  0.41848629  0.05400899  0.63627242  1
  O  O32  1  0.08151371  0.44599101  0.13627242  1
  O  O33  1  0.58151371  0.94599101  0.36372758  1
  O  O34  1  0.48418866  0.62599659  0.82673908  1
  O  O35  1  0.98418866  0.12599659  0.67326092  1
  O  O36  1  0.51581134  0.37400341  0.17326092  1
  O  O37  1  0.01581134  0.87400341  0.32673908  1
  O  O38  1  0.73120380  0.22475808  0.95939607  1
  O  O39  1  0.23120380  0.72475808  0.54060393  1
  O  O40  1  0.26879620  0.77524192  0.04060393  1
  O  O41  1  0.76879620  0.27524192  0.45939607  1
