# generated using pymatgen
data_ScGe2Ru
_symmetry_space_group_name_H-M   'P 1'
_cell_length_a   8.17721564
_cell_length_b   9.37219436
_cell_length_c   10.43154052
_cell_angle_alpha   90.00000000
_cell_angle_beta   90.00000000
_cell_angle_gamma   90.00000000
_symmetry_Int_Tables_number   1
_chemical_formula_structural   ScGe2Ru
_chemical_formula_sum   'Sc12 Ge24 Ru12'
_cell_volume   799.45714144
_cell_formula_units_Z   12
loop_
 _symmetry_equiv_pos_site_id
 _symmetry_equiv_pos_as_xyz
  1  'x, y, z'
loop_
 _atom_site_type_symbol
 _atom_site_label
 _atom_site_symmetry_multiplicity
 _atom_site_fract_x
 _atom_site_fract_y
 _atom_site_fract_z
 _atom_site_occupancy
  Sc  Sc0  1  0.24088238  0.82426750  0.45009198  1
  Sc  Sc1  1  0.24088238  0.17573250  0.54990802  1
  Sc  Sc2  1  0.75911762  0.32426750  0.04990802  1
  Sc  Sc3  1  0.75911762  0.67573250  0.95009198  1
  Sc  Sc4  1  0.75911762  0.17573250  0.54990802  1
  Sc  Sc5  1  0.75911762  0.82426750  0.45009198  1
  Sc  Sc6  1  0.24088238  0.67573250  0.95009198  1
  Sc  Sc7  1  0.24088238  0.32426750  0.04990802  1
  Sc  Sc8  1  0.00000000  0.83549444  0.17835979  1
  Sc  Sc9  1  0.00000000  0.16450556  0.82164021  1
  Sc  Sc10  1  0.00000000  0.33549444  0.32164021  1
  Sc  Sc11  1  0.00000000  0.66450556  0.67835979  1
  Ge  Ge12  1  0.34492014  0.83920129  0.18023591  1
  Ge  Ge13  1  0.34492014  0.16079871  0.81976409  1
  Ge  Ge14  1  0.65507986  0.33920129  0.31976409  1
  Ge  Ge15  1  0.65507986  0.66079871  0.68023591  1
  Ge  Ge16  1  0.65507986  0.16079871  0.81976409  1
  Ge  Ge17  1  0.65507986  0.83920129  0.18023591  1
  Ge  Ge18  1  0.34492014  0.66079871  0.68023591  1
  Ge  Ge19  1  0.34492014  0.33920129  0.31976409  1
  Ge  Ge20  1  0.50000000  0.53732034  0.11714095  1
  Ge  Ge21  1  0.50000000  0.46267966  0.88285905  1
  Ge  Ge22  1  0.50000000  0.03732034  0.38285905  1
  Ge  Ge23  1  0.50000000  0.96267966  0.61714095  1
  Ge  Ge24  1  0.00000000  0.53674588  0.11750256  1
  Ge  Ge25  1  0.00000000  0.46325412  0.88249744  1
  Ge  Ge26  1  0.00000000  0.03674588  0.38249744  1
  Ge  Ge27  1  0.00000000  0.96325412  0.61750256  1
  Ge  Ge28  1  0.50000000  0.63026491  0.40446831  1
  Ge  Ge29  1  0.50000000  0.36973509  0.59553169  1
  Ge  Ge30  1  0.50000000  0.13026491  0.09553169  1
  Ge  Ge31  1  0.50000000  0.86973509  0.90446831  1
  Ge  Ge32  1  0.00000000  0.63273568  0.39833402  1
  Ge  Ge33  1  0.00000000  0.36726432  0.60166598  1
  Ge  Ge34  1  0.00000000  0.13273568  0.10166598  1
  Ge  Ge35  1  0.00000000  0.86726432  0.89833402  1
  Ru  Ru36  1  0.24915448  0.58885943  0.23818319  1
  Ru  Ru37  1  0.24915448  0.41114057  0.76181681  1
  Ru  Ru38  1  0.75084552  0.08885943  0.26181681  1
  Ru  Ru39  1  0.75084552  0.91114057  0.73818319  1
  Ru  Ru40  1  0.75084552  0.41114057  0.76181681  1
  Ru  Ru41  1  0.75084552  0.58885943  0.23818319  1
  Ru  Ru42  1  0.24915448  0.91114057  0.73818319  1
  Ru  Ru43  1  0.24915448  0.08885943  0.26181681  1
  Ru  Ru44  1  0.24632837  0.50000000  0.50000000  1
  Ru  Ru45  1  0.75367163  -0.00000000  -0.00000000  1
  Ru  Ru46  1  0.75367163  0.50000000  0.50000000  1
  Ru  Ru47  1  0.24632837  -0.00000000  -0.00000000  1
