# generated using pymatgen
data_Li9Mn2Co5O16
_symmetry_space_group_name_H-M   'P 1'
_cell_length_a   2.91262763
_cell_length_b   8.38254559
_cell_length_c   11.84784830
_cell_angle_alpha   89.56197692
_cell_angle_beta   90.00000000
_cell_angle_gamma   90.00000000
_symmetry_Int_Tables_number   1
_chemical_formula_structural   Li9Mn2Co5O16
_chemical_formula_sum   'Li9 Mn2 Co5 O16'
_cell_volume   289.25953423
_cell_formula_units_Z   1
loop_
 _symmetry_equiv_pos_site_id
 _symmetry_equiv_pos_as_xyz
  1  'x, y, z'
loop_
 _atom_site_type_symbol
 _atom_site_label
 _atom_site_symmetry_multiplicity
 _atom_site_fract_x
 _atom_site_fract_y
 _atom_site_fract_z
 _atom_site_occupancy
  Li  Li0  1  0.50000000  0.25576747  0.11859566  1
  Li  Li1  1  0.50000000  0.74927187  0.37803489  1
  Li  Li2  1  0.50000000  0.26442682  0.63570745  1
  Li  Li3  1  0.00000000  0.49951657  0.99427659  1
  Li  Li4  1  0.00000000  0.99540419  0.25443469  1
  Li  Li5  1  0.00000000  0.50482259  0.50658439  1
  Li  Li6  1  0.50000000  0.73433405  0.86775277  1
  Li  Li7  1  -0.00000000  0.99987622  0.74471533  1
  Li  Li8  1  0.00000000  0.49988509  0.74903298  1
  Mn  Mn9  1  -0.00000000  0.00364350  0.99861543  1
  Mn  Mn10  1  0.50000000  0.24813476  0.37464995  1
  Co  Co11  1  -0.00000000  0.50128725  0.24826038  1
  Co  Co12  1  0.00000000  0.99166385  0.50697757  1
  Co  Co13  1  0.50000000  0.27401615  0.86816081  1
  Co  Co14  1  0.50000000  0.74723437  0.12609352  1
  Co  Co15  1  0.50000000  0.72568050  0.63080115  1
  O  O16  1  0.50000000  0.99975956  0.11107625  1
  O  O17  1  0.50000000  0.47999204  0.36400895  1
  O  O18  1  0.50000000  0.00018959  0.61385590  1
  O  O19  1  -0.00000000  0.23114630  0.99586620  1
  O  O20  1  0.00000000  0.75416441  0.24106451  1
  O  O21  1  0.00000000  0.25037687  0.48382764  1
  O  O22  1  0.50000000  0.48686715  0.87973670  1
  O  O23  1  0.00000000  0.75480493  0.74040574  1
  O  O24  1  0.50000000  0.50665323  0.13272143  1
  O  O25  1  0.50000000  0.01600455  0.38342922  1
  O  O26  1  0.50000000  0.51125283  0.62212427  1
  O  O27  1  0.00000000  0.76686601  0.00877295  1
  O  O28  1  0.00000000  0.24212969  0.26433103  1
  O  O29  1  -0.00000000  0.75723133  0.50537707  1
  O  O30  1  0.50000000  0.00344203  0.89150305  1
  O  O31  1  0.00000000  0.24415424  0.75920553  1
