# generated using pymatgen
data_Ca2Al2Sn2O9
_symmetry_space_group_name_H-M   'P 1'
_cell_length_a   5.56153116
_cell_length_b   9.09950560
_cell_length_c   15.08608479
_cell_angle_alpha   90.00000000
_cell_angle_beta   90.00000000
_cell_angle_gamma   90.00000000
_symmetry_Int_Tables_number   1
_chemical_formula_structural   Ca2Al2Sn2O9
_chemical_formula_sum   'Ca8 Al8 Sn8 O36'
_cell_volume   763.46426783
_cell_formula_units_Z   4
loop_
 _symmetry_equiv_pos_site_id
 _symmetry_equiv_pos_as_xyz
  1  'x, y, z'
loop_
 _atom_site_type_symbol
 _atom_site_label
 _atom_site_symmetry_multiplicity
 _atom_site_fract_x
 _atom_site_fract_y
 _atom_site_fract_z
 _atom_site_occupancy
  Ca  Ca0  1  0.36230135  0.93269493  0.35423861  1
  Ca  Ca1  1  0.13769865  0.56730507  0.85423861  1
  Ca  Ca2  1  0.13769865  0.43269493  0.64576139  1
  Ca  Ca3  1  0.36230135  0.06730507  0.14576139  1
  Ca  Ca4  1  0.63769865  0.06730507  0.64576139  1
  Ca  Ca5  1  0.86230135  0.43269493  0.14576139  1
  Ca  Ca6  1  0.86230135  0.56730507  0.35423861  1
  Ca  Ca7  1  0.63769865  0.93269493  0.85423861  1
  Al  Al8  1  0.31004186  0.65668864  0.47161095  1
  Al  Al9  1  0.18995814  0.84331136  0.97161095  1
  Al  Al10  1  0.18995814  0.15668864  0.52838905  1
  Al  Al11  1  0.31004186  0.34331136  0.02838905  1
  Al  Al12  1  0.68995814  0.34331136  0.52838905  1
  Al  Al13  1  0.81004186  0.15668864  0.02838905  1
  Al  Al14  1  0.81004186  0.84331136  0.47161095  1
  Al  Al15  1  0.68995814  0.65668864  0.97161095  1
  Sn  Sn16  1  0.36605580  0.65514518  0.16593474  1
  Sn  Sn17  1  0.13394420  0.84485482  0.66593474  1
  Sn  Sn18  1  0.13394420  0.15514518  0.83406526  1
  Sn  Sn19  1  0.36605580  0.34485482  0.33406526  1
  Sn  Sn20  1  0.63394420  0.34485482  0.83406526  1
  Sn  Sn21  1  0.86605580  0.15514518  0.33406526  1
  Sn  Sn22  1  0.86605580  0.84485482  0.16593474  1
  Sn  Sn23  1  0.63394420  0.65514518  0.66593474  1
  O  O24  1  0.19241197  0.83909143  0.09043626  1
  O  O25  1  0.30758803  0.66090857  0.59043626  1
  O  O26  1  0.30758803  0.33909143  0.90956374  1
  O  O27  1  0.19241197  0.16090857  0.40956374  1
  O  O28  1  0.80758803  0.16090857  0.90956374  1
  O  O29  1  0.69241197  0.33909143  0.40956374  1
  O  O30  1  0.69241197  0.66090857  0.09043626  1
  O  O31  1  0.80758803  0.83909143  0.59043626  1
  O  O32  1  0.08040137  0.77209657  0.42842508  1
  O  O33  1  0.41959863  0.72790343  0.92842508  1
  O  O34  1  0.41959863  0.27209657  0.57157492  1
  O  O35  1  0.08040137  0.22790343  0.07157492  1
  O  O36  1  0.91959863  0.22790343  0.57157492  1
  O  O37  1  0.58040137  0.27209657  0.07157492  1
  O  O38  1  0.58040137  0.72790343  0.42842508  1
  O  O39  1  0.91959863  0.77209657  0.92842508  1
  O  O40  1  0.03529411  0.66720994  0.22819467  1
  O  O41  1  0.46470589  0.83279006  0.72819467  1
  O  O42  1  0.46470589  0.16720994  0.77180533  1
  O  O43  1  0.03529411  0.33279006  0.27180533  1
  O  O44  1  0.96470589  0.33279006  0.77180533  1
  O  O45  1  0.53529411  0.16720994  0.27180533  1
  O  O46  1  0.53529411  0.83279006  0.22819467  1
  O  O47  1  0.96470589  0.66720994  0.72819467  1
  O  O48  1  0.22848011  0.48557674  0.42644299  1
  O  O49  1  0.27151989  0.01442326  0.92644299  1
  O  O50  1  0.27151989  0.98557674  0.57355701  1
  O  O51  1  0.22848011  0.51442326  0.07355701  1
  O  O52  1  0.77151989  0.51442326  0.57355701  1
  O  O53  1  0.72848011  0.98557674  0.07355701  1
  O  O54  1  0.72848011  0.01442326  0.42644299  1
  O  O55  1  0.77151989  0.48557674  0.92644299  1
  O  O56  1  0.02850911  0.00000000  0.25000000  1
  O  O57  1  0.47149089  0.50000000  0.75000000  1
  O  O58  1  0.97149089  0.00000000  0.75000000  1
  O  O59  1  0.52850911  0.50000000  0.25000000  1
