# generated using pymatgen
data_Rb2AsH5O6
_symmetry_space_group_name_H-M   'P 1'
_cell_length_a   7.86155870
_cell_length_b   7.95176788
_cell_length_c   13.82312927
_cell_angle_alpha   90.00000000
_cell_angle_beta   90.00000000
_cell_angle_gamma   116.89722234
_symmetry_Int_Tables_number   1
_chemical_formula_structural   Rb2AsH5O6
_chemical_formula_sum   'Rb8 As4 H20 O24'
_cell_volume   770.64731684
_cell_formula_units_Z   4
loop_
 _symmetry_equiv_pos_site_id
 _symmetry_equiv_pos_as_xyz
  1  'x, y, z'
loop_
 _atom_site_type_symbol
 _atom_site_label
 _atom_site_symmetry_multiplicity
 _atom_site_fract_x
 _atom_site_fract_y
 _atom_site_fract_z
 _atom_site_occupancy
  Rb  Rb0  1  0.49467908  0.75192512  0.76312585  1
  Rb  Rb1  1  0.00532092  0.74807488  0.26312585  1
  Rb  Rb2  1  0.50532092  0.24807488  0.23687415  1
  Rb  Rb3  1  0.99467908  0.25192512  0.73687415  1
  Rb  Rb4  1  0.00626220  0.75440801  0.58330524  1
  Rb  Rb5  1  0.49373780  0.74559199  0.08330524  1
  Rb  Rb6  1  0.99373780  0.24559199  0.41669476  1
  Rb  Rb7  1  0.50626220  0.25440801  0.91669476  1
  As  As8  1  0.49510284  0.23799561  0.63994610  1
  As  As9  1  0.00489716  0.26200439  0.13994610  1
  As  As10  1  0.50489716  0.76200439  0.36005390  1
  As  As11  1  0.99510284  0.73799561  0.86005390  1
  H  H12  1  0.71505766  0.05144776  0.58978219  1
  H  H13  1  0.78494234  0.44855224  0.08978219  1
  H  H14  1  0.28494234  0.94855224  0.41021781  1
  H  H15  1  0.21505766  0.55144776  0.91021781  1
  H  H16  1  0.79224787  0.12285023  0.96486769  1
  H  H17  1  0.70775213  0.37714977  0.46486769  1
  H  H18  1  0.20775213  0.87714977  0.03513231  1
  H  H19  1  0.29224787  0.62285023  0.53513231  1
  H  H20  1  0.71106999  0.87273055  0.53689519  1
  H  H21  1  0.78893001  0.62726945  0.03689519  1
  H  H22  1  0.28893001  0.12726945  0.46310481  1
  H  H23  1  0.21106999  0.37273055  0.96310481  1
  H  H24  1  0.78767982  0.94306379  0.91131985  1
  H  H25  1  0.71232018  0.55693621  0.41131985  1
  H  H26  1  0.21232018  0.05693621  0.08868015  1
  H  H27  1  0.28767982  0.44306379  0.58868015  1
  H  H28  1  0.71806202  0.49243699  0.73468962  1
  H  H29  1  0.78193798  0.00756301  0.23468962  1
  H  H30  1  0.28193798  0.50756301  0.26531038  1
  H  H31  1  0.21806202  0.99243699  0.76531038  1
  O  O32  1  0.58215956  0.45314241  0.70740906  1
  O  O33  1  0.91784044  0.04685759  0.20740906  1
  O  O34  1  0.41784044  0.54685759  0.29259094  1
  O  O35  1  0.08215956  0.95314241  0.79259094  1
  O  O36  1  0.68255573  0.24676002  0.57328843  1
  O  O37  1  0.81744427  0.25323998  0.07328843  1
  O  O38  1  0.31744427  0.75323998  0.42671157  1
  O  O39  1  0.18255573  0.74676002  0.92671157  1
  O  O40  1  0.41961242  0.05908755  0.72330972  1
  O  O41  1  0.08038758  0.44091245  0.22330972  1
  O  O42  1  0.58038758  0.94091245  0.27669028  1
  O  O43  1  0.91961242  0.55908755  0.77669028  1
  O  O44  1  0.30827422  0.23402362  0.57487744  1
  O  O45  1  0.19172578  0.26597638  0.07487744  1
  O  O46  1  0.69172578  0.76597638  0.42512256  1
  O  O47  1  0.80827422  0.73402362  0.92512256  1
  O  O48  1  0.75392015  0.94827395  0.59799743  1
  O  O49  1  0.74607985  0.55172605  0.09799743  1
  O  O50  1  0.24607985  0.05172605  0.40200257  1
  O  O51  1  0.25392015  0.44827395  0.90200257  1
  O  O52  1  0.74679827  0.04459240  0.90487128  1
  O  O53  1  0.75320173  0.45540760  0.40487128  1
  O  O54  1  0.25320173  0.95540760  0.09512872  1
  O  O55  1  0.24679827  0.54459240  0.59512872  1
