# generated using pymatgen
data_Mg5Nb(BO4)3
_symmetry_space_group_name_H-M   'P 1'
_cell_length_a   9.43298423
_cell_length_b   9.47318014
_cell_length_c   9.56623787
_cell_angle_alpha   90.00000000
_cell_angle_beta   90.00000000
_cell_angle_gamma   90.00000000
_symmetry_Int_Tables_number   1
_chemical_formula_structural   Mg5Nb(BO4)3
_chemical_formula_sum   'Mg20 Nb4 B12 O48'
_cell_volume   854.84244909
_cell_formula_units_Z   4
loop_
 _symmetry_equiv_pos_site_id
 _symmetry_equiv_pos_as_xyz
  1  'x, y, z'
loop_
 _atom_site_type_symbol
 _atom_site_label
 _atom_site_symmetry_multiplicity
 _atom_site_fract_x
 _atom_site_fract_y
 _atom_site_fract_z
 _atom_site_occupancy
  Mg  Mg0  1  0.42734617  0.62542696  0.58427257  1
  Mg  Mg1  1  0.07265383  0.12542696  0.91572743  1
  Mg  Mg2  1  0.57265383  0.37457304  0.08427257  1
  Mg  Mg3  1  0.92734617  0.87457304  0.41572743  1
  Mg  Mg4  1  0.57265383  0.37457304  0.41572743  1
  Mg  Mg5  1  0.92734617  0.87457304  0.08427257  1
  Mg  Mg6  1  0.42734617  0.62542696  0.91572743  1
  Mg  Mg7  1  0.07265383  0.12542696  0.58427257  1
  Mg  Mg8  1  0.32124544  0.90171186  0.07595564  1
  Mg  Mg9  1  0.17875456  0.40171186  0.42404436  1
  Mg  Mg10  1  0.67875456  0.09828814  0.57595564  1
  Mg  Mg11  1  0.82124544  0.59828814  0.92404436  1
  Mg  Mg12  1  0.67875456  0.09828814  0.92404436  1
  Mg  Mg13  1  0.82124544  0.59828814  0.57595564  1
  Mg  Mg14  1  0.32124544  0.90171186  0.42404436  1
  Mg  Mg15  1  0.17875456  0.40171186  0.07595564  1
  Mg  Mg16  1  0.80860549  0.60149434  0.25000000  1
  Mg  Mg17  1  0.69139451  0.10149434  0.25000000  1
  Mg  Mg18  1  0.19139451  0.39850566  0.75000000  1
  Mg  Mg19  1  0.30860549  0.89850566  0.75000000  1
  Nb  Nb20  1  0.41265282  0.59756253  0.25000000  1
  Nb  Nb21  1  0.08734718  0.09756253  0.25000000  1
  Nb  Nb22  1  0.58734718  0.40243747  0.75000000  1
  Nb  Nb23  1  0.91265282  0.90243747  0.75000000  1
  B  B24  1  0.12938028  0.67819811  0.25000000  1
  B  B25  1  0.37061972  0.17819811  0.25000000  1
  B  B26  1  0.87061972  0.32180189  0.75000000  1
  B  B27  1  0.62938028  0.82180189  0.75000000  1
  B  B28  1  0.12652934  0.67311612  0.58850883  1
  B  B29  1  0.37347066  0.17311612  0.91149117  1
  B  B30  1  0.87347066  0.32688388  0.08850883  1
  B  B31  1  0.62652934  0.82688388  0.41149117  1
  B  B32  1  0.87347066  0.32688388  0.41149117  1
  B  B33  1  0.62652934  0.82688388  0.08850883  1
  B  B34  1  0.12652934  0.67311612  0.91149117  1
  B  B35  1  0.37347066  0.17311612  0.58850883  1
  O  O36  1  0.15989533  0.53592657  0.25000000  1
  O  O37  1  0.34010467  0.03592657  0.25000000  1
  O  O38  1  0.84010467  0.46407343  0.75000000  1
  O  O39  1  0.65989533  0.96407343  0.75000000  1
  O  O40  1  0.99714998  0.73593620  0.25000000  1
  O  O41  1  0.50285002  0.23593620  0.25000000  1
  O  O42  1  0.00285002  0.26406380  0.75000000  1
  O  O43  1  0.49714998  0.76406380  0.75000000  1
  O  O44  1  0.25457161  0.76147946  0.25000000  1
  O  O45  1  0.24542839  0.26147946  0.25000000  1
  O  O46  1  0.74542839  0.23852054  0.75000000  1
  O  O47  1  0.75457161  0.73852054  0.75000000  1
  O  O48  1  0.13052149  0.52891343  0.58827033  1
  O  O49  1  0.36947851  0.02891343  0.91172967  1
  O  O50  1  0.86947851  0.47108657  0.08827033  1
  O  O51  1  0.63052149  0.97108657  0.41172967  1
  O  O52  1  0.86947851  0.47108657  0.41172967  1
  O  O53  1  0.63052149  0.97108657  0.08827033  1
  O  O54  1  0.13052149  0.52891343  0.91172967  1
  O  O55  1  0.36947851  0.02891343  0.58827033  1
  O  O56  1  0.25075524  0.75250254  0.58352720  1
  O  O57  1  0.24924476  0.25250254  0.91647280  1
  O  O58  1  0.74924476  0.24749746  0.08352720  1
  O  O59  1  0.75075524  0.74749746  0.41647280  1
  O  O60  1  0.74924476  0.24749746  0.41647280  1
  O  O61  1  0.75075524  0.74749746  0.08352720  1
  O  O62  1  0.25075524  0.75250254  0.91647280  1
  O  O63  1  0.24924476  0.25250254  0.58352720  1
  O  O64  1  0.49301221  0.75863055  0.09167894  1
  O  O65  1  0.00698779  0.25863055  0.40832106  1
  O  O66  1  0.50698779  0.24136945  0.59167894  1
  O  O67  1  0.99301221  0.74136945  0.90832106  1
  O  O68  1  0.50698779  0.24136945  0.90832106  1
  O  O69  1  0.99301221  0.74136945  0.59167894  1
  O  O70  1  0.49301221  0.75863055  0.40832106  1
  O  O71  1  0.00698779  0.25863055  0.09167894  1
  O  O72  1  0.89587401  0.02011495  0.25000000  1
  O  O73  1  0.60412599  0.52011495  0.25000000  1
  O  O74  1  0.10412599  0.97988505  0.75000000  1
  O  O75  1  0.39587401  0.47988505  0.75000000  1
  O  O76  1  0.11910957  0.99080501  0.08334635  1
  O  O77  1  0.38089043  0.49080501  0.41665365  1
  O  O78  1  0.88089043  0.00919499  0.58334635  1
  O  O79  1  0.61910957  0.50919499  0.91665365  1
  O  O80  1  0.88089043  0.00919499  0.91665365  1
  O  O81  1  0.61910957  0.50919499  0.58334635  1
  O  O82  1  0.11910957  0.99080501  0.41665365  1
  O  O83  1  0.38089043  0.49080501  0.08334635  1
