# generated using pymatgen
data_KGa2NiP3(H2O7)2
_symmetry_space_group_name_H-M   'P 1'
_cell_length_a   8.46607096
_cell_length_b   8.46607096
_cell_length_c   8.89631461
_cell_angle_alpha   76.25126238
_cell_angle_beta   76.25126238
_cell_angle_gamma   74.80014481
_symmetry_Int_Tables_number   1
_chemical_formula_structural   KGa2NiP3(H2O7)2
_chemical_formula_sum   'K2 Ga4 Ni2 P6 H8 O28'
_cell_volume   587.14905254
_cell_formula_units_Z   2
loop_
 _symmetry_equiv_pos_site_id
 _symmetry_equiv_pos_as_xyz
  1  'x, y, z'
loop_
 _atom_site_type_symbol
 _atom_site_label
 _atom_site_symmetry_multiplicity
 _atom_site_fract_x
 _atom_site_fract_y
 _atom_site_fract_z
 _atom_site_occupancy
  K  K0  1  0.36616548  0.63383452  0.25000000  1
  K  K1  1  0.63383452  0.36616548  0.75000000  1
  Ga  Ga2  1  0.09777805  0.24728027  0.43063832  1
  Ga  Ga3  1  0.75271973  0.90222195  0.06936168  1
  Ga  Ga4  1  0.90222195  0.75271973  0.56936168  1
  Ga  Ga5  1  0.24728027  0.09777805  0.93063832  1
  Ni  Ni6  1  0.72780780  0.27219220  0.25000000  1
  Ni  Ni7  1  0.27219220  0.72780780  0.75000000  1
  P  P8  1  0.99819127  0.00180873  0.25000000  1
  P  P9  1  0.00180873  0.99819127  0.75000000  1
  P  P10  1  0.83593783  0.58020190  0.32012258  1
  P  P11  1  0.41979810  0.16406217  0.17987742  1
  P  P12  1  0.16406217  0.41979810  0.67987742  1
  P  P13  1  0.58020190  0.83593783  0.82012258  1
  H  H14  1  0.91338580  0.36315773  0.95242451  1
  H  H15  1  0.63684227  0.08661420  0.54757549  1
  H  H16  1  0.08661420  0.63684227  0.04757549  1
  H  H17  1  0.36315773  0.91338580  0.45242451  1
  H  H18  1  0.77148471  0.51042443  0.01478166  1
  H  H19  1  0.48957557  0.22851529  0.48521834  1
  H  H20  1  0.22851529  0.48957557  0.98521834  1
  H  H21  1  0.51042443  0.77148471  0.51478166  1
  O  O22  1  0.96860291  0.14943434  0.61599934  1
  O  O23  1  0.85056566  0.03139709  0.88400066  1
  O  O24  1  0.03139709  0.85056566  0.38400066  1
  O  O25  1  0.14943434  0.96860291  0.11599934  1
  O  O26  1  0.70133958  0.49556665  0.30997958  1
  O  O27  1  0.50443335  0.29866042  0.19002042  1
  O  O28  1  0.29866042  0.50443335  0.69002042  1
  O  O29  1  0.49556665  0.70133958  0.80997958  1
  O  O30  1  0.97257301  0.17113925  0.30256871  1
  O  O31  1  0.82886075  0.02742699  0.19743129  1
  O  O32  1  0.02742699  0.82886075  0.69743129  1
  O  O33  1  0.17113925  0.97257301  0.80256871  1
  O  O34  1  0.79866848  0.39014797  0.01384719  1
  O  O35  1  0.60985203  0.20133152  0.48615281  1
  O  O36  1  0.20133152  0.60985203  0.98615281  1
  O  O37  1  0.39014797  0.79866848  0.51384719  1
  O  O38  1  0.29700329  0.11607483  0.33848597  1
  O  O39  1  0.88392517  0.70299671  0.16151403  1
  O  O40  1  0.70299671  0.88392517  0.66151403  1
  O  O41  1  0.11607483  0.29700329  0.83848597  1
  O  O42  1  0.23229739  0.32377380  0.54062677  1
  O  O43  1  0.67622620  0.76770261  0.95937323  1
  O  O44  1  0.76770261  0.67622620  0.45937323  1
  O  O45  1  0.32377380  0.23229739  0.04062677  1
  O  O46  1  0.00880522  0.46388872  0.33819943  1
  O  O47  1  0.53611128  0.99119478  0.16180057  1
  O  O48  1  0.99119478  0.53611128  0.66180057  1
  O  O49  1  0.46388872  0.00880522  0.83819943  1
