# generated using pymatgen
data_Zn3H12C9O13
_symmetry_space_group_name_H-M   'P 1'
_cell_length_a   10.20505365
_cell_length_b   11.67695112
_cell_length_c   15.29655909
_cell_angle_alpha   88.48302622
_cell_angle_beta   90.00000000
_cell_angle_gamma   90.00000000
_symmetry_Int_Tables_number   1
_chemical_formula_structural   Zn3H12C9O13
_chemical_formula_sum   'Zn12 H48 C36 O52'
_cell_volume   1822.15898842
_cell_formula_units_Z   4
loop_
 _symmetry_equiv_pos_site_id
 _symmetry_equiv_pos_as_xyz
  1  'x, y, z'
loop_
 _atom_site_type_symbol
 _atom_site_label
 _atom_site_symmetry_multiplicity
 _atom_site_fract_x
 _atom_site_fract_y
 _atom_site_fract_z
 _atom_site_occupancy
  Zn  Zn0  1  0.57266524  0.25663133  0.36882081  1
  Zn  Zn1  1  0.07266524  0.24336867  0.13117919  1
  Zn  Zn2  1  0.42733476  0.74336867  0.63117919  1
  Zn  Zn3  1  0.92733476  0.75663133  0.86882081  1
  Zn  Zn4  1  0.38108684  0.24208393  0.19449986  1
  Zn  Zn5  1  0.88108684  0.25791607  0.30550014  1
  Zn  Zn6  1  0.61891316  0.75791607  0.80550014  1
  Zn  Zn7  1  0.11891316  0.74208393  0.69449986  1
  Zn  Zn8  1  0.50000000  -0.00000000  0.50000000  1
  Zn  Zn9  1  -0.00000000  0.50000000  -0.00000000  1
  Zn  Zn10  1  0.50000000  0.50000000  0.50000000  1
  Zn  Zn11  1  -0.00000000  -0.00000000  -0.00000000  1
  H  H12  1  0.73887064  0.35525539  0.13089082  1
  H  H13  1  0.23887064  0.14474461  0.36910918  1
  H  H14  1  0.26112936  0.64474461  0.86910918  1
  H  H15  1  0.76112936  0.85525539  0.63089082  1
  H  H16  1  0.45000704  0.97848979  0.23752147  1
  H  H17  1  0.95000704  0.52151021  0.26247853  1
  H  H18  1  0.54999296  0.02151021  0.76247853  1
  H  H19  1  0.04999296  0.47848979  0.73752147  1
  H  H20  1  0.88394418  0.06061495  0.45186509  1
  H  H21  1  0.38394418  0.43938505  0.04813491  1
  H  H22  1  0.11605582  0.93938505  0.54813491  1
  H  H23  1  0.61605582  0.56061495  0.95186509  1
  H  H24  1  0.29150412  0.47839553  0.27554155  1
  H  H25  1  0.79150412  0.02160447  0.22445845  1
  H  H26  1  0.70849588  0.52160447  0.72445845  1
  H  H27  1  0.20849588  0.97839553  0.77554155  1
  H  H28  1  0.33596898  0.19189283  0.57158523  1
  H  H29  1  0.83596898  0.30810717  0.92841477  1
  H  H30  1  0.66403102  0.80810717  0.42841477  1
  H  H31  1  0.16403102  0.69189283  0.07158523  1
  H  H32  1  0.79173728  0.50052332  0.47919444  1
  H  H33  1  0.29173728  0.99947668  0.02080556  1
  H  H34  1  0.20826272  0.49947668  0.52080556  1
  H  H35  1  0.70826272  0.00052332  0.97919444  1
  H  H36  1  0.94148052  0.65909517  0.37808963  1
  H  H37  1  0.44148052  0.84090483  0.12191037  1
  H  H38  1  0.05851948  0.34090483  0.62191037  1
  H  H39  1  0.55851948  0.15909517  0.87808963  1
  H  H40  1  0.11291798  0.67280260  0.39881530  1
  H  H41  1  0.61291798  0.82719740  0.10118470  1
  H  H42  1  0.88708202  0.32719740  0.60118470  1
  H  H43  1  0.38708202  0.17280260  0.89881530  1
  H  H44  1  0.99479386  0.74284803  0.46567997  1
  H  H45  1  0.49479386  0.75715197  0.03432003  1
  H  H46  1  0.00520614  0.25715197  0.53432003  1
  H  H47  1  0.50520614  0.24284803  0.96567997  1
  H  H48  1  0.11861867  0.92191891  0.23967039  1
  H  H49  1  0.61861867  0.57808109  0.26032961  1
  H  H50  1  0.88138133  0.07808109  0.76032961  1
  H  H51  1  0.38138133  0.42191891  0.73967039  1
  H  H52  1  0.21951013  0.86549753  0.32782796  1
  H  H53  1  0.71951013  0.63450247  0.17217204  1
  H  H54  1  0.78048987  0.13450247  0.67217204  1
  H  H55  1  0.28048987  0.36549753  0.82782796  1
  H  H56  1  0.16386509  0.77307720  0.24688468  1
  H  H57  1  0.66386509  0.72692280  0.25311532  1
  H  H58  1  0.83613491  0.22692280  0.75311532  1
  H  H59  1  0.33613491  0.27307720  0.74688468  1
  C  C60  1  0.01612289  0.82294567  0.33853942  1
  C  C61  1  0.51612289  0.67705433  0.16146058  1
  C  C62  1  0.98387711  0.17705433  0.66146058  1
  C  C63  1  0.48387711  0.32294567  0.83853942  1
  C  C64  1  0.01888164  0.71804370  0.39875382  1
  C  C65  1  0.51888164  0.78195630  0.10124618  1
  C  C66  1  0.98111836  0.28195630  0.60124618  1
  C  C67  1  0.48111836  0.21804370  0.89875382  1
  C  C68  1  0.13614748  0.84860757  0.28421364  1
  C  C69  1  0.63614748  0.65139243  0.21578636  1
  C  C70  1  0.86385252  0.15139243  0.71578636  1
  C  C71  1  0.36385252  0.34860757  0.78421364  1
  C  C72  1  0.66026328  0.32165589  0.17415019  1
  C  C73  1  0.16026328  0.17834411  0.32584981  1
  C  C74  1  0.33973672  0.67834411  0.82584981  1
  C  C75  1  0.83973672  0.82165589  0.67415019  1
  C  C76  1  0.47575013  0.02447264  0.29739322  1
  C  C77  1  0.97575013  0.47552736  0.20260678  1
  C  C78  1  0.52424987  0.97552736  0.70260678  1
  C  C79  1  0.02424987  0.52447264  0.79739322  1
  C  C80  1  0.77849966  0.08003113  0.44556038  1
  C  C81  1  0.27849966  0.41996887  0.05443962  1
  C  C82  1  0.22150034  0.91996887  0.55443962  1
  C  C83  1  0.72150034  0.58003113  0.94556038  1
  C  C84  1  0.36498653  0.44761136  0.32343016  1
  C  C85  1  0.86498653  0.05238864  0.17656984  1
  C  C86  1  0.63501347  0.55238864  0.67656984  1
  C  C87  1  0.13501347  0.94761136  0.82343016  1
  C  C88  1  0.40160736  0.24402094  0.52923514  1
  C  C89  1  0.90160736  0.25597906  0.97076486  1
  C  C90  1  0.59839264  0.75597906  0.47076486  1
  C  C91  1  0.09839264  0.74402094  0.02923514  1
  C  C92  1  0.77088654  0.42895894  0.43560083  1
  C  C93  1  0.27088654  0.07104106  0.06439917  1
  C  C94  1  0.22911346  0.57104106  0.56439917  1
  C  C95  1  0.72911346  0.92895894  0.93560083  1
  O  O96  1  0.91828295  0.88440686  0.33493578  1
  O  O97  1  0.41828295  0.61559314  0.16506422  1
  O  O98  1  0.08171705  0.11559314  0.66506422  1
  O  O99  1  0.58171705  0.38440686  0.83493578  1
  O  O100  1  0.69129879  0.30135462  0.25432703  1
  O  O101  1  0.19129879  0.19864538  0.24567297  1
  O  O102  1  0.30870121  0.69864538  0.74567297  1
  O  O103  1  0.80870121  0.80135462  0.75432703  1
  O  O104  1  0.54945945  0.30809363  0.13979221  1
  O  O105  1  0.04945945  0.19190637  0.36020779  1
  O  O106  1  0.45054055  0.69190637  0.86020779  1
  O  O107  1  0.95054055  0.80809363  0.63979221  1
  O  O108  1  0.48316351  0.13377135  0.28811755  1
  O  O109  1  0.98316351  0.36622865  0.21188245  1
  O  O110  1  0.51683649  0.86622865  0.71188245  1
  O  O111  1  0.01683649  0.63377135  0.78811755  1
  O  O112  1  0.49468317  0.96601680  0.36615596  1
  O  O113  1  0.99468317  0.53398320  0.13384404  1
  O  O114  1  0.50531683  0.03398320  0.63384404  1
  O  O115  1  0.00531683  0.46601680  0.86615596  1
  O  O116  1  0.74806529  0.15794908  0.38791632  1
  O  O117  1  0.24806529  0.34205092  0.11208368  1
  O  O118  1  0.25193471  0.84205092  0.61208368  1
  O  O119  1  0.75193471  0.65794908  0.88791632  1
  O  O120  1  0.70126341  0.02504790  0.49480143  1
  O  O121  1  0.20126341  0.47495210  0.00519857  1
  O  O122  1  0.29873659  0.97495210  0.50519857  1
  O  O123  1  0.79873659  0.52504790  0.99480143  1
  O  O124  1  0.41678002  0.34981465  0.30794039  1
  O  O125  1  0.91678002  0.15018535  0.19205961  1
  O  O126  1  0.58321998  0.65018535  0.69205961  1
  O  O127  1  0.08321998  0.84981465  0.80794039  1
  O  O128  1  0.38928305  0.51081069  0.38657900  1
  O  O129  1  0.88928305  0.98918931  0.11342100  1
  O  O130  1  0.61071695  0.48918931  0.61342100  1
  O  O131  1  0.11071695  0.01081069  0.88657900  1
  O  O132  1  0.47286976  0.18708943  0.47589872  1
  O  O133  1  0.97286976  0.31291057  0.02410128  1
  O  O134  1  0.52713024  0.81291057  0.52410128  1
  O  O135  1  0.02713024  0.68708943  0.97589872  1
  O  O136  1  0.39842993  0.35055409  0.53684990  1
  O  O137  1  0.89842993  0.14944591  0.96315010  1
  O  O138  1  0.60157007  0.64944591  0.46315010  1
  O  O139  1  0.10157007  0.85055409  0.03684990  1
  O  O140  1  0.65031034  0.39700013  0.43320738  1
  O  O141  1  0.15031034  0.10299987  0.06679262  1
  O  O142  1  0.34968966  0.60299987  0.56679262  1
  O  O143  1  0.84968966  0.89700013  0.93320738  1
  O  O144  1  0.86582423  0.38851602  0.39435215  1
  O  O145  1  0.36582423  0.11148398  0.10564785  1
  O  O146  1  0.13417577  0.61148398  0.60564785  1
  O  O147  1  0.63417577  0.88851602  0.89435215  1
