# generated using pymatgen
data_Sr2V3Se5O18
_symmetry_space_group_name_H-M   'P 1'
_cell_length_a   9.20445925
_cell_length_b   10.81885867
_cell_length_c   17.25973822
_cell_angle_alpha   90.00000000
_cell_angle_beta   90.00000000
_cell_angle_gamma   90.00000000
_symmetry_Int_Tables_number   1
_chemical_formula_structural   Sr2V3Se5O18
_chemical_formula_sum   'Sr8 V12 Se20 O72'
_cell_volume   1718.75482878
_cell_formula_units_Z   4
loop_
 _symmetry_equiv_pos_site_id
 _symmetry_equiv_pos_as_xyz
  1  'x, y, z'
loop_
 _atom_site_type_symbol
 _atom_site_label
 _atom_site_symmetry_multiplicity
 _atom_site_fract_x
 _atom_site_fract_y
 _atom_site_fract_z
 _atom_site_occupancy
  Sr  Sr0  1  0.14342391  0.25000000  0.28394454  1
  Sr  Sr1  1  0.35657609  0.25000000  0.78394454  1
  Sr  Sr2  1  0.85657609  0.75000000  0.71605546  1
  Sr  Sr3  1  0.64342391  0.75000000  0.21605546  1
  Sr  Sr4  1  0.11598283  0.75000000  0.30969933  1
  Sr  Sr5  1  0.38401717  0.75000000  0.80969933  1
  Sr  Sr6  1  0.88401717  0.25000000  0.69030067  1
  Sr  Sr7  1  0.61598283  0.25000000  0.19030067  1
  V  V8  1  0.46941469  0.00726210  0.33982361  1
  V  V9  1  0.03058531  0.49273790  0.83982361  1
  V  V10  1  0.53058531  0.50726210  0.66017639  1
  V  V11  1  0.96941469  0.99273790  0.16017639  1
  V  V12  1  0.53058531  0.99273790  0.66017639  1
  V  V13  1  0.96941469  0.50726210  0.16017639  1
  V  V14  1  0.46941469  0.49273790  0.33982361  1
  V  V15  1  0.03058531  0.00726210  0.83982361  1
  V  V16  1  0.02231469  0.25000000  0.48074375  1
  V  V17  1  0.47768531  0.25000000  0.98074375  1
  V  V18  1  0.97768531  0.75000000  0.51925625  1
  V  V19  1  0.52231469  0.75000000  0.01925625  1
  Se  Se20  1  0.18350126  0.98088239  0.45202525  1
  Se  Se21  1  0.31649874  0.51911761  0.95202525  1
  Se  Se22  1  0.81649874  0.48088239  0.54797475  1
  Se  Se23  1  0.68350126  0.01911761  0.04797475  1
  Se  Se24  1  0.81649874  0.01911761  0.54797475  1
  Se  Se25  1  0.68350126  0.48088239  0.04797475  1
  Se  Se26  1  0.18350126  0.51911761  0.45202525  1
  Se  Se27  1  0.31649874  0.98088239  0.95202525  1
  Se  Se28  1  0.32088090  0.98099813  0.18629641  1
  Se  Se29  1  0.17911910  0.51900187  0.68629641  1
  Se  Se30  1  0.67911910  0.48099813  0.81370359  1
  Se  Se31  1  0.82088090  0.01900187  0.31370359  1
  Se  Se32  1  0.67911910  0.01900187  0.81370359  1
  Se  Se33  1  0.82088090  0.48099813  0.31370359  1
  Se  Se34  1  0.32088090  0.51900187  0.18629641  1
  Se  Se35  1  0.17911910  0.98099813  0.68629641  1
  Se  Se36  1  0.60246560  0.75000000  0.43713777  1
  Se  Se37  1  0.89753440  0.75000000  0.93713777  1
  Se  Se38  1  0.39753440  0.25000000  0.56286223  1
  Se  Se39  1  0.10246560  0.25000000  0.06286223  1
  O  O40  1  0.28203822  0.91645455  0.37666771  1
  O  O41  1  0.21796178  0.58354545  0.87666771  1
  O  O42  1  0.71796178  0.41645455  0.62333229  1
  O  O43  1  0.78203822  0.08354545  0.12333229  1
  O  O44  1  0.71796178  0.08354545  0.62333229  1
  O  O45  1  0.78203822  0.41645455  0.12333229  1
  O  O46  1  0.28203822  0.58354545  0.37666771  1
  O  O47  1  0.21796178  0.91645455  0.87666771  1
  O  O48  1  0.03248187  0.88385070  0.43843886  1
  O  O49  1  0.46751813  0.61614930  0.93843886  1
  O  O50  1  0.96751813  0.38385070  0.56156114  1
  O  O51  1  0.53248187  0.11614930  0.06156114  1
  O  O52  1  0.96751813  0.11614930  0.56156114  1
  O  O53  1  0.53248187  0.38385070  0.06156114  1
  O  O54  1  0.03248187  0.61614930  0.43843886  1
  O  O55  1  0.46751813  0.88385070  0.93843886  1
  O  O56  1  0.11875998  0.11654316  0.41037319  1
  O  O57  1  0.38124002  0.38345684  0.91037319  1
  O  O58  1  0.88124002  0.61654316  0.58962681  1
  O  O59  1  0.61875998  0.88345684  0.08962681  1
  O  O60  1  0.88124002  0.88345684  0.58962681  1
  O  O61  1  0.61875998  0.61654316  0.08962681  1
  O  O62  1  0.11875998  0.38345684  0.41037319  1
  O  O63  1  0.38124002  0.11654316  0.91037319  1
  O  O64  1  0.42219139  0.88065484  0.24060417  1
  O  O65  1  0.07780861  0.61934516  0.74060417  1
  O  O66  1  0.57780861  0.38065484  0.75939583  1
  O  O67  1  0.92219139  0.11934516  0.25939583  1
  O  O68  1  0.57780861  0.11934516  0.75939583  1
  O  O69  1  0.92219139  0.38065484  0.25939583  1
  O  O70  1  0.42219139  0.61934516  0.24060417  1
  O  O71  1  0.07780861  0.88065484  0.74060417  1
  O  O72  1  0.35911058  0.10635538  0.24958498  1
  O  O73  1  0.14088942  0.39364462  0.74958498  1
  O  O74  1  0.64088942  0.60635538  0.75041502  1
  O  O75  1  0.85911058  0.89364462  0.25041502  1
  O  O76  1  0.64088942  0.89364462  0.75041502  1
  O  O77  1  0.85911058  0.60635538  0.25041502  1
  O  O78  1  0.35911058  0.39364462  0.24958498  1
  O  O79  1  0.14088942  0.10635538  0.74958498  1
  O  O80  1  0.14856193  0.93320034  0.21806973  1
  O  O81  1  0.35143807  0.56679966  0.71806973  1
  O  O82  1  0.85143807  0.43320034  0.78193027  1
  O  O83  1  0.64856193  0.06679966  0.28193027  1
  O  O84  1  0.85143807  0.06679966  0.78193027  1
  O  O85  1  0.64856193  0.43320034  0.28193027  1
  O  O86  1  0.14856193  0.56679966  0.21806973  1
  O  O87  1  0.35143807  0.93320034  0.71806973  1
  O  O88  1  0.60236244  0.86993613  0.36833534  1
  O  O89  1  0.89763756  0.63006387  0.86833534  1
  O  O90  1  0.39763756  0.36993613  0.63166466  1
  O  O91  1  0.10236244  0.13006387  0.13166466  1
  O  O92  1  0.39763756  0.13006387  0.63166466  1
  O  O93  1  0.10236244  0.36993613  0.13166466  1
  O  O94  1  0.60236244  0.63006387  0.36833534  1
  O  O95  1  0.89763756  0.86993613  0.86833534  1
  O  O96  1  0.78262655  0.75000000  0.45598693  1
  O  O97  1  0.71737345  0.75000000  0.95598693  1
  O  O98  1  0.21737345  0.25000000  0.54401307  1
  O  O99  1  0.28262655  0.25000000  0.04401307  1
  O  O100  1  0.46248053  0.10642256  0.41195346  1
  O  O101  1  0.03751947  0.39357744  0.91195346  1
  O  O102  1  0.53751947  0.60642256  0.58804654  1
  O  O103  1  0.96248053  0.89357744  0.08804654  1
  O  O104  1  0.53751947  0.89357744  0.58804654  1
  O  O105  1  0.96248053  0.60642256  0.08804654  1
  O  O106  1  0.46248053  0.39357744  0.41195346  1
  O  O107  1  0.03751947  0.10642256  0.91195346  1
  O  O108  1  0.86670373  0.25000000  0.43210907  1
  O  O109  1  0.63329627  0.25000000  0.93210907  1
  O  O110  1  0.13329627  0.75000000  0.56789093  1
  O  O111  1  0.36670373  0.75000000  0.06789093  1
