# generated using pymatgen
data_Cs6Dy21S34Cl
_symmetry_space_group_name_H-M   'P 1'
_cell_length_a   13.11414786
_cell_length_b   13.11414786
_cell_length_c   13.12066574
_cell_angle_alpha   114.43172158
_cell_angle_beta   114.43172158
_cell_angle_gamma   97.28602901
_symmetry_Int_Tables_number   1
_chemical_formula_structural   Cs6Dy21S34Cl
_chemical_formula_sum   'Cs6 Dy21 S34 Cl1'
_cell_volume   1745.51928149
_cell_formula_units_Z   1
loop_
 _symmetry_equiv_pos_site_id
 _symmetry_equiv_pos_as_xyz
  1  'x, y, z'
loop_
 _atom_site_type_symbol
 _atom_site_label
 _atom_site_symmetry_multiplicity
 _atom_site_fract_x
 _atom_site_fract_y
 _atom_site_fract_z
 _atom_site_occupancy
  Cs  Cs0  1  0.05135600  0.80550342  0.27029756  1
  Cs  Cs1  1  0.80550342  0.05135600  0.27029756  1
  Cs  Cs2  1  0.94864400  0.19449658  0.72970244  1
  Cs  Cs3  1  0.19449658  0.94864400  0.72970244  1
  Cs  Cs4  1  0.76835483  0.76835483  0.41557921  1
  Cs  Cs5  1  0.23164517  0.23164517  0.58442079  1
  Dy  Dy6  1  0.69844100  0.30155900  0.00000000  1
  Dy  Dy7  1  0.30155900  0.69844100  0.00000000  1
  Dy  Dy8  1  0.04531183  0.46300976  0.24859798  1
  Dy  Dy9  1  0.46300976  0.04531183  0.24859798  1
  Dy  Dy10  1  0.95468817  0.53699024  0.75140202  1
  Dy  Dy11  1  0.53699024  0.95468817  0.75140202  1
  Dy  Dy12  1  0.82843879  0.42752483  0.37677793  1
  Dy  Dy13  1  0.42752483  0.82843879  0.37677793  1
  Dy  Dy14  1  0.17156121  0.57247517  0.62322207  1
  Dy  Dy15  1  0.57247517  0.17156121  0.62322207  1
  Dy  Dy16  1  0.90042053  0.09957947  -0.00000000  1
  Dy  Dy17  1  0.09957947  0.90042053  0.00000000  1
  Dy  Dy18  1  0.26139773  0.46554460  0.10669091  1
  Dy  Dy19  1  0.46554460  0.26139773  0.10669091  1
  Dy  Dy20  1  0.73860227  0.53445540  0.89330909  1
  Dy  Dy21  1  0.53445540  0.73860227  0.89330909  1
  Dy  Dy22  1  0.39968649  0.60031351  0.50000000  1
  Dy  Dy23  1  0.60031351  0.39968649  0.50000000  1
  Dy  Dy24  1  0.50000000  0.50000000  0.00000000  1
  Dy  Dy25  1  0.24361411  0.24361411  0.25683523  1
  Dy  Dy26  1  0.75638589  0.75638589  0.74316477  1
  S  S27  1  0.68243309  0.68243309  0.05828551  1
  S  S28  1  0.31756691  0.31756691  0.94171449  1
  S  S29  1  0.05889341  0.05889341  0.17886928  1
  S  S30  1  0.94110659  0.94110659  0.82113072  1
  S  S31  1  0.08933776  0.29001568  0.07730257  1
  S  S32  1  0.29001568  0.08933776  0.07730257  1
  S  S33  1  0.91066224  0.70998432  0.92269743  1
  S  S34  1  0.70998432  0.91066224  0.92269743  1
  S  S35  1  0.88133822  0.48572290  0.06385346  1
  S  S36  1  0.48572290  0.88133822  0.06385346  1
  S  S37  1  0.11866178  0.51427710  0.93614654  1
  S  S38  1  0.51427710  0.11866178  0.93614654  1
  S  S39  1  0.86692801  0.27345165  0.18559213  1
  S  S40  1  0.27345165  0.86692801  0.18559213  1
  S  S41  1  0.13307199  0.72654835  0.81440787  1
  S  S42  1  0.72654835  0.13307199  0.81440787  1
  S  S43  1  0.24581450  0.63231637  0.31058775  1
  S  S44  1  0.63231637  0.24581450  0.31058775  1
  S  S45  1  0.75418550  0.36768363  0.68941225  1
  S  S46  1  0.36768363  0.75418550  0.68941225  1
  S  S47  1  0.01295654  0.60788534  0.44203348  1
  S  S48  1  0.60788534  0.01295654  0.44203348  1
  S  S49  1  0.98704346  0.39211466  0.55796652  1
  S  S50  1  0.39211466  0.98704346  0.55796652  1
  S  S51  1  0.21329999  0.42237783  0.43664369  1
  S  S52  1  0.42237783  0.21329999  0.43664369  1
  S  S53  1  0.78670001  0.57762217  0.56335631  1
  S  S54  1  0.57762217  0.78670001  0.56335631  1
  S  S55  1  0.65099356  0.44983587  0.18075720  1
  S  S56  1  0.44983587  0.65099356  0.18075720  1
  S  S57  1  0.34900644  0.55016413  0.81924280  1
  S  S58  1  0.55016413  0.34900644  0.81924280  1
  S  S59  1  0.42553774  0.42553774  0.30778318  1
  S  S60  1  0.57446226  0.57446226  0.69221682  1
  Cl  Cl61  1  -0.00000000  -0.00000000  0.50000000  1
