# generated using pymatgen
data_Ba4NaAl2B8(BrO6)3
_symmetry_space_group_name_H-M   'P 1'
_cell_length_a   6.96744972
_cell_length_b   12.34446733
_cell_length_c   12.34446733
_cell_angle_alpha   90.00000000
_cell_angle_beta   90.00000000
_cell_angle_gamma   90.00000000
_symmetry_Int_Tables_number   1
_chemical_formula_structural   Ba4NaAl2B8(BrO6)3
_chemical_formula_sum   'Ba8 Na2 Al4 B16 Br6 O36'
_cell_volume   1061.74091277
_cell_formula_units_Z   2
loop_
 _symmetry_equiv_pos_site_id
 _symmetry_equiv_pos_as_xyz
  1  'x, y, z'
loop_
 _atom_site_type_symbol
 _atom_site_label
 _atom_site_symmetry_multiplicity
 _atom_site_fract_x
 _atom_site_fract_y
 _atom_site_fract_z
 _atom_site_occupancy
  Ba  Ba0  1  0.99035860  0.72582867  0.01752050  1
  Ba  Ba1  1  0.99035860  0.27417133  0.98247950  1
  Ba  Ba2  1  0.49035860  0.22582867  0.48247950  1
  Ba  Ba3  1  0.49035860  0.77417133  0.51752050  1
  Ba  Ba4  1  0.99035860  0.98247950  0.27417133  1
  Ba  Ba5  1  0.99035860  0.01752050  0.72582867  1
  Ba  Ba6  1  0.49035860  0.48247950  0.22582867  1
  Ba  Ba7  1  0.49035860  0.51752050  0.77417133  1
  Na  Na8  1  0.33754956  -0.00000000  -0.00000000  1
  Na  Na9  1  0.83754956  0.50000000  0.50000000  1
  Al  Al10  1  0.99830311  0.70131862  0.70131862  1
  Al  Al11  1  0.99830311  0.29868138  0.29868138  1
  Al  Al12  1  0.49830311  0.20131862  0.79868138  1
  Al  Al13  1  0.49830311  0.79868138  0.20131862  1
  B  B14  1  0.52821219  0.76824094  0.96473557  1
  B  B15  1  0.52821219  0.23175906  0.03526443  1
  B  B16  1  0.02821219  0.26824094  0.53526443  1
  B  B17  1  0.02821219  0.73175906  0.46473557  1
  B  B18  1  0.52821219  0.03526443  0.23175906  1
  B  B19  1  0.52821219  0.96473557  0.76824094  1
  B  B20  1  0.02821219  0.53526443  0.26824094  1
  B  B21  1  0.02821219  0.46473557  0.73175906  1
  B  B22  1  0.29499789  0.81460276  0.81460276  1
  B  B23  1  0.29499789  0.18539724  0.18539724  1
  B  B24  1  0.79499789  0.31460276  0.68539724  1
  B  B25  1  0.79499789  0.68539724  0.31460276  1
  B  B26  1  0.62554846  0.76796198  0.76796198  1
  B  B27  1  0.62554846  0.23203802  0.23203802  1
  B  B28  1  0.12554846  0.26796198  0.73203802  1
  B  B29  1  0.12554846  0.73203802  0.26796198  1
  Br  Br30  1  0.91447459  -0.00000000  -0.00000000  1
  Br  Br31  1  0.41447459  0.50000000  0.50000000  1
  Br  Br32  1  0.75859686  0.50000000  0.00000000  1
  Br  Br33  1  0.25859686  -0.00000000  0.50000000  1
  Br  Br34  1  0.75859686  -0.00000000  0.50000000  1
  Br  Br35  1  0.25859686  0.50000000  -0.00000000  1
  O  O36  1  0.74282526  0.69997021  0.69997021  1
  O  O37  1  0.74282526  0.30002979  0.30002979  1
  O  O38  1  0.24282526  0.19997021  0.80002979  1
  O  O39  1  0.24282526  0.80002979  0.19997021  1
  O  O40  1  0.08482300  0.73457592  0.57033120  1
  O  O41  1  0.08482300  0.26542408  0.42966880  1
  O  O42  1  0.58482300  0.23457592  0.92966880  1
  O  O43  1  0.58482300  0.76542408  0.07033120  1
  O  O44  1  0.08482300  0.42966880  0.26542408  1
  O  O45  1  0.08482300  0.57033120  0.73457592  1
  O  O46  1  0.58482300  0.92966880  0.23457592  1
  O  O47  1  0.58482300  0.07033120  0.76542408  1
  O  O48  1  0.09369560  0.79582669  0.79582669  1
  O  O49  1  0.09369560  0.20417331  0.20417331  1
  O  O50  1  0.59369560  0.29582669  0.70417331  1
  O  O51  1  0.59369560  0.70417331  0.29582669  1
  O  O52  1  0.34248421  0.79784638  0.93495767  1
  O  O53  1  0.34248421  0.20215362  0.06504233  1
  O  O54  1  0.84248421  0.29784638  0.56504233  1
  O  O55  1  0.84248421  0.70215362  0.43495767  1
  O  O56  1  0.34248421  0.06504233  0.20215362  1
  O  O57  1  0.34248421  0.93495767  0.79784638  1
  O  O58  1  0.84248421  0.56504233  0.29784638  1
  O  O59  1  0.84248421  0.43495767  0.70215362  1
  O  O60  1  0.41951374  0.74650923  0.74650923  1
  O  O61  1  0.41951374  0.25349077  0.25349077  1
  O  O62  1  0.91951374  0.24650923  0.75349077  1
  O  O63  1  0.91951374  0.75349077  0.24650923  1
  O  O64  1  0.66430049  0.74531600  0.88585243  1
  O  O65  1  0.66430049  0.25468400  0.11414757  1
  O  O66  1  0.16430049  0.24531600  0.61414757  1
  O  O67  1  0.16430049  0.75468400  0.38585243  1
  O  O68  1  0.66430049  0.11414757  0.25468400  1
  O  O69  1  0.66430049  0.88585243  0.74531600  1
  O  O70  1  0.16430049  0.61414757  0.24531600  1
  O  O71  1  0.16430049  0.38585243  0.75468400  1
