# generated using pymatgen
data_Li2Sm5Sn7
_symmetry_space_group_name_H-M   'P 1'
_cell_length_a   6.21170992
_cell_length_b   13.72841638
_cell_length_c   17.30719556
_cell_angle_alpha   90.00000000
_cell_angle_beta   90.00000000
_cell_angle_gamma   90.00000000
_symmetry_Int_Tables_number   1
_chemical_formula_structural   Li2Sm5Sn7
_chemical_formula_sum   'Li8 Sm20 Sn28'
_cell_volume   1475.90468103
_cell_formula_units_Z   4
loop_
 _symmetry_equiv_pos_site_id
 _symmetry_equiv_pos_as_xyz
  1  'x, y, z'
loop_
 _atom_site_type_symbol
 _atom_site_label
 _atom_site_symmetry_multiplicity
 _atom_site_fract_x
 _atom_site_fract_y
 _atom_site_fract_z
 _atom_site_occupancy
  Li  Li0  1  0.11013764  0.73106378  0.72841246  1
  Li  Li1  1  0.38986236  0.26893622  0.22841246  1
  Li  Li2  1  0.61013764  0.76893622  0.27158754  1
  Li  Li3  1  0.88986236  0.23106378  0.77158754  1
  Li  Li4  1  0.42347872  0.26923041  0.51993832  1
  Li  Li5  1  0.07652128  0.73076959  0.01993832  1
  Li  Li6  1  0.92347872  0.23076959  0.48006168  1
  Li  Li7  1  0.57652128  0.76923041  0.98006168  1
  Sm  Sm8  1  0.14445358  0.00156282  0.76401880  1
  Sm  Sm9  1  0.35554642  0.99843718  0.26401880  1
  Sm  Sm10  1  0.64445358  0.49843718  0.23598120  1
  Sm  Sm11  1  0.85554642  0.50156282  0.73598120  1
  Sm  Sm12  1  0.35541637  0.31958998  0.04070883  1
  Sm  Sm13  1  0.14458363  0.68041002  0.54070883  1
  Sm  Sm14  1  0.85541637  0.18041002  0.95929117  1
  Sm  Sm15  1  0.64458363  0.81958998  0.45929117  1
  Sm  Sm16  1  0.36196414  0.32379916  0.71727775  1
  Sm  Sm17  1  0.13803586  0.67620084  0.21727775  1
  Sm  Sm18  1  0.86196414  0.17620084  0.28272225  1
  Sm  Sm19  1  0.63803586  0.82379916  0.78272225  1
  Sm  Sm20  1  0.64064195  0.49743659  0.51729923  1
  Sm  Sm21  1  0.85935805  0.50256341  0.01729923  1
  Sm  Sm22  1  0.14064195  0.00256341  0.48270077  1
  Sm  Sm23  1  0.35935805  0.99743659  0.98270077  1
  Sm  Sm24  1  0.65160119  0.07528616  0.62328386  1
  Sm  Sm25  1  0.84839881  0.92471384  0.12328386  1
  Sm  Sm26  1  0.15160119  0.42471384  0.37671614  1
  Sm  Sm27  1  0.34839881  0.57528616  0.87671614  1
  Sn  Sn28  1  0.09268969  0.37937034  0.87895919  1
  Sn  Sn29  1  0.40731031  0.62062966  0.37895919  1
  Sn  Sn30  1  0.59268969  0.12062966  0.12104081  1
  Sn  Sn31  1  0.90731031  0.87937034  0.62104081  1
  Sn  Sn32  1  0.13856697  0.15054070  0.62285397  1
  Sn  Sn33  1  0.36143303  0.84945930  0.12285397  1
  Sn  Sn34  1  0.63856697  0.34945930  0.37714603  1
  Sn  Sn35  1  0.86143303  0.65054070  0.87714603  1
  Sn  Sn36  1  0.13859440  0.43684835  0.56498160  1
  Sn  Sn37  1  0.36140560  0.56315165  0.06498160  1
  Sn  Sn38  1  0.63859440  0.06315165  0.43501840  1
  Sn  Sn39  1  0.86140560  0.93684835  0.93501840  1
  Sn  Sn40  1  0.15188122  0.44387605  0.18836877  1
  Sn  Sn41  1  0.34811878  0.55612395  0.68836877  1
  Sn  Sn42  1  0.65188122  0.05612395  0.81163123  1
  Sn  Sn43  1  0.84811878  0.94387605  0.31163123  1
  Sn  Sn44  1  0.20129428  0.80948626  0.87156861  1
  Sn  Sn45  1  0.29870572  0.19051374  0.37156861  1
  Sn  Sn46  1  0.70129428  0.69051374  0.12843139  1
  Sn  Sn47  1  0.79870572  0.30948626  0.62843139  1
  Sn  Sn48  1  0.32278001  0.18663592  0.87799746  1
  Sn  Sn49  1  0.17721999  0.81336408  0.37799746  1
  Sn  Sn50  1  0.82278001  0.31336408  0.12200254  1
  Sn  Sn51  1  0.67721999  0.68663592  0.62200254  1
  Sn  Sn52  1  0.61013851  0.37364119  0.87909511  1
  Sn  Sn53  1  0.88986149  0.62635881  0.37909511  1
  Sn  Sn54  1  0.11013851  0.12635881  0.12090489  1
  Sn  Sn55  1  0.38986149  0.87364119  0.62090489  1
