# generated using pymatgen
data_Li15Pd4
_symmetry_space_group_name_H-M   'P 1'
_cell_length_a   9.20005015
_cell_length_b   9.20005015
_cell_length_c   9.20005015
_cell_angle_alpha   109.47122063
_cell_angle_beta   109.47122063
_cell_angle_gamma   109.47122063
_symmetry_Int_Tables_number   1
_chemical_formula_structural   Li15Pd4
_chemical_formula_sum   'Li30 Pd8'
_cell_volume   599.44410442
_cell_formula_units_Z   2
loop_
 _symmetry_equiv_pos_site_id
 _symmetry_equiv_pos_as_xyz
  1  'x, y, z'
loop_
 _atom_site_type_symbol
 _atom_site_label
 _atom_site_symmetry_multiplicity
 _atom_site_fract_x
 _atom_site_fract_y
 _atom_site_fract_z
 _atom_site_occupancy
  Li  Li0  1  0.37500000  0.75000000  0.62500000  1
  Li  Li1  1  0.12500000  0.25000000  0.87500000  1
  Li  Li2  1  0.75000000  0.62500000  0.37500000  1
  Li  Li3  1  0.25000000  0.87500000  0.12500000  1
  Li  Li4  1  0.62500000  0.37500000  0.75000000  1
  Li  Li5  1  0.87500000  0.12500000  0.25000000  1
  Li  Li6  1  0.27649994  0.19565558  0.65639516  1
  Li  Li7  1  0.96073958  0.30434442  0.08084436  1
  Li  Li8  1  0.53926042  0.12010479  0.84360484  1
  Li  Li9  1  0.22350006  0.37989521  0.41915564  1
  Li  Li10  1  0.15639516  0.69565558  0.77649994  1
  Li  Li11  1  0.58084436  0.80434442  0.46073958  1
  Li  Li12  1  0.34360484  0.62010479  0.03926042  1
  Li  Li13  1  0.91915564  0.87989521  0.72350006  1
  Li  Li14  1  0.19565558  0.65639516  0.27649994  1
  Li  Li15  1  0.30434442  0.08084436  0.96073958  1
  Li  Li16  1  0.12010479  0.84360484  0.53926042  1
  Li  Li17  1  0.37989521  0.41915564  0.22350006  1
  Li  Li18  1  0.69565558  0.77649994  0.15639516  1
  Li  Li19  1  0.80434442  0.46073958  0.58084436  1
  Li  Li20  1  0.62010479  0.03926042  0.34360484  1
  Li  Li21  1  0.87989521  0.72350006  0.91915564  1
  Li  Li22  1  0.65639516  0.27649994  0.19565558  1
  Li  Li23  1  0.08084436  0.96073958  0.30434442  1
  Li  Li24  1  0.84360484  0.53926042  0.12010479  1
  Li  Li25  1  0.41915564  0.22350006  0.37989521  1
  Li  Li26  1  0.77649994  0.15639516  0.69565558  1
  Li  Li27  1  0.46073958  0.58084436  0.80434442  1
  Li  Li28  1  0.03926042  0.34360484  0.62010479  1
  Li  Li29  1  0.72350006  0.91915564  0.87989521  1
  Pd  Pd30  1  0.41493204  -0.00000000  0.50000000  1
  Pd  Pd31  1  -0.00000000  0.50000000  0.41493204  1
  Pd  Pd32  1  0.50000000  0.41493204  0.00000000  1
  Pd  Pd33  1  0.08506796  0.08506796  0.08506796  1
  Pd  Pd34  1  -0.00000000  0.50000000  0.91493204  1
  Pd  Pd35  1  0.91493204  0.00000000  0.50000000  1
  Pd  Pd36  1  0.50000000  0.91493204  -0.00000000  1
  Pd  Pd37  1  0.58506796  0.58506796  0.58506796  1
