# generated using pymatgen
data_Li9Mn2Co5O16
_symmetry_space_group_name_H-M   'P 1'
_cell_length_a   2.89641197
_cell_length_b   10.30442288
_cell_length_c   9.80303108
_cell_angle_alpha   98.98082538
_cell_angle_beta   90.00000000
_cell_angle_gamma   90.00000000
_symmetry_Int_Tables_number   1
_chemical_formula_structural   Li9Mn2Co5O16
_chemical_formula_sum   'Li9 Mn2 Co5 O16'
_cell_volume   288.99298984
_cell_formula_units_Z   1
loop_
 _symmetry_equiv_pos_site_id
 _symmetry_equiv_pos_as_xyz
  1  'x, y, z'
loop_
 _atom_site_type_symbol
 _atom_site_label
 _atom_site_symmetry_multiplicity
 _atom_site_fract_x
 _atom_site_fract_y
 _atom_site_fract_z
 _atom_site_occupancy
  Li  Li0  1  0.50000000  0.12689398  0.26116815  1
  Li  Li1  1  0.50000000  0.37993593  0.74120824  1
  Li  Li2  1  0.50000000  0.62372807  0.25621681  1
  Li  Li3  1  -0.00000000  0.39647624  0.26411355  1
  Li  Li4  1  -0.00000000  0.61176161  0.73394916  1
  Li  Li5  1  0.00000000  0.87016751  0.25919273  1
  Li  Li6  1  0.50000000  0.87047279  0.73407173  1
  Li  Li7  1  -0.00000000  0.12566929  0.74492001  1
  Li  Li8  1  0.50000000  0.49989568  0.50369417  1
  Mn  Mn9  1  0.00000000  0.00053588  0.00139052  1
  Mn  Mn10  1  0.00000000  0.25792933  0.50343584  1
  Co  Co11  1  0.00000000  0.49871652  0.99836765  1
  Co  Co12  1  -0.00000000  0.72917161  0.49214539  1
  Co  Co13  1  0.50000000  0.74752473  0.99736977  1
  Co  Co14  1  0.50000000  0.99490439  0.50064320  1
  Co  Co15  1  0.50000000  0.25261796  0.00243447  1
  O  O16  1  0.50000000  0.95009324  0.11501070  1
  O  O17  1  0.50000000  0.19122666  0.61223768  1
  O  O18  1  0.50000000  0.44165233  0.11716619  1
  O  O19  1  0.00000000  0.17822981  0.10404795  1
  O  O20  1  -0.00000000  0.41865840  0.61500993  1
  O  O21  1  -0.00000000  0.69172553  0.10623669  1
  O  O22  1  0.50000000  0.69395469  0.62007547  1
  O  O23  1  -0.00000000  0.94444335  0.61722516  1
  O  O24  1  0.50000000  0.30385697  0.38704338  1
  O  O25  1  0.50000000  0.55877377  0.88266474  1
  O  O26  1  0.50000000  0.81742071  0.38410032  1
  O  O27  1  -0.00000000  0.57413074  0.37749361  1
  O  O28  1  -0.00000000  0.82052185  0.89925581  1
  O  O29  1  -0.00000000  0.07050447  0.39073540  1
  O  O30  1  0.50000000  0.04952279  0.88662832  1
  O  O31  1  0.00000000  0.30888315  0.89074727  1
