# generated using pymatgen
data_K3As(PSe3)3
_symmetry_space_group_name_H-M   'P 1'
_cell_length_a   8.29782400
_cell_length_b   10.32641835
_cell_length_c   23.86420283
_cell_angle_alpha   90.00000000
_cell_angle_beta   90.00000000
_cell_angle_gamma   96.86209783
_symmetry_Int_Tables_number   1
_chemical_formula_structural   K3As(PSe3)3
_chemical_formula_sum   'K12 As4 P12 Se36'
_cell_volume   2030.19916017
_cell_formula_units_Z   4
loop_
 _symmetry_equiv_pos_site_id
 _symmetry_equiv_pos_as_xyz
  1  'x, y, z'
loop_
 _atom_site_type_symbol
 _atom_site_label
 _atom_site_symmetry_multiplicity
 _atom_site_fract_x
 _atom_site_fract_y
 _atom_site_fract_z
 _atom_site_occupancy
  K  K0  1  0.38009422  0.27929076  0.16674613  1
  K  K1  1  0.11990578  0.22070924  0.66674613  1
  K  K2  1  0.61990578  0.72070924  0.83325387  1
  K  K3  1  0.88009422  0.77929076  0.33325387  1
  K  K4  1  0.88111078  0.25331133  0.30909281  1
  K  K5  1  0.61888922  0.24668867  0.80909281  1
  K  K6  1  0.11888922  0.74668867  0.69090719  1
  K  K7  1  0.38111078  0.75331133  0.19090719  1
  K  K8  1  0.88929767  0.23068514  0.02573180  1
  K  K9  1  0.61070233  0.26931486  0.52573180  1
  K  K10  1  0.11070233  0.76931486  0.97426820  1
  K  K11  1  0.38929767  0.73068514  0.47426820  1
  As  As12  1  0.30730876  0.27011446  0.42332769  1
  As  As13  1  0.19269124  0.22988554  0.92332769  1
  As  As14  1  0.69269124  0.72988554  0.57667231  1
  As  As15  1  0.80730876  0.77011446  0.07667231  1
  P  P16  1  0.52749065  0.47159594  0.33430463  1
  P  P17  1  0.97250935  0.02840406  0.83430463  1
  P  P18  1  0.47250935  0.52840406  0.66569537  1
  P  P19  1  0.02749065  0.97159594  0.16569537  1
  P  P20  1  0.54131661  0.41944374  0.97262635  1
  P  P21  1  0.95868339  0.08055626  0.47262635  1
  P  P22  1  0.45868339  0.58055626  0.02737365  1
  P  P23  1  0.04131661  0.91944374  0.52737365  1
  P  P24  1  0.71971029  0.45227038  0.67396989  1
  P  P25  1  0.78028971  0.04772962  0.17396989  1
  P  P26  1  0.28028971  0.54772962  0.32603011  1
  P  P27  1  0.21971029  0.95227038  0.82603011  1
  Se  Se28  1  0.13100818  0.07307216  0.39700971  1
  Se  Se29  1  0.36899182  0.42692784  0.89700971  1
  Se  Se30  1  0.86899182  0.92692784  0.60299029  1
  Se  Se31  1  0.63100818  0.57307216  0.10299029  1
  Se  Se32  1  0.13852179  0.02312814  0.08479496  1
  Se  Se33  1  0.36147821  0.47687186  0.58479496  1
  Se  Se34  1  0.86147821  0.97687186  0.91520504  1
  Se  Se35  1  0.63852179  0.52312814  0.41520504  1
  Se  Se36  1  0.16592877  0.02558212  0.24035976  1
  Se  Se37  1  0.33407123  0.47441788  0.74035976  1
  Se  Se38  1  0.83407123  0.97441788  0.75964024  1
  Se  Se39  1  0.66592877  0.52558212  0.25964024  1
  Se  Se40  1  0.44461009  0.25174630  0.33217549  1
  Se  Se41  1  0.05538991  0.24825370  0.83217549  1
  Se  Se42  1  0.55538991  0.74825370  0.66782451  1
  Se  Se43  1  0.94461009  0.75174630  0.16782451  1
  Se  Se44  1  0.47953295  0.23624472  0.01704435  1
  Se  Se45  1  0.02046705  0.26375528  0.51704435  1
  Se  Se46  1  0.52046705  0.76375528  0.98295565  1
  Se  Se47  1  0.97953295  0.73624472  0.48295565  1
  Se  Se48  1  0.78364329  0.47323252  0.94055201  1
  Se  Se49  1  0.71635671  0.02676748  0.44055201  1
  Se  Se50  1  0.21635671  0.52676748  0.05944799  1
  Se  Se51  1  0.28364329  0.97323252  0.55944799  1
  Se  Se52  1  0.81330175  0.25769983  0.16226161  1
  Se  Se53  1  0.68669825  0.24230017  0.66226161  1
  Se  Se54  1  0.18669825  0.74230017  0.83773839  1
  Se  Se55  1  0.31330175  0.75769983  0.33773839  1
  Se  Se56  1  0.16202268  0.48001126  0.24849055  1
  Se  Se57  1  0.33797732  0.01998874  0.74849055  1
  Se  Se58  1  0.83797732  0.51998874  0.75150945  1
  Se  Se59  1  0.66202268  0.98001126  0.25150945  1
  Se  Se60  1  0.14618517  0.44975708  0.40359172  1
  Se  Se61  1  0.35381483  0.05024292  0.90359172  1
  Se  Se62  1  0.85381483  0.55024292  0.59640828  1
  Se  Se63  1  0.64618517  0.94975708  0.09640828  1
