# generated using pymatgen
data_K16Na9(Tl6Cd)3
_symmetry_space_group_name_H-M   'P 1'
_cell_length_a   11.44965594
_cell_length_b   11.44965594
_cell_length_c   30.15141296
_cell_angle_alpha   90.00000000
_cell_angle_beta   90.00000000
_cell_angle_gamma   120.00031908
_symmetry_Int_Tables_number   1
_chemical_formula_structural   K16Na9(Tl6Cd)3
_chemical_formula_sum   'K32 Na18 Tl36 Cd6'
_cell_volume   3423.11726636
_cell_formula_units_Z   2
loop_
 _symmetry_equiv_pos_site_id
 _symmetry_equiv_pos_as_xyz
  1  'x, y, z'
loop_
 _atom_site_type_symbol
 _atom_site_label
 _atom_site_symmetry_multiplicity
 _atom_site_fract_x
 _atom_site_fract_y
 _atom_site_fract_z
 _atom_site_occupancy
  K  K0  1  0.87052617  0.74105227  0.05866214  1
  K  K1  1  0.87052627  0.12947373  0.05866248  1
  K  K2  1  0.25894773  0.12947383  0.05866214  1
  K  K3  1  0.12947383  0.25894773  0.94133786  1
  K  K4  1  0.12947373  0.87052627  0.94133752  1
  K  K5  1  0.74105227  0.87052617  0.94133786  1
  K  K6  1  0.12947383  0.25894773  0.55866214  1
  K  K7  1  0.12947373  0.87052627  0.55866248  1
  K  K8  1  0.74105227  0.87052617  0.55866214  1
  K  K9  1  0.87052617  0.74105227  0.44133786  1
  K  K10  1  0.87052627  0.12947373  0.44133752  1
  K  K11  1  0.25894773  0.12947383  0.44133786  1
  K  K12  1  0.54466308  0.08932374  0.75000000  1
  K  K13  1  0.54465896  0.45534104  0.75000000  1
  K  K14  1  0.91067626  0.45533692  0.75000000  1
  K  K15  1  0.45533692  0.91067626  0.25000000  1
  K  K16  1  0.45534104  0.54465896  0.25000000  1
  K  K17  1  0.08932374  0.54466308  0.25000000  1
  K  K18  1  0.53686128  0.07372275  0.12455769  1
  K  K19  1  0.53686206  0.46313794  0.12455763  1
  K  K20  1  0.92627725  0.46313872  0.12455769  1
  K  K21  1  0.46313872  0.92627725  0.87544231  1
  K  K22  1  0.46313794  0.53686206  0.87544237  1
  K  K23  1  0.07372275  0.53686128  0.87544231  1
  K  K24  1  0.46313872  0.92627725  0.62455769  1
  K  K25  1  0.46313794  0.53686206  0.62455763  1
  K  K26  1  0.07372275  0.53686128  0.62455769  1
  K  K27  1  0.53686128  0.07372275  0.37544231  1
  K  K28  1  0.53686206  0.46313794  0.37544237  1
  K  K29  1  0.92627725  0.46313872  0.37544231  1
  K  K30  1  0.66670068  0.33329932  0.25000000  1
  K  K31  1  0.33329932  0.66670068  0.75000000  1
  Na  Na32  1  0.83616840  0.67233515  0.84731948  1
  Na  Na33  1  0.83616745  0.16383255  0.84731713  1
  Na  Na34  1  0.32766485  0.16383160  0.84731948  1
  Na  Na35  1  0.16383160  0.32766485  0.15268052  1
  Na  Na36  1  0.16383255  0.83616745  0.15268287  1
  Na  Na37  1  0.67233515  0.83616840  0.15268052  1
  Na  Na38  1  0.16383160  0.32766485  0.34731948  1
  Na  Na39  1  0.16383255  0.83616745  0.34731713  1
  Na  Na40  1  0.67233515  0.83616840  0.34731948  1
  Na  Na41  1  0.83616840  0.67233515  0.65268052  1
  Na  Na42  1  0.83616745  0.16383255  0.65268287  1
  Na  Na43  1  0.32766485  0.16383160  0.65268052  1
  Na  Na44  1  0.50000000  0.00000000  -0.00000000  1
  Na  Na45  1  0.50000000  0.50000000  -0.00000000  1
  Na  Na46  1  0.00000000  0.50000000  -0.00000000  1
  Na  Na47  1  0.50000000  0.00000000  0.50000000  1
  Na  Na48  1  0.50000000  0.50000000  0.50000000  1
  Na  Na49  1  0.00000000  0.50000000  0.50000000  1
  Tl  Tl50  1  0.76646469  0.53293031  0.94525500  1
  Tl  Tl51  1  0.76647119  0.23352881  0.94525478  1
  Tl  Tl52  1  0.46706969  0.23353531  0.94525500  1
  Tl  Tl53  1  0.23353531  0.46706969  0.05474500  1
  Tl  Tl54  1  0.23352881  0.76647119  0.05474522  1
  Tl  Tl55  1  0.53293031  0.76646469  0.05474500  1
  Tl  Tl56  1  0.23353531  0.46706969  0.44525500  1
  Tl  Tl57  1  0.23352881  0.76647119  0.44525478  1
  Tl  Tl58  1  0.53293031  0.76646469  0.44525500  1
  Tl  Tl59  1  0.76646469  0.53293031  0.55474500  1
  Tl  Tl60  1  0.76647119  0.23352881  0.55474522  1
  Tl  Tl61  1  0.46706969  0.23353531  0.55474500  1
  Tl  Tl62  1  0.66669171  0.33330829  0.03051143  1
  Tl  Tl63  1  0.33330829  0.66669171  0.96948857  1
  Tl  Tl64  1  0.33330829  0.66669171  0.53051143  1
  Tl  Tl65  1  0.66669171  0.33330829  0.46948857  1
  Tl  Tl66  1  0.66668941  0.33331059  0.85977178  1
  Tl  Tl67  1  0.33331059  0.66668941  0.14022822  1
  Tl  Tl68  1  0.33331059  0.66668941  0.35977178  1
  Tl  Tl69  1  0.66668941  0.33331059  0.64022822  1
  Tl  Tl70  1  -0.00000028  0.00000028  0.15991143  1
  Tl  Tl71  1  0.00000028  -0.00000028  0.84008857  1
  Tl  Tl72  1  0.00000028  -0.00000028  0.65991143  1
  Tl  Tl73  1  -0.00000028  0.00000028  0.34008857  1
  Tl  Tl74  1  0.84248419  0.68497001  0.19684794  1
  Tl  Tl75  1  0.84248856  0.15751144  0.19684684  1
  Tl  Tl76  1  0.31502999  0.15751581  0.19684794  1
  Tl  Tl77  1  0.15751581  0.31502999  0.80315206  1
  Tl  Tl78  1  0.15751144  0.84248856  0.80315316  1
  Tl  Tl79  1  0.68497001  0.84248419  0.80315206  1
  Tl  Tl80  1  0.15751581  0.31502999  0.69684794  1
  Tl  Tl81  1  0.15751144  0.84248856  0.69684684  1
  Tl  Tl82  1  0.68497001  0.84248419  0.69684794  1
  Tl  Tl83  1  0.84248419  0.68497001  0.30315206  1
  Tl  Tl84  1  0.84248856  0.15751144  0.30315316  1
  Tl  Tl85  1  0.31502999  0.15751581  0.30315206  1
  Cd  Cd86  1  0.89739677  0.79479288  0.75000000  1
  Cd  Cd87  1  0.89739676  0.10260324  0.75000000  1
  Cd  Cd88  1  0.20520712  0.10260323  0.75000000  1
  Cd  Cd89  1  0.10260323  0.20520712  0.25000000  1
  Cd  Cd90  1  0.10260324  0.89739676  0.25000000  1
  Cd  Cd91  1  0.79479288  0.89739677  0.25000000  1
