# generated using pymatgen
data_Dy2Ni7
_symmetry_space_group_name_H-M   'P 1'
_cell_length_a   4.94564780
_cell_length_b   4.94564780
_cell_length_c   24.07658655
_cell_angle_alpha   90.00000000
_cell_angle_beta   90.00000000
_cell_angle_gamma   120.22221488
_symmetry_Int_Tables_number   1
_chemical_formula_structural   Dy2Ni7
_chemical_formula_sum   'Dy8 Ni28'
_cell_volume   508.85622212
_cell_formula_units_Z   4
loop_
 _symmetry_equiv_pos_site_id
 _symmetry_equiv_pos_as_xyz
  1  'x, y, z'
loop_
 _atom_site_type_symbol
 _atom_site_label
 _atom_site_symmetry_multiplicity
 _atom_site_fract_x
 _atom_site_fract_y
 _atom_site_fract_z
 _atom_site_occupancy
  Dy  Dy0  1  0.66667347  0.33332653  0.52920471  1
  Dy  Dy1  1  0.33332653  0.66667347  0.47079529  1
  Dy  Dy2  1  0.33332653  0.66667347  0.02920471  1
  Dy  Dy3  1  0.66667347  0.33332653  0.97079529  1
  Dy  Dy4  1  0.66666171  0.33333829  0.67346106  1
  Dy  Dy5  1  0.33333829  0.66666171  0.32653894  1
  Dy  Dy6  1  0.33333829  0.66666171  0.17346106  1
  Dy  Dy7  1  0.66666171  0.33333829  0.82653894  1
  Ni  Ni8  1  0.00000000  0.00000000  0.50000000  1
  Ni  Ni9  1  0.00000000  0.00000000  -0.00000000  1
  Ni  Ni10  1  0.16674917  0.33349300  0.75000000  1
  Ni  Ni11  1  0.16675141  0.83324859  0.75000000  1
  Ni  Ni12  1  0.66650700  0.83325083  0.75000000  1
  Ni  Ni13  1  0.83325083  0.66650700  0.25000000  1
  Ni  Ni14  1  0.83324859  0.16675141  0.25000000  1
  Ni  Ni15  1  0.33349300  0.16674917  0.25000000  1
  Ni  Ni16  1  0.16722790  0.33446795  0.58522591  1
  Ni  Ni17  1  0.16724911  0.83275089  0.58520696  1
  Ni  Ni18  1  0.66553205  0.83277210  0.58522591  1
  Ni  Ni19  1  0.83277210  0.66553205  0.41477409  1
  Ni  Ni20  1  0.83275089  0.16724911  0.41479304  1
  Ni  Ni21  1  0.33446795  0.16722790  0.41477409  1
  Ni  Ni22  1  0.83277210  0.66553205  0.08522591  1
  Ni  Ni23  1  0.83275089  0.16724911  0.08520696  1
  Ni  Ni24  1  0.33446795  0.16722790  0.08522591  1
  Ni  Ni25  1  0.16722790  0.33446795  0.91477409  1
  Ni  Ni26  1  0.16724911  0.83275089  0.91479304  1
  Ni  Ni27  1  0.66553205  0.83277210  0.91477409  1
  Ni  Ni28  1  -0.00003721  0.00003721  0.66754666  1
  Ni  Ni29  1  0.00003721  -0.00003721  0.33245334  1
  Ni  Ni30  1  0.00003721  -0.00003721  0.16754666  1
  Ni  Ni31  1  -0.00003721  0.00003721  0.83245334  1
  Ni  Ni32  1  0.66663913  0.33336087  0.33283298  1
  Ni  Ni33  1  0.33336087  0.66663913  0.66716702  1
  Ni  Ni34  1  0.33336087  0.66663913  0.83283298  1
  Ni  Ni35  1  0.66663913  0.33336087  0.16716702  1
