# generated using pymatgen
data_PH9(NO2)2
_symmetry_space_group_name_H-M   'P 1'
_cell_length_a   6.42341751
_cell_length_b   11.25086230
_cell_length_c   15.77901279
_cell_angle_alpha   90.00000000
_cell_angle_beta   90.00000000
_cell_angle_gamma   91.27205971
_symmetry_Int_Tables_number   1
_chemical_formula_structural   PH9(NO2)2
_chemical_formula_sum   'P8 H72 N16 O32'
_cell_volume   1140.05222297
_cell_formula_units_Z   8
loop_
 _symmetry_equiv_pos_site_id
 _symmetry_equiv_pos_as_xyz
  1  'x, y, z'
loop_
 _atom_site_type_symbol
 _atom_site_label
 _atom_site_symmetry_multiplicity
 _atom_site_fract_x
 _atom_site_fract_y
 _atom_site_fract_z
 _atom_site_occupancy
  P  P0  1  0.30017401  0.13711108  0.11063905  1
  P  P1  1  0.19982599  0.86288892  0.61063905  1
  P  P2  1  0.69982599  0.86288892  0.88936095  1
  P  P3  1  0.80017401  0.13711108  0.38936095  1
  P  P4  1  0.81695114  0.63588968  0.13183880  1
  P  P5  1  0.68304886  0.36411032  0.63183880  1
  P  P6  1  0.18304886  0.36411032  0.86816120  1
  P  P7  1  0.31695114  0.63588968  0.36816120  1
  H  H8  1  0.13903011  0.19708902  0.99128635  1
  H  H9  1  0.36096989  0.80291098  0.49128635  1
  H  H10  1  0.86096989  0.80291098  0.00871365  1
  H  H11  1  0.63903011  0.19708902  0.50871365  1
  H  H12  1  0.03669478  0.63914597  0.24452730  1
  H  H13  1  0.46330522  0.36085403  0.74452730  1
  H  H14  1  0.96330522  0.36085403  0.75547270  1
  H  H15  1  0.53669478  0.63914597  0.25547270  1
  H  H16  1  0.22283237  0.00446854  0.76538943  1
  H  H17  1  0.27716763  0.99553146  0.26538943  1
  H  H18  1  0.77716763  0.99553146  0.23461057  1
  H  H19  1  0.72283237  0.00446854  0.73461057  1
  H  H20  1  0.23640476  0.12030994  0.83434537  1
  H  H21  1  0.26359524  0.87969006  0.33434537  1
  H  H22  1  0.76359524  0.87969006  0.16565463  1
  H  H23  1  0.73640476  0.12030994  0.66565463  1
  H  H24  1  0.29799153  0.97863070  0.86696153  1
  H  H25  1  0.20200847  0.02136930  0.36696153  1
  H  H26  1  0.70200847  0.02136930  0.13303847  1
  H  H27  1  0.79799153  0.97863070  0.63303847  1
  H  H28  1  0.04433655  0.01205889  0.84409035  1
  H  H29  1  0.45566345  0.98794111  0.34409035  1
  H  H30  1  0.95566345  0.98794111  0.15590965  1
  H  H31  1  0.54433655  0.01205889  0.65590965  1
  H  H32  1  0.44823031  0.50256465  0.09667615  1
  H  H33  1  0.05176969  0.49743535  0.59667615  1
  H  H34  1  0.55176969  0.49743535  0.90332385  1
  H  H35  1  0.94823031  0.50256465  0.40332385  1
  H  H36  1  0.19111212  0.52741797  0.12120657  1
  H  H37  1  0.30888788  0.47258203  0.62120657  1
  H  H38  1  0.80888788  0.47258203  0.87879343  1
  H  H39  1  0.69111212  0.52741797  0.37879343  1
  H  H40  1  0.26185634  0.47969190  0.02200524  1
  H  H41  1  0.23814366  0.52030810  0.52200524  1
  H  H42  1  0.73814366  0.52030810  0.97799476  1
  H  H43  1  0.76185634  0.47969190  0.47799476  1
  H  H44  1  0.27062354  0.38676526  0.10823832  1
  H  H45  1  0.22937646  0.61323474  0.60823832  1
  H  H46  1  0.72937646  0.61323474  0.89176168  1
  H  H47  1  0.77062354  0.38676526  0.39176168  1
  H  H48  1  0.69138275  0.24296379  0.14085610  1
  H  H49  1  0.80861725  0.75703621  0.64085610  1
  H  H50  1  0.30861725  0.75703621  0.85914390  1
  H  H51  1  0.19138275  0.24296379  0.35914390  1
  H  H52  1  0.95220808  0.27822143  0.15844693  1
  H  H53  1  0.54779192  0.72177857  0.65844693  1
  H  H54  1  0.04779192  0.72177857  0.84155307  1
  H  H55  1  0.45220808  0.27822143  0.34155307  1
  H  H56  1  0.77332671  0.38806662  0.15277307  1
  H  H57  1  0.72667329  0.61193338  0.65277307  1
  H  H58  1  0.22667329  0.61193338  0.84722693  1
  H  H59  1  0.27332671  0.38806662  0.34722693  1
  H  H60  1  0.77582199  0.28983147  0.23758478  1
  H  H61  1  0.72417801  0.71016853  0.73758478  1
  H  H62  1  0.22417801  0.71016853  0.76241522  1
  H  H63  1  0.27582199  0.28983147  0.26241522  1
  H  H64  1  0.19667878  0.76680669  0.07576658  1
  H  H65  1  0.30332122  0.23319331  0.57576658  1
  H  H66  1  0.80332122  0.23319331  0.92423342  1
  H  H67  1  0.69667878  0.76680669  0.42423342  1
  H  H68  1  0.45180877  0.77392227  0.11205803  1
  H  H69  1  0.04819123  0.22607773  0.61205803  1
  H  H70  1  0.54819123  0.22607773  0.88794197  1
  H  H71  1  0.95180877  0.77392227  0.38794197  1
  H  H72  1  0.38857519  0.83295346  0.01545508  1
  H  H73  1  0.11142481  0.16704654  0.51545508  1
  H  H74  1  0.61142481  0.16704654  0.98454492  1
  H  H75  1  0.88857519  0.83295346  0.48454492  1
  H  H76  1  0.30622184  0.89878940  0.10718424  1
  H  H77  1  0.19377816  0.10121060  0.60718424  1
  H  H78  1  0.69377816  0.10121060  0.89281576  1
  H  H79  1  0.80622184  0.89878940  0.39281576  1
  N  N80  1  0.20044093  0.02948224  0.82911024  1
  N  N81  1  0.29955907  0.97051776  0.32911024  1
  N  N82  1  0.79955907  0.97051776  0.17088976  1
  N  N83  1  0.70044093  0.02948224  0.67088976  1
  N  N84  1  0.29163850  0.47522754  0.08704402  1
  N  N85  1  0.20836150  0.52477246  0.58704402  1
  N  N86  1  0.70836150  0.52477246  0.91295598  1
  N  N87  1  0.79163850  0.47522754  0.41295598  1
  N  N88  1  0.79842043  0.30093901  0.17239736  1
  N  N89  1  0.70157957  0.69906099  0.67239736  1
  N  N90  1  0.20157957  0.69906099  0.82760264  1
  N  N91  1  0.29842043  0.30093901  0.32760264  1
  N  N92  1  0.33685632  0.81712612  0.07734016  1
  N  N93  1  0.16314368  0.18287388  0.57734016  1
  N  N94  1  0.66314368  0.18287388  0.92265984  1
  N  N95  1  0.83685632  0.81712612  0.42265984  1
  O  O96  1  0.18344141  0.12179743  0.02192263  1
  O  O97  1  0.31655859  0.87820257  0.52192263  1
  O  O98  1  0.81655859  0.87820257  0.97807737  1
  O  O99  1  0.68344141  0.12179743  0.47807737  1
  O  O100  1  0.22335049  0.25204227  0.15365353  1
  O  O101  1  0.27664951  0.74795773  0.65365353  1
  O  O102  1  0.77664951  0.74795773  0.84634647  1
  O  O103  1  0.72335049  0.25204227  0.34634647  1
  O  O104  1  0.53739846  0.14254160  0.09359293  1
  O  O105  1  0.96260154  0.85745840  0.59359293  1
  O  O106  1  0.46260154  0.85745840  0.90640707  1
  O  O107  1  0.03739846  0.14254160  0.40640707  1
  O  O108  1  0.23834345  0.02433517  0.16143193  1
  O  O109  1  0.26165655  0.97566483  0.66143193  1
  O  O110  1  0.76165655  0.97566483  0.83856807  1
  O  O111  1  0.73834345  0.02433517  0.33856807  1
  O  O112  1  0.97125340  0.58121775  0.20256109  1
  O  O113  1  0.52874660  0.41878225  0.70256109  1
  O  O114  1  0.02874660  0.41878225  0.79743891  1
  O  O115  1  0.47125340  0.58121775  0.29743891  1
  O  O116  1  0.70983657  0.52435831  0.09309637  1
  O  O117  1  0.79016343  0.47564169  0.59309637  1
  O  O118  1  0.29016343  0.47564169  0.90690363  1
  O  O119  1  0.20983657  0.52435831  0.40690363  1
  O  O120  1  0.95291068  0.70188721  0.06573224  1
  O  O121  1  0.54708932  0.29811279  0.56573224  1
  O  O122  1  0.04708932  0.29811279  0.93426776  1
  O  O123  1  0.45291068  0.70188721  0.43426776  1
  O  O124  1  0.66281518  0.71803221  0.17708853  1
  O  O125  1  0.83718482  0.28196779  0.67708853  1
  O  O126  1  0.33718482  0.28196779  0.82291147  1
  O  O127  1  0.16281518  0.71803221  0.32291147  1
