# generated using pymatgen
data_Li9Mn2Co5O16
_symmetry_space_group_name_H-M   'P 1'
_cell_length_a   2.87916527
_cell_length_b   9.74998129
_cell_length_c   10.35270725
_cell_angle_alpha   98.66944578
_cell_angle_beta   90.00000000
_cell_angle_gamma   90.00000000
_symmetry_Int_Tables_number   1
_chemical_formula_structural   Li9Mn2Co5O16
_chemical_formula_sum   'Li9 Mn2 Co5 O16'
_cell_volume   287.29870892
_cell_formula_units_Z   1
loop_
 _symmetry_equiv_pos_site_id
 _symmetry_equiv_pos_as_xyz
  1  'x, y, z'
loop_
 _atom_site_type_symbol
 _atom_site_label
 _atom_site_symmetry_multiplicity
 _atom_site_fract_x
 _atom_site_fract_y
 _atom_site_fract_z
 _atom_site_occupancy
  Li  Li0  1  0.50000000  0.00750044  0.24305542  1
  Li  Li1  1  0.50000000  0.00376664  0.75595242  1
  Li  Li2  1  -0.00000000  0.25305500  0.35912565  1
  Li  Li3  1  -0.00000000  0.26596759  0.89501283  1
  Li  Li4  1  0.50000000  0.49716934  0.49116633  1
  Li  Li5  1  0.50000000  0.49514204  0.00356876  1
  Li  Li6  1  -0.00000000  0.74111525  0.12525491  1
  Li  Li7  1  -0.00000000  0.73973925  0.62221969  1
  Li  Li8  1  0.50000000  0.24865900  0.12740542  1
  Mn  Mn9  1  -0.00000000  0.00706954  0.01054457  1
  Mn  Mn10  1  -0.00000000  0.99884122  0.49993488  1
  Co  Co11  1  0.50000000  0.25423276  0.62729247  1
  Co  Co12  1  0.00000000  0.48113403  0.23003619  1
  Co  Co13  1  -0.00000000  0.50201754  0.74938976  1
  Co  Co14  1  0.50000000  0.74079500  0.37266794  1
  Co  Co15  1  0.50000000  0.75368237  0.87453866  1
  O  O16  1  0.50000000  0.88850407  0.05838027  1
  O  O17  1  0.50000000  0.89325986  0.56212301  1
  O  O18  1  -0.00000000  0.11221174  0.17220760  1
  O  O19  1  -0.00000000  0.12591025  0.66754132  1
  O  O20  1  0.50000000  0.38436137  0.31083756  1
  O  O21  1  0.50000000  0.38512397  0.81037870  1
  O  O22  1  -0.00000000  0.64119180  0.92560944  1
  O  O23  1  0.00000000  0.63686055  0.43086065  1
  O  O24  1  0.50000000  0.10484085  0.43931673  1
  O  O25  1  0.50000000  0.10945873  0.94259720  1
  O  O26  1  -0.00000000  0.36742299  0.57320295  1
  O  O27  1  -0.00000000  0.38209786  0.06793144  1
  O  O28  1  0.50000000  0.62055956  0.69042830  1
  O  O29  1  0.50000000  0.62155847  0.19542157  1
  O  O30  1  0.00000000  0.86459152  0.33527535  1
  O  O31  1  -0.00000000  0.87215939  0.83072201  1
