# generated using pymatgen
data_Cs4(BSe)9
_symmetry_space_group_name_H-M   'P 1'
_cell_length_a   11.15319560
_cell_length_b   11.03133345
_cell_length_c   11.49253109
_cell_angle_alpha   102.96372730
_cell_angle_beta   92.83265878
_cell_angle_gamma   110.39391657
_symmetry_Int_Tables_number   1
_chemical_formula_structural   Cs4(BSe)9
_chemical_formula_sum   'Cs8 B18 Se18'
_cell_volume   1278.90664592
_cell_formula_units_Z   2
loop_
 _symmetry_equiv_pos_site_id
 _symmetry_equiv_pos_as_xyz
  1  'x, y, z'
loop_
 _atom_site_type_symbol
 _atom_site_label
 _atom_site_symmetry_multiplicity
 _atom_site_fract_x
 _atom_site_fract_y
 _atom_site_fract_z
 _atom_site_occupancy
  Cs  Cs0  1  0.99403946  0.35439990  0.62669512  1
  Cs  Cs1  1  0.00596054  0.64560010  0.37330488  1
  Cs  Cs2  1  0.63209113  0.38813241  0.86929809  1
  Cs  Cs3  1  0.36790887  0.61186759  0.13070191  1
  Cs  Cs4  1  0.37211274  0.24660513  0.52698951  1
  Cs  Cs5  1  0.62788726  0.75339487  0.47301049  1
  Cs  Cs6  1  0.61765284  0.17376244  0.25179889  1
  Cs  Cs7  1  0.38234716  0.82623756  0.74820111  1
  B  B8  1  0.86551305  0.87743976  0.91790881  1
  B  B9  1  0.13448695  0.12256024  0.08209119  1
  B  B10  1  0.02122603  0.88561031  0.88426043  1
  B  B11  1  0.97877397  0.11438969  0.11573957  1
  B  B12  1  0.96849237  0.84533782  0.01939283  1
  B  B13  1  0.03150763  0.15466218  0.98060717  1
  B  B14  1  0.87473803  0.94082201  0.07649420  1
  B  B15  1  0.12526197  0.05917799  0.92350580  1
  B  B16  1  0.87026300  0.04312167  0.97642436  1
  B  B17  1  0.12973700  0.95687833  0.02357564  1
  B  B18  1  0.96158986  0.00920914  0.85967833  1
  B  B19  1  0.03841014  0.99079086  0.14032167  1
  B  B20  1  0.82301568  0.65027704  0.70115014  1
  B  B21  1  0.17698432  0.34972296  0.29884986  1
  B  B22  1  0.77000348  0.67798829  0.14098615  1
  B  B23  1  0.22999652  0.32201171  0.85901385  1
  B  B24  1  0.75048145  0.07219090  0.74837368  1
  B  B25  1  0.24951855  0.92780910  0.25162632  1
  Se  Se26  1  0.71766616  0.72511716  0.80708105  1
  Se  Se27  1  0.28233384  0.27488284  0.19291895  1
  Se  Se28  1  0.01480594  0.73809679  0.74072818  1
  Se  Se29  1  0.98519406  0.26190321  0.25927182  1
  Se  Se30  1  0.91540734  0.66472651  0.05437219  1
  Se  Se31  1  0.08459266  0.33527349  0.94562781  1
  Se  Se32  1  0.73374779  0.84594034  0.16370804  1
  Se  Se33  1  0.26625221  0.15405966  0.83629196  1
  Se  Se34  1  0.72048452  0.08819654  0.92048149  1
  Se  Se35  1  0.27951548  0.91180346  0.07951851  1
  Se  Se36  1  0.89912850  0.02513322  0.69872458  1
  Se  Se37  1  0.10087150  0.97486678  0.30127542  1
  Se  Se38  1  0.74396508  0.49719827  0.56595214  1
  Se  Se39  1  0.25603492  0.50280173  0.43404786  1
  Se  Se40  1  0.66511169  0.53276448  0.20145480  1
  Se  Se41  1  0.33488831  0.46723552  0.79854520  1
  Se  Se42  1  0.63673682  0.09630382  0.63270852  1
  Se  Se43  1  0.36326318  0.90369618  0.36729148  1
