# generated using pymatgen
data_Hf(TlSe)4
_symmetry_space_group_name_H-M   'P 1'
_cell_length_a   9.54927520
_cell_length_b   9.54903624
_cell_length_c   16.42359121
_cell_angle_alpha   104.71119097
_cell_angle_beta   104.26444931
_cell_angle_gamma   90.11933766
_symmetry_Int_Tables_number   1
_chemical_formula_structural   Hf(TlSe)4
_chemical_formula_sum   'Hf5 Tl20 Se20'
_cell_volume   1400.51081679
_cell_formula_units_Z   5
loop_
 _symmetry_equiv_pos_site_id
 _symmetry_equiv_pos_as_xyz
  1  'x, y, z'
loop_
 _atom_site_type_symbol
 _atom_site_label
 _atom_site_symmetry_multiplicity
 _atom_site_fract_x
 _atom_site_fract_y
 _atom_site_fract_z
 _atom_site_occupancy
  Hf  Hf0  1  0.68446464  0.01666731  0.59968215  1
  Hf  Hf1  1  0.31553536  0.98333269  0.40031785  1
  Hf  Hf2  1  0.30839585  0.17445081  0.19900557  1
  Hf  Hf3  1  0.69160415  0.82554919  0.80099443  1
  Hf  Hf4  1  0.50000000  -0.00000000  0.00000000  1
  Tl  Tl5  1  0.08016994  0.04813039  0.80048518  1
  Tl  Tl6  1  0.91983006  0.95186961  0.19951482  1
  Tl  Tl7  1  0.71881829  0.21548332  0.40039790  1
  Tl  Tl8  1  0.28118171  0.78451668  0.59960210  1
  Tl  Tl9  1  0.08583602  0.22052611  0.59401518  1
  Tl  Tl10  1  0.91416398  0.77947389  0.40598482  1
  Tl  Tl11  1  0.45310134  0.22218878  0.79573352  1
  Tl  Tl12  1  0.54689866  0.77781122  0.20426648  1
  Tl  Tl13  1  0.09557736  0.37562212  0.38742322  1
  Tl  Tl14  1  0.90442264  0.62437788  0.61257678  1
  Tl  Tl15  1  0.70051003  0.38829636  0.19062415  1
  Tl  Tl16  1  0.29948997  0.61170364  0.80937585  1
  Tl  Tl17  1  0.46638570  0.41152085  0.59831452  1
  Tl  Tl18  1  0.53361430  0.58847915  0.40168548  1
  Tl  Tl19  1  0.09998178  0.57925015  0.20087413  1
  Tl  Tl20  1  0.90001822  0.42074985  0.79912587  1
  Tl  Tl21  1  0.71805537  0.60784768  0.99700181  1
  Tl  Tl22  1  0.28194463  0.39215232  0.00299819  1
  Tl  Tl23  1  0.10282264  0.77454313  0.00811726  1
  Tl  Tl24  1  0.89717736  0.22545687  0.99188274  1
  Se  Se25  1  0.04850931  0.06154306  0.40141124  1
  Se  Se26  1  0.95149069  0.93845694  0.59858876  1
  Se  Se27  1  0.39699722  0.07010342  0.57757849  1
  Se  Se28  1  0.60300278  0.92989658  0.42242151  1
  Se  Se29  1  0.23284013  0.07356439  0.02045201  1
  Se  Se30  1  0.76715987  0.92643561  0.97954799  1
  Se  Se31  1  0.57992396  0.08901226  0.17841504  1
  Se  Se32  1  0.42007604  0.91098774  0.82158496  1
  Se  Se33  1  0.03730847  0.24094238  0.19215830  1
  Se  Se34  1  0.96269153  0.75905762  0.80784170  1
  Se  Se35  1  0.38527558  0.25063111  0.37708094  1
  Se  Se36  1  0.61472442  0.74936889  0.62291906  1
  Se  Se37  1  0.38270398  0.44353203  0.19909296  1
  Se  Se38  1  0.61729602  0.55646797  0.80090704  1
  Se  Se39  1  0.24121329  0.71314535  0.39676830  1
  Se  Se40  1  0.75878671  0.28685465  0.60323170  1
  Se  Se41  1  0.42865123  0.72861947  0.00435151  1
  Se  Se42  1  0.57134877  0.27138053  0.99564849  1
  Se  Se43  1  0.26046882  0.90577093  0.22358090  1
  Se  Se44  1  0.73953118  0.09422907  0.77641910  1
