# generated using pymatgen
data_Y2Mn3Si5
_symmetry_space_group_name_H-M   'P 1'
_cell_length_a   5.44098451
_cell_length_b   10.55771956
_cell_length_c   10.55771956
_cell_angle_alpha   90.00000000
_cell_angle_beta   90.00000000
_cell_angle_gamma   90.00000000
_symmetry_Int_Tables_number   1
_chemical_formula_structural   Y2Mn3Si5
_chemical_formula_sum   'Y8 Mn12 Si20'
_cell_volume   606.48174500
_cell_formula_units_Z   4
loop_
 _symmetry_equiv_pos_site_id
 _symmetry_equiv_pos_as_xyz
  1  'x, y, z'
loop_
 _atom_site_type_symbol
 _atom_site_label
 _atom_site_symmetry_multiplicity
 _atom_site_fract_x
 _atom_site_fract_y
 _atom_site_fract_z
 _atom_site_occupancy
  Y  Y0  1  0.50000000  0.73643331  0.57450171  1
  Y  Y1  1  0.50000000  0.26356669  0.42549829  1
  Y  Y2  1  -0.00000000  0.76356669  0.07450171  1
  Y  Y3  1  -0.00000000  0.23643331  0.92549829  1
  Y  Y4  1  0.50000000  0.57450171  0.26356669  1
  Y  Y5  1  0.50000000  0.42549829  0.73643331  1
  Y  Y6  1  -0.00000000  0.07450171  0.23643331  1
  Y  Y7  1  -0.00000000  0.92549829  0.76356669  1
  Mn  Mn8  1  0.50000000  0.85324178  0.87721647  1
  Mn  Mn9  1  0.50000000  0.14675822  0.12278353  1
  Mn  Mn10  1  -0.00000000  0.64675822  0.37721647  1
  Mn  Mn11  1  -0.00000000  0.35324178  0.62278353  1
  Mn  Mn12  1  0.50000000  0.87721647  0.14675822  1
  Mn  Mn13  1  0.50000000  0.12278353  0.85324178  1
  Mn  Mn14  1  -0.00000000  0.37721647  0.35324178  1
  Mn  Mn15  1  -0.00000000  0.62278353  0.64675822  1
  Mn  Mn16  1  0.25000000  0.00000000  0.50000000  1
  Mn  Mn17  1  0.75000000  0.50000000  -0.00000000  1
  Mn  Mn18  1  0.25000000  0.50000000  -0.00000000  1
  Mn  Mn19  1  0.75000000  0.00000000  0.50000000  1
  Si  Si20  1  0.25000000  0.17531343  0.67531343  1
  Si  Si21  1  0.25000000  0.82468657  0.32468657  1
  Si  Si22  1  0.75000000  0.32468657  0.17531343  1
  Si  Si23  1  0.75000000  0.67531343  0.82468657  1
  Si  Si24  1  0.25000000  0.67531343  0.82468657  1
  Si  Si25  1  0.25000000  0.32468657  0.17531343  1
  Si  Si26  1  0.75000000  0.17531343  0.67531343  1
  Si  Si27  1  0.75000000  0.82468657  0.32468657  1
  Si  Si28  1  0.23478633  0.50000000  0.50000000  1
  Si  Si29  1  0.73478633  0.00000000  -0.00000000  1
  Si  Si30  1  0.76521367  0.50000000  0.50000000  1
  Si  Si31  1  0.26521367  0.00000000  -0.00000000  1
  Si  Si32  1  0.50000000  0.97650617  0.68411586  1
  Si  Si33  1  0.50000000  0.02349383  0.31588414  1
  Si  Si34  1  -0.00000000  0.52349383  0.18411586  1
  Si  Si35  1  -0.00000000  0.47650617  0.81588414  1
  Si  Si36  1  0.50000000  0.68411586  0.02349383  1
  Si  Si37  1  0.50000000  0.31588414  0.97650617  1
  Si  Si38  1  -0.00000000  0.18411586  0.47650617  1
  Si  Si39  1  -0.00000000  0.81588414  0.52349383  1
