# generated using pymatgen
data_CsAlH24(SO10)2
_symmetry_space_group_name_H-M   'P 1'
_cell_length_a   12.55106738
_cell_length_b   12.55106738
_cell_length_c   12.55106738
_cell_angle_alpha   90.00000000
_cell_angle_beta   90.00000000
_cell_angle_gamma   90.00000000
_symmetry_Int_Tables_number   1
_chemical_formula_structural   CsAlH24(SO10)2
_chemical_formula_sum   'Cs4 Al4 H96 S8 O80'
_cell_volume   1977.16076295
_cell_formula_units_Z   4
loop_
 _symmetry_equiv_pos_site_id
 _symmetry_equiv_pos_as_xyz
  1  'x, y, z'
loop_
 _atom_site_type_symbol
 _atom_site_label
 _atom_site_symmetry_multiplicity
 _atom_site_fract_x
 _atom_site_fract_y
 _atom_site_fract_z
 _atom_site_occupancy
  Cs  Cs0  1  0.00000000  0.00000000  0.50000000  1
  Cs  Cs1  1  0.00000000  0.50000000  -0.00000000  1
  Cs  Cs2  1  0.50000000  0.00000000  -0.00000000  1
  Cs  Cs3  1  0.50000000  0.50000000  0.50000000  1
  Al  Al4  1  0.50000000  0.50000000  -0.00000000  1
  Al  Al5  1  0.50000000  0.00000000  0.50000000  1
  Al  Al6  1  0.00000000  0.50000000  0.50000000  1
  Al  Al7  1  0.00000000  0.00000000  -0.00000000  1
  H  H8  1  0.22241692  0.50431508  0.23963842  1
  H  H9  1  0.77758308  0.00431508  0.26036158  1
  H  H10  1  0.27758308  0.49568492  0.73963842  1
  H  H11  1  0.72241692  0.99568492  0.76036158  1
  H  H12  1  0.23963842  0.22241692  0.50431508  1
  H  H13  1  0.26036158  0.77758308  0.00431508  1
  H  H14  1  0.73963842  0.27758308  0.49568492  1
  H  H15  1  0.76036158  0.72241692  0.99568492  1
  H  H16  1  0.50431508  0.23963842  0.22241692  1
  H  H17  1  0.00431508  0.26036158  0.77758308  1
  H  H18  1  0.49568492  0.73963842  0.27758308  1
  H  H19  1  0.99568492  0.76036158  0.72241692  1
  H  H20  1  0.77758308  0.49568492  0.76036158  1
  H  H21  1  0.22241692  0.99568492  0.73963842  1
  H  H22  1  0.72241692  0.50431508  0.26036158  1
  H  H23  1  0.27758308  0.00431508  0.23963842  1
  H  H24  1  0.76036158  0.77758308  0.49568492  1
  H  H25  1  0.73963842  0.22241692  0.99568492  1
  H  H26  1  0.26036158  0.72241692  0.50431508  1
  H  H27  1  0.23963842  0.27758308  0.00431508  1
  H  H28  1  0.49568492  0.76036158  0.77758308  1
  H  H29  1  0.99568492  0.73963842  0.22241692  1
  H  H30  1  0.50431508  0.26036158  0.72241692  1
  H  H31  1  0.00431508  0.23963842  0.27758308  1
  H  H32  1  0.18019083  0.62128234  0.23106814  1
  H  H33  1  0.81980917  0.12128234  0.26893186  1
  H  H34  1  0.31980917  0.37871766  0.73106814  1
  H  H35  1  0.68019083  0.87871766  0.76893186  1
  H  H36  1  0.23106814  0.18019083  0.62128234  1
  H  H37  1  0.26893186  0.81980917  0.12128234  1
  H  H38  1  0.73106814  0.31980917  0.37871766  1
  H  H39  1  0.76893186  0.68019083  0.87871766  1
  H  H40  1  0.62128234  0.23106814  0.18019083  1
  H  H41  1  0.12128234  0.26893186  0.81980917  1
  H  H42  1  0.37871766  0.73106814  0.31980917  1
  H  H43  1  0.87871766  0.76893186  0.68019083  1
  H  H44  1  0.81980917  0.37871766  0.76893186  1
  H  H45  1  0.18019083  0.87871766  0.73106814  1
  H  H46  1  0.68019083  0.62128234  0.26893186  1
  H  H47  1  0.31980917  0.12128234  0.23106814  1
  H  H48  1  0.76893186  0.81980917  0.37871766  1
  H  H49  1  0.73106814  0.18019083  0.87871766  1
  H  H50  1  0.26893186  0.68019083  0.62128234  1
  H  H51  1  0.23106814  0.31980917  0.12128234  1
  H  H52  1  0.37871766  0.76893186  0.81980917  1
  H  H53  1  0.87871766  0.73106814  0.18019083  1
  H  H54  1  0.62128234  0.26893186  0.68019083  1
  H  H55  1  0.12128234  0.23106814  0.31980917  1
  H  H56  1  0.48175274  0.69965262  0.93509743  1
  H  H57  1  0.51824726  0.19965262  0.56490257  1
  H  H58  1  0.01824726  0.30034738  0.43509743  1
  H  H59  1  0.98175274  0.80034738  0.06490257  1
  H  H60  1  0.93509743  0.48175274  0.69965262  1
  H  H61  1  0.56490257  0.51824726  0.19965262  1
  H  H62  1  0.43509743  0.01824726  0.30034738  1
  H  H63  1  0.06490257  0.98175274  0.80034738  1
  H  H64  1  0.69965262  0.93509743  0.48175274  1
  H  H65  1  0.19965262  0.56490257  0.51824726  1
  H  H66  1  0.30034738  0.43509743  0.01824726  1
  H  H67  1  0.80034738  0.06490257  0.98175274  1
  H  H68  1  0.51824726  0.30034738  0.06490257  1
  H  H69  1  0.48175274  0.80034738  0.43509743  1
  H  H70  1  0.98175274  0.69965262  0.56490257  1
  H  H71  1  0.01824726  0.19965262  0.93509743  1
  H  H72  1  0.06490257  0.51824726  0.30034738  1
  H  H73  1  0.43509743  0.48175274  0.80034738  1
  H  H74  1  0.56490257  0.98175274  0.69965262  1
  H  H75  1  0.93509743  0.01824726  0.19965262  1
  H  H76  1  0.30034738  0.06490257  0.51824726  1
  H  H77  1  0.80034738  0.43509743  0.48175274  1
  H  H78  1  0.69965262  0.56490257  0.98175274  1
  H  H79  1  0.19965262  0.93509743  0.01824726  1
  H  H80  1  0.52579196  0.69715201  0.05900380  1
  H  H81  1  0.47420804  0.19715201  0.44099620  1
  H  H82  1  0.97420804  0.30284799  0.55900380  1
  H  H83  1  0.02579196  0.80284799  0.94099620  1
  H  H84  1  0.05900380  0.52579196  0.69715201  1
  H  H85  1  0.44099620  0.47420804  0.19715201  1
  H  H86  1  0.55900380  0.97420804  0.30284799  1
  H  H87  1  0.94099620  0.02579196  0.80284799  1
  H  H88  1  0.69715201  0.05900380  0.52579196  1
  H  H89  1  0.19715201  0.44099620  0.47420804  1
  H  H90  1  0.30284799  0.55900380  0.97420804  1
  H  H91  1  0.80284799  0.94099620  0.02579196  1
  H  H92  1  0.47420804  0.30284799  0.94099620  1
  H  H93  1  0.52579196  0.80284799  0.55900380  1
  H  H94  1  0.02579196  0.69715201  0.44099620  1
  H  H95  1  0.97420804  0.19715201  0.05900380  1
  H  H96  1  0.94099620  0.47420804  0.30284799  1
  H  H97  1  0.55900380  0.52579196  0.80284799  1
  H  H98  1  0.44099620  0.02579196  0.69715201  1
  H  H99  1  0.05900380  0.97420804  0.19715201  1
  H  H100  1  0.30284799  0.94099620  0.47420804  1
  H  H101  1  0.80284799  0.55900380  0.52579196  1
  H  H102  1  0.69715201  0.44099620  0.02579196  1
  H  H103  1  0.19715201  0.05900380  0.97420804  1
  S  S104  1  0.17354637  0.82645363  0.32645363  1
  S  S105  1  0.82645363  0.32645363  0.17354637  1
  S  S106  1  0.32645363  0.17354637  0.82645363  1
  S  S107  1  0.67354637  0.67354637  0.67354637  1
  S  S108  1  0.82645363  0.17354637  0.67354637  1
  S  S109  1  0.17354637  0.67354637  0.82645363  1
  S  S110  1  0.67354637  0.82645363  0.17354637  1
  S  S111  1  0.32645363  0.32645363  0.32645363  1
  O  O112  1  0.24244825  0.75755175  0.25755175  1
  O  O113  1  0.75755175  0.25755175  0.24244825  1
  O  O114  1  0.25755175  0.24244825  0.75755175  1
  O  O115  1  0.74244825  0.74244825  0.74244825  1
  O  O116  1  0.75755175  0.24244825  0.74244825  1
  O  O117  1  0.24244825  0.74244825  0.75755175  1
  O  O118  1  0.74244825  0.75755175  0.24244825  1
  O  O119  1  0.25755175  0.25755175  0.25755175  1
  O  O120  1  0.06628602  0.77613174  0.33975200  1
  O  O121  1  0.93371398  0.27613174  0.16024800  1
  O  O122  1  0.43371398  0.22386826  0.83975200  1
  O  O123  1  0.56628602  0.72386826  0.66024800  1
  O  O124  1  0.33975200  0.06628602  0.77613174  1
  O  O125  1  0.16024800  0.93371398  0.27613174  1
  O  O126  1  0.83975200  0.43371398  0.22386826  1
  O  O127  1  0.66024800  0.56628602  0.72386826  1
  O  O128  1  0.77613174  0.33975200  0.06628602  1
  O  O129  1  0.27613174  0.16024800  0.93371398  1
  O  O130  1  0.22386826  0.83975200  0.43371398  1
  O  O131  1  0.72386826  0.66024800  0.56628602  1
  O  O132  1  0.93371398  0.22386826  0.66024800  1
  O  O133  1  0.06628602  0.72386826  0.83975200  1
  O  O134  1  0.56628602  0.77613174  0.16024800  1
  O  O135  1  0.43371398  0.27613174  0.33975200  1
  O  O136  1  0.66024800  0.93371398  0.22386826  1
  O  O137  1  0.83975200  0.06628602  0.72386826  1
  O  O138  1  0.16024800  0.56628602  0.77613174  1
  O  O139  1  0.33975200  0.43371398  0.27613174  1
  O  O140  1  0.22386826  0.66024800  0.93371398  1
  O  O141  1  0.72386826  0.83975200  0.06628602  1
  O  O142  1  0.77613174  0.16024800  0.56628602  1
  O  O143  1  0.27613174  0.33975200  0.43371398  1
  O  O144  1  0.15785987  0.54656399  0.22158631  1
  O  O145  1  0.84214013  0.04656399  0.27841369  1
  O  O146  1  0.34214013  0.45343601  0.72158631  1
  O  O147  1  0.65785987  0.95343601  0.77841369  1
  O  O148  1  0.22158631  0.15785987  0.54656399  1
  O  O149  1  0.27841369  0.84214013  0.04656399  1
  O  O150  1  0.72158631  0.34214013  0.45343601  1
  O  O151  1  0.77841369  0.65785987  0.95343601  1
  O  O152  1  0.54656399  0.22158631  0.15785987  1
  O  O153  1  0.04656399  0.27841369  0.84214013  1
  O  O154  1  0.45343601  0.72158631  0.34214013  1
  O  O155  1  0.95343601  0.77841369  0.65785987  1
  O  O156  1  0.84214013  0.45343601  0.77841369  1
  O  O157  1  0.15785987  0.95343601  0.72158631  1
  O  O158  1  0.65785987  0.54656399  0.27841369  1
  O  O159  1  0.34214013  0.04656399  0.22158631  1
  O  O160  1  0.77841369  0.84214013  0.45343601  1
  O  O161  1  0.72158631  0.15785987  0.95343601  1
  O  O162  1  0.27841369  0.65785987  0.54656399  1
  O  O163  1  0.22158631  0.34214013  0.04656399  1
  O  O164  1  0.45343601  0.77841369  0.84214013  1
  O  O165  1  0.95343601  0.72158631  0.15785987  1
  O  O166  1  0.54656399  0.27841369  0.65785987  1
  O  O167  1  0.04656399  0.22158631  0.34214013  1
  O  O168  1  0.50069988  0.65212649  0.99874445  1
  O  O169  1  0.49930012  0.15212649  0.50125555  1
  O  O170  1  0.99930012  0.34787351  0.49874445  1
  O  O171  1  0.00069988  0.84787351  0.00125555  1
  O  O172  1  0.99874445  0.50069988  0.65212649  1
  O  O173  1  0.50125555  0.49930012  0.15212649  1
  O  O174  1  0.49874445  0.99930012  0.34787351  1
  O  O175  1  0.00125555  0.00069988  0.84787351  1
  O  O176  1  0.65212649  0.99874445  0.50069988  1
  O  O177  1  0.15212649  0.50125555  0.49930012  1
  O  O178  1  0.34787351  0.49874445  0.99930012  1
  O  O179  1  0.84787351  0.00125555  0.00069988  1
  O  O180  1  0.49930012  0.34787351  0.00125555  1
  O  O181  1  0.50069988  0.84787351  0.49874445  1
  O  O182  1  0.00069988  0.65212649  0.50125555  1
  O  O183  1  0.99930012  0.15212649  0.99874445  1
  O  O184  1  0.00125555  0.49930012  0.34787351  1
  O  O185  1  0.49874445  0.50069988  0.84787351  1
  O  O186  1  0.50125555  0.00069988  0.65212649  1
  O  O187  1  0.99874445  0.99930012  0.15212649  1
  O  O188  1  0.34787351  0.00125555  0.49930012  1
  O  O189  1  0.84787351  0.49874445  0.50069988  1
  O  O190  1  0.65212649  0.50125555  0.00069988  1
  O  O191  1  0.15212649  0.99874445  0.99930012  1
