# generated using pymatgen
data_Nd(BRu)4
_symmetry_space_group_name_H-M   'P 1'
_cell_length_a   7.56669949
_cell_length_b   7.56669949
_cell_length_c   9.26627262
_cell_angle_alpha   114.09761505
_cell_angle_beta   114.09761505
_cell_angle_gamma   90.00000000
_symmetry_Int_Tables_number   1
_chemical_formula_structural   Nd(BRu)4
_chemical_formula_sum   'Nd4 B16 Ru16'
_cell_volume   433.16057185
_cell_formula_units_Z   4
loop_
 _symmetry_equiv_pos_site_id
 _symmetry_equiv_pos_as_xyz
  1  'x, y, z'
loop_
 _atom_site_type_symbol
 _atom_site_label
 _atom_site_symmetry_multiplicity
 _atom_site_fract_x
 _atom_site_fract_y
 _atom_site_fract_z
 _atom_site_occupancy
  Nd  Nd0  1  0.12500000  0.37500000  0.25000000  1
  Nd  Nd1  1  0.62500000  0.87500000  0.25000000  1
  Nd  Nd2  1  0.87500000  0.62500000  0.75000000  1
  Nd  Nd3  1  0.37500000  0.12500000  0.75000000  1
  B  B4  1  0.78942909  0.35010897  0.91368493  1
  B  B5  1  0.62425584  0.85010897  0.91368493  1
  B  B6  1  0.85010897  0.28942909  0.41368493  1
  B  B7  1  0.06357596  0.78942909  0.41368493  1
  B  B8  1  0.21057091  0.64989103  0.08631507  1
  B  B9  1  0.37574416  0.14989103  0.08631507  1
  B  B10  1  0.14989103  0.71057091  0.58631507  1
  B  B11  1  0.93642404  0.21057091  0.58631507  1
  B  B12  1  0.28942909  0.56357596  0.91368493  1
  B  B13  1  0.12425584  0.06357596  0.91368493  1
  B  B14  1  0.35010897  0.12425584  0.41368493  1
  B  B15  1  0.56357596  0.62425584  0.41368493  1
  B  B16  1  0.71057091  0.43642404  0.08631507  1
  B  B17  1  0.87574416  0.93642404  0.08631507  1
  B  B18  1  0.64989103  0.87574416  0.58631507  1
  B  B19  1  0.43642404  0.37574416  0.58631507  1
  Ru  Ru20  1  0.94738960  0.66783531  0.12651437  1
  Ru  Ru21  1  0.67912477  0.16783531  0.12651437  1
  Ru  Ru22  1  0.16783531  0.44738960  0.62651437  1
  Ru  Ru23  1  0.95867906  0.94738960  0.62651437  1
  Ru  Ru24  1  0.05261040  0.33216469  0.87348563  1
  Ru  Ru25  1  0.32087523  0.83216469  0.87348563  1
  Ru  Ru26  1  0.83216469  0.55261040  0.37348563  1
  Ru  Ru27  1  0.04132094  0.05261040  0.37348563  1
  Ru  Ru28  1  0.44738960  0.45867906  0.12651437  1
  Ru  Ru29  1  0.17912477  0.95867906  0.12651437  1
  Ru  Ru30  1  0.66783531  0.17912477  0.62651437  1
  Ru  Ru31  1  0.45867906  0.67912477  0.62651437  1
  Ru  Ru32  1  0.55261040  0.54132094  0.87348563  1
  Ru  Ru33  1  0.82087523  0.04132094  0.87348563  1
  Ru  Ru34  1  0.33216469  0.82087523  0.37348563  1
  Ru  Ru35  1  0.54132094  0.32087523  0.37348563  1
