# generated using pymatgen
data_Ho2B6Ru
_symmetry_space_group_name_H-M   'P 1'
_cell_length_a   3.65325710
_cell_length_b   9.11937322
_cell_length_c   11.48735971
_cell_angle_alpha   90.00000000
_cell_angle_beta   90.00000000
_cell_angle_gamma   90.00000000
_symmetry_Int_Tables_number   1
_chemical_formula_structural   Ho2B6Ru
_chemical_formula_sum   'Ho8 B24 Ru4'
_cell_volume   382.70615557
_cell_formula_units_Z   4
loop_
 _symmetry_equiv_pos_site_id
 _symmetry_equiv_pos_as_xyz
  1  'x, y, z'
loop_
 _atom_site_type_symbol
 _atom_site_label
 _atom_site_symmetry_multiplicity
 _atom_site_fract_x
 _atom_site_fract_y
 _atom_site_fract_z
 _atom_site_occupancy
  Ho  Ho0  1  -0.00000000  0.32223700  0.41422486  1
  Ho  Ho1  1  0.00000000  0.67776300  0.58577514  1
  Ho  Ho2  1  -0.00000000  0.82223700  0.08577514  1
  Ho  Ho3  1  0.00000000  0.17776300  0.91422486  1
  Ho  Ho4  1  -0.00000000  0.94428649  0.37258136  1
  Ho  Ho5  1  -0.00000000  0.05571351  0.62741864  1
  Ho  Ho6  1  -0.00000000  0.44428649  0.12741864  1
  Ho  Ho7  1  0.00000000  0.55571351  0.87258136  1
  B  B8  1  0.50000000  0.55420999  0.43305952  1
  B  B9  1  0.50000000  0.44579001  0.56694048  1
  B  B10  1  0.50000000  0.05420999  0.06694048  1
  B  B11  1  0.50000000  0.94579001  0.93305952  1
  B  B12  1  0.50000000  0.74844282  0.42008791  1
  B  B13  1  0.50000000  0.25155718  0.57991209  1
  B  B14  1  0.50000000  0.24844282  0.07991209  1
  B  B15  1  0.50000000  0.75155718  0.92008791  1
  B  B16  1  0.50000000  0.79144257  0.26648477  1
  B  B17  1  0.50000000  0.20855743  0.73351523  1
  B  B18  1  0.50000000  0.29144257  0.23351523  1
  B  B19  1  0.50000000  0.70855743  0.76648477  1
  B  B20  1  0.50000000  0.63235595  0.18496503  1
  B  B21  1  0.50000000  0.36764405  0.81503497  1
  B  B22  1  0.50000000  0.13235595  0.31503497  1
  B  B23  1  0.50000000  0.86764405  0.68496503  1
  B  B24  1  0.50000000  0.98415122  0.21285589  1
  B  B25  1  0.50000000  0.01584878  0.78714411  1
  B  B26  1  0.50000000  0.48415122  0.28714411  1
  B  B27  1  0.50000000  0.51584878  0.71285589  1
  B  B28  1  0.50000000  0.60979313  0.03012424  1
  B  B29  1  0.50000000  0.39020687  0.96987576  1
  B  B30  1  0.50000000  0.10979313  0.46987576  1
  B  B31  1  0.50000000  0.89020687  0.53012424  1
  Ru  Ru32  1  -0.00000000  0.63846949  0.32103313  1
  Ru  Ru33  1  0.00000000  0.36153051  0.67896687  1
  Ru  Ru34  1  -0.00000000  0.13846949  0.17896687  1
  Ru  Ru35  1  0.00000000  0.86153051  0.82103313  1
