# generated using pymatgen
data_Th2Fe14B
_symmetry_space_group_name_H-M   'P 1'
_cell_length_a   8.76263127
_cell_length_b   8.76263127
_cell_length_c   12.06148895
_cell_angle_alpha   90.00000000
_cell_angle_beta   90.00000000
_cell_angle_gamma   90.00000000
_symmetry_Int_Tables_number   1
_chemical_formula_structural   Th2Fe14B
_chemical_formula_sum   'Th8 Fe56 B4'
_cell_volume   926.12583079
_cell_formula_units_Z   4
loop_
 _symmetry_equiv_pos_site_id
 _symmetry_equiv_pos_as_xyz
  1  'x, y, z'
loop_
 _atom_site_type_symbol
 _atom_site_label
 _atom_site_symmetry_multiplicity
 _atom_site_fract_x
 _atom_site_fract_y
 _atom_site_fract_z
 _atom_site_occupancy
  Th  Th0  1  0.22864367  0.77135633  0.50000000  1
  Th  Th1  1  0.77135633  0.22864367  0.50000000  1
  Th  Th2  1  0.27135633  0.27135633  -0.00000000  1
  Th  Th3  1  0.72864367  0.72864367  -0.00000000  1
  Th  Th4  1  0.64636170  0.64636170  0.50000000  1
  Th  Th5  1  0.35363830  0.35363830  0.50000000  1
  Th  Th6  1  0.85363830  0.14636170  -0.00000000  1
  Th  Th7  1  0.14636170  0.85363830  -0.00000000  1
  Fe  Fe8  1  -0.00000000  0.50000000  0.50000000  1
  Fe  Fe9  1  0.50000000  0.00000000  -0.00000000  1
  Fe  Fe10  1  0.50000000  0.00000000  0.50000000  1
  Fe  Fe11  1  0.00000000  0.50000000  -0.00000000  1
  Fe  Fe12  1  0.50000000  0.50000000  0.11577165  1
  Fe  Fe13  1  0.00000000  0.00000000  0.61577165  1
  Fe  Fe14  1  0.50000000  0.50000000  0.88422835  1
  Fe  Fe15  1  -0.00000000  0.00000000  0.38422835  1
  Fe  Fe16  1  0.18195952  0.81804048  0.25366498  1
  Fe  Fe17  1  0.81804048  0.18195952  0.25366498  1
  Fe  Fe18  1  0.31804048  0.31804048  0.75366498  1
  Fe  Fe19  1  0.68195952  0.68195952  0.75366498  1
  Fe  Fe20  1  0.81804048  0.18195952  0.74633502  1
  Fe  Fe21  1  0.18195952  0.81804048  0.74633502  1
  Fe  Fe22  1  0.68195952  0.68195952  0.24633502  1
  Fe  Fe23  1  0.31804048  0.31804048  0.24633502  1
  Fe  Fe24  1  0.40259468  0.59740532  0.29811939  1
  Fe  Fe25  1  0.59740532  0.40259468  0.29811939  1
  Fe  Fe26  1  0.09740532  0.09740532  0.79811939  1
  Fe  Fe27  1  0.90259468  0.90259468  0.79811939  1
  Fe  Fe28  1  0.59740532  0.40259468  0.70188061  1
  Fe  Fe29  1  0.40259468  0.59740532  0.70188061  1
  Fe  Fe30  1  0.90259468  0.90259468  0.20188061  1
  Fe  Fe31  1  0.09740532  0.09740532  0.20188061  1
  Fe  Fe32  1  0.14024987  0.53752147  0.32478499  1
  Fe  Fe33  1  0.85975013  0.46247853  0.32478499  1
  Fe  Fe34  1  0.35975013  0.03752147  0.82478499  1
  Fe  Fe35  1  0.64024987  0.96247853  0.82478499  1
  Fe  Fe36  1  0.85975013  0.46247853  0.67521501  1
  Fe  Fe37  1  0.14024987  0.53752147  0.67521501  1
  Fe  Fe38  1  0.64024987  0.96247853  0.17521501  1
  Fe  Fe39  1  0.35975013  0.03752147  0.17521501  1
  Fe  Fe40  1  0.53752147  0.14024987  0.32478499  1
  Fe  Fe41  1  0.46247853  0.85975013  0.32478499  1
  Fe  Fe42  1  0.03752147  0.35975013  0.82478499  1
  Fe  Fe43  1  0.96247853  0.64024987  0.82478499  1
  Fe  Fe44  1  0.46247853  0.85975013  0.67521501  1
  Fe  Fe45  1  0.53752147  0.14024987  0.67521501  1
  Fe  Fe46  1  0.96247853  0.64024987  0.17521501  1
  Fe  Fe47  1  0.03752147  0.35975013  0.17521501  1
  Fe  Fe48  1  0.93353320  0.72406606  0.37239806  1
  Fe  Fe49  1  0.06646680  0.27593394  0.37239806  1
  Fe  Fe50  1  0.56646680  0.22406606  0.87239806  1
  Fe  Fe51  1  0.43353320  0.77593394  0.87239806  1
  Fe  Fe52  1  0.06646680  0.27593394  0.62760194  1
  Fe  Fe53  1  0.93353320  0.72406606  0.62760194  1
  Fe  Fe54  1  0.43353320  0.77593394  0.12760194  1
  Fe  Fe55  1  0.56646680  0.22406606  0.12760194  1
  Fe  Fe56  1  0.72406606  0.93353320  0.37239806  1
  Fe  Fe57  1  0.27593394  0.06646680  0.37239806  1
  Fe  Fe58  1  0.22406606  0.56646680  0.87239806  1
  Fe  Fe59  1  0.77593394  0.43353320  0.87239806  1
  Fe  Fe60  1  0.27593394  0.06646680  0.62760194  1
  Fe  Fe61  1  0.72406606  0.93353320  0.62760194  1
  Fe  Fe62  1  0.77593394  0.43353320  0.12760194  1
  Fe  Fe63  1  0.22406606  0.56646680  0.12760194  1
  B  B64  1  0.87730402  0.87730402  0.50000000  1
  B  B65  1  0.12269598  0.12269598  0.50000000  1
  B  B66  1  0.62269598  0.37730402  -0.00000000  1
  B  B67  1  0.37730402  0.62269598  -0.00000000  1
