# generated using pymatgen
data_Bi2S2O9
_symmetry_space_group_name_H-M   'P 1'
_cell_length_a   6.87889700
_cell_length_b   16.83360885
_cell_length_c   21.03515290
_cell_angle_alpha   75.11205716
_cell_angle_beta   80.58933854
_cell_angle_gamma   78.21028658
_symmetry_Int_Tables_number   1
_chemical_formula_structural   Bi2S2O9
_chemical_formula_sum   'Bi24 S24 O108'
_cell_volume   2288.45013494
_cell_formula_units_Z   12
loop_
 _symmetry_equiv_pos_site_id
 _symmetry_equiv_pos_as_xyz
  1  'x, y, z'
loop_
 _atom_site_type_symbol
 _atom_site_label
 _atom_site_symmetry_multiplicity
 _atom_site_fract_x
 _atom_site_fract_y
 _atom_site_fract_z
 _atom_site_occupancy
  Bi  Bi0  1  0.90983733  0.58838251  0.70491260  1
  Bi  Bi1  1  0.20313243  0.91161749  0.79508740  1
  Bi  Bi2  1  0.09016267  0.41161749  0.29508740  1
  Bi  Bi3  1  0.79686757  0.08838251  0.20491260  1
  Bi  Bi4  1  0.90349295  0.69085951  0.51709944  1
  Bi  Bi5  1  0.11145189  0.80914049  0.98290056  1
  Bi  Bi6  1  0.09650705  0.30914049  0.48290056  1
  Bi  Bi7  1  0.88854811  0.19085951  0.01709944  1
  Bi  Bi8  1  0.83528985  0.82615532  0.62735586  1
  Bi  Bi9  1  0.28880103  0.67384468  0.87264414  1
  Bi  Bi10  1  0.16471015  0.17384468  0.37264414  1
  Bi  Bi11  1  0.71119897  0.32615532  0.12735586  1
  Bi  Bi12  1  0.77631696  0.93027988  0.44168477  1
  Bi  Bi13  1  0.14828161  0.56972012  0.05831523  1
  Bi  Bi14  1  0.22368304  0.06972012  0.55831523  1
  Bi  Bi15  1  0.85171839  0.43027988  0.94168477  1
  Bi  Bi16  1  0.48416745  0.42673135  0.62221727  1
  Bi  Bi17  1  0.53311606  0.07326865  0.87778273  1
  Bi  Bi18  1  0.51583255  0.57326865  0.37778273  1
  Bi  Bi19  1  0.46688394  0.92673135  0.12221727  1
  Bi  Bi20  1  0.59748692  0.18625758  0.69229979  1
  Bi  Bi21  1  0.47604429  0.31374242  0.80770021  1
  Bi  Bi22  1  0.40251308  0.81374242  0.30770021  1
  Bi  Bi23  1  0.52395571  0.68625758  0.19229979  1
  S  S24  1  0.39417346  0.55964376  0.72527809  1
  S  S25  1  0.67909531  0.94035624  0.77472191  1
  S  S26  1  0.60582654  0.44035624  0.27472191  1
  S  S27  1  0.32090469  0.05964376  0.22527809  1
  S  S28  1  0.41399599  0.67112071  0.49616618  1
  S  S29  1  0.58128288  0.82887929  0.00383382  1
  S  S30  1  0.58600401  0.32887929  0.50383382  1
  S  S31  1  0.41871712  0.17112071  0.99616618  1
  S  S32  1  0.30067637  0.82369865  0.67574569  1
  S  S33  1  0.80012071  0.67630135  0.82425431  1
  S  S34  1  0.69932363  0.17630135  0.32425431  1
  S  S35  1  0.19987929  0.32369865  0.17574569  1
  S  S36  1  0.27079539  0.93889216  0.45855886  1
  S  S37  1  0.66824642  0.56110784  0.04144114  1
  S  S38  1  0.72920461  0.06110784  0.54144114  1
  S  S39  1  0.33175358  0.43889216  0.95855886  1
  S  S40  1  0.01230597  0.44898980  0.60331521  1
  S  S41  1  0.06461098  0.05101020  0.89668479  1
  S  S42  1  0.98769403  0.55101020  0.39668479  1
  S  S43  1  0.93538902  0.94898980  0.10331521  1
  S  S44  1  0.12546663  0.16436591  0.67536113  1
  S  S45  1  0.96519367  0.33563409  0.82463887  1
  S  S46  1  0.87453337  0.83563409  0.32463887  1
  S  S47  1  0.03480633  0.66436591  0.17536113  1
  O  O48  1  0.52944716  0.31603334  0.70238464  1
  O  O49  1  0.54786514  0.18396666  0.79761536  1
  O  O50  1  0.47055284  0.68396666  0.29761536  1
  O  O51  1  0.45213486  0.81603334  0.20238464  1
  O  O52  1  0.88214378  0.69425532  0.62115811  1
  O  O53  1  0.19755720  0.80574468  0.87884189  1
  O  O54  1  0.11785622  0.30574468  0.37884189  1
  O  O55  1  0.80244280  0.19425532  0.12115811  1
  O  O56  1  0.82921256  0.82282567  0.52355209  1
  O  O57  1  0.17559033  0.67717433  0.97644791  1
  O  O58  1  0.17078744  0.17717433  0.47644791  1
  O  O59  1  0.82440967  0.32282567  0.02355209  1
  O  O60  1  0.26631052  0.58681098  0.66939085  1
  O  O61  1  0.52251235  0.91318902  0.83060915  1
  O  O62  1  0.73368948  0.41318902  0.33060915  1
  O  O63  1  0.47748765  0.08681098  0.16939085  1
  O  O64  1  0.55440849  0.61124837  0.71220717  1
  O  O65  1  0.87786402  0.88875163  0.78779283  1
  O  O66  1  0.44559151  0.38875163  0.28779283  1
  O  O67  1  0.12213598  0.11124837  0.21220717  1
  O  O68  1  0.27126938  0.56415792  0.78838491  1
  O  O69  1  0.62381221  0.93584208  0.71161509  1
  O  O70  1  0.72873062  0.43584208  0.21161509  1
  O  O71  1  0.37618779  0.06415792  0.28838491  1
  O  O72  1  0.49418873  0.46963446  0.72444410  1
  O  O73  1  0.68826730  0.03036554  0.77555590  1
  O  O74  1  0.50581127  0.53036554  0.27555590  1
  O  O75  1  0.31173270  0.96963446  0.22444410  1
  O  O76  1  0.22254791  0.72894597  0.50444748  1
  O  O77  1  0.45594135  0.77105403  0.99555252  1
  O  O78  1  0.77745209  0.27105403  0.49555252  1
  O  O79  1  0.54405865  0.22894597  0.00444748  1
  O  O80  1  0.38755189  0.58303489  0.51561856  1
  O  O81  1  0.48620533  0.91696511  0.98438144  1
  O  O82  1  0.61244811  0.41696511  0.48438144  1
  O  O83  1  0.51379467  0.08303489  0.01561856  1
  O  O84  1  0.48980688  0.68958456  0.42154373  1
  O  O85  1  0.60093517  0.81041544  0.07845627  1
  O  O86  1  0.51019312  0.31041544  0.57845627  1
  O  O87  1  0.39906483  0.18958456  0.92154373  1
  O  O88  1  0.55895502  0.68986863  0.53272316  1
  O  O89  1  0.78154680  0.81013137  0.96727684  1
  O  O90  1  0.44104498  0.31013137  0.46727684  1
  O  O91  1  0.21845320  0.18986863  0.03272316  1
  O  O92  1  0.20992539  0.91335867  0.66462529  1
  O  O93  1  0.78790934  0.58664133  0.83537471  1
  O  O94  1  0.79007461  0.08664133  0.33537471  1
  O  O95  1  0.21209066  0.41335867  0.16462529  1
  O  O96  1  0.31171459  0.79465474  0.75093263  1
  O  O97  1  0.85730196  0.70534526  0.74906737  1
  O  O98  1  0.68828541  0.20534526  0.24906737  1
  O  O99  1  0.14269804  0.29465474  0.25093263  1
  O  O100  1  0.50573717  0.80951196  0.64087072  1
  O  O101  1  0.95611985  0.69048804  0.85912928  1
  O  O102  1  0.49426283  0.19048804  0.35912928  1
  O  O103  1  0.04388015  0.30951196  0.14087072  1
  O  O104  1  0.17878826  0.77371628  0.65599223  1
  O  O105  1  0.60849677  0.72628372  0.84400777  1
  O  O106  1  0.82121174  0.22628372  0.34400777  1
  O  O107  1  0.39150323  0.27371628  0.15599223  1
  O  O108  1  0.46489497  0.88291895  0.44472564  1
  O  O109  1  0.79253956  0.61708105  0.05527436  1
  O  O110  1  0.53510503  0.11708105  0.55527436  1
  O  O111  1  0.20746044  0.38291895  0.94472564  1
  O  O112  1  0.32265635  0.02603635  0.44788559  1
  O  O113  1  0.79657829  0.47396365  0.05211441  1
  O  O114  1  0.67734365  0.97396365  0.55211441  1
  O  O115  1  0.20342171  0.52603635  0.94788559  1
  O  O116  1  0.17447566  0.91733180  0.52691488  1
  O  O117  1  0.61872234  0.58266820  0.97308512  1
  O  O118  1  0.82552434  0.08266820  0.47308512  1
  O  O119  1  0.38127766  0.41733180  0.02691488  1
  O  O120  1  0.13585140  0.93762502  0.40985882  1
  O  O121  1  0.48333523  0.56237498  0.09014118  1
  O  O122  1  0.86414860  0.06237498  0.59014118  1
  O  O123  1  0.51666477  0.43762502  0.90985882  1
  O  O124  1  0.13692749  0.42264005  0.66083542  1
  O  O125  1  0.22040296  0.07735995  0.83916458  1
  O  O126  1  0.86307251  0.57735995  0.33916458  1
  O  O127  1  0.77959704  0.92264005  0.16083542  1
  O  O128  1  0.14920226  0.44468494  0.54243363  1
  O  O129  1  0.13632083  0.05531506  0.95756637  1
  O  O130  1  0.85079774  0.55531506  0.45756637  1
  O  O131  1  0.86367917  0.94468494  0.04243363  1
  O  O132  1  0.90433713  0.53727503  0.60397132  1
  O  O133  1  0.04558347  0.96272497  0.89602868  1
  O  O134  1  0.09566287  0.46272497  0.39602868  1
  O  O135  1  0.95441653  0.03727503  0.10397132  1
  O  O136  1  0.85818656  0.39494807  0.61317533  1
  O  O137  1  0.86630995  0.10505193  0.88682467  1
  O  O138  1  0.14181344  0.60505193  0.38682467  1
  O  O139  1  0.13369005  0.89494807  0.11317533  1
  O  O140  1  0.10255039  0.18885338  0.60107762  1
  O  O141  1  0.89248139  0.31114662  0.89892238  1
  O  O142  1  0.89744961  0.81114662  0.39892238  1
  O  O143  1  0.10751861  0.68885338  0.10107762  1
  O  O144  1  0.25192439  0.21805846  0.68909380  1
  O  O145  1  0.15907665  0.28194154  0.81090620  1
  O  O146  1  0.74807561  0.78194154  0.31090620  1
  O  O147  1  0.84092335  0.71805846  0.18909380  1
  O  O148  1  0.92612329  0.18019284  0.71303022  1
  O  O149  1  0.81934634  0.31980716  0.78696978  1
  O  O150  1  0.07387671  0.81980716  0.28696978  1
  O  O151  1  0.18065366  0.68019284  0.21303022  1
  O  O152  1  0.21903602  0.07537597  0.68913722  1
  O  O153  1  0.98354921  0.42462403  0.81086278  1
  O  O154  1  0.78096398  0.92462403  0.31086278  1
  O  O155  1  0.01645079  0.57537597  0.18913722  1
