# generated using pymatgen
data_Rb3NpH8O9
_symmetry_space_group_name_H-M   'P 1'
_cell_length_a   7.93873215
_cell_length_b   8.38108376
_cell_length_c   8.38108376
_cell_angle_alpha   84.10840610
_cell_angle_beta   87.35290092
_cell_angle_gamma   87.35290092
_symmetry_Int_Tables_number   1
_chemical_formula_structural   Rb3NpH8O9
_chemical_formula_sum   'Rb6 Np2 H16 O18'
_cell_volume   553.61736488
_cell_formula_units_Z   2
loop_
 _symmetry_equiv_pos_site_id
 _symmetry_equiv_pos_as_xyz
  1  'x, y, z'
loop_
 _atom_site_type_symbol
 _atom_site_label
 _atom_site_symmetry_multiplicity
 _atom_site_fract_x
 _atom_site_fract_y
 _atom_site_fract_z
 _atom_site_occupancy
  Rb  Rb0  1  0.46038097  0.70738520  0.88715222  1
  Rb  Rb1  1  0.03961903  0.11284778  0.29261480  1
  Rb  Rb2  1  0.53961903  0.29261480  0.11284778  1
  Rb  Rb3  1  0.96038097  0.88715222  0.70738520  1
  Rb  Rb4  1  0.25000000  0.56120716  0.43879284  1
  Rb  Rb5  1  0.75000000  0.43879284  0.56120716  1
  Np  Np6  1  0.00000000  0.50000000  -0.00000000  1
  Np  Np7  1  0.50000000  0.00000000  0.50000000  1
  H  H8  1  0.09274923  0.82598519  0.05875234  1
  H  H9  1  0.40725077  0.94124766  0.17401481  1
  H  H10  1  0.90725077  0.17401481  0.94124766  1
  H  H11  1  0.59274923  0.05875234  0.82598519  1
  H  H12  1  0.31125357  0.43241135  0.78035403  1
  H  H13  1  0.18874643  0.21964597  0.56758865  1
  H  H14  1  0.68874643  0.56758865  0.21964597  1
  H  H15  1  0.81125357  0.78035403  0.43241135  1
  H  H16  1  0.44259342  0.28136838  0.75517188  1
  H  H17  1  0.05740658  0.24482812  0.71863162  1
  H  H18  1  0.55740658  0.71863162  0.24482812  1
  H  H19  1  0.94259342  0.75517188  0.28136838  1
  H  H20  1  0.65880005  0.95986425  0.10090267  1
  H  H21  1  0.84119995  0.89909733  0.04013575  1
  H  H22  1  0.34119995  0.04013575  0.89909733  1
  H  H23  1  0.15880005  0.10090267  0.95986425  1
  O  O24  1  0.12836262  0.57302090  0.80744899  1
  O  O25  1  0.37163738  0.19255101  0.42697910  1
  O  O26  1  0.87163738  0.42697910  0.19255101  1
  O  O27  1  0.62836262  0.80744899  0.57302090  1
  O  O28  1  0.79484715  0.54701912  0.89454453  1
  O  O29  1  0.70515285  0.10545547  0.45298088  1
  O  O30  1  0.20515285  0.45298088  0.10545547  1
  O  O31  1  0.29484715  0.89454453  0.54701912  1
  O  O32  1  0.98976104  0.76588931  0.08485226  1
  O  O33  1  0.51023896  0.91514774  0.23411069  1
  O  O34  1  0.01023896  0.23411069  0.91514774  1
  O  O35  1  0.48976104  0.08485226  0.76588931  1
  O  O36  1  0.43026082  0.40211502  0.75268104  1
  O  O37  1  0.06973918  0.24731896  0.59788498  1
  O  O38  1  0.56973918  0.59788498  0.24731896  1
  O  O39  1  0.93026082  0.75268104  0.40211502  1
  O  O40  1  0.75000000  0.98656865  0.01343135  1
  O  O41  1  0.25000000  0.01343135  0.98656865  1
