# generated using pymatgen
data_Rb2ScSi4O10F
_symmetry_space_group_name_H-M   'P 1'
_cell_length_a   8.51864881
_cell_length_b   11.66905681
_cell_length_c   11.84058250
_cell_angle_alpha   111.25610831
_cell_angle_beta   90.00000000
_cell_angle_gamma   90.00000000
_symmetry_Int_Tables_number   1
_chemical_formula_structural   Rb2ScSi4O10F
_chemical_formula_sum   'Rb8 Sc4 Si16 O40 F4'
_cell_volume   1096.93554071
_cell_formula_units_Z   4
loop_
 _symmetry_equiv_pos_site_id
 _symmetry_equiv_pos_as_xyz
  1  'x, y, z'
loop_
 _atom_site_type_symbol
 _atom_site_label
 _atom_site_symmetry_multiplicity
 _atom_site_fract_x
 _atom_site_fract_y
 _atom_site_fract_z
 _atom_site_occupancy
  Rb  Rb0  1  0.25000000  0.55456952  0.44841545  1
  Rb  Rb1  1  0.75000000  0.44543048  0.55158455  1
  Rb  Rb2  1  0.75000000  0.92019232  0.91943832  1
  Rb  Rb3  1  0.25000000  0.07980768  0.08056168  1
  Rb  Rb4  1  0.25000000  0.98860436  0.47190142  1
  Rb  Rb5  1  0.75000000  0.01139564  0.52809858  1
  Rb  Rb6  1  0.75000000  0.52958889  0.96596616  1
  Rb  Rb7  1  0.25000000  0.47041111  0.03403384  1
  Sc  Sc8  1  0.50359217  0.70647665  0.29140166  1
  Sc  Sc9  1  0.00359217  0.29352335  0.70859834  1
  Sc  Sc10  1  0.49640783  0.29352335  0.70859834  1
  Sc  Sc11  1  0.99640783  0.70647665  0.29140166  1
  Si  Si12  1  0.43928593  0.60983869  0.77050662  1
  Si  Si13  1  0.93928593  0.39016131  0.22949338  1
  Si  Si14  1  0.56071407  0.39016131  0.22949338  1
  Si  Si15  1  0.06071407  0.60983869  0.77050662  1
  Si  Si16  1  0.56645718  0.97908779  0.24628667  1
  Si  Si17  1  0.06645718  0.02091221  0.75371333  1
  Si  Si18  1  0.43354282  0.02091221  0.75371333  1
  Si  Si19  1  0.93354282  0.97908779  0.24628667  1
  Si  Si20  1  0.93723762  0.75627011  0.60910349  1
  Si  Si21  1  0.43723762  0.24372989  0.39089651  1
  Si  Si22  1  0.06276238  0.24372989  0.39089651  1
  Si  Si23  1  0.56276238  0.75627011  0.60910349  1
  Si  Si24  1  0.43685224  0.77125063  0.03807977  1
  Si  Si25  1  0.93685224  0.22874937  0.96192023  1
  Si  Si26  1  0.56314776  0.22874937  0.96192023  1
  Si  Si27  1  0.06314776  0.77125063  0.03807977  1
  O  O28  1  0.25000000  0.59944373  0.78394437  1
  O  O29  1  0.75000000  0.40055627  0.21605563  1
  O  O30  1  0.25000000  0.27701442  0.38587204  1
  O  O31  1  0.75000000  0.72298558  0.61412796  1
  O  O32  1  0.50232666  0.71987572  0.89660927  1
  O  O33  1  0.00232666  0.28012428  0.10339073  1
  O  O34  1  0.49767334  0.28012428  0.10339073  1
  O  O35  1  0.99767334  0.71987572  0.89660927  1
  O  O36  1  0.47110473  0.65767454  0.65708818  1
  O  O37  1  0.97110473  0.34232546  0.34291182  1
  O  O38  1  0.52889527  0.34232546  0.34291182  1
  O  O39  1  0.02889527  0.65767454  0.65708818  1
  O  O40  1  0.75000000  0.02586457  0.25529631  1
  O  O41  1  0.25000000  0.97413543  0.74470369  1
  O  O42  1  0.45737311  0.10427763  0.28719657  1
  O  O43  1  0.95737311  0.89572237  0.71280343  1
  O  O44  1  0.54262689  0.89572237  0.71280343  1
  O  O45  1  0.04262689  0.10427763  0.28719657  1
  O  O46  1  0.52566322  0.90695107  0.10007715  1
  O  O47  1  0.02566322  0.09304893  0.89992285  1
  O  O48  1  0.47433678  0.09304893  0.89992285  1
  O  O49  1  0.97433678  0.90695107  0.10007715  1
  O  O50  1  0.25000000  0.80575783  0.03529605  1
  O  O51  1  0.75000000  0.19424217  0.96470395  1
  O  O52  1  0.52563671  0.48206431  0.74899404  1
  O  O53  1  0.02563671  0.51793569  0.25100596  1
  O  O54  1  0.47436329  0.51793569  0.25100596  1
  O  O55  1  0.97436329  0.48206431  0.74899404  1
  O  O56  1  0.52852852  0.89587973  0.32420824  1
  O  O57  1  0.02852852  0.10412027  0.67579176  1
  O  O58  1  0.47147148  0.10412027  0.67579176  1
  O  O59  1  0.97147148  0.89587973  0.32420824  1
  O  O60  1  0.47566519  0.67906541  0.10620097  1
  O  O61  1  0.97566519  0.32093459  0.89379903  1
  O  O62  1  0.52433481  0.32093459  0.89379903  1
  O  O63  1  0.02433481  0.67906541  0.10620097  1
  O  O64  1  0.50296566  0.74602555  0.47844114  1
  O  O65  1  0.00296566  0.25397445  0.52155886  1
  O  O66  1  0.49703434  0.25397445  0.52155886  1
  O  O67  1  0.99703434  0.74602555  0.47844114  1
  F  F68  1  0.25000000  0.72418223  0.30706700  1
  F  F69  1  0.75000000  0.27581777  0.69293300  1
  F  F70  1  0.75000000  0.68796961  0.27452942  1
  F  F71  1  0.25000000  0.31203039  0.72547058  1
