# generated using pymatgen
data_U2NiP2(HO)24
_symmetry_space_group_name_H-M   'P 1'
_cell_length_a   7.01947406
_cell_length_b   7.05401562
_cell_length_c   11.28415873
_cell_angle_alpha   81.05007962
_cell_angle_beta   82.83864773
_cell_angle_gamma   88.75933784
_symmetry_Int_Tables_number   1
_chemical_formula_structural   U2NiP2(HO)24
_chemical_formula_sum   'U2 Ni1 P2 H24 O24'
_cell_volume   547.63058636
_cell_formula_units_Z   1
loop_
 _symmetry_equiv_pos_site_id
 _symmetry_equiv_pos_as_xyz
  1  'x, y, z'
loop_
 _atom_site_type_symbol
 _atom_site_label
 _atom_site_symmetry_multiplicity
 _atom_site_fract_x
 _atom_site_fract_y
 _atom_site_fract_z
 _atom_site_occupancy
  U  U0  1  0.26372473  0.26893568  0.92560034  1
  U  U1  1  0.73627527  0.73106432  0.07439966  1
  Ni  Ni2  1  0.00000000  0.50000000  0.50000000  1
  P  P3  1  0.74986456  0.24815571  0.99902917  1
  P  P4  1  0.25013544  0.75184429  0.00097083  1
  H  H5  1  0.86327123  0.84687740  0.41179713  1
  H  H6  1  0.13672877  0.15312260  0.58820287  1
  H  H7  1  0.25306115  0.78453510  0.45987903  1
  H  H8  1  0.74693885  0.21546490  0.54012097  1
  H  H9  1  0.74710210  0.56899380  0.68783925  1
  H  H10  1  0.25289790  0.43100620  0.31216075  1
  H  H11  1  0.74018883  0.68262521  0.39014774  1
  H  H12  1  0.25981117  0.31737479  0.60985226  1
  H  H13  1  0.13488245  0.93264371  0.76537406  1
  H  H14  1  0.86511755  0.06735629  0.23462594  1
  H  H15  1  0.14936047  0.77766909  0.59507939  1
  H  H16  1  0.85063953  0.22233091  0.40492061  1
  H  H17  1  0.44666668  0.67021293  0.77538990  1
  H  H18  1  0.55333332  0.32978707  0.22461010  1
  H  H19  1  0.65246993  0.12679685  0.74870872  1
  H  H20  1  0.34753007  0.87320315  0.25129128  1
  H  H21  1  0.93723700  0.96212682  0.70948933  1
  H  H22  1  0.06276300  0.03787318  0.29051067  1
  H  H23  1  0.44893720  0.69551165  0.63467358  1
  H  H24  1  0.55106280  0.30448835  0.36532642  1
  H  H25  1  0.62485707  0.93928249  0.69102507  1
  H  H26  1  0.37514293  0.06071751  0.30897493  1
  H  H27  1  0.91015928  0.44043796  0.75095857  1
  H  H28  1  0.08984072  0.55956204  0.24904143  1
  O  O29  1  0.93985555  0.29759214  0.91455966  1
  O  O30  1  0.06014445  0.70240786  0.08544034  1
  O  O31  1  0.58912105  0.23691512  0.91806497  1
  O  O32  1  0.41087895  0.76308488  0.08193503  1
  O  O33  1  0.30353358  0.31468595  0.76035767  1
  O  O34  1  0.69646642  0.68531405  0.23964233  1
  O  O35  1  0.76646951  0.05441567  0.08398076  1
  O  O36  1  0.23353049  0.94558433  0.91601924  1
  O  O37  1  0.70281627  0.40520319  0.08080934  1
  O  O38  1  0.29718373  0.59479681  0.91919066  1
  O  O39  1  0.22683495  0.22875295  0.08939129  1
  O  O40  1  0.77316505  0.77124705  0.91060871  1
  O  O41  1  0.86498583  0.49177529  0.67357130  1
  O  O42  1  0.13501417  0.50822471  0.32642870  1
  O  O43  1  0.21018223  0.69571055  0.53586738  1
  O  O44  1  0.78981777  0.30428945  0.46413262  1
  O  O45  1  0.81032289  0.72033666  0.45330988  1
  O  O46  1  0.18967711  0.27966334  0.54669012  1
  O  O47  1  0.52847558  0.71119605  0.69776312  1
  O  O48  1  0.47152442  0.28880395  0.30223688  1
  O  O49  1  0.07735064  0.94127775  0.68933696  1
  O  O50  1  0.92264936  0.05872225  0.31066304  1
  O  O51  1  0.70176874  0.05949246  0.68178273  1
  O  O52  1  0.29823126  0.94050754  0.31821727  1
