# generated using pymatgen
data_Nd3InS6
_symmetry_space_group_name_H-M   'P 1'
_cell_length_a   4.00604730
_cell_length_b   13.80091229
_cell_length_c   16.87930960
_cell_angle_alpha   90.00000000
_cell_angle_beta   90.00000000
_cell_angle_gamma   90.00000000
_symmetry_Int_Tables_number   1
_chemical_formula_structural   Nd3InS6
_chemical_formula_sum   'Nd12 In4 S24'
_cell_volume   933.20820298
_cell_formula_units_Z   4
loop_
 _symmetry_equiv_pos_site_id
 _symmetry_equiv_pos_as_xyz
  1  'x, y, z'
loop_
 _atom_site_type_symbol
 _atom_site_label
 _atom_site_symmetry_multiplicity
 _atom_site_fract_x
 _atom_site_fract_y
 _atom_site_fract_z
 _atom_site_occupancy
  Nd  Nd0  1  0.25447983  0.03712171  0.77826717  1
  Nd  Nd1  1  0.25447983  0.96287829  0.22173283  1
  Nd  Nd2  1  0.74552017  0.46287829  0.27826717  1
  Nd  Nd3  1  0.74552017  0.53712171  0.72173283  1
  Nd  Nd4  1  0.26056685  0.24760333  0.60933767  1
  Nd  Nd5  1  0.26056685  0.75239667  0.39066233  1
  Nd  Nd6  1  0.73943315  0.25239667  0.10933767  1
  Nd  Nd7  1  0.73943315  0.74760333  0.89066233  1
  Nd  Nd8  1  0.74666228  0.30931821  0.85630756  1
  Nd  Nd9  1  0.74666228  0.69068179  0.14369244  1
  Nd  Nd10  1  0.25333772  0.19068179  0.35630756  1
  Nd  Nd11  1  0.25333772  0.80931821  0.64369244  1
  In  In12  1  0.75388814  0.00000000  0.50000000  1
  In  In13  1  0.24611186  0.50000000  -0.00000000  1
  In  In14  1  0.40577558  0.50000000  0.50000000  1
  In  In15  1  0.59422442  0.00000000  0.00000000  1
  S  S16  1  0.76583378  0.39777781  0.59030987  1
  S  S17  1  0.76583378  0.60222219  0.40969013  1
  S  S18  1  0.23416622  0.10222219  0.09030987  1
  S  S19  1  0.23416622  0.89777781  0.90969013  1
  S  S20  1  0.24544667  0.31111490  0.98214842  1
  S  S21  1  0.24544667  0.68888510  0.01785158  1
  S  S22  1  0.75455333  0.18888510  0.48214842  1
  S  S23  1  0.75455333  0.81111490  0.51785158  1
  S  S24  1  0.75277211  0.10704743  0.88906509  1
  S  S25  1  0.75277211  0.89295257  0.11093491  1
  S  S26  1  0.24722789  0.39295257  0.38906509  1
  S  S27  1  0.24722789  0.60704743  0.61093491  1
  S  S28  1  0.75738929  0.17806515  0.71776042  1
  S  S29  1  0.75738929  0.82193485  0.28223958  1
  S  S30  1  0.24261071  0.32193485  0.21776042  1
  S  S31  1  0.24261071  0.67806515  0.78223958  1
  S  S32  1  0.24777013  0.38574830  0.75558477  1
  S  S33  1  0.24777013  0.61425170  0.24441523  1
  S  S34  1  0.75222987  0.11425170  0.25558477  1
  S  S35  1  0.75222987  0.88574830  0.74441523  1
  S  S36  1  0.25424507  0.02064424  0.60362483  1
  S  S37  1  0.25424507  0.97935576  0.39637517  1
  S  S38  1  0.74575493  0.47935576  0.10362483  1
  S  S39  1  0.74575493  0.52064424  0.89637517  1
