# generated using pymatgen
data_Er2B6Ru
_symmetry_space_group_name_H-M   'P 1'
_cell_length_a   3.64051464
_cell_length_b   9.09962744
_cell_length_c   11.46623552
_cell_angle_alpha   90.00000000
_cell_angle_beta   90.00000000
_cell_angle_gamma   90.00000000
_symmetry_Int_Tables_number   1
_chemical_formula_structural   Er2B6Ru
_chemical_formula_sum   'Er8 B24 Ru4'
_cell_volume   379.84573254
_cell_formula_units_Z   4
loop_
 _symmetry_equiv_pos_site_id
 _symmetry_equiv_pos_as_xyz
  1  'x, y, z'
loop_
 _atom_site_type_symbol
 _atom_site_label
 _atom_site_symmetry_multiplicity
 _atom_site_fract_x
 _atom_site_fract_y
 _atom_site_fract_z
 _atom_site_occupancy
  Er  Er0  1  0.00000000  0.32187708  0.41441956  1
  Er  Er1  1  -0.00000000  0.67812292  0.58558044  1
  Er  Er2  1  0.00000000  0.82187708  0.08558044  1
  Er  Er3  1  -0.00000000  0.17812292  0.91441956  1
  Er  Er4  1  0.00000000  0.94478124  0.37244419  1
  Er  Er5  1  -0.00000000  0.05521876  0.62755581  1
  Er  Er6  1  0.00000000  0.44478124  0.12755581  1
  Er  Er7  1  -0.00000000  0.55521876  0.87244419  1
  B  B8  1  0.50000000  0.55452367  0.43344544  1
  B  B9  1  0.50000000  0.44547633  0.56655456  1
  B  B10  1  0.50000000  0.05452367  0.06655456  1
  B  B11  1  0.50000000  0.94547633  0.93344544  1
  B  B12  1  0.50000000  0.74934648  0.42029640  1
  B  B13  1  0.50000000  0.25065352  0.57970360  1
  B  B14  1  0.50000000  0.24934648  0.07970360  1
  B  B15  1  0.50000000  0.75065352  0.92029640  1
  B  B16  1  0.50000000  0.79228043  0.26614916  1
  B  B17  1  0.50000000  0.20771957  0.73385084  1
  B  B18  1  0.50000000  0.29228043  0.23385084  1
  B  B19  1  0.50000000  0.70771957  0.76614916  1
  B  B20  1  0.50000000  0.63250008  0.18474082  1
  B  B21  1  0.50000000  0.36749992  0.81525918  1
  B  B22  1  0.50000000  0.13250008  0.31525918  1
  B  B23  1  0.50000000  0.86749992  0.68474082  1
  B  B24  1  0.50000000  0.98412228  0.21262022  1
  B  B25  1  0.50000000  0.01587772  0.78737978  1
  B  B26  1  0.50000000  0.48412228  0.28737978  1
  B  B27  1  0.50000000  0.51587772  0.71262022  1
  B  B28  1  0.50000000  0.60873455  0.02985212  1
  B  B29  1  0.50000000  0.39126545  0.97014788  1
  B  B30  1  0.50000000  0.10873455  0.47014788  1
  B  B31  1  0.50000000  0.89126545  0.52985212  1
  Ru  Ru32  1  -0.00000000  0.63892547  0.32098788  1
  Ru  Ru33  1  0.00000000  0.36107453  0.67901212  1
  Ru  Ru34  1  -0.00000000  0.13892547  0.17901212  1
  Ru  Ru35  1  0.00000000  0.86107453  0.82098788  1
