# generated using pymatgen
data_LiGa(SeO3)2
_symmetry_space_group_name_H-M   'P 1'
_cell_length_a   9.09429497
_cell_length_b   9.09429497
_cell_length_c   9.09429497
_cell_angle_alpha   107.66507078
_cell_angle_beta   107.66507078
_cell_angle_gamma   113.14725014
_symmetry_Int_Tables_number   1
_chemical_formula_structural   LiGa(SeO3)2
_chemical_formula_sum   'Li4 Ga4 Se8 O24'
_cell_volume   577.20911173
_cell_formula_units_Z   4
loop_
 _symmetry_equiv_pos_site_id
 _symmetry_equiv_pos_as_xyz
  1  'x, y, z'
loop_
 _atom_site_type_symbol
 _atom_site_label
 _atom_site_symmetry_multiplicity
 _atom_site_fract_x
 _atom_site_fract_y
 _atom_site_fract_z
 _atom_site_occupancy
  Li  Li0  1  0.87500000  0.68922807  0.31422807  1
  Li  Li1  1  0.37500000  0.56077193  0.68577193  1
  Li  Li2  1  0.31077193  0.62500000  0.18577193  1
  Li  Li3  1  0.43922807  0.12500000  0.81422807  1
  Ga  Ga4  1  0.87500000  0.41267433  0.03767433  1
  Ga  Ga5  1  0.37500000  0.83732567  0.96232567  1
  Ga  Ga6  1  0.58732567  0.62500000  0.46232567  1
  Ga  Ga7  1  0.16267433  0.12500000  0.53767433  1
  Se  Se8  1  0.13455144  0.85577010  0.17175200  1
  Se  Se9  1  0.61544856  0.28720056  0.22121866  1
  Se  Se10  1  0.68401810  0.96279944  0.82824800  1
  Se  Se11  1  0.06598190  0.39422990  0.77878134  1
  Se  Se12  1  0.14422990  0.31598190  0.27878134  1
  Se  Se13  1  0.60577010  0.38455144  0.67175200  1
  Se  Se14  1  0.03720056  0.86544856  0.72121866  1
  Se  Se15  1  0.71279944  0.93401810  0.32824800  1
  O  O16  1  0.04770097  0.68024204  0.22097713  1
  O  O17  1  0.70229903  0.42327616  0.13254107  1
  O  O18  1  0.45926491  0.82672384  0.77902287  1
  O  O19  1  0.29073509  0.56975796  0.86745893  1
  O  O20  1  0.31975796  0.54073509  0.36745893  1
  O  O21  1  0.43024204  0.29770097  0.72097713  1
  O  O22  1  0.17327616  0.95229903  0.63254107  1
  O  O23  1  0.57672384  0.70926491  0.27902287  1
  O  O24  1  0.31609631  0.84021940  0.15845550  1
  O  O25  1  0.43390369  0.09235919  0.02412308  1
  O  O26  1  0.68176390  0.15764081  0.84154450  1
  O  O27  1  0.06823610  0.40978060  0.97587692  1
  O  O28  1  0.15978060  0.31823610  0.47587692  1
  O  O29  1  0.59021940  0.56609631  0.65845550  1
  O  O30  1  0.84235919  0.68390369  0.52412308  1
  O  O31  1  0.90764081  0.93176390  0.34154450  1
  O  O32  1  0.25504820  0.04260860  0.37755854  1
  O  O33  1  0.49495180  0.37251034  0.28756040  1
  O  O34  1  0.66505006  0.87748966  0.62244146  1
  O  O35  1  0.08494994  0.20739140  0.71243960  1
  O  O36  1  0.95739140  0.33494994  0.21243960  1
  O  O37  1  0.79260860  0.50504820  0.87755854  1
  O  O38  1  0.12251034  0.74495180  0.78756040  1
  O  O39  1  0.62748966  0.91505006  0.12244146  1
