# generated using pymatgen
data_Li9Mn2Co5O16
_symmetry_space_group_name_H-M   'P 1'
_cell_length_a   2.89378394
_cell_length_b   8.40661442
_cell_length_c   11.85506882
_cell_angle_alpha   89.54953640
_cell_angle_beta   90.00000000
_cell_angle_gamma   90.00000000
_symmetry_Int_Tables_number   1
_chemical_formula_structural   Li9Mn2Co5O16
_chemical_formula_sum   'Li9 Mn2 Co5 O16'
_cell_volume   288.38846628
_cell_formula_units_Z   1
loop_
 _symmetry_equiv_pos_site_id
 _symmetry_equiv_pos_as_xyz
  1  'x, y, z'
loop_
 _atom_site_type_symbol
 _atom_site_label
 _atom_site_symmetry_multiplicity
 _atom_site_fract_x
 _atom_site_fract_y
 _atom_site_fract_z
 _atom_site_occupancy
  Li  Li0  1  0.50000000  0.25467882  0.11392783  1
  Li  Li1  1  0.50000000  0.74278167  0.37206686  1
  Li  Li2  1  0.50000000  0.25675586  0.63300896  1
  Li  Li3  1  -0.00000000  0.48637742  0.99397481  1
  Li  Li4  1  -0.00000000  0.99956870  0.24525127  1
  Li  Li5  1  -0.00000000  0.50086216  0.50169911  1
  Li  Li6  1  0.50000000  0.74476439  0.87516950  1
  Li  Li7  1  -0.00000000  0.01537712  0.75834172  1
  Li  Li8  1  0.50000000  0.25250828  0.87854889  1
  Mn  Mn9  1  0.00000000  0.01122066  0.99901445  1
  Mn  Mn10  1  -0.00000000  0.99685602  0.49831118  1
  Co  Co11  1  0.00000000  0.50200190  0.25079496  1
  Co  Co12  1  -0.00000000  0.47385366  0.75526078  1
  Co  Co13  1  0.50000000  0.74652751  0.12340608  1
  Co  Co14  1  0.50000000  0.25327569  0.37285634  1
  Co  Co15  1  0.50000000  0.74147968  0.63241232  1
  O  O16  1  0.50000000  0.99812003  0.11406931  1
  O  O17  1  0.50000000  0.49881648  0.37123767  1
  O  O18  1  0.50000000  0.00308370  0.60753627  1
  O  O19  1  -0.00000000  0.22854051  0.00232164  1
  O  O20  1  -0.00000000  0.74887255  0.24135264  1
  O  O21  1  0.00000000  0.23189482  0.48329130  1
  O  O22  1  0.50000000  0.50269989  0.86588913  1
  O  O23  1  -0.00000000  0.75546755  0.74250347  1
  O  O24  1  0.50000000  0.50556121  0.13052583  1
  O  O25  1  0.50000000  0.99357259  0.38810648  1
  O  O26  1  0.50000000  0.50847539  0.62946083  1
  O  O27  1  0.00000000  0.76685459  0.00991933  1
  O  O28  1  -0.00000000  0.25335295  0.26444520  1
  O  O29  1  -0.00000000  0.76771375  0.50846909  1
  O  O30  1  0.50000000  0.99882657  0.89111413  1
  O  O31  1  -0.00000000  0.25925786  0.74571261  1
