# generated using pymatgen
data_RbMoPO6
_symmetry_space_group_name_H-M   'P 1'
_cell_length_a   8.47522229
_cell_length_b   8.47522229
_cell_length_c   9.82243536
_cell_angle_alpha   112.20332864
_cell_angle_beta   112.20332864
_cell_angle_gamma   97.12713018
_symmetry_Int_Tables_number   1
_chemical_formula_structural   RbMoPO6
_chemical_formula_sum   'Rb4 Mo4 P4 O24'
_cell_volume   574.72762887
_cell_formula_units_Z   4
loop_
 _symmetry_equiv_pos_site_id
 _symmetry_equiv_pos_as_xyz
  1  'x, y, z'
loop_
 _atom_site_type_symbol
 _atom_site_label
 _atom_site_symmetry_multiplicity
 _atom_site_fract_x
 _atom_site_fract_y
 _atom_site_fract_z
 _atom_site_occupancy
  Rb  Rb0  1  0.17155541  0.92155541  0.25000000  1
  Rb  Rb1  1  0.57844459  0.32844459  0.25000000  1
  Rb  Rb2  1  0.82844459  0.07844459  0.75000000  1
  Rb  Rb3  1  0.42155541  0.67155541  0.75000000  1
  Mo  Mo4  1  0.90603249  0.59396751  0.75000000  1
  Mo  Mo5  1  0.34396751  0.15603249  0.75000000  1
  Mo  Mo6  1  0.09396751  0.40603249  0.25000000  1
  Mo  Mo7  1  0.65603249  0.84396751  0.25000000  1
  P  P8  1  0.00749167  0.75749167  0.51498335  1
  P  P9  1  0.74250833  0.49250833  0.98501665  1
  P  P10  1  0.99250833  0.24250833  0.48501665  1
  P  P11  1  0.25749167  0.50749167  0.01498335  1
  O  O12  1  0.02770937  0.66960469  0.63306405  1
  O  O13  1  0.53654064  0.39464531  0.86693595  1
  O  O14  1  0.83039531  0.47229063  0.86693595  1
  O  O15  1  0.10535469  0.96345936  0.63306405  1
  O  O16  1  0.97229063  0.33039531  0.36693595  1
  O  O17  1  0.46345936  0.60535469  0.13306405  1
  O  O18  1  0.16960469  0.52770937  0.13306405  1
  O  O19  1  0.89464531  0.03654064  0.36693595  1
  O  O20  1  0.80945277  0.73116358  0.41154026  1
  O  O21  1  0.81962332  0.39791250  0.08845974  1
  O  O22  1  0.76883642  0.69054723  0.08845974  1
  O  O23  1  0.10208750  0.68037668  0.41154026  1
  O  O24  1  0.19054723  0.26883642  0.58845974  1
  O  O25  1  0.18037668  0.60208750  0.91154026  1
  O  O26  1  0.23116358  0.30945277  0.91154026  1
  O  O27  1  0.89791250  0.31962332  0.58845974  1
  O  O28  1  0.69024452  0.55374877  0.60531693  1
  O  O29  1  0.44843184  0.08492759  0.89468307  1
  O  O30  1  0.94625123  0.80975548  0.89468307  1
  O  O31  1  0.41507241  0.05156816  0.60531693  1
  O  O32  1  0.30975548  0.44625123  0.39468307  1
  O  O33  1  0.55156816  0.91507241  0.10531693  1
  O  O34  1  0.05374877  0.19024452  0.10531693  1
  O  O35  1  0.58492759  0.94843184  0.39468307  1
