# generated using pymatgen
data_Fe2H6(SO5)3
_symmetry_space_group_name_H-M   'P 1'
_cell_length_a   6.41668073
_cell_length_b   11.36086454
_cell_length_c   16.54198373
_cell_angle_alpha   101.94703702
_cell_angle_beta   90.00000000
_cell_angle_gamma   90.00000000
_symmetry_Int_Tables_number   1
_chemical_formula_structural   Fe2H6(SO5)3
_chemical_formula_sum   'Fe8 H24 S12 O60'
_cell_volume   1179.77430580
_cell_formula_units_Z   4
loop_
 _symmetry_equiv_pos_site_id
 _symmetry_equiv_pos_as_xyz
  1  'x, y, z'
loop_
 _atom_site_type_symbol
 _atom_site_label
 _atom_site_symmetry_multiplicity
 _atom_site_fract_x
 _atom_site_fract_y
 _atom_site_fract_z
 _atom_site_occupancy
  Fe  Fe0  1  0.75797897  0.98168468  0.38265525  1
  Fe  Fe1  1  0.25797897  0.01831532  0.11734475  1
  Fe  Fe2  1  0.24202103  0.01831532  0.61734475  1
  Fe  Fe3  1  0.74202103  0.98168468  0.88265525  1
  Fe  Fe4  1  0.27081781  0.63829517  0.40720561  1
  Fe  Fe5  1  0.77081781  0.36170483  0.09279439  1
  Fe  Fe6  1  0.72918219  0.36170483  0.59279439  1
  Fe  Fe7  1  0.22918219  0.63829517  0.90720561  1
  H  H8  1  0.72645141  0.80882363  0.24703589  1
  H  H9  1  0.22645141  0.19117637  0.25296411  1
  H  H10  1  0.27354859  0.19117637  0.75296411  1
  H  H11  1  0.77354859  0.80882363  0.74703589  1
  H  H12  1  0.67063244  0.93250688  0.21662161  1
  H  H13  1  0.17063244  0.06749312  0.28337839  1
  H  H14  1  0.32936756  0.06749312  0.78337839  1
  H  H15  1  0.82936756  0.93250688  0.71662161  1
  H  H16  1  0.16273963  0.40977020  0.41017144  1
  H  H17  1  0.66273963  0.59022980  0.08982856  1
  H  H18  1  0.83726037  0.59022980  0.58982856  1
  H  H19  1  0.33726037  0.40977020  0.91017144  1
  H  H20  1  0.41212596  0.41951736  0.40102022  1
  H  H21  1  0.91212596  0.58048264  0.09897978  1
  H  H22  1  0.58787404  0.58048264  0.59897978  1
  H  H23  1  0.08787404  0.41951736  0.90102022  1
  H  H24  1  0.26498155  0.48370362  0.25986939  1
  H  H25  1  0.76498155  0.51629638  0.24013061  1
  H  H26  1  0.73501845  0.51629638  0.74013061  1
  H  H27  1  0.23501845  0.48370362  0.75986939  1
  H  H28  1  0.21468749  0.61502543  0.24065726  1
  H  H29  1  0.71468749  0.38497457  0.25934274  1
  H  H30  1  0.78531251  0.38497457  0.75934274  1
  H  H31  1  0.28531251  0.61502543  0.74065726  1
  S  S32  1  0.25163073  0.92974273  0.40998808  1
  S  S33  1  0.75163073  0.07025727  0.09001192  1
  S  S34  1  0.74836927  0.07025727  0.59001192  1
  S  S35  1  0.24836927  0.92974273  0.90998808  1
  S  S36  1  0.77152620  0.68764066  0.37878007  1
  S  S37  1  0.27152620  0.31235934  0.12121993  1
  S  S38  1  0.22847380  0.31235934  0.62121993  1
  S  S39  1  0.72847380  0.68764066  0.87878007  1
  S  S40  1  0.22204028  0.73090721  0.61431111  1
  S  S41  1  0.72204028  0.26909279  0.88568889  1
  S  S42  1  0.77795972  0.26909279  0.38568889  1
  S  S43  1  0.27795972  0.73090721  0.11431111  1
  O  O44  1  0.27709349  0.80029481  0.37148919  1
  O  O45  1  0.77709349  0.19970519  0.12851081  1
  O  O46  1  0.72290651  0.19970519  0.62851081  1
  O  O47  1  0.22290651  0.80029481  0.87148919  1
  O  O48  1  0.19589960  0.94237021  0.49792653  1
  O  O49  1  0.69589960  0.05762979  0.00207347  1
  O  O50  1  0.80410040  0.05762979  0.50207347  1
  O  O51  1  0.30410040  0.94237021  0.99792653  1
  O  O52  1  0.08153499  0.98148628  0.36584805  1
  O  O53  1  0.58153499  0.01851372  0.13415195  1
  O  O54  1  0.91846501  0.01851372  0.63415195  1
  O  O55  1  0.41846501  0.98148628  0.86584805  1
  O  O56  1  0.44301521  0.99735812  0.39976743  1
  O  O57  1  0.94301521  0.00264188  0.10023257  1
  O  O58  1  0.55698479  0.00264188  0.60023257  1
  O  O59  1  0.05698479  0.99735812  0.89976743  1
  O  O60  1  0.76579689  0.82055461  0.41360991  1
  O  O61  1  0.26579689  0.17944539  0.08639009  1
  O  O62  1  0.23420311  0.17944539  0.58639009  1
  O  O63  1  0.73420311  0.82055461  0.91360991  1
  O  O64  1  0.58742884  0.63078415  0.40929961  1
  O  O65  1  0.08742884  0.36921585  0.09070039  1
  O  O66  1  0.41257116  0.36921585  0.59070039  1
  O  O67  1  0.91257116  0.63078415  0.90929961  1
  O  O68  1  0.95605244  0.63623967  0.41412373  1
  O  O69  1  0.45605244  0.36376033  0.08587627  1
  O  O70  1  0.04394756  0.36376033  0.58587627  1
  O  O71  1  0.54394756  0.63623967  0.91412373  1
  O  O72  1  0.77803542  0.66498272  0.28793888  1
  O  O73  1  0.27803542  0.33501728  0.21206112  1
  O  O74  1  0.22196458  0.33501728  0.71206112  1
  O  O75  1  0.72196458  0.66498272  0.78793888  1
  O  O76  1  0.24848702  0.86373209  0.65190959  1
  O  O77  1  0.74848702  0.13626791  0.84809041  1
  O  O78  1  0.75151298  0.13626791  0.34809041  1
  O  O79  1  0.25151298  0.86373209  0.15190959  1
  O  O80  1  0.28939419  0.71216827  0.52595543  1
  O  O81  1  0.78939419  0.28783173  0.97404457  1
  O  O82  1  0.71060581  0.28783173  0.47404457  1
  O  O83  1  0.21060581  0.71216827  0.02595543  1
  O  O84  1  0.36781840  0.66395590  0.65742796  1
  O  O85  1  0.86781840  0.33604410  0.84257204  1
  O  O86  1  0.63218160  0.33604410  0.34257204  1
  O  O87  1  0.13218160  0.66395590  0.15742796  1
  O  O88  1  0.00364778  0.69956239  0.62291611  1
  O  O89  1  0.50364778  0.30043761  0.87708389  1
  O  O90  1  0.99635222  0.30043761  0.37708389  1
  O  O91  1  0.49635222  0.69956239  0.12291611  1
  O  O92  1  0.72834356  0.89761904  0.26163287  1
  O  O93  1  0.22834356  0.10238096  0.23836713  1
  O  O94  1  0.27165644  0.10238096  0.73836713  1
  O  O95  1  0.77165644  0.89761904  0.76163287  1
  O  O96  1  0.28519169  0.46569292  0.42216875  1
  O  O97  1  0.78519169  0.53430708  0.07783125  1
  O  O98  1  0.71480831  0.53430708  0.57783125  1
  O  O99  1  0.21480831  0.46569292  0.92216875  1
  O  O100  1  0.26553120  0.57177328  0.28385315  1
  O  O101  1  0.76553120  0.42822672  0.21614685  1
  O  O102  1  0.73446880  0.42822672  0.71614685  1
  O  O103  1  0.23446880  0.57177328  0.78385315  1
