# generated using pymatgen
data_Mg3(TaAl9)2
_symmetry_space_group_name_H-M   'P 1'
_cell_length_a   10.50774245
_cell_length_b   10.50774245
_cell_length_c   10.50774245
_cell_angle_alpha   60.00000000
_cell_angle_beta   60.00000000
_cell_angle_gamma   60.00000000
_symmetry_Int_Tables_number   1
_chemical_formula_structural   Mg3(TaAl9)2
_chemical_formula_sum   'Mg6 Ta4 Al36'
_cell_volume   820.37659256
_cell_formula_units_Z   2
loop_
 _symmetry_equiv_pos_site_id
 _symmetry_equiv_pos_as_xyz
  1  'x, y, z'
loop_
 _atom_site_type_symbol
 _atom_site_label
 _atom_site_symmetry_multiplicity
 _atom_site_fract_x
 _atom_site_fract_y
 _atom_site_fract_z
 _atom_site_occupancy
  Mg  Mg0  1  0.00000000  -0.00000000  0.50000000  1
  Mg  Mg1  1  0.00000000  0.50000000  -0.00000000  1
  Mg  Mg2  1  0.50000000  -0.00000000  -0.00000000  1
  Mg  Mg3  1  0.00000000  -0.00000000  -0.00000000  1
  Mg  Mg4  1  0.12500000  0.12500000  0.12500000  1
  Mg  Mg5  1  0.87500000  0.87500000  0.87500000  1
  Ta  Ta6  1  0.50000000  0.50000000  -0.00000000  1
  Ta  Ta7  1  0.50000000  -0.00000000  0.50000000  1
  Ta  Ta8  1  0.00000000  0.50000000  0.50000000  1
  Ta  Ta9  1  0.50000000  0.50000000  0.50000000  1
  Al  Al10  1  0.48565161  0.76434839  0.76434839  1
  Al  Al11  1  0.76434839  0.48565161  0.48565161  1
  Al  Al12  1  0.76434839  0.48565161  0.76434839  1
  Al  Al13  1  0.48565161  0.76434839  0.48565161  1
  Al  Al14  1  0.76434839  0.76434839  0.48565161  1
  Al  Al15  1  0.48565161  0.48565161  0.76434839  1
  Al  Al16  1  0.51434839  0.23565161  0.23565161  1
  Al  Al17  1  0.23565161  0.51434839  0.51434839  1
  Al  Al18  1  0.23565161  0.51434839  0.23565161  1
  Al  Al19  1  0.51434839  0.23565161  0.51434839  1
  Al  Al20  1  0.23565161  0.23565161  0.51434839  1
  Al  Al21  1  0.51434839  0.51434839  0.23565161  1
  Al  Al22  1  0.32378369  0.32378369  0.05943578  1
  Al  Al23  1  0.79299684  0.05943578  0.32378369  1
  Al  Al24  1  0.05943578  0.79299684  0.32378369  1
  Al  Al25  1  0.32378369  0.32378369  0.79299684  1
  Al  Al26  1  0.05943578  0.32378369  0.32378369  1
  Al  Al27  1  0.32378369  0.79299684  0.05943578  1
  Al  Al28  1  0.32378369  0.05943578  0.79299684  1
  Al  Al29  1  0.79299684  0.32378369  0.32378369  1
  Al  Al30  1  0.32378369  0.05943578  0.32378369  1
  Al  Al31  1  0.05943578  0.32378369  0.79299684  1
  Al  Al32  1  0.79299684  0.32378369  0.05943578  1
  Al  Al33  1  0.32378369  0.79299684  0.32378369  1
  Al  Al34  1  0.67621631  0.67621631  0.94056422  1
  Al  Al35  1  0.20700316  0.94056422  0.67621631  1
  Al  Al36  1  0.94056422  0.20700316  0.67621631  1
  Al  Al37  1  0.67621631  0.67621631  0.20700316  1
  Al  Al38  1  0.94056422  0.67621631  0.67621631  1
  Al  Al39  1  0.67621631  0.20700316  0.94056422  1
  Al  Al40  1  0.67621631  0.94056422  0.20700316  1
  Al  Al41  1  0.20700316  0.67621631  0.67621631  1
  Al  Al42  1  0.67621631  0.94056422  0.67621631  1
  Al  Al43  1  0.94056422  0.67621631  0.20700316  1
  Al  Al44  1  0.20700316  0.67621631  0.94056422  1
  Al  Al45  1  0.67621631  0.20700316  0.67621631  1
