# generated using pymatgen
data_Ho5Pt4
_symmetry_space_group_name_H-M   'P 1'
_cell_length_a   7.45677222
_cell_length_b   7.55488575
_cell_length_c   14.70270814
_cell_angle_alpha   90.00000000
_cell_angle_beta   90.00000000
_cell_angle_gamma   90.00000000
_symmetry_Int_Tables_number   1
_chemical_formula_structural   Ho5Pt4
_chemical_formula_sum   'Ho20 Pt16'
_cell_volume   828.27797737
_cell_formula_units_Z   4
loop_
 _symmetry_equiv_pos_site_id
 _symmetry_equiv_pos_as_xyz
  1  'x, y, z'
loop_
 _atom_site_type_symbol
 _atom_site_label
 _atom_site_symmetry_multiplicity
 _atom_site_fract_x
 _atom_site_fract_y
 _atom_site_fract_z
 _atom_site_occupancy
  Ho  Ho0  1  0.34254975  0.83242998  0.87751170  1
  Ho  Ho1  1  0.84254975  0.66757002  0.62248830  1
  Ho  Ho2  1  0.65745025  0.16757002  0.37751170  1
  Ho  Ho3  1  0.15745025  0.33242998  0.12248830  1
  Ho  Ho4  1  0.65745025  0.16757002  0.12248830  1
  Ho  Ho5  1  0.15745025  0.33242998  0.37751170  1
  Ho  Ho6  1  0.34254975  0.83242998  0.62248830  1
  Ho  Ho7  1  0.84254975  0.66757002  0.87751170  1
  Ho  Ho8  1  0.49898736  0.31975916  0.90743941  1
  Ho  Ho9  1  0.99898736  0.18024084  0.59256059  1
  Ho  Ho10  1  0.50101264  0.68024084  0.40743941  1
  Ho  Ho11  1  0.00101264  0.81975916  0.09256059  1
  Ho  Ho12  1  0.50101264  0.68024084  0.09256059  1
  Ho  Ho13  1  0.00101264  0.81975916  0.40743941  1
  Ho  Ho14  1  0.49898736  0.31975916  0.59256059  1
  Ho  Ho15  1  0.99898736  0.18024084  0.90743941  1
  Ho  Ho16  1  0.18151641  0.48747002  0.75000000  1
  Ho  Ho17  1  0.68151641  0.01252998  0.75000000  1
  Ho  Ho18  1  0.81848359  0.51252998  0.25000000  1
  Ho  Ho19  1  0.31848359  0.98747002  0.25000000  1
  Pt  Pt20  1  0.31722919  0.03263995  0.04169351  1
  Pt  Pt21  1  0.81722919  0.46736005  0.45830649  1
  Pt  Pt22  1  0.68277081  0.96736005  0.54169351  1
  Pt  Pt23  1  0.18277081  0.53263995  0.95830649  1
  Pt  Pt24  1  0.68277081  0.96736005  0.95830649  1
  Pt  Pt25  1  0.18277081  0.53263995  0.54169351  1
  Pt  Pt26  1  0.31722919  0.03263995  0.45830649  1
  Pt  Pt27  1  0.81722919  0.46736005  0.04169351  1
  Pt  Pt28  1  0.54598812  0.61231171  0.75000000  1
  Pt  Pt29  1  0.04598812  0.88768829  0.75000000  1
  Pt  Pt30  1  0.45401188  0.38768829  0.25000000  1
  Pt  Pt31  1  0.95401188  0.11231171  0.25000000  1
  Pt  Pt32  1  0.31580113  0.14283537  0.75000000  1
  Pt  Pt33  1  0.81580113  0.35716463  0.75000000  1
  Pt  Pt34  1  0.68419887  0.85716463  0.25000000  1
  Pt  Pt35  1  0.18419887  0.64283537  0.25000000  1
