# generated using pymatgen
data_Nd6Al43Mo4
_symmetry_space_group_name_H-M   'P 1'
_cell_length_a   11.10449432
_cell_length_b   11.10450444
_cell_length_c   17.82631372
_cell_angle_alpha   90.00009285
_cell_angle_beta   89.99981430
_cell_angle_gamma   119.99996963
_symmetry_Int_Tables_number   1
_chemical_formula_structural   Nd6Al43Mo4
_chemical_formula_sum   'Nd12 Al86 Mo8'
_cell_volume   1903.66391833
_cell_formula_units_Z   2
loop_
 _symmetry_equiv_pos_site_id
 _symmetry_equiv_pos_as_xyz
  1  'x, y, z'
loop_
 _atom_site_type_symbol
 _atom_site_label
 _atom_site_symmetry_multiplicity
 _atom_site_fract_x
 _atom_site_fract_y
 _atom_site_fract_z
 _atom_site_occupancy
  Nd  Nd0  1  0.52970307  0.00000000  0.59513897  1
  Nd  Nd1  1  0.47029248  0.47029543  0.59514364  1
  Nd  Nd2  1  0.99999705  0.52970457  0.59514364  1
  Nd  Nd3  1  0.47029693  -0.00000000  0.40486103  1
  Nd  Nd4  1  0.52970752  0.52970457  0.40485636  1
  Nd  Nd5  1  0.00000295  0.47029543  0.40485636  1
  Nd  Nd6  1  0.47029676  -0.00000000  0.09514108  1
  Nd  Nd7  1  0.52970795  0.52970350  0.09514282  1
  Nd  Nd8  1  0.00000445  0.47029650  0.09514282  1
  Nd  Nd9  1  0.52970324  0.00000000  0.90485892  1
  Nd  Nd10  1  0.47029205  0.47029650  0.90485718  1
  Nd  Nd11  1  0.99999555  0.52970350  0.90485718  1
  Al  Al12  1  0.15820167  0.39273204  0.66505136  1
  Al  Al13  1  0.23452421  0.84179925  0.66505389  1
  Al  Al14  1  0.60726575  0.76547326  0.66505313  1
  Al  Al15  1  0.76546962  0.60726796  0.66505136  1
  Al  Al16  1  0.39272496  0.15820075  0.66505389  1
  Al  Al17  1  0.84179249  0.23452674  0.66505313  1
  Al  Al18  1  0.84179833  0.60726796  0.33494864  1
  Al  Al19  1  0.76547579  0.15820075  0.33494611  1
  Al  Al20  1  0.39273425  0.23452674  0.33494687  1
  Al  Al21  1  0.23453038  0.39273204  0.33494864  1
  Al  Al22  1  0.60727504  0.84179925  0.33494611  1
  Al  Al23  1  0.15820751  0.76547326  0.33494687  1
  Al  Al24  1  0.84179832  0.60726774  0.16505116  1
  Al  Al25  1  0.76547584  0.15820052  0.16505398  1
  Al  Al26  1  0.39273414  0.23452667  0.16505294  1
  Al  Al27  1  0.23453058  0.39273226  0.16505116  1
  Al  Al28  1  0.60727533  0.84179948  0.16505398  1
  Al  Al29  1  0.15820747  0.76547333  0.16505294  1
  Al  Al30  1  0.15820168  0.39273226  0.83494884  1
  Al  Al31  1  0.23452416  0.84179948  0.83494602  1
  Al  Al32  1  0.60726586  0.76547333  0.83494706  1
  Al  Al33  1  0.76546942  0.60726774  0.83494884  1
  Al  Al34  1  0.39272467  0.15820052  0.83494602  1
  Al  Al35  1  0.84179253  0.23452667  0.83494706  1
  Al  Al36  1  0.15697861  0.00000000  0.11570746  1
  Al  Al37  1  0.84302265  0.84302040  0.11570246  1
  Al  Al38  1  0.00000226  0.15697960  0.11570246  1
  Al  Al39  1  0.84302139  1.00000000  0.88429254  1
  Al  Al40  1  0.15697735  0.15697960  0.88429754  1
  Al  Al41  1  0.99999774  0.84302040  0.88429754  1
  Al  Al42  1  0.84302129  1.00000000  0.61570770  1
  Al  Al43  1  0.15697752  0.15697994  0.61570272  1
  Al  Al44  1  0.99999758  0.84302006  0.61570272  1
  Al  Al45  1  0.15697871  0.00000000  0.38429230  1
  Al  Al46  1  0.84302248  0.84302006  0.38429728  1
  Al  Al47  1  0.00000242  0.15697994  0.38429728  1
  Al  Al48  1  0.25053956  0.00000000  0.53134241  1
  Al  Al49  1  0.74945986  0.74945749  0.53134267  1
  Al  Al50  1  0.00000237  0.25054251  0.53134267  1
  Al  Al51  1  0.74946044  1.00000000  0.46865759  1
  Al  Al52  1  0.25054014  0.25054251  0.46865733  1
  Al  Al53  1  0.99999763  0.74945749  0.46865733  1
  Al  Al54  1  0.74946094  1.00000000  0.03134235  1
  Al  Al55  1  0.25053968  0.25054191  0.03134275  1
  Al  Al56  1  0.99999778  0.74945809  0.03134275  1
  Al  Al57  1  0.25053906  0.00000000  0.96865765  1
  Al  Al58  1  0.74946032  0.74945809  0.96865725  1
  Al  Al59  1  0.00000222  0.25054191  0.96865725  1
  Al  Al60  1  0.14796511  0.59663601  0.74999999  1
  Al  Al61  1  0.44864936  0.85201818  0.75000017  1
  Al  Al62  1  0.40335146  0.55134634  0.75000027  1
  Al  Al63  1  0.55132910  0.40336399  0.74999999  1
  Al  Al64  1  0.59663118  0.14798182  0.75000017  1
  Al  Al65  1  0.85200512  0.44865366  0.75000027  1
  Al  Al66  1  0.85203489  0.40336399  0.25000001  1
  Al  Al67  1  0.55135064  0.14798182  0.24999983  1
  Al  Al68  1  0.59664854  0.44865366  0.24999973  1
  Al  Al69  1  0.44867090  0.59663601  0.25000001  1
  Al  Al70  1  0.40336882  0.85201818  0.24999983  1
  Al  Al71  1  0.14799488  0.55134634  0.24999973  1
  Al  Al72  1  0.24704197  0.49408395  0.50000000  1
  Al  Al73  1  0.24703752  0.75295607  0.49999640  1
  Al  Al74  1  0.50591854  0.75295607  0.50000360  1
  Al  Al75  1  0.75295803  0.50591605  0.50000000  1
  Al  Al76  1  0.49408146  0.24704393  0.49999640  1
  Al  Al77  1  0.75296248  0.24704393  0.50000360  1
  Al  Al78  1  0.75295807  0.50591614  0.00000000  1
  Al  Al79  1  0.75296234  0.24704355  0.99999637  1
  Al  Al80  1  0.49408120  0.24704355  0.00000363  1
  Al  Al81  1  0.24704193  0.49408386  -0.00000000  1
  Al  Al82  1  0.50591880  0.75295645  0.99999637  1
  Al  Al83  1  0.24703766  0.75295645  0.00000363  1
  Al  Al84  1  0.33333102  0.66666371  0.62723578  1
  Al  Al85  1  0.66666732  0.33333629  0.62723578  1
  Al  Al86  1  0.66666898  0.33333629  0.37276422  1
  Al  Al87  1  0.33333268  0.66666371  0.37276422  1
  Al  Al88  1  0.66666890  0.33333643  0.12723578  1
  Al  Al89  1  0.33333248  0.66666357  0.12723578  1
  Al  Al90  1  0.33333110  0.66666357  0.87276422  1
  Al  Al91  1  0.66666752  0.33333643  0.87276422  1
  Al  Al92  1  0.14586566  0.00000000  0.75000010  1
  Al  Al93  1  0.85411455  0.85412857  0.75000006  1
  Al  Al94  1  -0.00001402  0.14587143  0.75000006  1
  Al  Al95  1  0.85413434  1.00000000  0.24999990  1
  Al  Al96  1  0.14588545  0.14587143  0.24999994  1
  Al  Al97  1  0.00001402  0.85412857  0.24999994  1
  Mo  Mo98  1  0.73142401  1.00000000  0.75000183  1
  Mo  Mo99  1  0.26856185  0.26856324  0.75000115  1
  Mo  Mo100  1  -0.00000139  0.73143676  0.75000115  1
  Mo  Mo101  1  0.26857599  0.00000000  0.24999817  1
  Mo  Mo102  1  0.73143815  0.73143676  0.24999885  1
  Mo  Mo103  1  0.00000139  0.26856324  0.24999885  1
  Mo  Mo104  1  -0.00000000  -0.00000000  0.50000000  1
  Mo  Mo105  1  -0.00000000  -0.00000000  -0.00000000  1
