# generated using pymatgen
data_Sc2Ge4Mo3
_symmetry_space_group_name_H-M   'P 1'
_cell_length_a   6.73433729
_cell_length_b   6.93192961
_cell_length_c   12.90821229
_cell_angle_alpha   90.00000000
_cell_angle_beta   90.00000000
_cell_angle_gamma   90.00000000
_symmetry_Int_Tables_number   1
_chemical_formula_structural   Sc2Ge4Mo3
_chemical_formula_sum   'Sc8 Ge16 Mo12'
_cell_volume   602.58054736
_cell_formula_units_Z   4
loop_
 _symmetry_equiv_pos_site_id
 _symmetry_equiv_pos_as_xyz
  1  'x, y, z'
loop_
 _atom_site_type_symbol
 _atom_site_label
 _atom_site_symmetry_multiplicity
 _atom_site_fract_x
 _atom_site_fract_y
 _atom_site_fract_z
 _atom_site_occupancy
  Sc  Sc0  1  0.51025782  0.32642349  0.90773285  1
  Sc  Sc1  1  0.01025782  0.17357651  0.59226715  1
  Sc  Sc2  1  0.48974218  0.67357651  0.40773285  1
  Sc  Sc3  1  0.98974218  0.82642349  0.09226715  1
  Sc  Sc4  1  0.48974218  0.67357651  0.09226715  1
  Sc  Sc5  1  0.98974218  0.82642349  0.40773285  1
  Sc  Sc6  1  0.51025782  0.32642349  0.59226715  1
  Sc  Sc7  1  0.01025782  0.17357651  0.90773285  1
  Ge  Ge8  1  0.32185524  0.03954927  0.04463987  1
  Ge  Ge9  1  0.82185524  0.46045073  0.45536013  1
  Ge  Ge10  1  0.67814476  0.96045073  0.54463987  1
  Ge  Ge11  1  0.17814476  0.53954927  0.95536013  1
  Ge  Ge12  1  0.67814476  0.96045073  0.95536013  1
  Ge  Ge13  1  0.17814476  0.53954927  0.54463987  1
  Ge  Ge14  1  0.32185524  0.03954927  0.45536013  1
  Ge  Ge15  1  0.82185524  0.46045073  0.04463987  1
  Ge  Ge16  1  0.53553332  0.62224759  0.75000000  1
  Ge  Ge17  1  0.03553332  0.87775241  0.75000000  1
  Ge  Ge18  1  0.46446668  0.37775241  0.25000000  1
  Ge  Ge19  1  0.96446668  0.12224759  0.25000000  1
  Ge  Ge20  1  0.31051067  0.14785104  0.75000000  1
  Ge  Ge21  1  0.81051067  0.35214896  0.75000000  1
  Ge  Ge22  1  0.68948933  0.85214896  0.25000000  1
  Ge  Ge23  1  0.18948933  0.64785104  0.25000000  1
  Mo  Mo24  1  0.33641308  0.83855217  0.87453957  1
  Mo  Mo25  1  0.83641308  0.66144783  0.62546043  1
  Mo  Mo26  1  0.66358692  0.16144783  0.37453957  1
  Mo  Mo27  1  0.16358692  0.33855217  0.12546043  1
  Mo  Mo28  1  0.66358692  0.16144783  0.12546043  1
  Mo  Mo29  1  0.16358692  0.33855217  0.37453957  1
  Mo  Mo30  1  0.33641308  0.83855217  0.62546043  1
  Mo  Mo31  1  0.83641308  0.66144783  0.87453957  1
  Mo  Mo32  1  0.16862541  0.49996160  0.75000000  1
  Mo  Mo33  1  0.66862541  0.00003840  0.75000000  1
  Mo  Mo34  1  0.83137459  0.50003840  0.25000000  1
  Mo  Mo35  1  0.33137459  -0.00003840  0.25000000  1
