# generated using pymatgen
data_NpB3O8
_symmetry_space_group_name_H-M   'P 1'
_cell_length_a   5.62763750
_cell_length_b   8.74390097
_cell_length_c   12.81352980
_cell_angle_alpha   90.00000000
_cell_angle_beta   90.00000000
_cell_angle_gamma   90.00000000
_symmetry_Int_Tables_number   1
_chemical_formula_structural   NpB3O8
_chemical_formula_sum   'Np4 B12 O32'
_cell_volume   630.52183164
_cell_formula_units_Z   4
loop_
 _symmetry_equiv_pos_site_id
 _symmetry_equiv_pos_as_xyz
  1  'x, y, z'
loop_
 _atom_site_type_symbol
 _atom_site_label
 _atom_site_symmetry_multiplicity
 _atom_site_fract_x
 _atom_site_fract_y
 _atom_site_fract_z
 _atom_site_occupancy
  Np  Np0  1  0.54349427  0.55014934  0.12828119  1
  Np  Np1  1  0.04349427  0.44985066  0.87171881  1
  Np  Np2  1  0.04349427  0.55014934  0.37171881  1
  Np  Np3  1  0.54349427  0.44985066  0.62828119  1
  B  B4  1  0.97994972  0.05159299  0.08580424  1
  B  B5  1  0.47994972  0.94840701  0.91419576  1
  B  B6  1  0.47994972  0.05159299  0.41419576  1
  B  B7  1  0.97994972  0.94840701  0.58580424  1
  B  B8  1  0.79679737  0.76771158  0.91594569  1
  B  B9  1  0.29679737  0.23228842  0.08405431  1
  B  B10  1  0.29679737  0.76771158  0.58405431  1
  B  B11  1  0.79679737  0.23228842  0.41594569  1
  B  B12  1  0.65283469  0.87365196  0.08497424  1
  B  B13  1  0.15283469  0.12634804  0.91502576  1
  B  B14  1  0.15283469  0.87365196  0.41502576  1
  B  B15  1  0.65283469  0.12634804  0.58497424  1
  O  O16  1  0.64214120  0.85524788  0.86009763  1
  O  O17  1  0.14214120  0.14475212  0.13990237  1
  O  O18  1  0.14214120  0.85524788  0.63990237  1
  O  O19  1  0.64214120  0.14475212  0.36009763  1
  O  O20  1  0.30613987  0.56440916  0.03120048  1
  O  O21  1  0.80613987  0.43559084  0.96879952  1
  O  O22  1  0.80613987  0.56440916  0.46879952  1
  O  O23  1  0.30613987  0.43559084  0.53120048  1
  O  O24  1  0.48279869  0.95309340  0.02189516  1
  O  O25  1  0.98279869  0.04690660  0.97810484  1
  O  O26  1  0.98279869  0.95309340  0.47810484  1
  O  O27  1  0.48279869  0.04690660  0.52189516  1
  O  O28  1  0.81937055  0.96651022  0.13932747  1
  O  O29  1  0.31937055  0.03348978  0.86067253  1
  O  O30  1  0.31937055  0.96651022  0.36067253  1
  O  O31  1  0.81937055  0.03348978  0.63932747  1
  O  O32  1  0.80015775  0.52169185  0.21707413  1
  O  O33  1  0.30015775  0.47830815  0.78292587  1
  O  O34  1  0.30015775  0.52169185  0.28292587  1
  O  O35  1  0.80015775  0.47830815  0.71707413  1
  O  O36  1  0.52169421  0.76929258  0.16379151  1
  O  O37  1  0.02169421  0.23070742  0.83620849  1
  O  O38  1  0.02169421  0.76929258  0.33620849  1
  O  O39  1  0.52169421  0.23070742  0.66379151  1
  O  O40  1  0.47336964  0.31953043  0.13280100  1
  O  O41  1  0.97336964  0.68046957  0.86719900  1
  O  O42  1  0.97336964  0.31953043  0.36719900  1
  O  O43  1  0.47336964  0.68046957  0.63280100  1
  O  O44  1  0.77335203  0.74723868  0.02275068  1
  O  O45  1  0.27335203  0.25276132  0.97724932  1
  O  O46  1  0.27335203  0.74723868  0.47724932  1
  O  O47  1  0.77335203  0.25276132  0.52275068  1
