# generated using pymatgen
data_VNiH14(O2F)4
_symmetry_space_group_name_H-M   'P 1'
_cell_length_a   6.50839551
_cell_length_b   11.17037068
_cell_length_c   14.08695894
_cell_angle_alpha   89.26369635
_cell_angle_beta   89.04078954
_cell_angle_gamma   79.15341009
_symmetry_Int_Tables_number   1
_chemical_formula_structural   VNiH14(O2F)4
_chemical_formula_sum   'V4 Ni4 H56 O32 F16'
_cell_volume   1005.65197296
_cell_formula_units_Z   4
loop_
 _symmetry_equiv_pos_site_id
 _symmetry_equiv_pos_as_xyz
  1  'x, y, z'
loop_
 _atom_site_type_symbol
 _atom_site_label
 _atom_site_symmetry_multiplicity
 _atom_site_fract_x
 _atom_site_fract_y
 _atom_site_fract_z
 _atom_site_occupancy
  V  V0  1  0.49377648  0.23695317  0.26581375  1
  V  V1  1  0.50622352  0.76304683  0.73418625  1
  V  V2  1  0.48681481  0.73382285  0.24141322  1
  V  V3  1  0.51318519  0.26617715  0.75858678  1
  Ni  Ni4  1  -0.00000000  0.00000000  0.00000000  1
  Ni  Ni5  1  0.00000000  0.50000000  -0.00000000  1
  Ni  Ni6  1  0.00000000  0.50000000  0.50000000  1
  Ni  Ni7  1  0.00000000  0.00000000  0.50000000  1
  H  H8  1  0.60381404  0.09684955  0.06416082  1
  H  H9  1  0.39618596  0.90315045  0.93583918  1
  H  H10  1  0.60023212  0.11064413  0.95215715  1
  H  H11  1  0.39976788  0.88935587  0.04784285  1
  H  H12  1  0.04421085  0.84521346  0.85310410  1
  H  H13  1  0.95578915  0.15478654  0.14689590  1
  H  H14  1  0.80547165  0.86077484  0.88606038  1
  H  H15  1  0.19452835  0.13922516  0.11393962  1
  H  H16  1  0.82114874  0.86614728  0.12959430  1
  H  H17  1  0.17885126  0.13385272  0.87040570  1
  H  H18  1  0.05268303  0.87525267  0.16502902  1
  H  H19  1  0.94731697  0.12474733  0.83497098  1
  H  H20  1  0.66982569  0.68751287  0.04239302  1
  H  H21  1  0.33017431  0.31248713  0.95760698  1
  H  H22  1  0.61616064  0.62436879  0.94588936  1
  H  H23  1  0.38383936  0.37563121  0.05411064  1
  H  H24  1  0.77288908  0.35975674  0.91142281  1
  H  H25  1  0.22711092  0.64024326  0.08857719  1
  H  H26  1  0.92707242  0.27655043  0.98186006  1
  H  H27  1  0.07292758  0.72344957  0.01813994  1
  H  H28  1  0.05411860  0.41169855  0.18026122  1
  H  H29  1  0.94588140  0.58830145  0.81973878  1
  H  H30  1  0.88590002  0.53499895  0.18405177  1
  H  H31  1  0.11409998  0.46500105  0.81594823  1
  H  H32  1  0.80388939  0.37073516  0.38167247  1
  H  H33  1  0.19611061  0.62926484  0.61832753  1
  H  H34  1  0.04331898  0.35499739  0.34762716  1
  H  H35  1  0.95668102  0.64500261  0.65237284  1
  H  H36  1  0.60284963  0.61103379  0.45076614  1
  H  H37  1  0.39715037  0.38896621  0.54923386  1
  H  H38  1  0.59814799  0.59140770  0.56260842  1
  H  H39  1  0.40185201  0.40859230  0.43739158  1
  H  H40  1  0.81968087  0.35973546  0.62216720  1
  H  H41  1  0.18031913  0.64026454  0.37783280  1
  H  H42  1  0.05021679  0.36495246  0.66035738  1
  H  H43  1  0.94978321  0.63504754  0.33964262  1
  H  H44  1  0.89739062  0.03581594  0.68533916  1
  H  H45  1  0.10260938  0.96418406  0.31466084  1
  H  H46  1  0.07456597  0.91466080  0.68371054  1
  H  H47  1  0.92543403  0.08533920  0.31628946  1
  H  H48  1  0.73831724  0.86175716  0.54479035  1
  H  H49  1  0.26168276  0.13824284  0.45520965  1
  H  H50  1  0.91714880  0.77474400  0.48853955  1
  H  H51  1  0.08285120  0.22525600  0.51146045  1
  H  H52  1  0.62501664  0.12787761  0.45031121  1
  H  H53  1  0.37498336  0.87212239  0.54968879  1
  H  H54  1  0.66764968  0.18282474  0.55153086  1
  H  H55  1  0.33235032  0.81717526  0.44846914  1
  H  H56  1  0.54834162  0.96416838  0.30675606  1
  H  H57  1  0.45165838  0.03583162  0.69324394  1
  H  H58  1  0.70202209  0.86882304  0.36665602  1
  H  H59  1  0.29797791  0.13117696  0.63334398  1
  H  H60  1  0.68014331  0.39059369  0.13397241  1
  H  H61  1  0.31985669  0.60940631  0.86602759  1
  H  H62  1  0.47759849  0.47057893  0.17769369  1
  H  H63  1  0.52240151  0.52942107  0.82230631  1
  O  O64  1  0.68460336  0.07106143  0.00528086  1
  O  O65  1  0.31539664  0.92893857  0.99471914  1
  O  O66  1  0.94815533  0.86284382  0.90861615  1
  O  O67  1  0.05184467  0.13715618  0.09138385  1
  O  O68  1  0.96005467  0.88041963  0.10936846  1
  O  O69  1  0.03994533  0.11958037  0.89063154  1
  O  O70  1  0.71860373  0.62060835  0.99776675  1
  O  O71  1  0.28139627  0.37939165  0.00223325  1
  O  O72  1  0.84307445  0.35876508  0.97344971  1
  O  O73  1  0.15692555  0.64123492  0.02655029  1
  O  O74  1  0.94289284  0.46431571  0.14309339  1
  O  O75  1  0.05710716  0.53568429  0.85690661  1
  O  O76  1  0.94797945  0.37081344  0.40360756  1
  O  O77  1  0.05202055  0.62918656  0.59639244  1
  O  O78  1  0.68543011  0.57133927  0.50431182  1
  O  O79  1  0.31456989  0.42866073  0.49568818  1
  O  O80  1  0.96202920  0.36922750  0.60306515  1
  O  O81  1  0.03797080  0.63077250  0.39693485  1
  O  O82  1  0.98998410  0.97805639  0.64375636  1
  O  O83  1  0.01001590  0.02194361  0.35624364  1
  O  O84  1  0.82781384  0.85648578  0.48691351  1
  O  O85  1  0.17218616  0.14351422  0.51308649  1
  O  O86  1  0.71237030  0.11422440  0.50773452  1
  O  O87  1  0.28762970  0.88577560  0.49226548  1
  O  O88  1  0.63050170  0.88064872  0.30480306  1
  O  O89  1  0.36949830  0.11935128  0.69519694  1
  O  O90  1  0.53538525  0.38680309  0.15408979  1
  O  O91  1  0.46461475  0.61319691  0.84591021  1
  O  O92  1  0.37772681  0.62512376  0.19366634  1
  O  O93  1  0.62227319  0.37487624  0.80633366  1
  O  O94  1  0.46206769  0.13565125  0.35123245  1
  O  O95  1  0.53793231  0.86434875  0.64876755  1
  F  F96  1  0.43900589  0.15072730  0.15330215  1
  F  F97  1  0.56099411  0.84927270  0.84669785  1
  F  F98  1  0.79221005  0.18518800  0.23982914  1
  F  F99  1  0.20778995  0.81481200  0.76017086  1
  F  F100  1  0.56127647  0.36186456  0.34942803  1
  F  F101  1  0.43872353  0.63813544  0.65057197  1
  F  F102  1  0.21045943  0.33154251  0.25807598  1
  F  F103  1  0.78954057  0.66845749  0.74192402  1
  F  F104  1  0.77307174  0.64319865  0.25720277  1
  F  F105  1  0.22692826  0.35680135  0.74279723  1
  F  F106  1  0.42258700  0.69848259  0.37537941  1
  F  F107  1  0.57741300  0.30151741  0.62462059  1
  F  F108  1  0.24286901  0.86632667  0.24151871  1
  F  F109  1  0.75713099  0.13367333  0.75848129  1
  F  F110  1  0.58175099  0.80217198  0.12291856  1
  F  F111  1  0.41824901  0.19782802  0.87708144  1
