# generated using pymatgen
data_Al2B3HO8
_symmetry_space_group_name_H-M   'P 1'
_cell_length_a   7.68540542
_cell_length_b   8.91321016
_cell_length_c   10.60354783
_cell_angle_alpha   90.00000000
_cell_angle_beta   90.00000000
_cell_angle_gamma   90.00000000
_symmetry_Int_Tables_number   1
_chemical_formula_structural   Al2B3HO8
_chemical_formula_sum   'Al8 B12 H4 O32'
_cell_volume   726.36034909
_cell_formula_units_Z   4
loop_
 _symmetry_equiv_pos_site_id
 _symmetry_equiv_pos_as_xyz
  1  'x, y, z'
loop_
 _atom_site_type_symbol
 _atom_site_label
 _atom_site_symmetry_multiplicity
 _atom_site_fract_x
 _atom_site_fract_y
 _atom_site_fract_z
 _atom_site_occupancy
  Al  Al0  1  0.43776926  0.56994731  0.61387290  1
  Al  Al1  1  0.93776926  0.93005269  0.88612710  1
  Al  Al2  1  0.56223074  0.43005269  0.11387290  1
  Al  Al3  1  0.06223074  0.06994731  0.38612710  1
  Al  Al4  1  0.56223074  0.43005269  0.38612710  1
  Al  Al5  1  0.06223074  0.06994731  0.11387290  1
  Al  Al6  1  0.43776926  0.56994731  0.88612710  1
  Al  Al7  1  0.93776926  0.93005269  0.61387290  1
  B  B8  1  0.22996558  0.34323892  0.75000000  1
  B  B9  1  0.72996558  0.15676108  0.75000000  1
  B  B10  1  0.77003442  0.65676108  0.25000000  1
  B  B11  1  0.27003442  0.84323892  0.25000000  1
  B  B12  1  0.25473436  0.30092694  0.51890797  1
  B  B13  1  0.75473436  0.19907306  0.98109203  1
  B  B14  1  0.74526564  0.69907306  0.01890797  1
  B  B15  1  0.24526564  0.80092694  0.48109203  1
  B  B16  1  0.74526564  0.69907306  0.48109203  1
  B  B17  1  0.24526564  0.80092694  0.01890797  1
  B  B18  1  0.25473436  0.30092694  0.98109203  1
  B  B19  1  0.75473436  0.19907306  0.51890797  1
  H  H20  1  0.67577144  0.68119483  0.75000000  1
  H  H21  1  0.17577144  0.81880517  0.75000000  1
  H  H22  1  0.32422856  0.31880517  0.25000000  1
  H  H23  1  0.82422856  0.18119483  0.25000000  1
  O  O24  1  0.57158407  0.61795473  0.75000000  1
  O  O25  1  0.07158407  0.88204527  0.75000000  1
  O  O26  1  0.42841593  0.38204527  0.25000000  1
  O  O27  1  0.92841593  0.11795473  0.25000000  1
  O  O28  1  0.31894636  0.47669037  0.75000000  1
  O  O29  1  0.81894636  0.02330963  0.75000000  1
  O  O30  1  0.68105364  0.52330963  0.25000000  1
  O  O31  1  0.18105364  0.97669037  0.25000000  1
  O  O32  1  0.18361452  0.27430615  0.63851059  1
  O  O33  1  0.68361452  0.22569385  0.86148941  1
  O  O34  1  0.81638548  0.72569385  0.13851059  1
  O  O35  1  0.31638548  0.77430615  0.36148941  1
  O  O36  1  0.81638548  0.72569385  0.36148941  1
  O  O37  1  0.31638548  0.77430615  0.13851059  1
  O  O38  1  0.18361452  0.27430615  0.86148941  1
  O  O39  1  0.68361452  0.22569385  0.63851059  1
  O  O40  1  0.38253047  0.41222057  0.50635856  1
  O  O41  1  0.88253047  0.08777943  0.99364144  1
  O  O42  1  0.61746953  0.58777943  0.00635856  1
  O  O43  1  0.11746953  0.91222057  0.49364144  1
  O  O44  1  0.61746953  0.58777943  0.49364144  1
  O  O45  1  0.11746953  0.91222057  0.00635856  1
  O  O46  1  0.38253047  0.41222057  0.99364144  1
  O  O47  1  0.88253047  0.08777943  0.50635856  1
  O  O48  1  0.29568611  0.72053090  0.58137380  1
  O  O49  1  0.79568611  0.77946910  0.91862620  1
  O  O50  1  0.70431389  0.27946910  0.08137380  1
  O  O51  1  0.20431389  0.22053090  0.41862620  1
  O  O52  1  0.70431389  0.27946910  0.41862620  1
  O  O53  1  0.20431389  0.22053090  0.08137380  1
  O  O54  1  0.29568611  0.72053090  0.91862620  1
  O  O55  1  0.79568611  0.77946910  0.58137380  1
