# generated using pymatgen
data_La5P12Ru19
_symmetry_space_group_name_H-M   'P 1'
_cell_length_a   4.03490285
_cell_length_b   12.69266760
_cell_length_c   12.69210471
_cell_angle_alpha   120.00146729
_cell_angle_beta   90.00000000
_cell_angle_gamma   90.00000000
_symmetry_Int_Tables_number   1
_chemical_formula_structural   La5P12Ru19
_chemical_formula_sum   'La5 P12 Ru19'
_cell_volume   562.91632821
_cell_formula_units_Z   1
loop_
 _symmetry_equiv_pos_site_id
 _symmetry_equiv_pos_as_xyz
  1  'x, y, z'
loop_
 _atom_site_type_symbol
 _atom_site_label
 _atom_site_symmetry_multiplicity
 _atom_site_fract_x
 _atom_site_fract_y
 _atom_site_fract_z
 _atom_site_occupancy
  La  La0  1  0.50000000  -0.00000840  0.18358785  1
  La  La1  1  0.50000000  0.18355304  0.00000000  1
  La  La2  1  0.50000000  0.81640376  0.81641215  1
  La  La3  1  0.00000000  0.33331841  0.66664108  1
  La  La4  1  0.00000000  0.66667734  0.33335892  1
  P  P5  1  0.00000000  0.00000533  0.81154384  1
  P  P6  1  0.00000000  0.81154265  0.00000000  1
  P  P7  1  0.00000000  0.18846149  0.18845616  1
  P  P8  1  0.50000000  0.30584994  0.47493929  1
  P  P9  1  0.50000000  0.16906963  0.69413035  1
  P  P10  1  0.50000000  0.52506168  0.83092606  1
  P  P11  1  0.50000000  0.83091065  0.52506071  1
  P  P12  1  0.50000000  0.47493928  0.30586965  1
  P  P13  1  0.50000000  0.69413562  0.16907394  1
  P  P14  1  0.00000000  0.00000739  0.37587941  1
  P  P15  1  0.00000000  0.37589531  1.00000000  1
  P  P16  1  0.00000000  0.62412798  0.62412059  1
  Ru  Ru17  1  0.00000000  0.00000036  0.55487306  1
  Ru  Ru18  1  -0.00000000  0.55489816  0.00000000  1
  Ru  Ru19  1  0.00000000  0.44512729  0.44512694  1
  Ru  Ru20  1  0.50000000  0.99998595  0.71470111  1
  Ru  Ru21  1  0.50000000  0.71469940  0.00000000  1
  Ru  Ru22  1  0.50000000  0.28528483  0.28529889  1
  Ru  Ru23  1  0.00000000  0.19398056  0.37826125  1
  Ru  Ru24  1  -0.00000000  0.18429368  0.80602472  1
  Ru  Ru25  1  0.00000000  0.62173801  0.81571172  1
  Ru  Ru26  1  -0.00000000  0.81571932  0.62173875  1
  Ru  Ru27  1  -0.00000000  0.37826896  0.19397528  1
  Ru  Ru28  1  0.00000000  0.80602629  0.18428828  1
  Ru  Ru29  1  0.50000000  0.12456365  0.49065494  1
  Ru  Ru30  1  0.50000000  0.36607958  0.87542043  1
  Ru  Ru31  1  0.50000000  0.50931290  0.63390897  1
  Ru  Ru32  1  0.50000000  0.63390871  0.50934506  1
  Ru  Ru33  1  0.50000000  0.49065916  0.12457957  1
  Ru  Ru34  1  0.50000000  0.87540392  0.36609103  1
  Ru  Ru35  1  -0.00000000  0.99999818  0.00000000  1
