# generated using pymatgen
data_Ba2GaS4
_symmetry_space_group_name_H-M   'P 1'
_cell_length_a   6.29208082
_cell_length_b   12.87007960
_cell_length_c   20.14404313
_cell_angle_alpha   104.31357701
_cell_angle_beta   90.00000000
_cell_angle_gamma   90.00000000
_symmetry_Int_Tables_number   1
_chemical_formula_structural   Ba2GaS4
_chemical_formula_sum   'Ba16 Ga8 S32'
_cell_volume   1580.61737138
_cell_formula_units_Z   8
loop_
 _symmetry_equiv_pos_site_id
 _symmetry_equiv_pos_as_xyz
  1  'x, y, z'
loop_
 _atom_site_type_symbol
 _atom_site_label
 _atom_site_symmetry_multiplicity
 _atom_site_fract_x
 _atom_site_fract_y
 _atom_site_fract_z
 _atom_site_occupancy
  Ba  Ba0  1  0.73558831  0.89510494  0.28648424  1
  Ba  Ba1  1  0.23558831  0.10489506  0.21351576  1
  Ba  Ba2  1  0.26441169  0.10489506  0.71351576  1
  Ba  Ba3  1  0.76441169  0.89510494  0.78648424  1
  Ba  Ba4  1  0.24222414  0.85390558  0.45113406  1
  Ba  Ba5  1  0.74222414  0.14609442  0.04886594  1
  Ba  Ba6  1  0.75777586  0.14609442  0.54886594  1
  Ba  Ba7  1  0.25777586  0.85390558  0.95113406  1
  Ba  Ba8  1  0.73526367  0.61656156  0.46265531  1
  Ba  Ba9  1  0.23526367  0.38343844  0.03734469  1
  Ba  Ba10  1  0.26473633  0.38343844  0.53734469  1
  Ba  Ba11  1  0.76473633  0.61656156  0.96265531  1
  Ba  Ba12  1  0.73085214  0.52692790  0.18763351  1
  Ba  Ba13  1  0.23085214  0.47307210  0.31236649  1
  Ba  Ba14  1  0.26914786  0.47307210  0.81236649  1
  Ba  Ba15  1  0.76914786  0.52692790  0.68763351  1
  Ga  Ga16  1  0.81716646  0.88269289  0.09855752  1
  Ga  Ga17  1  0.31716646  0.11730711  0.40144248  1
  Ga  Ga18  1  0.18283354  0.11730711  0.90144248  1
  Ga  Ga19  1  0.68283354  0.88269289  0.59855752  1
  Ga  Ga20  1  0.81246163  0.30312895  0.39937820  1
  Ga  Ga21  1  0.31246163  0.69687105  0.10062180  1
  Ga  Ga22  1  0.18753837  0.69687105  0.60062180  1
  Ga  Ga23  1  0.68753837  0.30312895  0.89937820  1
  S  S24  1  0.90131712  0.68616838  0.32712536  1
  S  S25  1  0.40131712  0.31383162  0.17287464  1
  S  S26  1  0.09868288  0.31383162  0.67287464  1
  S  S27  1  0.59868288  0.68616838  0.82712536  1
  S  S28  1  0.56564901  0.68585968  0.32762259  1
  S  S29  1  0.06564901  0.31414032  0.17237741  1
  S  S30  1  0.43435099  0.31414032  0.67237741  1
  S  S31  1  0.93435099  0.68585968  0.82762259  1
  S  S32  1  0.23570372  0.96215218  0.32339850  1
  S  S33  1  0.73570372  0.03784782  0.17660150  1
  S  S34  1  0.76429628  0.03784782  0.67660150  1
  S  S35  1  0.26429628  0.96215218  0.82339850  1
  S  S36  1  0.74519072  0.88364209  0.48813736  1
  S  S37  1  0.24519072  0.11635791  0.01186264  1
  S  S38  1  0.25480928  0.11635791  0.51186264  1
  S  S39  1  0.75480928  0.88364209  0.98813736  1
  S  S40  1  0.18206642  0.86829270  0.11558861  1
  S  S41  1  0.68206642  0.13170730  0.38441139  1
  S  S42  1  0.81793358  0.13170730  0.88441139  1
  S  S43  1  0.31793358  0.86829270  0.61558861  1
  S  S44  1  0.67650759  0.73088841  0.12652653  1
  S  S45  1  0.17650759  0.26911159  0.37347347  1
  S  S46  1  0.32349241  0.26911159  0.87347347  1
  S  S47  1  0.82349241  0.73088841  0.62652653  1
  S  S48  1  0.72550650  0.41851829  0.33593158  1
  S  S49  1  0.22550650  0.58148171  0.16406842  1
  S  S50  1  0.27449350  0.58148171  0.66406842  1
  S  S51  1  0.77449350  0.41851829  0.83593158  1
  S  S52  1  0.73278192  0.38734158  0.01502391  1
  S  S53  1  0.23278192  0.61265842  0.48497609  1
  S  S54  1  0.26721808  0.61265842  0.98497609  1
  S  S55  1  0.76721808  0.38734158  0.51502391  1
