# generated using pymatgen
data_K3NaNp4H4(S2O13)2
_symmetry_space_group_name_H-M   'P 1'
_cell_length_a   5.79572399
_cell_length_b   9.60274023
_cell_length_c   23.17481643
_cell_angle_alpha   80.33520093
_cell_angle_beta   82.81672669
_cell_angle_gamma   72.43578374
_symmetry_Int_Tables_number   1
_chemical_formula_structural   K3NaNp4H4(S2O13)2
_chemical_formula_sum   'K6 Na2 Np8 H8 S8 O52'
_cell_volume   1208.40462685
_cell_formula_units_Z   2
loop_
 _symmetry_equiv_pos_site_id
 _symmetry_equiv_pos_as_xyz
  1  'x, y, z'
loop_
 _atom_site_type_symbol
 _atom_site_label
 _atom_site_symmetry_multiplicity
 _atom_site_fract_x
 _atom_site_fract_y
 _atom_site_fract_z
 _atom_site_occupancy
  K  K0  1  0.50000000  0.50000000  0.50000000  1
  K  K1  1  0.50000000  -0.00000000  -0.00000000  1
  K  K2  1  0.62259209  0.07760459  0.58967825  1
  K  K3  1  0.28987493  0.42239541  0.91032175  1
  K  K4  1  0.37740791  0.92239541  0.41032175  1
  K  K5  1  0.71012507  0.57760459  0.08967825  1
  Na  Na6  1  0.33478180  0.25000000  0.75000000  1
  Na  Na7  1  0.66521820  0.75000000  0.25000000  1
  Np  Np8  1  0.93740787  0.43531136  0.63519582  1
  Np  Np9  1  0.00791504  0.06468864  0.86480418  1
  Np  Np10  1  0.06259213  0.56468864  0.36480418  1
  Np  Np11  1  0.99208496  0.93531136  0.13519582  1
  Np  Np12  1  0.28903919  0.70500410  0.69008175  1
  Np  Np13  1  0.68412504  0.79499590  0.80991825  1
  Np  Np14  1  0.71096081  0.29499590  0.30991825  1
  Np  Np15  1  0.31587496  0.20500410  0.19008175  1
  H  H16  1  0.21586636  0.87574302  0.56511694  1
  H  H17  1  0.65672633  0.62425698  0.93488306  1
  H  H18  1  0.78413364  0.12425698  0.43488306  1
  H  H19  1  0.34327367  0.37574302  0.06511694  1
  H  H20  1  0.49333782  0.79954603  0.56146576  1
  H  H21  1  0.85434962  0.70045397  0.93853424  1
  H  H22  1  0.50666218  0.20045397  0.43853424  1
  H  H23  1  0.14565038  0.29954603  0.06146576  1
  S  S24  1  0.06613909  0.27625368  0.49583335  1
  S  S25  1  0.83822611  0.22374632  0.00416665  1
  S  S26  1  0.93386091  0.72374632  0.50416665  1
  S  S27  1  0.16177389  0.77625368  0.99583335  1
  S  S28  1  0.67558975  0.42926976  0.78565920  1
  S  S29  1  0.89051871  0.07073024  0.71434080  1
  S  S30  1  0.32441025  0.57073024  0.21434080  1
  S  S31  1  0.10948129  0.92926976  0.28565920  1
  O  O32  1  0.89477980  0.42040230  0.74396731  1
  O  O33  1  0.05914941  0.07959770  0.75603269  1
  O  O34  1  0.10522020  0.57959770  0.25603269  1
  O  O35  1  0.94085059  0.92040230  0.24396731  1
  O  O36  1  0.03513005  0.58730920  0.54631382  1
  O  O37  1  0.16875307  0.91269080  0.95368618  1
  O  O38  1  0.96486995  0.41269080  0.45368618  1
  O  O39  1  0.83124693  0.08730920  0.04631382  1
  O  O40  1  0.79089072  0.21587055  0.67861490  1
  O  O41  1  0.68537618  0.28412945  0.82138510  1
  O  O42  1  0.20910928  0.78412945  0.32138510  1
  O  O43  1  0.31462382  0.71587055  0.17861490  1
  O  O44  1  0.01610318  0.96055170  0.67445741  1
  O  O45  1  0.65111228  0.53944830  0.82554259  1
  O  O46  1  0.98389682  0.03944830  0.32554259  1
  O  O47  1  0.34888772  0.46055170  0.17445741  1
  O  O48  1  0.35961327  0.85466771  0.58748903  1
  O  O49  1  0.80177001  0.64533229  0.91251097  1
  O  O50  1  0.64038673  0.14533229  0.41251097  1
  O  O51  1  0.19822999  0.35466771  0.08748903  1
  O  O52  1  0.07042225  0.63245402  0.66077233  1
  O  O53  1  0.36364859  0.86754598  0.83922767  1
  O  O54  1  0.92957775  0.36754598  0.33922767  1
  O  O55  1  0.63635141  0.13245402  0.16077233  1
  O  O56  1  0.24945108  0.31690292  0.64279931  1
  O  O57  1  0.20915330  0.18309708  0.85720070  1
  O  O58  1  0.75054892  0.68309708  0.35720069  1
  O  O59  1  0.79084670  0.81690292  0.14279930  1
  O  O60  1  0.91469712  0.29813018  0.55324423  1
  O  O61  1  0.76607153  0.20186982  0.94675577  1
  O  O62  1  0.08530288  0.70186982  0.44675577  1
  O  O63  1  0.23392847  0.79813018  0.05324423  1
  O  O64  1  0.61379560  0.55334722  0.62998697  1
  O  O65  1  0.79712980  0.94665278  0.87001303  1
  O  O66  1  0.38620440  0.44665278  0.37001303  1
  O  O67  1  0.20287020  0.05334722  0.12998697  1
  O  O68  1  0.51304023  0.77230083  0.72103815  1
  O  O69  1  0.00637920  0.72769917  0.77896185  1
  O  O70  1  0.48695977  0.22769917  0.27896185  1
  O  O71  1  0.99362080  0.27230083  0.22103815  1
  O  O72  1  0.45214016  0.47151852  0.75241384  1
  O  O73  1  0.67607253  0.02848148  0.74758616  1
  O  O74  1  0.54785984  0.52848148  0.24758616  1
  O  O75  1  0.32392747  0.97151852  0.25241384  1
  O  O76  1  0.32410943  0.26030553  0.50322710  1
  O  O77  1  0.08764207  0.23969447  0.99677290  1
  O  O78  1  0.67589057  0.73969447  0.49677290  1
  O  O79  1  0.91235793  0.76030553  0.00322710  1
  O  O80  1  0.04290668  0.14475322  0.47481730  1
  O  O81  1  0.66247719  0.35524678  0.02518270  1
  O  O82  1  0.95709332  0.85524678  0.52518270  1
  O  O83  1  0.33752281  0.64475322  0.97481730  1
