# generated using pymatgen
data_K2In2P3Se10
_symmetry_space_group_name_H-M   'P 1'
_cell_length_a   8.00998560
_cell_length_b   13.62873285
_cell_length_c   20.17446983
_cell_angle_alpha   106.35678765
_cell_angle_beta   90.00000000
_cell_angle_gamma   90.00000000
_symmetry_Int_Tables_number   1
_chemical_formula_structural   K2In2P3Se10
_chemical_formula_sum   'K8 In8 P12 Se40'
_cell_volume   2113.22812899
_cell_formula_units_Z   4
loop_
 _symmetry_equiv_pos_site_id
 _symmetry_equiv_pos_as_xyz
  1  'x, y, z'
loop_
 _atom_site_type_symbol
 _atom_site_label
 _atom_site_symmetry_multiplicity
 _atom_site_fract_x
 _atom_site_fract_y
 _atom_site_fract_z
 _atom_site_occupancy
  K  K0  1  0.95006207  0.67924066  0.08024739  1
  K  K1  1  0.45006207  0.82075934  0.91975261  1
  K  K2  1  0.04993793  0.32075934  0.91975261  1
  K  K3  1  0.54993793  0.17924066  0.08024739  1
  K  K4  1  0.14565595  0.59755951  0.42686308  1
  K  K5  1  0.64565595  0.90244049  0.57313692  1
  K  K6  1  0.85434405  0.40244049  0.57313692  1
  K  K7  1  0.35434405  0.09755951  0.42686308  1
  In  In8  1  0.47185370  0.53273822  0.17618787  1
  In  In9  1  0.97185370  0.96726178  0.82381213  1
  In  In10  1  0.52814630  0.46726178  0.82381213  1
  In  In11  1  0.02814630  0.03273822  0.17618787  1
  In  In12  1  0.35334808  0.60089602  0.68818069  1
  In  In13  1  0.85334808  0.89910398  0.31181931  1
  In  In14  1  0.64665192  0.39910398  0.31181931  1
  In  In15  1  0.14665192  0.10089602  0.68818069  1
  P  P16  1  0.38720621  0.55107296  0.02007155  1
  P  P17  1  0.88720621  0.94892704  0.97992845  1
  P  P18  1  0.61279379  0.44892704  0.97992845  1
  P  P19  1  0.11279379  0.05107296  0.02007155  1
  P  P20  1  0.43910428  0.77403291  0.33590111  1
  P  P21  1  0.93910428  0.72596709  0.66409889  1
  P  P22  1  0.56089572  0.22596709  0.66409889  1
  P  P23  1  0.06089572  0.27403291  0.33590111  1
  P  P24  1  0.17440016  0.81616719  0.65258100  1
  P  P25  1  0.67440016  0.68383281  0.34741900  1
  P  P26  1  0.82559984  0.18383281  0.34741900  1
  P  P27  1  0.32559984  0.31616719  0.65258100  1
  Se  Se28  1  0.22231687  0.46406732  0.07122539  1
  Se  Se29  1  0.72231687  0.03593268  0.92877461  1
  Se  Se30  1  0.77768313  0.53593268  0.92877461  1
  Se  Se31  1  0.27768313  0.96406732  0.07122539  1
  Se  Se32  1  0.77684950  0.91655734  0.07089519  1
  Se  Se33  1  0.27684950  0.58344266  0.92910481  1
  Se  Se34  1  0.22315050  0.08344266  0.92910481  1
  Se  Se35  1  0.72315050  0.41655734  0.07089519  1
  Se  Se36  1  0.48330927  0.68172313  0.10281740  1
  Se  Se37  1  0.98330927  0.81827687  0.89718260  1
  Se  Se38  1  0.51669073  0.31827687  0.89718260  1
  Se  Se39  1  0.01669073  0.18172313  0.10281740  1
  Se  Se40  1  0.07711206  0.86746482  0.21878845  1
  Se  Se41  1  0.57711206  0.63253518  0.78121155  1
  Se  Se42  1  0.92288794  0.13253518  0.78121155  1
  Se  Se43  1  0.42288794  0.36746482  0.21878845  1
  Se  Se44  1  0.77209099  0.60469540  0.24402497  1
  Se  Se45  1  0.27209099  0.89530460  0.75597503  1
  Se  Se46  1  0.22790901  0.39530460  0.75597503  1
  Se  Se47  1  0.72790901  0.10469540  0.24402497  1
  Se  Se48  1  0.26548595  0.65670538  0.27651599  1
  Se  Se49  1  0.76548595  0.84329462  0.72348401  1
  Se  Se50  1  0.73451405  0.34329462  0.72348401  1
  Se  Se51  1  0.23451405  0.15670538  0.27651599  1
  Se  Se52  1  0.34025748  0.84572835  0.43789067  1
  Se  Se53  1  0.84025748  0.65427165  0.56210933  1
  Se  Se54  1  0.65974252  0.15427165  0.56210933  1
  Se  Se55  1  0.15974252  0.34572835  0.43789067  1
  Se  Se56  1  0.10191041  0.92031389  0.58990890  1
  Se  Se57  1  0.60191041  0.57968611  0.41009110  1
  Se  Se58  1  0.89808959  0.07968611  0.41009110  1
  Se  Se59  1  0.39808959  0.42031389  0.58990890  1
  Se  Se60  1  0.36597339  0.70783743  0.59358400  1
  Se  Se61  1  0.86597339  0.79216257  0.40641600  1
  Se  Se62  1  0.63402661  0.29216257  0.40641600  1
  Se  Se63  1  0.13402661  0.20783743  0.59358400  1
  Se  Se64  1  0.03088161  0.61655112  0.72186562  1
  Se  Se65  1  0.53088161  0.88344888  0.27813438  1
  Se  Se66  1  0.96911839  0.38344888  0.27813438  1
  Se  Se67  1  0.46911839  0.11655112  0.72186562  1
