# generated using pymatgen
data_MoH8(S2N)2
_symmetry_space_group_name_H-M   'P 1'
_cell_length_a   7.14476031
_cell_length_b   9.85481730
_cell_length_c   12.54953964
_cell_angle_alpha   90.00000000
_cell_angle_beta   90.00000000
_cell_angle_gamma   90.00000000
_symmetry_Int_Tables_number   1
_chemical_formula_structural   MoH8(S2N)2
_chemical_formula_sum   'Mo4 H32 S16 N8'
_cell_volume   883.61694513
_cell_formula_units_Z   4
loop_
 _symmetry_equiv_pos_site_id
 _symmetry_equiv_pos_as_xyz
  1  'x, y, z'
loop_
 _atom_site_type_symbol
 _atom_site_label
 _atom_site_symmetry_multiplicity
 _atom_site_fract_x
 _atom_site_fract_y
 _atom_site_fract_z
 _atom_site_occupancy
  Mo  Mo0  1  0.25000000  0.24906774  0.92907740  1
  Mo  Mo1  1  0.25000000  0.74906774  0.57092260  1
  Mo  Mo2  1  0.75000000  0.75093226  0.07092260  1
  Mo  Mo3  1  0.75000000  0.25093226  0.42907740  1
  H  H4  1  0.25000000  0.74711355  0.84739403  1
  H  H5  1  0.25000000  0.24711355  0.65260597  1
  H  H6  1  0.75000000  0.25288645  0.15260597  1
  H  H7  1  0.75000000  0.75288645  0.34739403  1
  H  H8  1  0.25000000  0.91835523  0.84257028  1
  H  H9  1  0.25000000  0.41835523  0.65742972  1
  H  H10  1  0.75000000  0.08164477  0.15742972  1
  H  H11  1  0.75000000  0.58164477  0.34257028  1
  H  H12  1  0.13138921  0.83675891  0.94007663  1
  H  H13  1  0.36861079  0.33675891  0.55992337  1
  H  H14  1  0.63138921  0.16324109  0.05992337  1
  H  H15  1  0.86861079  0.66324109  0.44007663  1
  H  H16  1  0.86861079  0.16324109  0.05992337  1
  H  H17  1  0.63138921  0.66324109  0.44007663  1
  H  H18  1  0.36861079  0.83675891  0.94007663  1
  H  H19  1  0.13138921  0.33675891  0.55992337  1
  H  H20  1  0.25000000  0.49383085  0.22787851  1
  H  H21  1  0.25000000  0.99383085  0.27212149  1
  H  H22  1  0.75000000  0.50616915  0.77212149  1
  H  H23  1  0.75000000  0.00616915  0.72787851  1
  H  H24  1  0.25000000  0.48197410  0.09414509  1
  H  H25  1  0.25000000  0.98197410  0.40585491  1
  H  H26  1  0.75000000  0.51802590  0.90585491  1
  H  H27  1  0.75000000  0.01802590  0.59414509  1
  H  H28  1  0.36791197  0.61033201  0.15487631  1
  H  H29  1  0.13208803  0.11033201  0.34512369  1
  H  H30  1  0.86791197  0.38966799  0.84512369  1
  H  H31  1  0.63208803  0.88966799  0.65487631  1
  H  H32  1  0.63208803  0.38966799  0.84512369  1
  H  H33  1  0.86791197  0.88966799  0.65487631  1
  H  H34  1  0.13208803  0.61033201  0.15487631  1
  H  H35  1  0.36791197  0.11033201  0.34512369  1
  S  S36  1  0.25000000  0.46739568  0.88994656  1
  S  S37  1  0.25000000  0.96739568  0.61005344  1
  S  S38  1  0.75000000  0.53260432  0.11005344  1
  S  S39  1  0.75000000  0.03260432  0.38994656  1
  S  S40  1  0.25000000  0.22117987  0.10240818  1
  S  S41  1  0.25000000  0.72117987  0.39759182  1
  S  S42  1  0.75000000  0.77882013  0.89759182  1
  S  S43  1  0.75000000  0.27882013  0.60240818  1
  S  S44  1  0.50200573  0.15436109  0.86099781  1
  S  S45  1  0.99799427  0.65436109  0.63900219  1
  S  S46  1  0.00200573  0.84563891  0.13900219  1
  S  S47  1  0.49799427  0.34563891  0.36099781  1
  S  S48  1  0.49799427  0.84563891  0.13900219  1
  S  S49  1  0.00200573  0.34563891  0.36099781  1
  S  S50  1  0.99799427  0.15436109  0.86099781  1
  S  S51  1  0.50200573  0.65436109  0.63900219  1
  N  N52  1  0.25000000  0.83476111  0.89238373  1
  N  N53  1  0.25000000  0.33476111  0.60761627  1
  N  N54  1  0.75000000  0.16523889  0.10761627  1
  N  N55  1  0.75000000  0.66523889  0.39238373  1
  N  N56  1  0.25000000  0.54878169  0.15830808  1
  N  N57  1  0.25000000  0.04878169  0.34169192  1
  N  N58  1  0.75000000  0.45121831  0.84169192  1
  N  N59  1  0.75000000  0.95121831  0.65830808  1
