# generated using pymatgen
data_Li9Mn2Co5O16
_symmetry_space_group_name_H-M   'P 1'
_cell_length_a   2.90101346
_cell_length_b   8.44582808
_cell_length_c   11.82174205
_cell_angle_alpha   89.65434137
_cell_angle_beta   90.00000000
_cell_angle_gamma   90.00000000
_symmetry_Int_Tables_number   1
_chemical_formula_structural   Li9Mn2Co5O16
_chemical_formula_sum   'Li9 Mn2 Co5 O16'
_cell_volume   289.64468021
_cell_formula_units_Z   1
loop_
 _symmetry_equiv_pos_site_id
 _symmetry_equiv_pos_as_xyz
  1  'x, y, z'
loop_
 _atom_site_type_symbol
 _atom_site_label
 _atom_site_symmetry_multiplicity
 _atom_site_fract_x
 _atom_site_fract_y
 _atom_site_fract_z
 _atom_site_occupancy
  Li  Li0  1  0.50000000  0.24907718  0.11239513  1
  Li  Li1  1  0.50000000  0.75158366  0.38416679  1
  Li  Li2  1  0.50000000  0.24994587  0.63280756  1
  Li  Li3  1  0.00000000  0.47461103  0.98536354  1
  Li  Li4  1  0.00000000  0.99928582  0.25401843  1
  Li  Li5  1  0.00000000  0.50348381  0.51304885  1
  Li  Li6  1  0.50000000  0.74763511  0.86785426  1
  Li  Li7  1  0.00000000  0.01598570  0.74913248  1
  Li  Li8  1  0.50000000  0.24981748  0.87502026  1
  Mn  Mn9  1  0.00000000  0.01404199  0.00066622  1
  Mn  Mn10  1  0.00000000  0.50091970  0.24888500  1
  Co  Co11  1  0.00000000  0.99415815  0.49955933  1
  Co  Co12  1  0.00000000  0.47352853  0.75492663  1
  Co  Co13  1  0.50000000  0.75109829  0.12056632  1
  Co  Co14  1  0.50000000  0.24946264  0.37648602  1
  Co  Co15  1  0.50000000  0.74683551  0.63094107  1
  O  O16  1  0.50000000  0.00305491  0.11674219  1
  O  O17  1  0.50000000  0.50796556  0.35835838  1
  O  O18  1  0.50000000  0.99981847  0.61287398  1
  O  O19  1  0.00000000  0.23137962  0.00202917  1
  O  O20  1  0.00000000  0.72957897  0.23543991  1
  O  O21  1  0.00000000  0.24598124  0.48428230  1
  O  O22  1  0.50000000  0.50431343  0.86716424  1
  O  O23  1  0.00000000  0.75444410  0.74086640  1
  O  O24  1  0.50000000  0.49170566  0.13854087  1
  O  O25  1  0.50000000  0.99896438  0.37872617  1
  O  O26  1  0.50000000  0.50650449  0.63339778  1
  O  O27  1  0.00000000  0.77196686  0.01111824  1
  O  O28  1  0.00000000  0.26881515  0.26609714  1
  O  O29  1  -0.00000000  0.75304988  0.50764887  1
  O  O30  1  0.50000000  0.00070285  0.89307243  1
  O  O31  1  0.00000000  0.26028397  0.74780402  1
