# generated using pymatgen
data_Yb(BRu)4
_symmetry_space_group_name_H-M   'P 1'
_cell_length_a   7.41000506
_cell_length_b   7.41000506
_cell_length_c   9.23402370
_cell_angle_alpha   113.65533617
_cell_angle_beta   113.65533617
_cell_angle_gamma   90.00000000
_symmetry_Int_Tables_number   1
_chemical_formula_structural   Yb(BRu)4
_chemical_formula_sum   'Yb4 B16 Ru16'
_cell_volume   417.49389837
_cell_formula_units_Z   4
loop_
 _symmetry_equiv_pos_site_id
 _symmetry_equiv_pos_as_xyz
  1  'x, y, z'
loop_
 _atom_site_type_symbol
 _atom_site_label
 _atom_site_symmetry_multiplicity
 _atom_site_fract_x
 _atom_site_fract_y
 _atom_site_fract_z
 _atom_site_occupancy
  Yb  Yb0  1  0.12500000  0.37500000  0.25000000  1
  Yb  Yb1  1  0.62500000  0.87500000  0.25000000  1
  Yb  Yb2  1  0.87500000  0.62500000  0.75000000  1
  Yb  Yb3  1  0.37500000  0.12500000  0.75000000  1
  B  B4  1  0.78848969  0.34365281  0.91266813  1
  B  B5  1  0.62417844  0.84365281  0.91266813  1
  B  B6  1  0.84365281  0.28848969  0.41266813  1
  B  B7  1  0.06901532  0.78848969  0.41266813  1
  B  B8  1  0.21151031  0.65634719  0.08733187  1
  B  B9  1  0.37582156  0.15634719  0.08733187  1
  B  B10  1  0.15634719  0.71151031  0.58733187  1
  B  B11  1  0.93098468  0.21151031  0.58733187  1
  B  B12  1  0.28848969  0.56901532  0.91266813  1
  B  B13  1  0.12417844  0.06901532  0.91266813  1
  B  B14  1  0.34365281  0.12417844  0.41266813  1
  B  B15  1  0.56901532  0.62417844  0.41266813  1
  B  B16  1  0.71151031  0.43098468  0.08733187  1
  B  B17  1  0.87582156  0.93098468  0.08733187  1
  B  B18  1  0.65634719  0.87582156  0.58733187  1
  B  B19  1  0.43098468  0.37582156  0.58733187  1
  Ru  Ru20  1  0.94763458  0.66148931  0.12743614  1
  Ru  Ru21  1  0.67980156  0.16148931  0.12743614  1
  Ru  Ru22  1  0.16148931  0.44763458  0.62743614  1
  Ru  Ru23  1  0.96594683  0.94763458  0.62743614  1
  Ru  Ru24  1  0.05236542  0.33851069  0.87256386  1
  Ru  Ru25  1  0.32019844  0.83851069  0.87256386  1
  Ru  Ru26  1  0.83851069  0.55236542  0.37256386  1
  Ru  Ru27  1  0.03405317  0.05236542  0.37256386  1
  Ru  Ru28  1  0.44763458  0.46594683  0.12743614  1
  Ru  Ru29  1  0.17980156  0.96594683  0.12743614  1
  Ru  Ru30  1  0.66148931  0.17980156  0.62743614  1
  Ru  Ru31  1  0.46594683  0.67980156  0.62743614  1
  Ru  Ru32  1  0.55236542  0.53405317  0.87256386  1
  Ru  Ru33  1  0.82019844  0.03405317  0.87256386  1
  Ru  Ru34  1  0.33851069  0.82019844  0.37256386  1
  Ru  Ru35  1  0.53405317  0.32019844  0.37256386  1
