# generated using pymatgen
data_Er5P12Ru19
_symmetry_space_group_name_H-M   'P 1'
_cell_length_a   3.96156305
_cell_length_b   12.51021652
_cell_length_c   12.50990847
_cell_angle_alpha   120.00081479
_cell_angle_beta   90.00000000
_cell_angle_gamma   90.00000000
_symmetry_Int_Tables_number   1
_chemical_formula_structural   Er5P12Ru19
_chemical_formula_sum   'Er5 P12 Ru19'
_cell_volume   536.92372782
_cell_formula_units_Z   1
loop_
 _symmetry_equiv_pos_site_id
 _symmetry_equiv_pos_as_xyz
  1  'x, y, z'
loop_
 _atom_site_type_symbol
 _atom_site_label
 _atom_site_symmetry_multiplicity
 _atom_site_fract_x
 _atom_site_fract_y
 _atom_site_fract_z
 _atom_site_occupancy
  Er  Er0  1  0.50000000  -0.00000086  0.18475711  1
  Er  Er1  1  0.50000000  0.18476887  1.00000000  1
  Er  Er2  1  0.50000000  0.81524203  0.81524289  1
  Er  Er3  1  0.00000000  0.33331461  0.66670488  1
  Er  Er4  1  0.00000000  0.66660973  0.33329512  1
  P  P5  1  0.00000000  -0.00000271  0.81658636  1
  P  P6  1  -0.00000000  0.81658733  1.00000000  1
  P  P7  1  -0.00000000  0.18341093  0.18341364  1
  P  P8  1  0.50000000  0.30779888  0.47798942  1
  P  P9  1  0.50000000  0.17018521  0.69220214  1
  P  P10  1  0.50000000  0.52201515  0.82981365  1
  P  P11  1  0.50000000  0.82980946  0.52201058  1
  P  P12  1  0.50000000  0.47798307  0.30779786  1
  P  P13  1  0.50000000  0.69220149  0.17018635  1
  P  P14  1  -0.00000000  0.99999920  0.37219286  1
  P  P15  1  -0.00000000  0.37219713  0.00000000  1
  P  P16  1  -0.00000000  0.62780633  0.62780714  1
  Ru  Ru17  1  -0.00000000  -0.00000173  0.55464806  1
  Ru  Ru18  1  -0.00000000  0.55464503  1.00000000  1
  Ru  Ru19  1  0.00000000  0.44535022  0.44535194  1
  Ru  Ru20  1  0.50000000  -0.00000141  0.71720871  1
  Ru  Ru21  1  0.50000000  0.71720074  0.00000000  1
  Ru  Ru22  1  0.50000000  0.28278988  0.28279129  1
  Ru  Ru23  1  0.00000000  0.19268654  0.37692116  1
  Ru  Ru24  1  0.00000000  0.18423001  0.80731067  1
  Ru  Ru25  1  -0.00000000  0.62307730  0.81576541  1
  Ru  Ru26  1  0.00000000  0.81576538  0.62307884  1
  Ru  Ru27  1  0.00000000  0.37691934  0.19268933  1
  Ru  Ru28  1  -0.00000000  0.80731189  0.18423459  1
  Ru  Ru29  1  0.50000000  0.12624509  0.49120170  1
  Ru  Ru30  1  0.50000000  0.36496669  0.87376419  1
  Ru  Ru31  1  0.50000000  0.50879110  0.63503708  1
  Ru  Ru32  1  0.50000000  0.63504340  0.50879830  1
  Ru  Ru33  1  0.50000000  0.49120250  0.12623581  1
  Ru  Ru34  1  0.50000000  0.87375403  0.36496292  1
  Ru  Ru35  1  -0.00000000  -0.00000185  0.00000000  1
