# generated using pymatgen
data_ZnH2N2O7
_symmetry_space_group_name_H-M   'P 1'
_cell_length_a   6.23677963
_cell_length_b   10.04087616
_cell_length_c   18.15295202
_cell_angle_alpha   90.00000000
_cell_angle_beta   90.00000000
_cell_angle_gamma   90.00000000
_symmetry_Int_Tables_number   1
_chemical_formula_structural   ZnH2N2O7
_chemical_formula_sum   'Zn8 H16 N16 O56'
_cell_volume   1136.78744758
_cell_formula_units_Z   8
loop_
 _symmetry_equiv_pos_site_id
 _symmetry_equiv_pos_as_xyz
  1  'x, y, z'
loop_
 _atom_site_type_symbol
 _atom_site_label
 _atom_site_symmetry_multiplicity
 _atom_site_fract_x
 _atom_site_fract_y
 _atom_site_fract_z
 _atom_site_occupancy
  Zn  Zn0  1  0.53903615  0.09547215  0.65084230  1
  Zn  Zn1  1  0.96096385  0.59547215  0.34915770  1
  Zn  Zn2  1  0.03903615  0.90452785  0.84915770  1
  Zn  Zn3  1  0.46096385  0.40452785  0.15084230  1
  Zn  Zn4  1  0.46096385  0.90452785  0.34915770  1
  Zn  Zn5  1  0.03903615  0.40452785  0.65084230  1
  Zn  Zn6  1  0.96096385  0.09547215  0.15084230  1
  Zn  Zn7  1  0.53903615  0.59547215  0.84915770  1
  H  H8  1  0.28556863  0.96924416  0.56332859  1
  H  H9  1  0.21443137  0.46924416  0.43667141  1
  H  H10  1  0.78556863  0.03075584  0.93667141  1
  H  H11  1  0.71443137  0.53075584  0.06332859  1
  H  H12  1  0.71443137  0.03075584  0.43667141  1
  H  H13  1  0.78556863  0.53075584  0.56332859  1
  H  H14  1  0.21443137  0.96924416  0.06332859  1
  H  H15  1  0.28556863  0.46924416  0.93667141  1
  H  H16  1  0.30116867  0.88244302  0.63567552  1
  H  H17  1  0.19883133  0.38244302  0.36432448  1
  H  H18  1  0.80116867  0.11755698  0.86432448  1
  H  H19  1  0.69883133  0.61755698  0.13567552  1
  H  H20  1  0.69883133  0.11755698  0.36432448  1
  H  H21  1  0.80116867  0.61755698  0.63567552  1
  H  H22  1  0.19883133  0.88244302  0.13567552  1
  H  H23  1  0.30116867  0.38244302  0.86432448  1
  N  N24  1  0.81981796  0.37078751  0.79527639  1
  N  N25  1  0.68018204  0.87078751  0.20472361  1
  N  N26  1  0.31981796  0.62921249  0.70472361  1
  N  N27  1  0.18018204  0.12921249  0.29527639  1
  N  N28  1  0.18018204  0.62921249  0.20472361  1
  N  N29  1  0.31981796  0.12921249  0.79527639  1
  N  N30  1  0.68018204  0.37078751  0.29527639  1
  N  N31  1  0.81981796  0.87078751  0.70472361  1
  N  N32  1  0.84222895  0.16173418  0.55453005  1
  N  N33  1  0.65777105  0.66173418  0.44546995  1
  N  N34  1  0.34222895  0.83826582  0.94546995  1
  N  N35  1  0.15777105  0.33826582  0.05453005  1
  N  N36  1  0.15777105  0.83826582  0.44546995  1
  N  N37  1  0.34222895  0.33826582  0.55453005  1
  N  N38  1  0.65777105  0.16173418  0.05453005  1
  N  N39  1  0.84222895  0.66173418  0.94546995  1
  O  O40  1  0.76383377  0.31016994  0.85146178  1
  O  O41  1  0.73616623  0.81016994  0.14853822  1
  O  O42  1  0.26383377  0.68983006  0.64853822  1
  O  O43  1  0.23616623  0.18983006  0.35146178  1
  O  O44  1  0.23616623  0.68983006  0.14853822  1
  O  O45  1  0.26383377  0.18983006  0.85146178  1
  O  O46  1  0.73616623  0.31016994  0.35146178  1
  O  O47  1  0.76383377  0.81016994  0.64853822  1
  O  O48  1  0.75822692  0.49023418  0.78190874  1
  O  O49  1  0.74177308  0.99023418  0.21809126  1
  O  O50  1  0.25822692  0.50976582  0.71809126  1
  O  O51  1  0.24177308  0.00976582  0.28190874  1
  O  O52  1  0.24177308  0.50976582  0.21809126  1
  O  O53  1  0.25822692  0.00976582  0.78190874  1
  O  O54  1  0.74177308  0.49023418  0.28190874  1
  O  O55  1  0.75822692  0.99023418  0.71809126  1
  O  O56  1  0.94265051  0.31418550  0.74799818  1
  O  O57  1  0.55734949  0.81418550  0.25200182  1
  O  O58  1  0.44265051  0.68581450  0.75200182  1
  O  O59  1  0.05734949  0.18581450  0.24799818  1
  O  O60  1  0.05734949  0.68581450  0.25200182  1
  O  O61  1  0.44265051  0.18581450  0.74799818  1
  O  O62  1  0.55734949  0.31418550  0.24799818  1
  O  O63  1  0.94265051  0.81418550  0.75200182  1
  O  O64  1  0.97582935  0.18523283  0.50703349  1
  O  O65  1  0.52417065  0.68523283  0.49296651  1
  O  O66  1  0.47582935  0.81476717  0.99296651  1
  O  O67  1  0.02417065  0.31476717  0.00703349  1
  O  O68  1  0.02417065  0.81476717  0.49296651  1
  O  O69  1  0.47582935  0.31476717  0.50703349  1
  O  O70  1  0.52417065  0.18523283  0.00703349  1
  O  O71  1  0.97582935  0.68523283  0.99296651  1
  O  O72  1  0.70204217  0.06822715  0.54737530  1
  O  O73  1  0.79795783  0.56822715  0.45262470  1
  O  O74  1  0.20204217  0.93177285  0.95262470  1
  O  O75  1  0.29795783  0.43177285  0.04737530  1
  O  O76  1  0.29795783  0.93177285  0.45262470  1
  O  O77  1  0.20204217  0.43177285  0.54737530  1
  O  O78  1  0.79795783  0.06822715  0.04737530  1
  O  O79  1  0.70204217  0.56822715  0.95262470  1
  O  O80  1  0.82889363  0.22788728  0.61583650  1
  O  O81  1  0.67110637  0.72788728  0.38416350  1
  O  O82  1  0.32889363  0.77211272  0.88416350  1
  O  O83  1  0.17110637  0.27211272  0.11583650  1
  O  O84  1  0.17110637  0.77211272  0.38416350  1
  O  O85  1  0.32889363  0.27211272  0.61583650  1
  O  O86  1  0.67110637  0.22788728  0.11583650  1
  O  O87  1  0.82889363  0.72788728  0.88416350  1
  O  O88  1  0.29694605  0.97505355  0.61734164  1
  O  O89  1  0.20305395  0.47505355  0.38265836  1
  O  O90  1  0.79694605  0.02494645  0.88265836  1
  O  O91  1  0.70305395  0.52494645  0.11734164  1
  O  O92  1  0.70305395  0.02494645  0.38265836  1
  O  O93  1  0.79694605  0.52494645  0.61734164  1
  O  O94  1  0.20305395  0.97505355  0.11734164  1
  O  O95  1  0.29694605  0.47505355  0.88265836  1
