# generated using pymatgen
data_In4As5(BrO4)3
_symmetry_space_group_name_H-M   'P 1'
_cell_length_a   8.17791578
_cell_length_b   10.80484643
_cell_length_c   12.39144471
_cell_angle_alpha   70.85508476
_cell_angle_beta   79.71898078
_cell_angle_gamma   80.36884536
_symmetry_Int_Tables_number   1
_chemical_formula_structural   In4As5(BrO4)3
_chemical_formula_sum   'In8 As10 Br6 O24'
_cell_volume   1010.76431120
_cell_formula_units_Z   2
loop_
 _symmetry_equiv_pos_site_id
 _symmetry_equiv_pos_as_xyz
  1  'x, y, z'
loop_
 _atom_site_type_symbol
 _atom_site_label
 _atom_site_symmetry_multiplicity
 _atom_site_fract_x
 _atom_site_fract_y
 _atom_site_fract_z
 _atom_site_occupancy
  In  In0  1  0.00000000  0.50000000  0.00000000  1
  In  In1  1  0.00000000  0.00000000  0.00000000  1
  In  In2  1  0.74204185  0.78898475  0.98632157  1
  In  In3  1  0.25795815  0.21101525  0.01367843  1
  In  In4  1  0.34808685  0.70970806  0.98666059  1
  In  In5  1  0.65191315  0.29029194  0.01333941  1
  In  In6  1  0.84654636  0.80343539  0.47632542  1
  In  In7  1  0.15345364  0.19656461  0.52367458  1
  As  As8  1  0.97182693  0.32005049  0.80829650  1
  As  As9  1  0.02817307  0.67994951  0.19170350  1
  As  As10  1  0.74570046  0.62079977  0.77422051  1
  As  As11  1  0.25429954  0.37920023  0.22577949  1
  As  As12  1  0.37440984  0.52008366  0.82205851  1
  As  As13  1  0.62559016  0.47991634  0.17794149  1
  As  As14  1  0.07367112  0.91198844  0.74818199  1
  As  As15  1  0.92632888  0.08801156  0.25181801  1
  As  As16  1  0.60345613  0.99401961  0.17901262  1
  As  As17  1  0.39654387  0.00598039  0.82098738  1
  Br  Br18  1  0.90492368  0.35376655  0.44591067  1
  Br  Br19  1  0.09507632  0.64623345  0.55408933  1
  Br  Br20  1  0.73701498  0.96752079  0.58885940  1
  Br  Br21  1  0.26298502  0.03247921  0.41114060  1
  Br  Br22  1  0.61393513  0.67824959  0.47254008  1
  Br  Br23  1  0.38606487  0.32175041  0.52745992  1
  O  O24  1  0.83832126  0.65433591  0.88029750  1
  O  O25  1  0.16167874  0.34566409  0.11970250  1
  O  O26  1  0.75997362  0.91863355  0.08718397  1
  O  O27  1  0.24002638  0.08136645  0.91281603  1
  O  O28  1  0.22422303  0.59268384  0.91908536  1
  O  O29  1  0.77577697  0.40731616  0.08091464  1
  O  O30  1  0.86238632  0.19567381  0.92010340  1
  O  O31  1  0.13761368  0.80432619  0.07989660  1
  O  O32  1  0.52796901  0.61319298  0.85114098  1
  O  O33  1  0.47203099  0.38680702  0.14885902  1
  O  O34  1  0.43929347  0.35886730  0.91738170  1
  O  O35  1  0.56070653  0.64113270  0.08261830  1
  O  O36  1  0.78375392  0.43776288  0.82843080  1
  O  O37  1  0.21624608  0.56223712  0.17156920  1
  O  O38  1  0.90783907  0.63571123  0.10117400  1
  O  O39  1  0.09216093  0.36428877  0.89882600  1
  O  O40  1  0.50289856  0.87590961  0.93020727  1
  O  O41  1  0.49710144  0.12409039  0.06979273  1
  O  O42  1  0.93336049  0.91389133  0.87994761  1
  O  O43  1  0.06663951  0.08610867  0.12005239  1
  O  O44  1  0.91317372  0.91677545  0.30668196  1
  O  O45  1  0.08682628  0.08322455  0.69331804  1
  O  O46  1  0.27080567  0.87739718  0.82365128  1
  O  O47  1  0.72919433  0.12260282  0.17634872  1
