# generated using pymatgen
data_CaAgGe
_symmetry_space_group_name_H-M   'P 1'
_cell_length_a   4.61849847
_cell_length_b   7.93340142
_cell_length_c   21.76807917
_cell_angle_alpha   90.00000000
_cell_angle_beta   90.00000000
_cell_angle_gamma   90.00000000
_symmetry_Int_Tables_number   1
_chemical_formula_structural   CaAgGe
_chemical_formula_sum   'Ca12 Ag12 Ge12'
_cell_volume   797.59117853
_cell_formula_units_Z   12
loop_
 _symmetry_equiv_pos_site_id
 _symmetry_equiv_pos_as_xyz
  1  'x, y, z'
loop_
 _atom_site_type_symbol
 _atom_site_label
 _atom_site_symmetry_multiplicity
 _atom_site_fract_x
 _atom_site_fract_y
 _atom_site_fract_z
 _atom_site_occupancy
  Ca  Ca0  1  0.25000000  0.21954389  0.00058781  1
  Ca  Ca1  1  0.25000000  0.28045611  0.50058781  1
  Ca  Ca2  1  0.75000000  0.78045611  0.99941219  1
  Ca  Ca3  1  0.75000000  0.71954389  0.49941219  1
  Ca  Ca4  1  0.25000000  0.20705864  0.33363256  1
  Ca  Ca5  1  0.25000000  0.29294136  0.83363256  1
  Ca  Ca6  1  0.75000000  0.79294136  0.66636744  1
  Ca  Ca7  1  0.75000000  0.70705864  0.16636744  1
  Ca  Ca8  1  0.25000000  0.20799702  0.66735664  1
  Ca  Ca9  1  0.25000000  0.29200298  0.16735664  1
  Ca  Ca10  1  0.75000000  0.79200298  0.33264336  1
  Ca  Ca11  1  0.75000000  0.70799702  0.83264336  1
  Ag  Ag12  1  0.25000000  0.91263271  0.76353085  1
  Ag  Ag13  1  0.25000000  0.58736729  0.26353085  1
  Ag  Ag14  1  0.75000000  0.08736729  0.23646915  1
  Ag  Ag15  1  0.75000000  0.41263271  0.73646915  1
  Ag  Ag16  1  0.25000000  0.92000934  0.90420090  1
  Ag  Ag17  1  0.25000000  0.57999066  0.40420090  1
  Ag  Ag18  1  0.75000000  0.07999066  0.09579910  1
  Ag  Ag19  1  0.75000000  0.42000934  0.59579910  1
  Ag  Ag20  1  0.25000000  0.91830368  0.56431510  1
  Ag  Ag21  1  0.25000000  0.58169632  0.06431510  1
  Ag  Ag22  1  0.75000000  0.08169632  0.43568490  1
  Ag  Ag23  1  0.75000000  0.41830368  0.93568490  1
  Ge  Ge24  1  0.25000000  0.58236086  0.72770386  1
  Ge  Ge25  1  0.25000000  0.91763914  0.22770386  1
  Ge  Ge26  1  0.75000000  0.41763914  0.27229614  1
  Ge  Ge27  1  0.75000000  0.08236086  0.77229614  1
  Ge  Ge28  1  0.25000000  0.91108637  0.10299811  1
  Ge  Ge29  1  0.25000000  0.58891363  0.60299811  1
  Ge  Ge30  1  0.75000000  0.08891363  0.89700189  1
  Ge  Ge31  1  0.75000000  0.41108637  0.39700189  1
  Ge  Ge32  1  0.25000000  0.59202400  0.92714182  1
  Ge  Ge33  1  0.25000000  0.90797600  0.42714182  1
  Ge  Ge34  1  0.75000000  0.40797600  0.07285818  1
  Ge  Ge35  1  0.75000000  0.09202400  0.57285818  1
