# generated using pymatgen
data_Ca2Al8PbO15
_symmetry_space_group_name_H-M   'P 1'
_cell_length_a   5.42190257
_cell_length_b   8.97382460
_cell_length_c   28.29008534
_cell_angle_alpha   90.00000000
_cell_angle_beta   90.00000000
_cell_angle_gamma   90.00000000
_symmetry_Int_Tables_number   1
_chemical_formula_structural   Ca2Al8PbO15
_chemical_formula_sum   'Ca8 Al32 Pb4 O60'
_cell_volume   1376.45983553
_cell_formula_units_Z   4
loop_
 _symmetry_equiv_pos_site_id
 _symmetry_equiv_pos_as_xyz
  1  'x, y, z'
loop_
 _atom_site_type_symbol
 _atom_site_label
 _atom_site_symmetry_multiplicity
 _atom_site_fract_x
 _atom_site_fract_y
 _atom_site_fract_z
 _atom_site_occupancy
  Ca  Ca0  1  0.43964811  0.06656028  0.88934673  1
  Ca  Ca1  1  0.93964811  0.43343972  0.61065327  1
  Ca  Ca2  1  0.56035189  0.93343972  0.38934673  1
  Ca  Ca3  1  0.06035189  0.56656028  0.11065327  1
  Ca  Ca4  1  0.56035189  0.93343972  0.11065327  1
  Ca  Ca5  1  0.06035189  0.56656028  0.38934673  1
  Ca  Ca6  1  0.43964811  0.06656028  0.61065327  1
  Ca  Ca7  1  0.93964811  0.43343972  0.88934673  1
  Al  Al8  1  0.37382255  0.33681653  0.96100456  1
  Al  Al9  1  0.87382255  0.16318347  0.53899544  1
  Al  Al10  1  0.62617745  0.66318347  0.46100456  1
  Al  Al11  1  0.12617745  0.83681653  0.03899544  1
  Al  Al12  1  0.62617745  0.66318347  0.03899544  1
  Al  Al13  1  0.12617745  0.83681653  0.46100456  1
  Al  Al14  1  0.37382255  0.33681653  0.53899544  1
  Al  Al15  1  0.87382255  0.16318347  0.96100456  1
  Al  Al16  1  0.48135010  0.34716776  0.81063462  1
  Al  Al17  1  0.98135010  0.15283224  0.68936538  1
  Al  Al18  1  0.51864990  0.65283224  0.31063462  1
  Al  Al19  1  0.01864990  0.84716776  0.18936538  1
  Al  Al20  1  0.51864990  0.65283224  0.18936538  1
  Al  Al21  1  0.01864990  0.84716776  0.31063462  1
  Al  Al22  1  0.48135010  0.34716776  0.68936538  1
  Al  Al23  1  0.98135010  0.15283224  0.81063462  1
  Al  Al24  1  0.52680103  0.68770939  0.83832671  1
  Al  Al25  1  0.02680103  0.81229061  0.66167329  1
  Al  Al26  1  0.47319897  0.31229061  0.33832671  1
  Al  Al27  1  0.97319897  0.18770939  0.16167329  1
  Al  Al28  1  0.47319897  0.31229061  0.16167329  1
  Al  Al29  1  0.97319897  0.18770939  0.33832671  1
  Al  Al30  1  0.52680103  0.68770939  0.66167329  1
  Al  Al31  1  0.02680103  0.81229061  0.83832671  1
  Al  Al32  1  0.30981708  0.69364847  0.94128119  1
  Al  Al33  1  0.80981708  0.80635153  0.55871881  1
  Al  Al34  1  0.69018292  0.30635153  0.44128119  1
  Al  Al35  1  0.19018292  0.19364847  0.05871881  1
  Al  Al36  1  0.69018292  0.30635153  0.05871881  1
  Al  Al37  1  0.19018292  0.19364847  0.44128119  1
  Al  Al38  1  0.30981708  0.69364847  0.55871881  1
  Al  Al39  1  0.80981708  0.80635153  0.94128119  1
  Pb  Pb40  1  0.07043747  0.54320907  0.75000000  1
  Pb  Pb41  1  0.57043747  0.95679093  0.75000000  1
  Pb  Pb42  1  0.92956253  0.45679093  0.25000000  1
  Pb  Pb43  1  0.42956253  0.04320907  0.25000000  1
  O  O44  1  0.10186620  0.80375703  0.97661189  1
  O  O45  1  0.60186620  0.69624297  0.52338811  1
  O  O46  1  0.89813380  0.19624297  0.47661189  1
  O  O47  1  0.39813380  0.30375703  0.02338811  1
  O  O48  1  0.89813380  0.19624297  0.02338811  1
  O  O49  1  0.39813380  0.30375703  0.47661189  1
  O  O50  1  0.10186620  0.80375703  0.52338811  1
  O  O51  1  0.60186620  0.69624297  0.97661189  1
  O  O52  1  0.45861884  0.39740912  0.75000000  1
  O  O53  1  0.95861884  0.10259088  0.75000000  1
  O  O54  1  0.54138116  0.60259088  0.25000000  1
  O  O55  1  0.04138116  0.89740912  0.25000000  1
  O  O56  1  0.61270729  0.50030377  0.84092974  1
  O  O57  1  0.11270729  0.99969623  0.65907026  1
  O  O58  1  0.38729271  0.49969623  0.34092974  1
  O  O59  1  0.88729271  0.00030377  0.15907026  1
  O  O60  1  0.38729271  0.49969623  0.15907026  1
  O  O61  1  0.88729271  0.00030377  0.34092974  1
  O  O62  1  0.61270729  0.50030377  0.65907026  1
  O  O63  1  0.11270729  0.99969623  0.84092974  1
  O  O64  1  0.66695584  0.19025117  0.82663815  1
  O  O65  1  0.16695584  0.30974883  0.67336185  1
  O  O66  1  0.33304416  0.80974883  0.32663815  1
  O  O67  1  0.83304416  0.69025117  0.17336185  1
  O  O68  1  0.33304416  0.80974883  0.17336185  1
  O  O69  1  0.83304416  0.69025117  0.32663815  1
  O  O70  1  0.66695584  0.19025117  0.67336185  1
  O  O71  1  0.16695584  0.30974883  0.82663815  1
  O  O72  1  0.46993888  0.78290874  0.89311322  1
  O  O73  1  0.96993888  0.71709126  0.60688678  1
  O  O74  1  0.53006112  0.21709126  0.39311322  1
  O  O75  1  0.03006112  0.28290874  0.10688678  1
  O  O76  1  0.53006112  0.21709126  0.10688678  1
  O  O77  1  0.03006112  0.28290874  0.39311322  1
  O  O78  1  0.46993888  0.78290874  0.60688678  1
  O  O79  1  0.96993888  0.71709126  0.89311322  1
  O  O80  1  0.24459293  0.50365320  0.94164308  1
  O  O81  1  0.74459293  0.99634680  0.55835692  1
  O  O82  1  0.75540707  0.49634680  0.44164308  1
  O  O83  1  0.25540707  0.00365320  0.05835692  1
  O  O84  1  0.75540707  0.49634680  0.05835692  1
  O  O85  1  0.25540707  0.00365320  0.44164308  1
  O  O86  1  0.24459293  0.50365320  0.55835692  1
  O  O87  1  0.74459293  0.99634680  0.94164308  1
  O  O88  1  0.74278703  0.79885664  0.80661646  1
  O  O89  1  0.24278703  0.70114336  0.69338354  1
  O  O90  1  0.25721297  0.20114336  0.30661646  1
  O  O91  1  0.75721297  0.29885664  0.19338354  1
  O  O92  1  0.25721297  0.20114336  0.19338354  1
  O  O93  1  0.75721297  0.29885664  0.30661646  1
  O  O94  1  0.74278703  0.79885664  0.69338354  1
  O  O95  1  0.24278703  0.70114336  0.80661646  1
  O  O96  1  0.16562906  0.20407465  0.93630183  1
  O  O97  1  0.66562906  0.29592535  0.56369817  1
  O  O98  1  0.83437094  0.79592535  0.43630183  1
  O  O99  1  0.33437094  0.70407465  0.06369817  1
  O  O100  1  0.83437094  0.79592535  0.06369817  1
  O  O101  1  0.33437094  0.70407465  0.43630183  1
  O  O102  1  0.16562906  0.20407465  0.56369817  1
  O  O103  1  0.66562906  0.29592535  0.93630183  1
