# generated using pymatgen
data_SrNp(PO4)2
_symmetry_space_group_name_H-M   'P 1'
_cell_length_a   6.97722524
_cell_length_b   6.97722524
_cell_length_c   13.39068849
_cell_angle_alpha   90.00000000
_cell_angle_beta   90.00000000
_cell_angle_gamma   99.23259586
_symmetry_Int_Tables_number   1
_chemical_formula_structural   SrNp(PO4)2
_chemical_formula_sum   'Sr4 Np4 P8 O32'
_cell_volume   643.43608181
_cell_formula_units_Z   4
loop_
 _symmetry_equiv_pos_site_id
 _symmetry_equiv_pos_as_xyz
  1  'x, y, z'
loop_
 _atom_site_type_symbol
 _atom_site_label
 _atom_site_symmetry_multiplicity
 _atom_site_fract_x
 _atom_site_fract_y
 _atom_site_fract_z
 _atom_site_occupancy
  Sr  Sr0  1  0.76894592  0.26894592  0.75000000  1
  Sr  Sr1  1  0.73105408  0.23105408  0.25000000  1
  Sr  Sr2  1  0.23105408  0.73105408  0.25000000  1
  Sr  Sr3  1  0.26894592  0.76894592  0.75000000  1
  Np  Np4  1  0.22818874  0.22818874  0.59120247  1
  Np  Np5  1  0.77181126  0.77181126  0.40879753  1
  Np  Np6  1  0.27181126  0.27181126  0.09120247  1
  Np  Np7  1  0.72818874  0.72818874  0.90879753  1
  P  P8  1  0.32017722  0.32017722  0.81719659  1
  P  P9  1  0.67982278  0.67982278  0.18280341  1
  P  P10  1  0.17982278  0.17982278  0.31719659  1
  P  P11  1  0.82017722  0.82017722  0.68280341  1
  P  P12  1  0.77283379  0.22716621  0.00000000  1
  P  P13  1  0.27283379  0.72716621  0.50000000  1
  P  P14  1  0.22716621  0.77283379  0.00000000  1
  P  P15  1  0.72716621  0.27283379  0.50000000  1
  O  O16  1  0.14699934  0.37889128  0.75759024  1
  O  O17  1  0.62110872  0.85300066  0.24240976  1
  O  O18  1  0.12110872  0.35300066  0.25759024  1
  O  O19  1  0.64699934  0.87889128  0.74240976  1
  O  O20  1  0.85300066  0.62110872  0.24240976  1
  O  O21  1  0.37889128  0.14699934  0.75759024  1
  O  O22  1  0.87889128  0.64699934  0.74240976  1
  O  O23  1  0.35300066  0.12110872  0.25759024  1
  O  O24  1  0.26605644  0.26605644  0.92653641  1
  O  O25  1  0.73394356  0.73394356  0.07346359  1
  O  O26  1  0.23394356  0.23394356  0.42653641  1
  O  O27  1  0.76605644  0.76605644  0.57346359  1
  O  O28  1  0.49175196  0.49175196  0.81233974  1
  O  O29  1  0.50824804  0.50824804  0.18766026  1
  O  O30  1  0.00824804  0.00824804  0.31233974  1
  O  O31  1  0.99175196  0.99175196  0.68766026  1
  O  O32  1  0.93978802  0.22620068  0.07690440  1
  O  O33  1  0.77379932  0.06021198  0.92309560  1
  O  O34  1  0.27379932  0.56021198  0.57690440  1
  O  O35  1  0.43978802  0.72620068  0.42309560  1
  O  O36  1  0.06021198  0.77379932  0.92309560  1
  O  O37  1  0.22620068  0.93978802  0.07690440  1
  O  O38  1  0.72620068  0.43978802  0.42309560  1
  O  O39  1  0.56021198  0.27379932  0.57690440  1
  O  O40  1  0.79392499  0.41407211  0.93566891  1
  O  O41  1  0.58592789  0.20607501  0.06433109  1
  O  O42  1  0.08592789  0.70607501  0.43566891  1
  O  O43  1  0.29392499  0.91407211  0.56433109  1
  O  O44  1  0.20607501  0.58592789  0.06433109  1
  O  O45  1  0.41407211  0.79392499  0.93566891  1
  O  O46  1  0.91407211  0.29392499  0.56433109  1
  O  O47  1  0.70607501  0.08592789  0.43566891  1
