# generated using pymatgen
data_Li9Mn2Co5O16
_symmetry_space_group_name_H-M   'P 1'
_cell_length_a   2.89516620
_cell_length_b   10.27259440
_cell_length_c   10.33021544
_cell_angle_alpha   69.56745037
_cell_angle_beta   90.00000000
_cell_angle_gamma   90.00000000
_symmetry_Int_Tables_number   1
_chemical_formula_structural   Li9Mn2Co5O16
_chemical_formula_sum   'Li9 Mn2 Co5 O16'
_cell_volume   287.89986219
_cell_formula_units_Z   1
loop_
 _symmetry_equiv_pos_site_id
 _symmetry_equiv_pos_as_xyz
  1  'x, y, z'
loop_
 _atom_site_type_symbol
 _atom_site_label
 _atom_site_symmetry_multiplicity
 _atom_site_fract_x
 _atom_site_fract_y
 _atom_site_fract_z
 _atom_site_occupancy
  Li  Li0  1  0.50000000  0.99153765  0.26416743  1
  Li  Li1  1  0.50000000  0.00369536  0.73901297  1
  Li  Li2  1  0.00000000  0.25972346  0.25179686  1
  Li  Li3  1  0.00000000  0.25838787  0.74007350  1
  Li  Li4  1  0.50000000  0.49657525  0.26136877  1
  Li  Li5  1  0.50000000  0.50520627  0.74116260  1
  Li  Li6  1  0.00000000  0.74637753  0.26983471  1
  Li  Li7  1  0.00000000  0.73505380  0.73592803  1
  Li  Li8  1  0.50000000  0.75167700  0.49690386  1
  Mn  Mn9  1  0.00000000  0.99946022  0.00018757  1
  Mn  Mn10  1  -0.00000000  0.99372318  0.49674876  1
  Co  Co11  1  0.50000000  0.25168793  0.00061883  1
  Co  Co12  1  0.50000000  0.25547595  0.50045295  1
  Co  Co13  1  0.00000000  0.50110106  0.99992199  1
  Co  Co14  1  0.00000000  0.51650186  0.50669712  1
  Co  Co15  1  0.50000000  0.74795957  0.99916157  1
  O  O16  1  0.50000000  0.89380514  0.11365307  1
  O  O17  1  0.50000000  0.88869405  0.61261076  1
  O  O18  1  0.00000000  0.13079387  0.10085080  1
  O  O19  1  0.00000000  0.12300531  0.61030378  1
  O  O20  1  0.50000000  0.38247745  0.11691345  1
  O  O21  1  0.50000000  0.37443931  0.61646767  1
  O  O22  1  -0.00000000  0.63538792  0.10765877  1
  O  O23  1  0.00000000  0.61524566  0.62159619  1
  O  O24  1  0.50000000  0.11409181  0.38798601  1
  O  O25  1  0.50000000  0.10701720  0.88610558  1
  O  O26  1  0.00000000  0.36439042  0.38626529  1
  O  O27  1  0.00000000  0.36183556  0.89224835  1
  O  O28  1  0.50000000  0.61604161  0.38013503  1
  O  O29  1  0.50000000  0.61706024  0.88162998  1
  O  O30  1  0.00000000  0.88856595  0.38398836  1
  O  O31  1  0.00000000  0.87300454  0.89754938  1
