# generated using pymatgen
data_Li9Mn2Co5O16
_symmetry_space_group_name_H-M   'P 1'
_cell_length_a   2.89988817
_cell_length_b   10.23532543
_cell_length_c   10.29141127
_cell_angle_alpha   70.29686917
_cell_angle_beta   90.00000000
_cell_angle_gamma   90.00000000
_symmetry_Int_Tables_number   1
_chemical_formula_structural   Li9Mn2Co5O16
_chemical_formula_sum   'Li9 Mn2 Co5 O16'
_cell_volume   287.57827809
_cell_formula_units_Z   1
loop_
 _symmetry_equiv_pos_site_id
 _symmetry_equiv_pos_as_xyz
  1  'x, y, z'
loop_
 _atom_site_type_symbol
 _atom_site_label
 _atom_site_symmetry_multiplicity
 _atom_site_fract_x
 _atom_site_fract_y
 _atom_site_fract_z
 _atom_site_occupancy
  Li  Li0  1  0.50000000  0.99733159  0.26129367  1
  Li  Li1  1  0.50000000  -0.00004887  0.73733942  1
  Li  Li2  1  -0.00000000  0.25105607  0.25584706  1
  Li  Li3  1  0.00000000  0.25259081  0.74360792  1
  Li  Li4  1  0.50000000  0.49980813  0.25364820  1
  Li  Li5  1  0.50000000  0.50968835  0.74106995  1
  Li  Li6  1  0.00000000  0.75317078  0.27034557  1
  Li  Li7  1  -0.00000000  0.74579025  0.73191569  1
  Li  Li8  1  0.50000000  0.74880129  0.50379928  1
  Mn  Mn9  1  0.00000000  -0.00027748  0.99718847  1
  Mn  Mn10  1  0.00000000  0.50481159  0.50461425  1
  Co  Co11  1  0.00000000  0.98359480  0.49250545  1
  Co  Co12  1  0.50000000  0.25225463  0.99852059  1
  Co  Co13  1  0.50000000  0.24385320  0.49937167  1
  Co  Co14  1  0.00000000  0.50111969  0.00393945  1
  Co  Co15  1  0.50000000  0.74486061  0.00138911  1
  O  O16  1  0.50000000  0.89356321  0.11122502  1
  O  O17  1  0.50000000  0.88478685  0.61679554  1
  O  O18  1  0.00000000  0.13414584  0.09789339  1
  O  O19  1  -0.00000000  0.13435114  0.61527030  1
  O  O20  1  0.50000000  0.38072739  0.11603053  1
  O  O21  1  0.50000000  0.38519455  0.61343935  1
  O  O22  1  -0.00000000  0.62691488  0.12025910  1
  O  O23  1  0.00000000  0.61229116  0.61630694  1
  O  O24  1  0.50000000  0.12383560  0.38312366  1
  O  O25  1  0.50000000  0.10795548  0.88575127  1
  O  O26  1  0.00000000  0.37445274  0.39289431  1
  O  O27  1  -0.00000000  0.36141158  0.89119366  1
  O  O28  1  0.50000000  0.60887301  0.39014740  1
  O  O29  1  0.50000000  0.62011590  0.88490346  1
  O  O30  1  -0.00000000  0.88468145  0.37593493  1
  O  O31  1  0.00000000  0.87829378  0.89243538  1
