# generated using pymatgen
data_InP2H6NO8
_symmetry_space_group_name_H-M   'P 1'
_cell_length_a   8.44937056
_cell_length_b   9.98771976
_cell_length_c   9.59682182
_cell_angle_alpha   116.44644138
_cell_angle_beta   90.00000000
_cell_angle_gamma   90.00000000
_symmetry_Int_Tables_number   1
_chemical_formula_structural   InP2H6NO8
_chemical_formula_sum   'In4 P8 H24 N4 O32'
_cell_volume   725.12268436
_cell_formula_units_Z   4
loop_
 _symmetry_equiv_pos_site_id
 _symmetry_equiv_pos_as_xyz
  1  'x, y, z'
loop_
 _atom_site_type_symbol
 _atom_site_label
 _atom_site_symmetry_multiplicity
 _atom_site_fract_x
 _atom_site_fract_y
 _atom_site_fract_z
 _atom_site_occupancy
  In  In0  1  0.61637249  0.75428852  0.99359196  1
  In  In1  1  0.11637249  0.24571148  0.50640804  1
  In  In2  1  0.38362751  0.24571148  0.00640804  1
  In  In3  1  0.88362751  0.75428852  0.49359196  1
  P  P4  1  0.93249263  0.58097757  0.73156289  1
  P  P5  1  0.43249263  0.41902243  0.76843711  1
  P  P6  1  0.06750737  0.41902243  0.26843711  1
  P  P7  1  0.56750737  0.58097757  0.23156289  1
  P  P8  1  0.81643406  0.98659583  0.32715828  1
  P  P9  1  0.31643406  0.01340417  0.17284172  1
  P  P10  1  0.18356594  0.01340417  0.67284172  1
  P  P11  1  0.68356594  0.98659583  0.82715828  1
  H  H12  1  0.67350436  0.99096616  0.51955894  1
  H  H13  1  0.17350436  0.00903384  0.98044106  1
  H  H14  1  0.32649564  0.00903384  0.48044106  1
  H  H15  1  0.82649564  0.99096616  0.01955894  1
  H  H16  1  0.10225617  0.76545855  0.82005424  1
  H  H17  1  0.60225617  0.23454145  0.67994576  1
  H  H18  1  0.89774383  0.23454145  0.17994576  1
  H  H19  1  0.39774383  0.76545855  0.32005424  1
  H  H20  1  0.97153146  0.33683097  0.97976078  1
  H  H21  1  0.47153146  0.66316903  0.52023922  1
  H  H22  1  0.02846854  0.66316903  0.02023922  1
  H  H23  1  0.52846854  0.33683097  0.47976078  1
  H  H24  1  0.81281488  0.44759612  0.98973642  1
  H  H25  1  0.31281488  0.55240388  0.51026358  1
  H  H26  1  0.18718512  0.55240388  0.01026358  1
  H  H27  1  0.68718512  0.44759612  0.48973642  1
  H  H28  1  0.90367295  0.34759893  0.81831149  1
  H  H29  1  0.40367295  0.65240107  0.68168851  1
  H  H30  1  0.09632705  0.65240107  0.18168851  1
  H  H31  1  0.59632705  0.34759893  0.31831149  1
  H  H32  1  0.79169033  0.26340318  0.90580737  1
  H  H33  1  0.29169033  0.73659682  0.59419263  1
  H  H34  1  0.20830967  0.73659682  0.09419263  1
  H  H35  1  0.70830967  0.26340318  0.40580737  1
  N  N36  1  0.87115998  0.34798975  0.92344225  1
  N  N37  1  0.37115998  0.65201025  0.57655775  1
  N  N38  1  0.12884002  0.65201025  0.07655775  1
  N  N39  1  0.62884002  0.34798975  0.42344225  1
  O  O40  1  0.90161671  0.13759700  0.37698117  1
  O  O41  1  0.40161671  0.86240300  0.12301883  1
  O  O42  1  0.09838329  0.86240300  0.62301883  1
  O  O43  1  0.59838329  0.13759700  0.87698117  1
  O  O44  1  0.91234964  0.86678883  0.34828755  1
  O  O45  1  0.41234964  0.13321117  0.15171245  1
  O  O46  1  0.08765036  0.13321117  0.65171245  1
  O  O47  1  0.58765036  0.86678883  0.84828755  1
  O  O48  1  0.10598017  0.65648696  0.76825024  1
  O  O49  1  0.60598017  0.34351304  0.73174976  1
  O  O50  1  0.89401983  0.34351304  0.23174976  1
  O  O51  1  0.39401983  0.65648696  0.26825024  1
  O  O52  1  0.84352565  0.64713846  0.88769215  1
  O  O53  1  0.34352565  0.35286154  0.61230785  1
  O  O54  1  0.15647435  0.35286154  0.11230785  1
  O  O55  1  0.65647435  0.64713846  0.38769215  1
  O  O56  1  0.96615380  0.41416106  0.67821827  1
  O  O57  1  0.46615380  0.58583894  0.82178173  1
  O  O58  1  0.03384620  0.58583894  0.32178173  1
  O  O59  1  0.53384620  0.41416106  0.17821827  1
  O  O60  1  0.84917339  0.61090371  0.60633496  1
  O  O61  1  0.34917339  0.38909629  0.89366504  1
  O  O62  1  0.15082661  0.38909629  0.39366504  1
  O  O63  1  0.65082661  0.61090371  0.10633496  1
  O  O64  1  0.76057525  0.93631182  0.15739775  1
  O  O65  1  0.26057525  0.06368818  0.34260225  1
  O  O66  1  0.23942475  0.06368818  0.84260225  1
  O  O67  1  0.73942475  0.93631182  0.65739775  1
  O  O68  1  0.65858461  0.01914429  0.43219692  1
  O  O69  1  0.15858461  0.98085571  0.06780308  1
  O  O70  1  0.34141539  0.98085571  0.56780308  1
  O  O71  1  0.84141539  0.01914429  0.93219692  1
