# generated using pymatgen
data_Ba5B3ClO9
_symmetry_space_group_name_H-M   'P 1'
_cell_length_a   7.99094862
_cell_length_b   9.24156827
_cell_length_c   9.24156827
_cell_angle_alpha   109.95568813
_cell_angle_beta   90.00000000
_cell_angle_gamma   90.00000000
_symmetry_Int_Tables_number   1
_chemical_formula_structural   Ba5B3ClO9
_chemical_formula_sum   'Ba10 B6 Cl2 O18'
_cell_volume   641.50140184
_cell_formula_units_Z   2
loop_
 _symmetry_equiv_pos_site_id
 _symmetry_equiv_pos_as_xyz
  1  'x, y, z'
loop_
 _atom_site_type_symbol
 _atom_site_label
 _atom_site_symmetry_multiplicity
 _atom_site_fract_x
 _atom_site_fract_y
 _atom_site_fract_z
 _atom_site_occupancy
  Ba  Ba0  1  0.50000000  0.76124079  0.76124079  1
  Ba  Ba1  1  0.00000000  0.23875921  0.23875921  1
  Ba  Ba2  1  0.44364208  0.26413534  0.00483805  1
  Ba  Ba3  1  0.55635792  0.00483805  0.26413534  1
  Ba  Ba4  1  0.94364208  0.73586466  0.99516195  1
  Ba  Ba5  1  0.05635792  0.99516195  0.73586466  1
  Ba  Ba6  1  0.25000000  0.63701605  0.36298395  1
  Ba  Ba7  1  0.75000000  0.36298395  0.63701605  1
  Ba  Ba8  1  0.25000000  0.35886366  0.64113634  1
  Ba  Ba9  1  0.75000000  0.64113634  0.35886366  1
  B  B10  1  0.46862239  0.01503105  0.59593777  1
  B  B11  1  0.53137761  0.59593777  0.01503105  1
  B  B12  1  0.96862239  0.98496895  0.40406223  1
  B  B13  1  0.03137761  0.40406223  0.98496895  1
  B  B14  1  0.50000000  0.37249965  0.37249965  1
  B  B15  1  0.00000000  0.62750035  0.62750035  1
  Cl  Cl16  1  0.25000000  0.95293941  0.04706059  1
  Cl  Cl17  1  0.75000000  0.04706059  0.95293941  1
  O  O18  1  0.50000000  0.50532614  0.50532614  1
  O  O19  1  0.00000000  0.49467386  0.49467386  1
  O  O20  1  0.50790862  0.86797114  0.49065545  1
  O  O21  1  0.49209138  0.49065545  0.86797114  1
  O  O22  1  0.00790862  0.13202886  0.50934455  1
  O  O23  1  0.99209138  0.50934455  0.13202886  1
  O  O24  1  0.48572208  0.56511972  0.14769284  1
  O  O25  1  0.51427792  0.14769284  0.56511972  1
  O  O26  1  0.98572208  0.43488028  0.85230716  1
  O  O27  1  0.01427792  0.85230716  0.43488028  1
  O  O28  1  0.84741688  0.69257277  0.68957235  1
  O  O29  1  0.15258312  0.68957235  0.69257277  1
  O  O30  1  0.34741688  0.30742723  0.31042765  1
  O  O31  1  0.65258312  0.31042765  0.30742723  1
  O  O32  1  0.38077284  0.02871631  0.72978019  1
  O  O33  1  0.61922716  0.72978019  0.02871631  1
  O  O34  1  0.88077284  0.97128369  0.27021981  1
  O  O35  1  0.11922716  0.27021981  0.97128369  1
