# generated using pymatgen
data_AsClOF8
_symmetry_space_group_name_H-M   'P 1'
_cell_length_a   5.37591434
_cell_length_b   8.29472540
_cell_length_c   15.03897413
_cell_angle_alpha   90.00000000
_cell_angle_beta   90.00000000
_cell_angle_gamma   90.00000000
_symmetry_Int_Tables_number   1
_chemical_formula_structural   AsClOF8
_chemical_formula_sum   'As4 Cl4 O4 F32'
_cell_volume   670.61392237
_cell_formula_units_Z   4
loop_
 _symmetry_equiv_pos_site_id
 _symmetry_equiv_pos_as_xyz
  1  'x, y, z'
loop_
 _atom_site_type_symbol
 _atom_site_label
 _atom_site_symmetry_multiplicity
 _atom_site_fract_x
 _atom_site_fract_y
 _atom_site_fract_z
 _atom_site_occupancy
  As  As0  1  0.38818273  0.94197186  0.40206802  1
  As  As1  1  0.61181727  0.44197186  0.59793198  1
  As  As2  1  0.88818273  0.44197186  0.09793198  1
  As  As3  1  0.11181727  0.94197186  0.90206802  1
  Cl  Cl4  1  0.12574766  0.48813648  0.38679985  1
  Cl  Cl5  1  0.87425234  0.98813648  0.61320015  1
  Cl  Cl6  1  0.62574766  0.98813648  0.11320015  1
  Cl  Cl7  1  0.37425234  0.48813648  0.88679985  1
  O  O8  1  0.33791906  0.47233659  0.33419339  1
  O  O9  1  0.66208094  0.97233659  0.66580661  1
  O  O10  1  0.83791906  0.97233659  0.16580661  1
  O  O11  1  0.16208094  0.47233659  0.83419339  1
  F  F12  1  0.12287494  0.97810666  0.33676773  1
  F  F13  1  0.87712506  0.47810666  0.66323227  1
  F  F14  1  0.62287494  0.47810666  0.16323227  1
  F  F15  1  0.37712506  0.97810666  0.83676773  1
  F  F16  1  0.52924856  0.83336212  0.31515819  1
  F  F17  1  0.47075144  0.33336212  0.68484181  1
  F  F18  1  0.02924856  0.33336212  0.18484181  1
  F  F19  1  0.97075144  0.83336212  0.81515819  1
  F  F20  1  0.52601149  0.12269774  0.36688733  1
  F  F21  1  0.47398851  0.62269774  0.63311267  1
  F  F22  1  0.02601149  0.62269774  0.13311267  1
  F  F23  1  0.97398851  0.12269774  0.86688733  1
  F  F24  1  0.24856101  0.75626420  0.44131093  1
  F  F25  1  0.75143899  0.25626420  0.55868907  1
  F  F26  1  0.74856101  0.25626420  0.05868907  1
  F  F27  1  0.25143899  0.75626420  0.94131093  1
  F  F28  1  0.24733677  0.04058966  0.49412613  1
  F  F29  1  0.75266323  0.54058966  0.50587387  1
  F  F30  1  0.74733677  0.54058966  0.00587387  1
  F  F31  1  0.25266323  0.04058966  0.99412613  1
  F  F32  1  0.65413201  0.90003344  0.47117889  1
  F  F33  1  0.34586799  0.40003344  0.52882111  1
  F  F34  1  0.15413201  0.40003344  0.02882111  1
  F  F35  1  0.84586799  0.90003344  0.97117889  1
  F  F36  1  0.91568838  0.58103121  0.32746524  1
  F  F37  1  0.08431162  0.08103121  0.67253476  1
  F  F38  1  0.41568838  0.08103121  0.17253476  1
  F  F39  1  0.58431162  0.58103121  0.82746524  1
  F  F40  1  0.98072320  0.31544003  0.38047159  1
  F  F41  1  0.01927680  0.81544003  0.61952841  1
  F  F42  1  0.48072320  0.81544003  0.11952841  1
  F  F43  1  0.51927680  0.31544003  0.88047159  1
