# generated using pymatgen
data_Sm4(LuS2)11
_symmetry_space_group_name_H-M   'P 1'
_cell_length_a   3.87436907
_cell_length_b   11.17151023
_cell_length_c   19.35067638
_cell_angle_alpha   91.33157121
_cell_angle_beta   95.74546861
_cell_angle_gamma   90.00000000
_symmetry_Int_Tables_number   1
_chemical_formula_structural   Sm4(LuS2)11
_chemical_formula_sum   'Sm4 Lu11 S22'
_cell_volume   833.11190624
_cell_formula_units_Z   1
loop_
 _symmetry_equiv_pos_site_id
 _symmetry_equiv_pos_as_xyz
  1  'x, y, z'
loop_
 _atom_site_type_symbol
 _atom_site_label
 _atom_site_symmetry_multiplicity
 _atom_site_fract_x
 _atom_site_fract_y
 _atom_site_fract_z
 _atom_site_occupancy
  Sm  Sm0  1  0.10467148  0.01256641  0.20934296  1
  Sm  Sm1  1  0.89532852  0.98743359  0.79065704  1
  Sm  Sm2  1  0.36690221  0.34746774  0.73380442  1
  Sm  Sm3  1  0.63309779  0.65253226  0.26619558  1
  Lu  Lu4  1  0.79782527  0.05838026  0.59565054  1
  Lu  Lu5  1  0.20217473  0.94161974  0.40434946  1
  Lu  Lu6  1  0.46164912  0.27070548  0.92329824  1
  Lu  Lu7  1  0.53835088  0.72929452  0.07670176  1
  Lu  Lu8  1  0.65768655  0.30147794  0.31537310  1
  Lu  Lu9  1  0.34231345  0.69852206  0.68462690  1
  Lu  Lu10  1  0.26361790  0.35195862  0.52723579  1
  Lu  Lu11  1  0.73638210  0.64804138  0.47276421  1
  Lu  Lu12  1  0.06973899  0.36072199  0.13947799  1
  Lu  Lu13  1  0.93026101  0.63927801  0.86052201  1
  Lu  Lu14  1  0.00000000  -0.00000000  0.00000000  1
  S  S15  1  0.08784155  0.75326192  0.17568311  1
  S  S16  1  0.91215845  0.24673808  0.82431689  1
  S  S17  1  0.18902953  0.69114672  0.37805906  1
  S  S18  1  0.81097047  0.30885328  0.62194094  1
  S  S19  1  0.28027567  0.58948685  0.56055133  1
  S  S20  1  0.71972433  0.41051315  0.43944867  1
  S  S21  1  0.44492979  0.49364797  0.88985958  1
  S  S22  1  0.55507021  0.50635203  0.11014042  1
  S  S23  1  0.13485236  0.45379065  0.26970473  1
  S  S24  1  0.86514764  0.54620935  0.73029527  1
  S  S25  1  0.59289991  0.21221549  0.18579982  1
  S  S26  1  0.40710009  0.78778451  0.81420018  1
  S  S27  1  0.45289969  0.03087067  0.90579939  1
  S  S28  1  0.54710031  0.96912933  0.09420061  1
  S  S29  1  0.35062158  0.09246272  0.70124316  1
  S  S30  1  0.64937842  0.90753728  0.29875684  1
  S  S31  1  0.16868928  0.15117167  0.33737856  1
  S  S32  1  0.83131072  0.84882833  0.66262144  1
  S  S33  1  0.00787770  0.24025618  0.01575540  1
  S  S34  1  0.99212230  0.75974382  0.98424460  1
  S  S35  1  0.25499915  0.11953981  0.50999829  1
  S  S36  1  0.74500085  0.88046019  0.49000171  1
