# generated using pymatgen
data_Ce2Sb4Rh3
_symmetry_space_group_name_H-M   'P 1'
_cell_length_a   4.57854263
_cell_length_b   10.93666338
_cell_length_c   16.25281569
_cell_angle_alpha   90.00000000
_cell_angle_beta   90.00000000
_cell_angle_gamma   90.00000000
_symmetry_Int_Tables_number   1
_chemical_formula_structural   Ce2Sb4Rh3
_chemical_formula_sum   'Ce8 Sb16 Rh12'
_cell_volume   813.84315993
_cell_formula_units_Z   4
loop_
 _symmetry_equiv_pos_site_id
 _symmetry_equiv_pos_as_xyz
  1  'x, y, z'
loop_
 _atom_site_type_symbol
 _atom_site_label
 _atom_site_symmetry_multiplicity
 _atom_site_fract_x
 _atom_site_fract_y
 _atom_site_fract_z
 _atom_site_occupancy
  Ce  Ce0  1  0.25000000  0.58422793  0.75026268  1
  Ce  Ce1  1  0.25000000  0.91577207  0.25026268  1
  Ce  Ce2  1  0.75000000  0.41577207  0.24973732  1
  Ce  Ce3  1  0.75000000  0.08422793  0.74973732  1
  Ce  Ce4  1  0.25000000  0.74593882  0.50345577  1
  Ce  Ce5  1  0.25000000  0.75406118  0.00345577  1
  Ce  Ce6  1  0.75000000  0.25406118  0.49654423  1
  Ce  Ce7  1  0.75000000  0.24593882  0.99654423  1
  Sb  Sb8  1  0.25000000  0.44531849  0.93206567  1
  Sb  Sb9  1  0.25000000  0.05468151  0.43206567  1
  Sb  Sb10  1  0.75000000  0.55468151  0.06793433  1
  Sb  Sb11  1  0.75000000  0.94531849  0.56793433  1
  Sb  Sb12  1  0.25000000  0.27144232  0.65126701  1
  Sb  Sb13  1  0.25000000  0.22855768  0.15126701  1
  Sb  Sb14  1  0.75000000  0.72855768  0.34873299  1
  Sb  Sb15  1  0.75000000  0.77144232  0.84873299  1
  Sb  Sb16  1  0.25000000  0.88300667  0.71011974  1
  Sb  Sb17  1  0.25000000  0.61699333  0.21011974  1
  Sb  Sb18  1  0.75000000  0.11699333  0.28988026  1
  Sb  Sb19  1  0.75000000  0.38300667  0.78988026  1
  Sb  Sb20  1  0.25000000  0.06311154  0.89551412  1
  Sb  Sb21  1  0.25000000  0.43688846  0.39551412  1
  Sb  Sb22  1  0.75000000  0.93688846  0.10448588  1
  Sb  Sb23  1  0.75000000  0.56311154  0.60448588  1
  Rh  Rh24  1  0.25000000  0.27368934  0.81741079  1
  Rh  Rh25  1  0.25000000  0.22631066  0.31741079  1
  Rh  Rh26  1  0.75000000  0.72631066  0.18258921  1
  Rh  Rh27  1  0.75000000  0.77368934  0.68258921  1
  Rh  Rh28  1  0.25000000  0.05302661  0.59269445  1
  Rh  Rh29  1  0.25000000  0.44697339  0.09269445  1
  Rh  Rh30  1  0.75000000  0.94697339  0.40730555  1
  Rh  Rh31  1  0.75000000  0.55302661  0.90730555  1
  Rh  Rh32  1  0.25000000  0.46480343  0.55667338  1
  Rh  Rh33  1  0.25000000  0.03519657  0.05667338  1
  Rh  Rh34  1  0.75000000  0.53519657  0.44332662  1
  Rh  Rh35  1  0.75000000  0.96480343  0.94332662  1
