# generated using pymatgen
data_Hf7Cu10
_symmetry_space_group_name_H-M   'P 1'
_cell_length_a   7.79919266
_cell_length_b   7.79919266
_cell_length_c   9.27631975
_cell_angle_alpha   90.00000000
_cell_angle_beta   90.00000000
_cell_angle_gamma   107.14270632
_symmetry_Int_Tables_number   1
_chemical_formula_structural   Hf7Cu10
_chemical_formula_sum   'Hf14 Cu20'
_cell_volume   539.18666346
_cell_formula_units_Z   2
loop_
 _symmetry_equiv_pos_site_id
 _symmetry_equiv_pos_as_xyz
  1  'x, y, z'
loop_
 _atom_site_type_symbol
 _atom_site_label
 _atom_site_symmetry_multiplicity
 _atom_site_fract_x
 _atom_site_fract_y
 _atom_site_fract_z
 _atom_site_occupancy
  Hf  Hf0  1  0.55384165  0.44615835  0.50000000  1
  Hf  Hf1  1  0.05384165  0.94615835  -0.00000000  1
  Hf  Hf2  1  0.86421394  0.13578606  0.50000000  1
  Hf  Hf3  1  0.36421394  0.63578606  -0.00000000  1
  Hf  Hf4  1  0.24150367  0.75849633  0.50000000  1
  Hf  Hf5  1  0.74150367  0.25849633  -0.00000000  1
  Hf  Hf6  1  0.06271922  0.45515839  0.25241407  1
  Hf  Hf7  1  0.54484161  0.93728078  0.74758593  1
  Hf  Hf8  1  0.56271922  0.95515839  0.24758593  1
  Hf  Hf9  1  0.04484161  0.43728078  0.75241407  1
  Hf  Hf10  1  0.36490754  0.25762121  0.19055211  1
  Hf  Hf11  1  0.74237879  0.63509246  0.80944789  1
  Hf  Hf12  1  0.86490754  0.75762121  0.30944789  1
  Hf  Hf13  1  0.24237879  0.13509246  0.69055211  1
  Cu  Cu14  1  0.71123676  0.30969639  0.29564329  1
  Cu  Cu15  1  0.69030361  0.28876324  0.70435671  1
  Cu  Cu16  1  0.21123676  0.80969639  0.20435671  1
  Cu  Cu17  1  0.19030361  0.78876324  0.79564329  1
  Cu  Cu18  1  0.92053703  0.10370291  0.20431187  1
  Cu  Cu19  1  0.89629709  0.07946297  0.79568813  1
  Cu  Cu20  1  0.42053703  0.60370291  0.29568813  1
  Cu  Cu21  1  0.39629709  0.57946297  0.70431187  1
  Cu  Cu22  1  0.20295697  0.39228314  0.49700207  1
  Cu  Cu23  1  0.60771686  0.79704303  0.50299793  1
  Cu  Cu24  1  0.70295697  0.89228314  0.00299793  1
  Cu  Cu25  1  0.10771686  0.29704303  0.99700207  1
  Cu  Cu26  1  0.49499039  0.09709113  0.49148621  1
  Cu  Cu27  1  0.90290887  0.50500961  0.50851379  1
  Cu  Cu28  1  0.99499039  0.59709113  0.00851379  1
  Cu  Cu29  1  0.40290887  0.00500961  0.99148621  1
  Cu  Cu30  1  0.15938784  0.05474184  0.39559082  1
  Cu  Cu31  1  0.94525816  0.84061216  0.60440918  1
  Cu  Cu32  1  0.65938784  0.55474184  0.10440918  1
  Cu  Cu33  1  0.44525816  0.34061216  0.89559082  1
