# generated using pymatgen
data_Nd4(LuS2)11
_symmetry_space_group_name_H-M   'P 1'
_cell_length_a   3.91097811
_cell_length_b   11.25439674
_cell_length_c   19.49365393
_cell_angle_alpha   91.38926095
_cell_angle_beta   95.75726158
_cell_angle_gamma   90.00000000
_symmetry_Int_Tables_number   1
_chemical_formula_structural   Nd4(LuS2)11
_chemical_formula_sum   'Nd4 Lu11 S22'
_cell_volume   853.44526641
_cell_formula_units_Z   1
loop_
 _symmetry_equiv_pos_site_id
 _symmetry_equiv_pos_as_xyz
  1  'x, y, z'
loop_
 _atom_site_type_symbol
 _atom_site_label
 _atom_site_symmetry_multiplicity
 _atom_site_fract_x
 _atom_site_fract_y
 _atom_site_fract_z
 _atom_site_occupancy
  Nd  Nd0  1  0.10442459  0.01305458  0.20884919  1
  Nd  Nd1  1  0.89557541  0.98694542  0.79115081  1
  Nd  Nd2  1  0.36686828  0.34852029  0.73373656  1
  Nd  Nd3  1  0.63313172  0.65147971  0.26626344  1
  Lu  Lu4  1  0.79768212  0.05843191  0.59536423  1
  Lu  Lu5  1  0.20231788  0.94156809  0.40463577  1
  Lu  Lu6  1  0.46179555  0.27075055  0.92359109  1
  Lu  Lu7  1  0.53820445  0.72924945  0.07640891  1
  Lu  Lu8  1  0.65770419  0.30141333  0.31540837  1
  Lu  Lu9  1  0.34229581  0.69858667  0.68459163  1
  Lu  Lu10  1  0.26344761  0.35189634  0.52689521  1
  Lu  Lu11  1  0.73655239  0.64810366  0.47310479  1
  Lu  Lu12  1  0.06978448  0.36104052  0.13956896  1
  Lu  Lu13  1  0.93021552  0.63895948  0.86043104  1
  Lu  Lu14  1  -0.00000000  0.00000000  -0.00000000  1
  S  S15  1  0.08718282  0.75307349  0.17436565  1
  S  S16  1  0.91281718  0.24692651  0.82563435  1
  S  S17  1  0.18957372  0.69132896  0.37914743  1
  S  S18  1  0.81042628  0.30867104  0.62085257  1
  S  S19  1  0.28029455  0.58946858  0.56058910  1
  S  S20  1  0.71970545  0.41053142  0.43941090  1
  S  S21  1  0.44495296  0.49361040  0.88990592  1
  S  S22  1  0.55504704  0.50638960  0.11009408  1
  S  S23  1  0.13486564  0.45218137  0.26973127  1
  S  S24  1  0.86513436  0.54781863  0.73026873  1
  S  S25  1  0.59280274  0.21371422  0.18560548  1
  S  S26  1  0.40719726  0.78628578  0.81439452  1
  S  S27  1  0.45344931  0.03111461  0.90689863  1
  S  S28  1  0.54655069  0.96888539  0.09310137  1
  S  S29  1  0.34999322  0.09196494  0.69998644  1
  S  S30  1  0.65000678  0.90803506  0.30001356  1
  S  S31  1  0.16903243  0.15170984  0.33806485  1
  S  S32  1  0.83096757  0.84829016  0.66193515  1
  S  S33  1  0.00786578  0.24021820  0.01573156  1
  S  S34  1  0.99213422  0.75978180  0.98426844  1
  S  S35  1  0.25503897  0.11910287  0.51007794  1
  S  S36  1  0.74496103  0.88089713  0.48992206  1
