# generated using pymatgen
data_SrMn3(PO4)3
_symmetry_space_group_name_H-M   'P 1'
_cell_length_a   6.70819505
_cell_length_b   9.37945033
_cell_length_c   9.37945033
_cell_angle_alpha   67.63406141
_cell_angle_beta   69.04708345
_cell_angle_gamma   69.04708345
_symmetry_Int_Tables_number   1
_chemical_formula_structural   SrMn3(PO4)3
_chemical_formula_sum   'Sr2 Mn6 P6 O24'
_cell_volume   492.61157520
_cell_formula_units_Z   2
loop_
 _symmetry_equiv_pos_site_id
 _symmetry_equiv_pos_as_xyz
  1  'x, y, z'
loop_
 _atom_site_type_symbol
 _atom_site_label
 _atom_site_symmetry_multiplicity
 _atom_site_fract_x
 _atom_site_fract_y
 _atom_site_fract_z
 _atom_site_occupancy
  Sr  Sr0  1  0.14302682  0.75000000  0.75000000  1
  Sr  Sr1  1  0.85697318  0.25000000  0.25000000  1
  Mn  Mn2  1  0.38195429  0.11804571  0.61804571  1
  Mn  Mn3  1  0.61804571  0.38195429  0.88195429  1
  Mn  Mn4  1  0.38195429  0.61804571  0.11804571  1
  Mn  Mn5  1  0.61804571  0.88195429  0.38195429  1
  Mn  Mn6  1  0.50000000  -0.00000000  0.00000000  1
  Mn  Mn7  1  -0.00000000  0.50000000  0.50000000  1
  P  P8  1  0.65701989  0.75000000  0.75000000  1
  P  P9  1  0.34298011  0.25000000  0.25000000  1
  P  P10  1  0.17645625  0.32354375  0.82354375  1
  P  P11  1  0.82354375  0.17645625  0.67645625  1
  P  P12  1  0.17645625  0.82354375  0.32354375  1
  P  P13  1  0.82354375  0.67645625  0.17645625  1
  O  O14  1  0.87841756  0.66069499  0.66069499  1
  O  O15  1  0.12158244  0.33930501  0.33930501  1
  O  O16  1  0.30019246  0.16069499  0.16069499  1
  O  O17  1  0.69980754  0.83930501  0.83930501  1
  O  O18  1  0.51045461  0.86730512  0.63269488  1
  O  O19  1  0.48954539  0.36730512  0.13269488  1
  O  O20  1  0.48954539  0.13269488  0.36730512  1
  O  O21  1  0.51045461  0.63269488  0.86730512  1
  O  O22  1  0.93934566  0.33866662  0.92893854  1
  O  O23  1  0.06065434  0.07106146  0.66133338  1
  O  O24  1  0.29304918  0.83866662  0.42893854  1
  O  O25  1  0.70695082  0.57106146  0.16133338  1
  O  O26  1  0.06065434  0.66133338  0.07106146  1
  O  O27  1  0.93934566  0.92893854  0.33866662  1
  O  O28  1  0.70695082  0.16133338  0.57106146  1
  O  O29  1  0.29304918  0.42893854  0.83866662  1
  O  O30  1  0.19893948  0.36041461  0.63878181  1
  O  O31  1  0.80106052  0.36121819  0.63958539  1
  O  O32  1  0.30186411  0.86041461  0.13878181  1
  O  O33  1  0.69813589  0.86121819  0.13958539  1
  O  O34  1  0.80106052  0.63958539  0.36121819  1
  O  O35  1  0.19893948  0.63878181  0.36041461  1
  O  O36  1  0.69813589  0.13958539  0.86121819  1
  O  O37  1  0.30186411  0.13878181  0.86041461  1
