# generated using pymatgen
data_Cs3Bi2(PS4)3
_symmetry_space_group_name_H-M   'P 1'
_cell_length_a   6.97409654
_cell_length_b   18.54482123
_cell_length_c   19.28165849
_cell_angle_alpha   98.46453018
_cell_angle_beta   90.00000000
_cell_angle_gamma   90.00000000
_symmetry_Int_Tables_number   1
_chemical_formula_structural   Cs3Bi2(PS4)3
_chemical_formula_sum   'Cs12 Bi8 P12 S48'
_cell_volume   2466.59783453
_cell_formula_units_Z   4
loop_
 _symmetry_equiv_pos_site_id
 _symmetry_equiv_pos_as_xyz
  1  'x, y, z'
loop_
 _atom_site_type_symbol
 _atom_site_label
 _atom_site_symmetry_multiplicity
 _atom_site_fract_x
 _atom_site_fract_y
 _atom_site_fract_z
 _atom_site_occupancy
  Cs  Cs0  1  0.23261918  0.89201162  0.51174074  1
  Cs  Cs1  1  0.73261918  0.10798838  0.98825926  1
  Cs  Cs2  1  0.76738082  0.10798838  0.48825926  1
  Cs  Cs3  1  0.26738082  0.89201162  0.01174074  1
  Cs  Cs4  1  0.25211340  0.62354885  0.19162181  1
  Cs  Cs5  1  0.75211340  0.37645115  0.30837819  1
  Cs  Cs6  1  0.74788660  0.37645115  0.80837819  1
  Cs  Cs7  1  0.24788660  0.62354885  0.69162181  1
  Cs  Cs8  1  0.77667461  0.76381071  0.86818016  1
  Cs  Cs9  1  0.27667461  0.23618929  0.63181984  1
  Cs  Cs10  1  0.22332539  0.23618929  0.13181984  1
  Cs  Cs11  1  0.72332539  0.76381071  0.36818016  1
  Bi  Bi12  1  0.69041834  0.92836171  0.70902183  1
  Bi  Bi13  1  0.19041834  0.07163829  0.79097817  1
  Bi  Bi14  1  0.30958166  0.07163829  0.29097817  1
  Bi  Bi15  1  0.80958166  0.92836171  0.20902183  1
  Bi  Bi16  1  0.82125390  0.59780011  0.99407939  1
  Bi  Bi17  1  0.32125390  0.40219989  0.50592061  1
  Bi  Bi18  1  0.17874610  0.40219989  0.00592061  1
  Bi  Bi19  1  0.67874610  0.59780011  0.49407939  1
  P  P20  1  0.29065448  0.88257411  0.80334221  1
  P  P21  1  0.79065448  0.11742589  0.69665779  1
  P  P22  1  0.70934552  0.11742589  0.19665779  1
  P  P23  1  0.20934552  0.88257411  0.30334221  1
  P  P24  1  0.74718045  0.77705455  0.08175019  1
  P  P25  1  0.24718045  0.22294545  0.41824981  1
  P  P26  1  0.25281955  0.22294545  0.91824981  1
  P  P27  1  0.75281955  0.77705455  0.58175019  1
  P  P28  1  0.24945847  0.53822229  0.89576885  1
  P  P29  1  0.74945847  0.46177771  0.60423115  1
  P  P30  1  0.75054153  0.46177771  0.10423115  1
  P  P31  1  0.25054153  0.53822229  0.39576885  1
  S  S32  1  0.32565724  0.88416833  0.69541481  1
  S  S33  1  0.82565724  0.11583167  0.80458519  1
  S  S34  1  0.67434276  0.11583167  0.30458519  1
  S  S35  1  0.17434276  0.88416833  0.19541481  1
  S  S36  1  0.27953089  0.78338341  0.83220801  1
  S  S37  1  0.77953089  0.21661659  0.66779199  1
  S  S38  1  0.72046911  0.21661659  0.16779199  1
  S  S39  1  0.22046911  0.78338341  0.33220801  1
  S  S40  1  0.73400079  0.88522872  0.56452629  1
  S  S41  1  0.23400079  0.11477128  0.93547371  1
  S  S42  1  0.26599921  0.11477128  0.43547371  1
  S  S43  1  0.76599921  0.88522872  0.06452629  1
  S  S44  1  0.52346878  0.94257207  0.84684526  1
  S  S45  1  0.02346878  0.05742793  0.65315474  1
  S  S46  1  0.47653122  0.05742793  0.15315474  1
  S  S47  1  0.97653122  0.94257207  0.34684526  1
  S  S48  1  0.00327914  0.72673022  0.05002012  1
  S  S49  1  0.50327914  0.27326978  0.44997988  1
  S  S50  1  -0.00327914  0.27326978  0.94997988  1
  S  S51  1  0.49672086  0.72673022  0.55002012  1
  S  S52  1  0.69450581  0.78306727  0.18779835  1
  S  S53  1  0.19450581  0.21693273  0.31220165  1
  S  S54  1  0.30549419  0.21693273  0.81220165  1
  S  S55  1  0.80549419  0.78306727  0.68779835  1
  S  S56  1  0.00981426  0.58054351  0.85510496  1
  S  S57  1  0.50981426  0.41945649  0.64489504  1
  S  S58  1  0.99018574  0.41945649  0.14489504  1
  S  S59  1  0.49018574  0.58054351  0.35510496  1
  S  S60  1  0.75382492  0.57517074  0.12918635  1
  S  S61  1  0.25382492  0.42482926  0.37081365  1
  S  S62  1  0.24617508  0.42482926  0.87081365  1
  S  S63  1  0.74617508  0.57517074  0.62918635  1
  S  S64  1  0.53686010  0.72121407  0.02466577  1
  S  S65  1  0.03686010  0.27878593  0.47533423  1
  S  S66  1  0.46313990  0.27878593  0.97533423  1
  S  S67  1  0.96313990  0.72121407  0.52466577  1
  S  S68  1  0.21453995  0.55894882  0.00593031  1
  S  S69  1  0.71453995  0.44105118  0.49406969  1
  S  S70  1  0.78546005  0.44105118  0.99406969  1
  S  S71  1  0.28546005  0.55894882  0.50593031  1
  S  S72  1  0.49941232  0.57610569  0.86446950  1
  S  S73  1  -0.00058768  0.42389431  0.63553050  1
  S  S74  1  0.50058768  0.42389431  0.13553050  1
  S  S75  1  0.00058768  0.57610569  0.36446950  1
  S  S76  1  0.04071299  0.93872869  0.83378303  1
  S  S77  1  0.54071299  0.06127131  0.66621697  1
  S  S78  1  0.95928701  0.06127131  0.16621697  1
  S  S79  1  0.45928701  0.93872869  0.33378303  1
