# generated using pymatgen
data_CsP7
_symmetry_space_group_name_H-M   'P 1'
_cell_length_a   9.52225176
_cell_length_b   9.81259384
_cell_length_c   9.78590157
_cell_angle_alpha   90.00000000
_cell_angle_beta   90.00000000
_cell_angle_gamma   90.00000000
_symmetry_Int_Tables_number   1
_chemical_formula_structural   CsP7
_chemical_formula_sum   'Cs4 P28'
_cell_volume   914.37496289
_cell_formula_units_Z   4
loop_
 _symmetry_equiv_pos_site_id
 _symmetry_equiv_pos_as_xyz
  1  'x, y, z'
loop_
 _atom_site_type_symbol
 _atom_site_label
 _atom_site_symmetry_multiplicity
 _atom_site_fract_x
 _atom_site_fract_y
 _atom_site_fract_z
 _atom_site_occupancy
  Cs  Cs0  1  0.78690582  0.25000000  -0.00000000  1
  Cs  Cs1  1  0.21309418  0.75000000  0.50000000  1
  Cs  Cs2  1  0.21309418  0.75000000  -0.00000000  1
  Cs  Cs3  1  0.78690582  0.25000000  0.50000000  1
  P  P4  1  0.56575293  0.83624349  0.75000000  1
  P  P5  1  0.43424707  0.16375651  0.25000000  1
  P  P6  1  0.56575293  0.66375651  0.25000000  1
  P  P7  1  0.43424707  0.33624349  0.75000000  1
  P  P8  1  0.83326094  0.63131377  0.63507677  1
  P  P9  1  0.16673906  0.36868623  0.13507677  1
  P  P10  1  0.83326094  0.86868623  0.36492323  1
  P  P11  1  0.16673906  0.13131377  0.86492323  1
  P  P12  1  0.16673906  0.36868623  0.36492323  1
  P  P13  1  0.83326094  0.63131377  0.86492323  1
  P  P14  1  0.16673906  0.13131377  0.63507677  1
  P  P15  1  0.83326094  0.86868623  0.13507677  1
  P  P16  1  0.74712638  0.96750895  0.75000000  1
  P  P17  1  0.25287362  0.03249105  0.25000000  1
  P  P18  1  0.74712638  0.53249105  0.25000000  1
  P  P19  1  0.25287362  0.46750895  0.75000000  1
  P  P20  1  0.90985069  0.81572975  0.75000000  1
  P  P21  1  0.09014931  0.18427025  0.25000000  1
  P  P22  1  0.90985069  0.68427025  0.25000000  1
  P  P23  1  0.09014931  0.31572975  0.75000000  1
  P  P24  1  0.61015353  0.68024655  0.90960299  1
  P  P25  1  0.38984647  0.31975345  0.40960299  1
  P  P26  1  0.61015353  0.81975345  0.09039701  1
  P  P27  1  0.38984647  0.18024655  0.59039701  1
  P  P28  1  0.38984647  0.31975345  0.09039701  1
  P  P29  1  0.61015353  0.68024655  0.59039701  1
  P  P30  1  0.38984647  0.18024655  0.90960299  1
  P  P31  1  0.61015353  0.81975345  0.40960299  1
