# generated using pymatgen
data_Nd6Fe13Hg
_symmetry_space_group_name_H-M   'P 1'
_cell_length_a   8.09362379
_cell_length_b   8.09362379
_cell_length_c   12.82748441
_cell_angle_alpha   108.38977976
_cell_angle_beta   108.38977976
_cell_angle_gamma   90.00000000
_symmetry_Int_Tables_number   1
_chemical_formula_structural   Nd6Fe13Hg
_chemical_formula_sum   'Nd12 Fe26 Hg2'
_cell_volume   752.01910923
_cell_formula_units_Z   2
loop_
 _symmetry_equiv_pos_site_id
 _symmetry_equiv_pos_as_xyz
  1  'x, y, z'
loop_
 _atom_site_type_symbol
 _atom_site_label
 _atom_site_symmetry_multiplicity
 _atom_site_fract_x
 _atom_site_fract_y
 _atom_site_fract_z
 _atom_site_occupancy
  Nd  Nd0  1  0.97493015  0.47493015  0.62543026  1
  Nd  Nd1  1  0.65050012  0.15050012  0.62543026  1
  Nd  Nd2  1  0.15050012  0.97493015  0.62543026  1
  Nd  Nd3  1  0.47493015  0.65050012  0.62543026  1
  Nd  Nd4  1  0.02506985  0.52506985  0.37456974  1
  Nd  Nd5  1  0.34949988  0.84949988  0.37456974  1
  Nd  Nd6  1  0.84949988  0.02506985  0.37456974  1
  Nd  Nd7  1  0.52506985  0.34949988  0.37456974  1
  Nd  Nd8  1  0.60599834  0.60599834  0.21199668  1
  Nd  Nd9  1  0.10599834  0.10599834  0.21199668  1
  Nd  Nd10  1  0.39400166  0.39400166  0.78800332  1
  Nd  Nd11  1  0.89400166  0.89400166  0.78800332  1
  Fe  Fe12  1  0.11807504  0.61807504  0.88018037  1
  Fe  Fe13  1  0.76210532  0.26210532  0.88018037  1
  Fe  Fe14  1  0.26210532  0.11807504  0.88018037  1
  Fe  Fe15  1  0.61807504  0.76210532  0.88018037  1
  Fe  Fe16  1  0.88192496  0.38192496  0.11981963  1
  Fe  Fe17  1  0.23789468  0.73789468  0.11981963  1
  Fe  Fe18  1  0.73789468  0.88192496  0.11981963  1
  Fe  Fe19  1  0.38192496  0.23789468  0.11981963  1
  Fe  Fe20  1  0.71040462  0.56672362  0.00000000  1
  Fe  Fe21  1  0.28959538  0.43327638  0.00000000  1
  Fe  Fe22  1  0.78959538  0.06672362  0.00000000  1
  Fe  Fe23  1  0.21040462  0.93327638  0.00000000  1
  Fe  Fe24  1  0.56672362  0.28959538  0.00000000  1
  Fe  Fe25  1  0.43327638  0.71040462  0.00000000  1
  Fe  Fe26  1  0.06672362  0.21040462  0.00000000  1
  Fe  Fe27  1  0.93327638  0.78959538  0.00000000  1
  Fe  Fe28  1  0.29034656  0.79034656  0.80837176  1
  Fe  Fe29  1  0.51802520  0.01802520  0.80837176  1
  Fe  Fe30  1  0.01802520  0.29034656  0.80837176  1
  Fe  Fe31  1  0.79034656  0.51802520  0.80837176  1
  Fe  Fe32  1  0.70965344  0.20965344  0.19162824  1
  Fe  Fe33  1  0.48197480  0.98197480  0.19162824  1
  Fe  Fe34  1  0.98197480  0.70965344  0.19162824  1
  Fe  Fe35  1  0.20965344  0.48197480  0.19162824  1
  Fe  Fe36  1  0.00000000  0.50000000  0.00000000  1
  Fe  Fe37  1  0.50000000  0.00000000  0.00000000  1
  Hg  Hg38  1  0.25000000  0.25000000  0.50000000  1
  Hg  Hg39  1  0.75000000  0.75000000  0.50000000  1
