# generated using pymatgen
data_Li9Mn2Co5O16
_symmetry_space_group_name_H-M   'P 1'
_cell_length_a   2.89843362
_cell_length_b   10.20993661
_cell_length_c   9.83908174
_cell_angle_alpha   99.71973163
_cell_angle_beta   90.00000000
_cell_angle_gamma   90.00000000
_symmetry_Int_Tables_number   1
_chemical_formula_structural   Li9Mn2Co5O16
_chemical_formula_sum   'Li9 Mn2 Co5 O16'
_cell_volume   286.98663091
_cell_formula_units_Z   1
loop_
 _symmetry_equiv_pos_site_id
 _symmetry_equiv_pos_as_xyz
  1  'x, y, z'
loop_
 _atom_site_type_symbol
 _atom_site_label
 _atom_site_symmetry_multiplicity
 _atom_site_fract_x
 _atom_site_fract_y
 _atom_site_fract_z
 _atom_site_occupancy
  Li  Li0  1  0.50000000  0.12372456  0.26055036  1
  Li  Li1  1  0.50000000  0.37435213  0.74568338  1
  Li  Li2  1  0.50000000  0.62723377  0.26056079  1
  Li  Li3  1  -0.00000000  0.38072880  0.24990256  1
  Li  Li4  1  0.00000000  0.62062288  0.74539696  1
  Li  Li5  1  0.00000000  0.88109100  0.27072609  1
  Li  Li6  1  0.50000000  0.87225193  0.73966677  1
  Li  Li7  1  0.00000000  0.11387014  0.73053581  1
  Li  Li8  1  0.50000000  0.00031888  0.49646596  1
  Mn  Mn9  1  0.00000000  0.00162446  0.00371121  1
  Mn  Mn10  1  0.00000000  0.24183461  0.49528332  1
  Co  Co11  1  0.00000000  0.49707427  0.99517902  1
  Co  Co12  1  0.00000000  0.76978462  0.50869455  1
  Co  Co13  1  0.50000000  0.50494709  0.49949393  1
  Co  Co14  1  0.50000000  0.74846214  0.00453804  1
  Co  Co15  1  0.50000000  0.25310636  0.99538972  1
  O  O16  1  0.50000000  0.94908642  0.11439776  1
  O  O17  1  0.50000000  0.19538372  0.61012676  1
  O  O18  1  0.50000000  0.43554291  0.11438170  1
  O  O19  1  0.00000000  0.17842288  0.10758794  1
  O  O20  1  -0.00000000  0.43112548  0.60764644  1
  O  O21  1  0.00000000  0.69051464  0.11030177  1
  O  O22  1  0.50000000  0.68614576  0.61669103  1
  O  O23  1  -0.00000000  0.92742227  0.62536403  1
  O  O24  1  0.50000000  0.30845380  0.38756120  1
  O  O25  1  0.50000000  0.56086983  0.88324835  1
  O  O26  1  0.50000000  0.80638527  0.38293871  1
  O  O27  1  -0.00000000  0.55974469  0.38455576  1
  O  O28  1  0.00000000  0.81703031  0.90219584  1
  O  O29  1  -0.00000000  0.07773343  0.38388565  1
  O  O30  1  0.50000000  0.05235203  0.88951897  1
  O  O31  1  -0.00000000  0.31275894  0.87781961  1
