# generated using pymatgen
data_Cs3U2PO10
_symmetry_space_group_name_H-M   'P 1'
_cell_length_a   8.03827848
_cell_length_b   8.03827848
_cell_length_c   12.31017592
_cell_angle_alpha   93.22087597
_cell_angle_beta   106.87801720
_cell_angle_gamma   117.99038380
_symmetry_Int_Tables_number   1
_chemical_formula_structural   Cs3U2PO10
_chemical_formula_sum   'Cs6 U4 P2 O20'
_cell_volume   654.44914247
_cell_formula_units_Z   2
loop_
 _symmetry_equiv_pos_site_id
 _symmetry_equiv_pos_as_xyz
  1  'x, y, z'
loop_
 _atom_site_type_symbol
 _atom_site_label
 _atom_site_symmetry_multiplicity
 _atom_site_fract_x
 _atom_site_fract_y
 _atom_site_fract_z
 _atom_site_occupancy
  Cs  Cs0  1  0.59671309  0.51440029  0.68317381  1
  Cs  Cs1  1  0.33122649  0.91353928  0.81682619  1
  Cs  Cs2  1  0.40328691  0.48559971  0.31682619  1
  Cs  Cs3  1  0.66877351  0.08646072  0.18317381  1
  Cs  Cs4  1  0.00000000  0.50000000  0.50000000  1
  Cs  Cs5  1  0.50000000  0.50000000  0.00000000  1
  U  U6  1  -0.00000000  0.00000000  0.50000000  1
  U  U7  1  0.00000000  0.50000000  0.00000000  1
  U  U8  1  0.50000000  0.00000000  0.50000000  1
  U  U9  1  -0.00000000  -0.00000000  -0.00000000  1
  P  P10  1  0.98233299  0.23233299  0.75000000  1
  P  P11  1  0.01766701  0.76766701  0.25000000  1
  O  O12  1  0.28303547  0.00905065  0.56806504  1
  O  O13  1  0.94098560  0.71497043  0.93193496  1
  O  O14  1  0.71696453  0.99094935  0.43193496  1
  O  O15  1  0.05901440  0.28502957  0.06806504  1
  O  O16  1  0.88838982  0.79634698  0.57205339  1
  O  O17  1  0.72429359  0.31633643  0.92794661  1
  O  O18  1  0.11161018  0.20365302  0.42794661  1
  O  O19  1  0.27570641  0.68366357  0.07205339  1
  O  O20  1  0.10148517  0.24559841  0.66710561  1
  O  O21  1  0.07849281  0.43437957  0.83289439  1
  O  O22  1  0.89851483  0.75440159  0.33289439  1
  O  O23  1  0.92150719  0.56562043  0.16710561  1
  O  O24  1  0.44243827  0.76214595  0.54229513  1
  O  O25  1  0.71985082  0.90014314  0.95770487  1
  O  O26  1  0.55756173  0.23785405  0.45770487  1
  O  O27  1  0.28014918  0.09985686  0.04229513  1
  O  O28  1  0.76108676  0.16897326  0.67560085  1
  O  O29  1  0.99337241  0.08548591  0.82439915  1
  O  O30  1  0.23891324  0.83102674  0.32439915  1
  O  O31  1  0.00662759  0.91451409  0.17560085  1
