# generated using pymatgen
data_P7Pb
_symmetry_space_group_name_H-M   'P 1'
_cell_length_a   6.91339976
_cell_length_b   9.81824765
_cell_length_c   11.05662792
_cell_angle_alpha   105.69923729
_cell_angle_beta   90.00000000
_cell_angle_gamma   90.00000000
_symmetry_Int_Tables_number   1
_chemical_formula_structural   P7Pb
_chemical_formula_sum   'P28 Pb4'
_cell_volume   722.49895109
_cell_formula_units_Z   4
loop_
 _symmetry_equiv_pos_site_id
 _symmetry_equiv_pos_as_xyz
  1  'x, y, z'
loop_
 _atom_site_type_symbol
 _atom_site_label
 _atom_site_symmetry_multiplicity
 _atom_site_fract_x
 _atom_site_fract_y
 _atom_site_fract_z
 _atom_site_occupancy
  P  P0  1  0.37931421  0.45016993  0.36387423  1
  P  P1  1  0.87931421  0.04983007  0.13612577  1
  P  P2  1  0.62068579  0.54983007  0.63612577  1
  P  P3  1  0.12068579  0.95016993  0.86387423  1
  P  P4  1  0.41937021  0.18909845  0.08814036  1
  P  P5  1  0.91937021  0.31090155  0.41185964  1
  P  P6  1  0.58062979  0.81090155  0.91185964  1
  P  P7  1  0.08062979  0.68909845  0.58814036  1
  P  P8  1  0.07241208  0.43599062  0.29786991  1
  P  P9  1  0.57241208  0.06400938  0.20213009  1
  P  P10  1  0.92758792  0.56400938  0.70213009  1
  P  P11  1  0.42758792  0.93599062  0.79786991  1
  P  P12  1  0.92582275  0.63602637  0.40132362  1
  P  P13  1  0.42582275  0.86397363  0.09867638  1
  P  P14  1  0.07417725  0.36397363  0.59867638  1
  P  P15  1  0.57417725  0.13602637  0.90132362  1
  P  P16  1  0.41400643  0.53677804  0.08778489  1
  P  P17  1  0.91400643  0.96322196  0.41221511  1
  P  P18  1  0.58599357  0.46322196  0.91221511  1
  P  P19  1  0.08599357  0.03677804  0.58778489  1
  P  P20  1  0.09764562  0.77844010  0.31969773  1
  P  P21  1  0.59764562  0.72155990  0.18030227  1
  P  P22  1  0.90235438  0.22155990  0.68030227  1
  P  P23  1  0.40235438  0.27844010  0.81969773  1
  P  P24  1  0.05490328  0.10402350  0.31012025  1
  P  P25  1  0.55490328  0.39597650  0.18987975  1
  P  P26  1  0.94509672  0.89597650  0.68987975  1
  P  P27  1  0.44509672  0.60402350  0.81012025  1
  Pb  Pb28  1  0.47856713  0.74432784  0.44442277  1
  Pb  Pb29  1  0.97856713  0.75567216  0.05557723  1
  Pb  Pb30  1  0.52143287  0.25567216  0.55557723  1
  Pb  Pb31  1  0.02143287  0.24432784  0.94442277  1
