# generated using pymatgen
data_Pu2ReB6
_symmetry_space_group_name_H-M   'P 1'
_cell_length_a   3.65408450
_cell_length_b   9.29840748
_cell_length_c   11.42667620
_cell_angle_alpha   90.00000000
_cell_angle_beta   90.00000000
_cell_angle_gamma   90.00000000
_symmetry_Int_Tables_number   1
_chemical_formula_structural   Pu2ReB6
_chemical_formula_sum   'Pu8 Re4 B24'
_cell_volume   388.24608147
_cell_formula_units_Z   4
loop_
 _symmetry_equiv_pos_site_id
 _symmetry_equiv_pos_as_xyz
  1  'x, y, z'
loop_
 _atom_site_type_symbol
 _atom_site_label
 _atom_site_symmetry_multiplicity
 _atom_site_fract_x
 _atom_site_fract_y
 _atom_site_fract_z
 _atom_site_occupancy
  Pu  Pu0  1  -0.00000000  0.33328528  0.40889111  1
  Pu  Pu1  1  -0.00000000  0.66671472  0.59110889  1
  Pu  Pu2  1  0.00000000  0.83328528  0.09110889  1
  Pu  Pu3  1  -0.00000000  0.16671472  0.90889111  1
  Pu  Pu4  1  -0.00000000  0.95311465  0.38959106  1
  Pu  Pu5  1  0.00000000  0.04688535  0.61040894  1
  Pu  Pu6  1  -0.00000000  0.45311465  0.11040894  1
  Pu  Pu7  1  0.00000000  0.54688535  0.88959106  1
  Re  Re8  1  0.00000000  0.64338298  0.31974975  1
  Re  Re9  1  -0.00000000  0.35661702  0.68025025  1
  Re  Re10  1  0.00000000  0.14338298  0.18025025  1
  Re  Re11  1  -0.00000000  0.85661702  0.81974975  1
  B  B12  1  0.50000000  0.55229866  0.43194405  1
  B  B13  1  0.50000000  0.44770134  0.56805595  1
  B  B14  1  0.50000000  0.05229866  0.06805595  1
  B  B15  1  0.50000000  0.94770134  0.93194405  1
  B  B16  1  0.50000000  0.74408474  0.42208586  1
  B  B17  1  0.50000000  0.25591526  0.57791414  1
  B  B18  1  0.50000000  0.24408474  0.07791414  1
  B  B19  1  0.50000000  0.75591526  0.92208586  1
  B  B20  1  0.50000000  0.80010788  0.27150179  1
  B  B21  1  0.50000000  0.19989212  0.72849821  1
  B  B22  1  0.50000000  0.30010788  0.22849821  1
  B  B23  1  0.50000000  0.69989212  0.77150179  1
  B  B24  1  0.50000000  0.64108113  0.18783805  1
  B  B25  1  0.50000000  0.35891887  0.81216195  1
  B  B26  1  0.50000000  0.14108113  0.31216195  1
  B  B27  1  0.50000000  0.85891887  0.68783805  1
  B  B28  1  0.50000000  0.98647463  0.21746317  1
  B  B29  1  0.50000000  0.01352537  0.78253683  1
  B  B30  1  0.50000000  0.48647463  0.28253683  1
  B  B31  1  0.50000000  0.51352537  0.71746317  1
  B  B32  1  0.50000000  0.63750668  0.03783566  1
  B  B33  1  0.50000000  0.36249332  0.96216434  1
  B  B34  1  0.50000000  0.13750668  0.46216434  1
  B  B35  1  0.50000000  0.86249332  0.53783566  1
