# generated using pymatgen
data_K4Mn3P6(HO3)8
_symmetry_space_group_name_H-M   'P 1'
_cell_length_a   6.66580011
_cell_length_b   9.05671962
_cell_length_c   18.44703540
_cell_angle_alpha   92.91699764
_cell_angle_beta   90.00000000
_cell_angle_gamma   90.00000000
_symmetry_Int_Tables_number   1
_chemical_formula_structural   K4Mn3P6(HO3)8
_chemical_formula_sum   'K8 Mn6 P12 H16 O48'
_cell_volume   1112.20978592
_cell_formula_units_Z   2
loop_
 _symmetry_equiv_pos_site_id
 _symmetry_equiv_pos_as_xyz
  1  'x, y, z'
loop_
 _atom_site_type_symbol
 _atom_site_label
 _atom_site_symmetry_multiplicity
 _atom_site_fract_x
 _atom_site_fract_y
 _atom_site_fract_z
 _atom_site_occupancy
  K  K0  1  0.99258687  0.53078427  0.11168256  1
  K  K1  1  0.50741313  0.03078427  0.61168256  1
  K  K2  1  0.00741313  0.46921573  0.88831744  1
  K  K3  1  0.49258687  0.96921573  0.38831744  1
  K  K4  1  0.01220136  0.02036518  0.81682678  1
  K  K5  1  0.48779864  0.52036518  0.31682678  1
  K  K6  1  0.98779864  0.97963482  0.18317322  1
  K  K7  1  0.51220136  0.47963482  0.68317322  1
  Mn  Mn8  1  0.50000000  0.50000000  0.00000000  1
  Mn  Mn9  1  -0.00000000  -0.00000000  0.50000000  1
  Mn  Mn10  1  0.32488298  0.85919641  0.99456891  1
  Mn  Mn11  1  0.17511702  0.35919641  0.49456891  1
  Mn  Mn12  1  0.67511702  0.14080359  0.00543109  1
  Mn  Mn13  1  0.82488298  0.64080359  0.50543109  1
  P  P14  1  0.42031854  0.74299543  0.15239335  1
  P  P15  1  0.07968146  0.24299543  0.65239335  1
  P  P16  1  0.57968146  0.25700457  0.84760665  1
  P  P17  1  0.92031854  0.75700457  0.34760665  1
  P  P18  1  0.39552025  0.72490936  0.84808470  1
  P  P19  1  0.10447975  0.22490936  0.34808470  1
  P  P20  1  0.60447975  0.27509064  0.15191530  1
  P  P21  1  0.89552025  0.77509064  0.65191530  1
  P  P22  1  0.83298742  0.78786407  0.98571099  1
  P  P23  1  0.66701258  0.28786407  0.48571099  1
  P  P24  1  0.16701258  0.21213593  0.01428901  1
  P  P25  1  0.33298742  0.71213593  0.51428901  1
  H  H26  1  0.77780893  0.75451423  0.86812286  1
  H  H27  1  0.72219107  0.25451423  0.36812286  1
  H  H28  1  0.22219107  0.24548577  0.13187714  1
  H  H29  1  0.27780893  0.74548577  0.63187714  1
  H  H30  1  0.17811735  0.71230785  0.75371945  1
  H  H31  1  0.32188265  0.21230785  0.25371945  1
  H  H32  1  0.82188265  0.28769215  0.24628055  1
  H  H33  1  0.67811735  0.78769215  0.74628055  1
  H  H34  1  0.69466422  0.75112930  0.22372434  1
  H  H35  1  0.80533578  0.25112930  0.72372434  1
  H  H36  1  0.30533578  0.24887070  0.77627566  1
  H  H37  1  0.19466422  0.74887070  0.27627566  1
  H  H38  1  0.50395453  0.99201918  0.14473944  1
  H  H39  1  0.99604547  0.49201918  0.64473944  1
  H  H40  1  0.49604547  0.00798082  0.85526056  1
  H  H41  1  0.00395453  0.50798082  0.35526056  1
  O  O42  1  0.77480905  0.62747537  0.99889486  1
  O  O43  1  0.72519095  0.12747537  0.49889486  1
  O  O44  1  0.22519095  0.37252463  0.00110514  1
  O  O45  1  0.27480905  0.87252463  0.50110514  1
  O  O46  1  0.34789012  0.89141469  0.86392513  1
  O  O47  1  0.15210988  0.39141469  0.36392513  1
  O  O48  1  0.65210988  0.10858531  0.13607487  1
  O  O49  1  0.84789012  0.60858531  0.63607487  1
  O  O50  1  0.89197784  0.79213406  0.90071458  1
  O  O51  1  0.60802216  0.29213406  0.40071458  1
  O  O52  1  0.10802216  0.20786594  0.09928542  1
  O  O53  1  0.39197784  0.70786594  0.59928542  1
  O  O54  1  0.38186691  0.67719143  0.07551470  1
  O  O55  1  0.11813309  0.17719143  0.57551470  1
  O  O56  1  0.61813309  0.32280857  0.92448530  1
  O  O57  1  0.88186691  0.82280857  0.42448530  1
  O  O58  1  0.02198668  0.83713832  0.02749662  1
  O  O59  1  0.47801332  0.33713832  0.52749662  1
  O  O60  1  0.97801332  0.16286168  0.97250338  1
  O  O61  1  0.52198668  0.66286168  0.47250338  1
  O  O62  1  0.27480101  0.68362140  0.20803033  1
  O  O63  1  0.22519899  0.18362140  0.70803033  1
  O  O64  1  0.72519899  0.31637860  0.79196967  1
  O  O65  1  0.77480101  0.81637860  0.29196967  1
  O  O66  1  0.60311355  0.70025275  0.81249304  1
  O  O67  1  0.89688645  0.20025275  0.31249304  1
  O  O68  1  0.39688645  0.29974725  0.18750696  1
  O  O69  1  0.10311355  0.79974725  0.68750696  1
  O  O70  1  0.23138072  0.65076505  0.79451966  1
  O  O71  1  0.26861928  0.15076505  0.29451966  1
  O  O72  1  0.76861928  0.34923495  0.20548034  1
  O  O73  1  0.73138072  0.84923495  0.70548034  1
  O  O74  1  0.36972456  0.64814383  0.92023213  1
  O  O75  1  0.13027544  0.14814383  0.42023213  1
  O  O76  1  0.63027544  0.35185617  0.07976787  1
  O  O77  1  0.86972456  0.85185617  0.57976787  1
  O  O78  1  0.64690005  0.71115326  0.17247284  1
  O  O79  1  0.85309995  0.21115326  0.67247284  1
  O  O80  1  0.35309995  0.28884674  0.82752716  1
  O  O81  1  0.14690005  0.78884674  0.32752716  1
  O  O82  1  0.34385114  0.10205320  0.00033997  1
  O  O83  1  0.15614886  0.60205320  0.50033997  1
  O  O84  1  0.65614886  0.89794680  0.99966003  1
  O  O85  1  0.84385114  0.39794680  0.49966003  1
  O  O86  1  0.38730773  0.91603299  0.15247975  1
  O  O87  1  0.11269227  0.41603299  0.65247975  1
  O  O88  1  0.61269227  0.08396701  0.84752025  1
  O  O89  1  0.88730773  0.58396701  0.34752025  1
