# generated using pymatgen
data_Cs2Nb3Cl7O5
_symmetry_space_group_name_H-M   'P 1'
_cell_length_a   9.07713542
_cell_length_b   9.95552658
_cell_length_c   11.33892114
_cell_angle_alpha   107.07298822
_cell_angle_beta   90.00000000
_cell_angle_gamma   117.12184535
_symmetry_Int_Tables_number   1
_chemical_formula_structural   Cs2Nb3Cl7O5
_chemical_formula_sum   'Cs4 Nb6 Cl14 O10'
_cell_volume   860.95276814
_cell_formula_units_Z   2
loop_
 _symmetry_equiv_pos_site_id
 _symmetry_equiv_pos_as_xyz
  1  'x, y, z'
loop_
 _atom_site_type_symbol
 _atom_site_label
 _atom_site_symmetry_multiplicity
 _atom_site_fract_x
 _atom_site_fract_y
 _atom_site_fract_z
 _atom_site_occupancy
  Cs  Cs0  1  0.75284547  0.59420039  0.14541226  1
  Cs  Cs1  1  0.15864508  0.40579961  0.35458774  1
  Cs  Cs2  1  0.24715453  0.40579961  0.85458774  1
  Cs  Cs3  1  0.84135492  0.59420039  0.64541226  1
  Nb  Nb4  1  0.21335368  0.00444680  0.47415931  1
  Nb  Nb5  1  0.20890689  0.99555320  0.02584069  1
  Nb  Nb6  1  0.78664632  0.99555320  0.52584069  1
  Nb  Nb7  1  0.79109311  0.00444680  0.97415931  1
  Nb  Nb8  1  0.46731408  0.00000000  0.75000000  1
  Nb  Nb9  1  0.53268592  1.00000000  0.25000000  1
  Cl  Cl10  1  0.06523120  0.71176109  0.38387325  1
  Cl  Cl11  1  0.35347011  0.28823891  0.11612675  1
  Cl  Cl12  1  0.93476880  0.28823891  0.61612675  1
  Cl  Cl13  1  0.64652989  0.71176109  0.88387325  1
  Cl  Cl14  1  0.36326220  0.29467754  0.53576805  1
  Cl  Cl15  1  0.06858466  0.70532246  0.96423195  1
  Cl  Cl16  1  0.63673780  0.70532246  0.46423195  1
  Cl  Cl17  1  0.93141534  0.29467754  0.03576805  1
  Cl  Cl18  1  0.29131790  0.71263233  0.67696869  1
  Cl  Cl19  1  0.57868557  0.28736767  0.82303131  1
  Cl  Cl20  1  0.70868210  0.28736767  0.32303131  1
  Cl  Cl21  1  0.42131443  0.71263233  0.17696869  1
  Cl  Cl22  1  0.09656384  0.00000000  0.25000000  1
  Cl  Cl23  1  0.90343616  1.00000000  0.75000000  1
  O  O24  1  0.28886267  0.00110076  0.62089571  1
  O  O25  1  0.28776191  0.99889924  0.87910429  1
  O  O26  1  0.71113733  0.99889924  0.37910429  1
  O  O27  1  0.71223809  0.00110076  0.12089571  1
  O  O28  1  0.39740835  0.00094867  0.37418908  1
  O  O29  1  0.39645967  0.99905133  0.12581092  1
  O  O30  1  0.60259165  0.99905133  0.62581092  1
  O  O31  1  0.60354033  0.00094867  0.87418908  1
  O  O32  1  0.00000000  -0.00000000  0.50000000  1
  O  O33  1  0.00000000  -0.00000000  -0.00000000  1
