# generated using pymatgen
data_Sr3B6H2O13
_symmetry_space_group_name_H-M   'P 1'
_cell_length_a   6.68669882
_cell_length_b   6.76276865
_cell_length_c   11.50400791
_cell_angle_alpha   90.75666914
_cell_angle_beta   94.32886093
_cell_angle_gamma   93.01272772
_symmetry_Int_Tables_number   1
_chemical_formula_structural   Sr3B6H2O13
_chemical_formula_sum   'Sr6 B12 H4 O26'
_cell_volume   517.94005708
_cell_formula_units_Z   2
loop_
 _symmetry_equiv_pos_site_id
 _symmetry_equiv_pos_as_xyz
  1  'x, y, z'
loop_
 _atom_site_type_symbol
 _atom_site_label
 _atom_site_symmetry_multiplicity
 _atom_site_fract_x
 _atom_site_fract_y
 _atom_site_fract_z
 _atom_site_occupancy
  Sr  Sr0  1  0.56687508  0.37499061  0.26455681  1
  Sr  Sr1  1  0.43312492  0.62500939  0.73544319  1
  Sr  Sr2  1  0.87325364  0.72630375  0.47822616  1
  Sr  Sr3  1  0.12674636  0.27369625  0.52177384  1
  Sr  Sr4  1  0.81904391  0.23712264  0.97104370  1
  Sr  Sr5  1  0.18095609  0.76287736  0.02895630  1
  B  B6  1  0.32287127  0.76323506  0.43965205  1
  B  B7  1  0.67712873  0.23676494  0.56034795  1
  B  B8  1  0.55241665  0.85461745  0.27653534  1
  B  B9  1  0.44758335  0.14538255  0.72346466  1
  B  B10  1  0.03854905  0.33525061  0.22825880  1
  B  B11  1  0.96145095  0.66474939  0.77174120  1
  B  B12  1  0.88027886  0.97866156  0.20185494  1
  B  B13  1  0.11972114  0.02133844  0.79814506  1
  B  B14  1  0.38256977  0.21865692  0.93393623  1
  B  B15  1  0.61743023  0.78134308  0.06606377  1
  B  B16  1  0.76643395  0.96820400  0.70234598  1
  B  B17  1  0.23356605  0.03179600  0.29765402  1
  H  H18  1  0.01914375  0.63546444  0.25726799  1
  H  H19  1  0.98085625  0.36453556  0.74273201  1
  H  H20  1  0.24232950  0.33775125  0.09440235  1
  H  H21  1  0.75767050  0.66224875  0.90559765  1
  O  O22  1  0.74197372  0.36306011  0.47947764  1
  O  O23  1  0.25802628  0.63693989  0.52052236  1
  O  O24  1  0.48735807  0.27035010  0.83537318  1
  O  O25  1  0.51264193  0.72964990  0.16462682  1
  O  O26  1  0.48798051  0.72534937  0.37452655  1
  O  O27  1  0.51201949  0.27465063  0.62547345  1
  O  O28  1  0.78465515  0.06459306  0.58393933  1
  O  O29  1  0.21534485  0.93540694  0.41606067  1
  O  O30  1  0.81217452  0.75561237  0.69146731  1
  O  O31  1  0.18782548  0.24438763  0.30853269  1
  O  O32  1  0.86582877  0.19762268  0.19479001  1
  O  O33  1  0.13417123  0.80237732  0.80520999  1
  O  O34  1  0.09098858  0.92489873  0.21286227  1
  O  O35  1  0.90901142  0.07510127  0.78713773  1
  O  O36  1  0.46175377  0.27371958  0.04089855  1
  O  O37  1  0.53824623  0.72628042  0.95910145  1
  O  O38  1  0.43940277  0.02907839  0.26774378  1
  O  O39  1  0.56059723  0.97092161  0.73225622  1
  O  O40  1  0.80020033  0.89394853  0.08340867  1
  O  O41  1  0.19979967  0.10605147  0.91659133  1
  O  O42  1  0.95851442  0.51137174  0.28596250  1
  O  O43  1  0.04148558  0.48862826  0.71403750  1
  O  O44  1  0.76770228  0.89837427  0.29570818  1
  O  O45  1  0.23229772  0.10162573  0.70429182  1
  O  O46  1  0.12571153  0.41233795  0.11886421  1
  O  O47  1  0.87428847  0.58766205  0.88113579  1
