# generated using pymatgen
data_Er6Al43Cr4
_symmetry_space_group_name_H-M   'P 1'
_cell_length_a   10.88701230
_cell_length_b   10.88778239
_cell_length_c   17.39534340
_cell_angle_alpha   90.00000000
_cell_angle_beta   90.00000000
_cell_angle_gamma   119.99766057
_symmetry_Int_Tables_number   1
_chemical_formula_structural   Er6Al43Cr4
_chemical_formula_sum   'Er12 Al86 Cr8'
_cell_volume   1785.75560360
_cell_formula_units_Z   2
loop_
 _symmetry_equiv_pos_site_id
 _symmetry_equiv_pos_as_xyz
  1  'x, y, z'
loop_
 _atom_site_type_symbol
 _atom_site_label
 _atom_site_symmetry_multiplicity
 _atom_site_fract_x
 _atom_site_fract_y
 _atom_site_fract_z
 _atom_site_occupancy
  Er  Er0  1  0.53023850  0.00000000  0.59524642  1
  Er  Er1  1  0.46972097  0.46974254  0.59526044  1
  Er  Er2  1  0.99997843  0.53025746  0.59526044  1
  Er  Er3  1  0.46976150  1.00000000  0.40475358  1
  Er  Er4  1  0.53027903  0.53025746  0.40473956  1
  Er  Er5  1  0.00002157  0.46974254  0.40473956  1
  Er  Er6  1  0.46976150  1.00000000  0.09524642  1
  Er  Er7  1  0.53027903  0.53025746  0.09526044  1
  Er  Er8  1  0.00002157  0.46974254  0.09526044  1
  Er  Er9  1  0.53023850  0.00000000  0.90475358  1
  Er  Er10  1  0.46972097  0.46974254  0.90473956  1
  Er  Er11  1  0.99997843  0.53025746  0.90473956  1
  Al  Al12  1  0.15892298  0.39105816  0.66512279  1
  Al  Al13  1  0.23210552  0.84104385  0.66512597  1
  Al  Al14  1  0.60893601  0.76793741  0.66514227  1
  Al  Al15  1  0.76786482  0.60894184  0.66512279  1
  Al  Al16  1  0.39106167  0.15895615  0.66512597  1
  Al  Al17  1  0.84099860  0.23206259  0.66514227  1
  Al  Al18  1  0.84107702  0.60894184  0.33487721  1
  Al  Al19  1  0.76789448  0.15895615  0.33487403  1
  Al  Al20  1  0.39106399  0.23206259  0.33485773  1
  Al  Al21  1  0.23213518  0.39105816  0.33487721  1
  Al  Al22  1  0.60893833  0.84104385  0.33487403  1
  Al  Al23  1  0.15900140  0.76793741  0.33485773  1
  Al  Al24  1  0.84107702  0.60894184  0.16512279  1
  Al  Al25  1  0.76789448  0.15895615  0.16512597  1
  Al  Al26  1  0.39106399  0.23206259  0.16514227  1
  Al  Al27  1  0.23213518  0.39105816  0.16512279  1
  Al  Al28  1  0.60893833  0.84104385  0.16512597  1
  Al  Al29  1  0.15900140  0.76793741  0.16514227  1
  Al  Al30  1  0.15892298  0.39105816  0.83487721  1
  Al  Al31  1  0.23210552  0.84104385  0.83487403  1
  Al  Al32  1  0.60893601  0.76793741  0.83485773  1
  Al  Al33  1  0.76786482  0.60894184  0.83487721  1
  Al  Al34  1  0.39106167  0.15895615  0.83487403  1
  Al  Al35  1  0.84099860  0.23206259  0.83485773  1
  Al  Al36  1  0.15499854  0.00000000  0.11590688  1
  Al  Al37  1  0.84509321  0.84506735  0.11588460  1
  Al  Al38  1  0.00002586  0.15493265  0.11588460  1
  Al  Al39  1  0.84500146  1.00000000  0.88409312  1
  Al  Al40  1  0.15490679  0.15493265  0.88411540  1
  Al  Al41  1  0.99997414  0.84506735  0.88411540  1
  Al  Al42  1  0.84500146  1.00000000  0.61590688  1
  Al  Al43  1  0.15490679  0.15493265  0.61588460  1
  Al  Al44  1  0.99997414  0.84506735  0.61588460  1
  Al  Al45  1  0.15499854  0.00000000  0.38409312  1
  Al  Al46  1  0.84509321  0.84506735  0.38411540  1
  Al  Al47  1  0.00002586  0.15493265  0.38411540  1
  Al  Al48  1  0.25183748  0.00000000  0.53063870  1
  Al  Al49  1  0.74816702  0.74817686  0.53064746  1
  Al  Al50  1  0.99999016  0.25182314  0.53064746  1
  Al  Al51  1  0.74816252  1.00000000  0.46936130  1
  Al  Al52  1  0.25183298  0.25182314  0.46935254  1
  Al  Al53  1  0.00000984  0.74817686  0.46935254  1
  Al  Al54  1  0.74816252  1.00000000  0.03063870  1
  Al  Al55  1  0.25183298  0.25182314  0.03064746  1
  Al  Al56  1  0.00000984  0.74817686  0.03064746  1
  Al  Al57  1  0.25183748  0.00000000  0.96936130  1
  Al  Al58  1  0.74816702  0.74817686  0.96935254  1
  Al  Al59  1  0.99999016  0.25182314  0.96935254  1
  Al  Al60  1  0.14454223  0.59648512  0.75000000  1
  Al  Al61  1  0.45191691  0.85545222  0.75000000  1
  Al  Al62  1  0.40352629  0.54810317  0.75000000  1
  Al  Al63  1  0.54805711  0.40351488  0.75000000  1
  Al  Al64  1  0.59646470  0.14454778  0.75000000  1
  Al  Al65  1  0.85542312  0.45189683  0.75000000  1
  Al  Al66  1  0.85545777  0.40351488  0.25000000  1
  Al  Al67  1  0.54808309  0.14454778  0.25000000  1
  Al  Al68  1  0.59647371  0.45189683  0.25000000  1
  Al  Al69  1  0.45194289  0.59648512  0.25000000  1
  Al  Al70  1  0.40353530  0.85545222  0.25000000  1
  Al  Al71  1  0.14457688  0.54810317  0.25000000  1
  Al  Al72  1  0.24688209  0.49376417  0.50000000  1
  Al  Al73  1  0.24687452  0.75312892  0.49999570  1
  Al  Al74  1  0.50625440  0.75312892  0.50000430  1
  Al  Al75  1  0.75311791  0.50623583  0.50000000  1
  Al  Al76  1  0.49374560  0.24687108  0.49999570  1
  Al  Al77  1  0.75312548  0.24687108  0.50000430  1
  Al  Al78  1  0.75311791  0.50623583  -0.00000000  1
  Al  Al79  1  0.75312548  0.24687108  0.99999570  1
  Al  Al80  1  0.49374560  0.24687108  0.00000430  1
  Al  Al81  1  0.24688209  0.49376417  -0.00000000  1
  Al  Al82  1  0.50625440  0.75312892  0.99999570  1
  Al  Al83  1  0.24687452  0.75312892  0.00000430  1
  Al  Al84  1  0.33333006  0.66667642  0.62743103  1
  Al  Al85  1  0.66665364  0.33332358  0.62743103  1
  Al  Al86  1  0.66666994  0.33332358  0.37256897  1
  Al  Al87  1  0.33334636  0.66667642  0.37256897  1
  Al  Al88  1  0.66666994  0.33332358  0.12743103  1
  Al  Al89  1  0.33334636  0.66667642  0.12743103  1
  Al  Al90  1  0.33333006  0.66667642  0.87256897  1
  Al  Al91  1  0.66665364  0.33332358  0.87256897  1
  Al  Al92  1  0.14514985  1.00000000  0.75000000  1
  Al  Al93  1  0.85471118  0.85487743  0.75000000  1
  Al  Al94  1  0.99983375  0.14512257  0.75000000  1
  Al  Al95  1  0.85485015  0.00000000  0.25000000  1
  Al  Al96  1  0.14528882  0.14512257  0.25000000  1
  Al  Al97  1  0.00016625  0.85487743  0.25000000  1
  Cr  Cr98  1  0.72965854  0.00000000  0.75000000  1
  Cr  Cr99  1  0.27005319  0.27011526  0.75000000  1
  Cr  Cr100  1  0.99993793  0.72988474  0.75000000  1
  Cr  Cr101  1  0.27034146  1.00000000  0.25000000  1
  Cr  Cr102  1  0.72994681  0.72988474  0.25000000  1
  Cr  Cr103  1  0.00006207  0.27011526  0.25000000  1
  Cr  Cr104  1  0.00000000  -0.00000000  0.50000000  1
  Cr  Cr105  1  0.00000000  -0.00000000  -0.00000000  1
