# generated using pymatgen
data_Li9Mn2Co5O16
_symmetry_space_group_name_H-M   'P 1'
_cell_length_a   2.90354411
_cell_length_b   10.21092531
_cell_length_c   10.30915691
_cell_angle_alpha   70.64256909
_cell_angle_beta   90.00000000
_cell_angle_gamma   90.00000000
_symmetry_Int_Tables_number   1
_chemical_formula_structural   Li9Mn2Co5O16
_chemical_formula_sum   'Li9 Mn2 Co5 O16'
_cell_volume   288.36622799
_cell_formula_units_Z   1
loop_
 _symmetry_equiv_pos_site_id
 _symmetry_equiv_pos_as_xyz
  1  'x, y, z'
loop_
 _atom_site_type_symbol
 _atom_site_label
 _atom_site_symmetry_multiplicity
 _atom_site_fract_x
 _atom_site_fract_y
 _atom_site_fract_z
 _atom_site_occupancy
  Li  Li0  1  0.50000000  0.00720836  0.26313016  1
  Li  Li1  1  0.50000000  0.99844672  0.73367663  1
  Li  Li2  1  0.00000000  0.25116579  0.25509887  1
  Li  Li3  1  0.00000000  0.25789665  0.73603825  1
  Li  Li4  1  0.50000000  0.49539778  0.25450629  1
  Li  Li5  1  0.50000000  0.49875626  0.75114777  1
  Li  Li6  1  0.00000000  0.74243125  0.25965526  1
  Li  Li7  1  0.00000000  0.75386729  0.74210256  1
  Li  Li8  1  0.00000000  0.99786598  0.50254687  1
  Mn  Mn9  1  0.00000000  0.99981614  0.00037239  1
  Mn  Mn10  1  0.50000000  0.75682638  0.50344333  1
  Co  Co11  1  0.50000000  0.25499440  -0.00016971  1
  Co  Co12  1  0.50000000  0.23365892  0.49082564  1
  Co  Co13  1  0.00000000  0.50029360  -0.00008042  1
  Co  Co14  1  -0.00000000  0.49509503  0.50246510  1
  Co  Co15  1  0.50000000  0.74329419  0.00075624  1
  O  O16  1  0.50000000  0.88962543  0.11013807  1
  O  O17  1  0.50000000  0.86380404  0.61668101  1
  O  O18  1  0.00000000  0.12168819  0.10995212  1
  O  O19  1  -0.00000000  0.13754339  0.61420221  1
  O  O20  1  0.50000000  0.38090800  0.11507727  1
  O  O21  1  0.50000000  0.38650721  0.61579862  1
  O  O22  1  0.00000000  0.63025955  0.11948710  1
  O  O23  1  0.00000000  0.63799148  0.60978594  1
  O  O24  1  0.50000000  0.13408616  0.37535182  1
  O  O25  1  0.50000000  0.10946042  0.89084828  1
  O  O26  1  -0.00000000  0.36937256  0.38927163  1
  O  O27  1  0.00000000  0.37240488  0.88195563  1
  O  O28  1  0.50000000  0.62450787  0.39118052  1
  O  O29  1  0.50000000  0.61992219  0.88462096  1
  O  O30  1  0.00000000  0.85978350  0.38900481  1
  O  O31  1  0.00000000  0.87512038  0.89112877  1
