# generated using pymatgen
data_Cs2CaV2O7
_symmetry_space_group_name_H-M   'P 1'
_cell_length_a   6.18591193
_cell_length_b   10.74737483
_cell_length_c   14.47790418
_cell_angle_alpha   104.29492932
_cell_angle_beta   90.00000000
_cell_angle_gamma   90.00000000
_symmetry_Int_Tables_number   1
_chemical_formula_structural   Cs2CaV2O7
_chemical_formula_sum   'Cs8 Ca4 V8 O28'
_cell_volume   932.72249122
_cell_formula_units_Z   4
loop_
 _symmetry_equiv_pos_site_id
 _symmetry_equiv_pos_as_xyz
  1  'x, y, z'
loop_
 _atom_site_type_symbol
 _atom_site_label
 _atom_site_symmetry_multiplicity
 _atom_site_fract_x
 _atom_site_fract_y
 _atom_site_fract_z
 _atom_site_occupancy
  Cs  Cs0  1  0.77210289  0.13848821  0.17191622  1
  Cs  Cs1  1  0.72789711  0.63848821  0.67191622  1
  Cs  Cs2  1  0.22789711  0.86151179  0.82808378  1
  Cs  Cs3  1  0.27210289  0.36151179  0.32808378  1
  Cs  Cs4  1  0.23291486  0.13489393  0.64966781  1
  Cs  Cs5  1  0.26708514  0.63489393  0.14966781  1
  Cs  Cs6  1  0.76708514  0.86510607  0.35033219  1
  Cs  Cs7  1  0.73291486  0.36510607  0.85033219  1
  Ca  Ca8  1  0.74404120  0.24911939  0.48541126  1
  Ca  Ca9  1  0.75595880  0.74911939  0.98541126  1
  Ca  Ca10  1  0.25595880  0.75088061  0.51458874  1
  Ca  Ca11  1  0.24404120  0.25088061  0.01458874  1
  V  V12  1  0.77112927  0.54939400  0.37806163  1
  V  V13  1  0.72887073  0.04939400  0.87806163  1
  V  V14  1  0.22887073  0.45060600  0.62193837  1
  V  V15  1  0.27112927  0.95060600  0.12193837  1
  V  V16  1  0.76170630  0.46682478  0.13223735  1
  V  V17  1  0.73829370  0.96682478  0.63223735  1
  V  V18  1  0.23829370  0.53317522  0.86776265  1
  V  V19  1  0.26170630  0.03317522  0.36776265  1
  O  O20  1  0.57066486  0.63516467  0.44686689  1
  O  O21  1  0.92933514  0.13516467  0.94686689  1
  O  O22  1  0.42933514  0.36483533  0.55313311  1
  O  O23  1  0.07066486  0.86483533  0.05313311  1
  O  O24  1  0.01908975  0.62355360  0.40186383  1
  O  O25  1  0.48091025  0.12355360  0.90186383  1
  O  O26  1  0.98091025  0.37644640  0.59813617  1
  O  O27  1  0.51908975  0.87644640  0.09813617  1
  O  O28  1  0.78011716  0.39176492  0.38604087  1
  O  O29  1  0.71988284  0.89176492  0.88604087  1
  O  O30  1  0.21988284  0.60823508  0.61395913  1
  O  O31  1  0.28011716  0.10823508  0.11395913  1
  O  O32  1  0.69693683  0.55177103  0.25556010  1
  O  O33  1  0.80306317  0.05177103  0.75556010  1
  O  O34  1  0.30306317  0.44822897  0.74443990  1
  O  O35  1  0.19693683  0.94822897  0.24443990  1
  O  O36  1  0.00002415  0.38215338  0.12887981  1
  O  O37  1  0.49997585  0.88215338  0.62887981  1
  O  O38  1  -0.00002415  0.61784662  0.87112019  1
  O  O39  1  0.50002415  0.11784662  0.37112019  1
  O  O40  1  0.78504775  0.58538826  0.07213953  1
  O  O41  1  0.71495225  0.08538826  0.57213953  1
  O  O42  1  0.21495225  0.41461174  0.92786047  1
  O  O43  1  0.28504775  0.91461174  0.42786047  1
  O  O44  1  0.54584879  0.36718439  0.09245663  1
  O  O45  1  0.95415121  0.86718439  0.59245663  1
  O  O46  1  0.45415121  0.63281561  0.90754337  1
  O  O47  1  0.04584879  0.13281561  0.40754337  1
