# generated using pymatgen
data_Nb2O5
_symmetry_space_group_name_H-M   'P 1'
_cell_length_a   3.79040623
_cell_length_b   14.81151642
_cell_length_c   15.51027284
_cell_angle_alpha   73.09639688
_cell_angle_beta   82.98147870
_cell_angle_gamma   82.64858192
_symmetry_Int_Tables_number   1
_chemical_formula_structural   Nb2O5
_chemical_formula_sum   'Nb16 O40'
_cell_volume   822.98205120
_cell_formula_units_Z   8
loop_
 _symmetry_equiv_pos_site_id
 _symmetry_equiv_pos_as_xyz
  1  'x, y, z'
loop_
 _atom_site_type_symbol
 _atom_site_label
 _atom_site_symmetry_multiplicity
 _atom_site_fract_x
 _atom_site_fract_y
 _atom_site_fract_z
 _atom_site_occupancy
  Nb  Nb0  1  0.06088330  0.98006394  0.89816945  1
  Nb  Nb1  1  0.93911670  0.01993606  0.10183055  1
  Nb  Nb2  1  0.66013408  0.78135160  0.89838024  1
  Nb  Nb3  1  0.33986592  0.21864840  0.10161976  1
  Nb  Nb4  1  0.79426266  0.51122721  0.90024746  1
  Nb  Nb5  1  0.20573734  0.48877279  0.09975254  1
  Nb  Nb6  1  0.92482421  0.24720253  0.90314905  1
  Nb  Nb7  1  0.07517579  0.75279747  0.09685095  1
  Nb  Nb8  1  0.02340689  0.32649354  0.62669267  1
  Nb  Nb9  1  0.97659311  0.67350646  0.37330733  1
  Nb  Nb10  1  0.15511059  0.06206521  0.62771361  1
  Nb  Nb11  1  0.84488941  0.93793479  0.37228639  1
  Nb  Nb12  1  0.75313697  0.85956315  0.63416291  1
  Nb  Nb13  1  0.24686303  0.14043685  0.36583709  1
  Nb  Nb14  1  0.88944601  0.58736189  0.63374610  1
  Nb  Nb15  1  0.11055399  0.41263811  0.36625390  1
  O  O16  1  0.57405775  0.93936452  0.91251998  1
  O  O17  1  0.42594225  0.06063548  0.08748002  1
  O  O18  1  0.13188538  0.81224132  0.92398793  1
  O  O19  1  0.86811462  0.18775868  0.07601207  1
  O  O20  1  0.27395161  0.51415861  0.93793817  1
  O  O21  1  0.72604839  0.48584139  0.06206183  1
  O  O22  1  0.41092148  0.23168915  0.94646789  1
  O  O23  1  0.58907852  0.76831085  0.05353211  1
  O  O24  1  0.51581453  0.31086870  0.65750223  1
  O  O25  1  0.48418547  0.68913130  0.34249777  1
  O  O26  1  0.66936090  0.02117008  0.64010812  1
  O  O27  1  0.33063910  0.97882992  0.35989188  1
  O  O28  1  0.22971906  0.89796571  0.64259617  1
  O  O29  1  0.77028094  0.10203429  0.35740383  1
  O  O30  1  0.37128667  0.61377435  0.64365232  1
  O  O31  1  0.62871333  0.38622565  0.35634768  1
  O  O32  1  0.71828437  0.65449555  0.90893571  1
  O  O33  1  0.28171563  0.34550445  0.09106429  1
  O  O34  1  0.85401703  0.37491061  0.91705533  1
  O  O35  1  0.14598297  0.62508939  0.08294467  1
  O  O36  1  0.98511883  0.09102726  0.93873508  1
  O  O37  1  0.01488117  0.90897274  0.06126492  1
  O  O38  1  0.10235466  0.01915377  0.77613691  1
  O  O39  1  0.89764534  0.98084623  0.22386309  1
  O  O40  1  0.69497673  0.83360342  0.77644312  1
  O  O41  1  0.30502327  0.16639658  0.22355688  1
  O  O42  1  0.83764137  0.54736625  0.77735101  1
  O  O43  1  0.16235863  0.45263375  0.22264899  1
  O  O44  1  0.97286249  0.27039303  0.78388200  1
  O  O45  1  0.02713751  0.72960697  0.21611800  1
  O  O46  1  0.09040999  0.18458008  0.63459993  1
  O  O47  1  0.90959001  0.81541992  0.36540007  1
  O  O48  1  0.80991303  0.73543240  0.64474154  1
  O  O49  1  0.19008697  0.26456760  0.35525846  1
  O  O50  1  0.95341199  0.45706546  0.63611055  1
  O  O51  1  0.04658801  0.54293454  0.36388945  1
  O  O52  1  0.07063752  0.36081858  0.49790639  1
  O  O53  1  0.92936248  0.63918142  0.50209361  1
  O  O54  1  0.20484034  0.09133403  0.49898529  1
  O  O55  1  0.79515966  0.90866597  0.50101471  1
