# generated using pymatgen
data_Pr4As2S9
_symmetry_space_group_name_H-M   'P 1'
_cell_length_a   7.07638724
_cell_length_b   7.14005470
_cell_length_c   29.49246203
_cell_angle_alpha   90.00000000
_cell_angle_beta   90.00000000
_cell_angle_gamma   90.00000000
_symmetry_Int_Tables_number   1
_chemical_formula_structural   Pr4As2S9
_chemical_formula_sum   'Pr16 As8 S36'
_cell_volume   1490.13000127
_cell_formula_units_Z   4
loop_
 _symmetry_equiv_pos_site_id
 _symmetry_equiv_pos_as_xyz
  1  'x, y, z'
loop_
 _atom_site_type_symbol
 _atom_site_label
 _atom_site_symmetry_multiplicity
 _atom_site_fract_x
 _atom_site_fract_y
 _atom_site_fract_z
 _atom_site_occupancy
  Pr  Pr0  1  0.70440123  0.54426291  0.44328826  1
  Pr  Pr1  1  0.79559877  0.04426291  0.05671174  1
  Pr  Pr2  1  0.79559877  0.45573709  0.94328826  1
  Pr  Pr3  1  0.70440123  0.95573709  0.55671174  1
  Pr  Pr4  1  0.29559877  0.45573709  0.55671174  1
  Pr  Pr5  1  0.20440123  0.95573709  0.94328826  1
  Pr  Pr6  1  0.20440123  0.54426291  0.05671174  1
  Pr  Pr7  1  0.29559877  0.04426291  0.44328826  1
  Pr  Pr8  1  0.79652033  0.82184025  0.29278778  1
  Pr  Pr9  1  0.70347967  0.32184025  0.20721222  1
  Pr  Pr10  1  0.70347967  0.17815975  0.79278778  1
  Pr  Pr11  1  0.79652033  0.67815975  0.70721222  1
  Pr  Pr12  1  0.20347967  0.17815975  0.70721222  1
  Pr  Pr13  1  0.29652033  0.67815975  0.79278778  1
  Pr  Pr14  1  0.29652033  0.82184025  0.20721222  1
  Pr  Pr15  1  0.20347967  0.32184025  0.29278778  1
  As  As16  1  0.69499104  0.57503942  0.09562380  1
  As  As17  1  0.80500896  0.07503942  0.40437620  1
  As  As18  1  0.80500896  0.42496058  0.59562380  1
  As  As19  1  0.69499104  0.92496058  0.90437620  1
  As  As20  1  0.30500896  0.42496058  0.90437620  1
  As  As21  1  0.19499104  0.92496058  0.59562380  1
  As  As22  1  0.19499104  0.57503942  0.40437620  1
  As  As23  1  0.30500896  0.07503942  0.09562380  1
  S  S24  1  0.93792794  0.75000000  0.00000000  1
  S  S25  1  0.56207206  0.25000000  0.50000000  1
  S  S26  1  0.06207206  0.25000000  0.00000000  1
  S  S27  1  0.43792794  0.75000000  0.50000000  1
  S  S28  1  0.99954626  0.07294126  0.23557284  1
  S  S29  1  0.50045374  0.57294126  0.26442716  1
  S  S30  1  0.50045374  0.92705874  0.73557284  1
  S  S31  1  0.99954626  0.42705874  0.76442716  1
  S  S32  1  0.00045374  0.92705874  0.76442716  1
  S  S33  1  0.49954626  0.42705874  0.73557284  1
  S  S34  1  0.49954626  0.07294126  0.26442716  1
  S  S35  1  0.00045374  0.57294126  0.23557284  1
  S  S36  1  0.91818762  0.88378303  0.45933076  1
  S  S37  1  0.58181238  0.38378303  0.04066924  1
  S  S38  1  0.58181238  0.11621697  0.95933076  1
  S  S39  1  0.91818762  0.61621697  0.54066924  1
  S  S40  1  0.08181238  0.11621697  0.54066924  1
  S  S41  1  0.41818762  0.61621697  0.95933076  1
  S  S42  1  0.41818762  0.88378303  0.04066924  1
  S  S43  1  0.08181238  0.38378303  0.45933076  1
  S  S44  1  0.94484916  0.52148631  0.35620236  1
  S  S45  1  0.55515084  0.02148631  0.14379764  1
  S  S46  1  0.55515084  0.47851369  0.85620236  1
  S  S47  1  0.94484916  0.97851369  0.64379764  1
  S  S48  1  0.05515084  0.47851369  0.64379764  1
  S  S49  1  0.44484916  0.97851369  0.85620236  1
  S  S50  1  0.44484916  0.52148631  0.14379764  1
  S  S51  1  0.05515084  0.02148631  0.35620236  1
  S  S52  1  0.57460402  0.87050228  0.38025298  1
  S  S53  1  0.92539598  0.37050228  0.11974702  1
  S  S54  1  0.92539598  0.12949772  0.88025298  1
  S  S55  1  0.57460402  0.62949772  0.61974702  1
  S  S56  1  0.42539598  0.12949772  0.61974702  1
  S  S57  1  0.07460402  0.62949772  0.88025298  1
  S  S58  1  0.07460402  0.87050228  0.11974702  1
  S  S59  1  0.42539598  0.37050228  0.38025298  1
