# generated using pymatgen
data_YbSi3Ni5
_symmetry_space_group_name_H-M   'P 1'
_cell_length_a   3.77178946
_cell_length_b   6.68085005
_cell_length_c   18.69304341
_cell_angle_alpha   90.00000000
_cell_angle_beta   90.00000000
_cell_angle_gamma   90.00000000
_symmetry_Int_Tables_number   1
_chemical_formula_structural   YbSi3Ni5
_chemical_formula_sum   'Yb4 Si12 Ni20'
_cell_volume   471.04151086
_cell_formula_units_Z   4
loop_
 _symmetry_equiv_pos_site_id
 _symmetry_equiv_pos_as_xyz
  1  'x, y, z'
loop_
 _atom_site_type_symbol
 _atom_site_label
 _atom_site_symmetry_multiplicity
 _atom_site_fract_x
 _atom_site_fract_y
 _atom_site_fract_z
 _atom_site_occupancy
  Yb  Yb0  1  0.25000000  0.62237459  0.64322133  1
  Yb  Yb1  1  0.25000000  0.87762541  0.14322133  1
  Yb  Yb2  1  0.75000000  0.37762541  0.35677867  1
  Yb  Yb3  1  0.75000000  0.12237459  0.85677867  1
  Si  Si4  1  0.25000000  0.41639404  0.91496930  1
  Si  Si5  1  0.25000000  0.08360596  0.41496930  1
  Si  Si6  1  0.75000000  0.58360596  0.08503070  1
  Si  Si7  1  0.75000000  0.91639404  0.58503070  1
  Si  Si8  1  0.25000000  0.12124995  0.73727972  1
  Si  Si9  1  0.25000000  0.37875005  0.23727972  1
  Si  Si10  1  0.75000000  0.87875005  0.26272028  1
  Si  Si11  1  0.75000000  0.62124995  0.76272028  1
  Si  Si12  1  0.25000000  0.84553076  0.92475439  1
  Si  Si13  1  0.25000000  0.65446924  0.42475439  1
  Si  Si14  1  0.75000000  0.15446924  0.07524561  1
  Si  Si15  1  0.75000000  0.34553076  0.57524561  1
  Ni  Ni16  1  0.25000000  0.81383535  0.79876541  1
  Ni  Ni17  1  0.25000000  0.68616465  0.29876541  1
  Ni  Ni18  1  0.75000000  0.18616465  0.20123459  1
  Ni  Ni19  1  0.75000000  0.31383535  0.70123459  1
  Ni  Ni20  1  0.25000000  0.13163491  0.99456581  1
  Ni  Ni21  1  0.25000000  0.36836509  0.49456581  1
  Ni  Ni22  1  0.75000000  0.86836509  0.00543419  1
  Ni  Ni23  1  0.75000000  0.63163491  0.50543419  1
  Ni  Ni24  1  0.25000000  0.88173562  0.51471033  1
  Ni  Ni25  1  0.25000000  0.61826438  0.01471033  1
  Ni  Ni26  1  0.75000000  0.11826438  0.48528967  1
  Ni  Ni27  1  0.75000000  0.38173562  0.98528967  1
  Ni  Ni28  1  0.25000000  0.14481732  0.61475148  1
  Ni  Ni29  1  0.25000000  0.35518268  0.11475148  1
  Ni  Ni30  1  0.75000000  0.85518268  0.38524852  1
  Ni  Ni31  1  0.75000000  0.64481732  0.88524852  1
  Ni  Ni32  1  0.25000000  0.42930577  0.79403297  1
  Ni  Ni33  1  0.25000000  0.07069423  0.29403297  1
  Ni  Ni34  1  0.75000000  0.57069423  0.20596703  1
  Ni  Ni35  1  0.75000000  0.92930577  0.70596703  1
