# generated using pymatgen
data_Gd2Co17
_symmetry_space_group_name_H-M   'P 1'
_cell_length_a   8.11409235
_cell_length_b   8.31209434
_cell_length_c   8.31209434
_cell_angle_alpha   119.87529796
_cell_angle_beta   90.00000000
_cell_angle_gamma   90.00000000
_symmetry_Int_Tables_number   1
_chemical_formula_structural   Gd2Co17
_chemical_formula_sum   'Gd4 Co34'
_cell_volume   486.11146180
_cell_formula_units_Z   2
loop_
 _symmetry_equiv_pos_site_id
 _symmetry_equiv_pos_as_xyz
  1  'x, y, z'
loop_
 _atom_site_type_symbol
 _atom_site_label
 _atom_site_symmetry_multiplicity
 _atom_site_fract_x
 _atom_site_fract_y
 _atom_site_fract_z
 _atom_site_occupancy
  Gd  Gd0  1  0.75000000  -0.00015632  0.00015632  1
  Gd  Gd1  1  0.25000000  0.00015632  -0.00015632  1
  Gd  Gd2  1  0.25000000  0.66672978  0.33327022  1
  Gd  Gd3  1  0.75000000  0.33327022  0.66672978  1
  Co  Co4  1  0.60645108  0.66683085  0.33316915  1
  Co  Co5  1  0.39354892  0.33316915  0.66683085  1
  Co  Co6  1  0.10645108  0.33316915  0.66683085  1
  Co  Co7  1  0.89354892  0.66683085  0.33316915  1
  Co  Co8  1  0.50000000  0.50000000  0.00000000  1
  Co  Co9  1  0.50000000  0.50000000  0.50000000  1
  Co  Co10  1  0.50000000  0.00000000  0.50000000  1
  Co  Co11  1  -0.00000000  0.50000000  0.00000000  1
  Co  Co12  1  -0.00000000  0.50000000  0.50000000  1
  Co  Co13  1  -0.00000000  0.00000000  0.50000000  1
  Co  Co14  1  0.75000000  0.67113074  0.04782633  1
  Co  Co15  1  0.75000000  0.37676143  0.32898971  1
  Co  Co16  1  0.75000000  0.95170522  0.62245712  1
  Co  Co17  1  0.75000000  0.37754288  0.04829478  1
  Co  Co18  1  0.75000000  0.95217367  0.32886926  1
  Co  Co19  1  0.75000000  0.67101029  0.62323857  1
  Co  Co20  1  0.25000000  0.32886926  0.95217367  1
  Co  Co21  1  0.25000000  0.62323857  0.67101029  1
  Co  Co22  1  0.25000000  0.04829478  0.37754288  1
  Co  Co23  1  0.25000000  0.62245712  0.95170522  1
  Co  Co24  1  0.25000000  0.04782633  0.67113074  1
  Co  Co25  1  0.25000000  0.32898971  0.37676143  1
  Co  Co26  1  0.47800321  0.83324927  0.66626264  1
  Co  Co27  1  0.47833806  0.83319738  0.16680262  1
  Co  Co28  1  0.47800321  0.33373736  0.16675073  1
  Co  Co29  1  0.52199679  0.16675073  0.33373736  1
  Co  Co30  1  0.52166194  0.16680262  0.83319738  1
  Co  Co31  1  0.52199679  0.66626264  0.83324927  1
  Co  Co32  1  0.97800321  0.16675073  0.33373736  1
  Co  Co33  1  0.97833806  0.16680262  0.83319738  1
  Co  Co34  1  0.97800321  0.66626264  0.83324927  1
  Co  Co35  1  0.02199679  0.83324927  0.66626264  1
  Co  Co36  1  0.02166194  0.83319738  0.16680262  1
  Co  Co37  1  0.02199679  0.33373736  0.16675073  1
