# generated using pymatgen
data_Fe2P3(O3F)3
_symmetry_space_group_name_H-M   'P 1'
_cell_length_a   7.47517601
_cell_length_b   14.63232562
_cell_length_c   14.63232562
_cell_angle_alpha   120.00000062
_cell_angle_beta   90.00000000
_cell_angle_gamma   90.00000000
_symmetry_Int_Tables_number   1
_chemical_formula_structural   Fe2P3(O3F)3
_chemical_formula_sum   'Fe12 P18 O54 F18'
_cell_volume   1386.04958150
_cell_formula_units_Z   6
loop_
 _symmetry_equiv_pos_site_id
 _symmetry_equiv_pos_as_xyz
  1  'x, y, z'
loop_
 _atom_site_type_symbol
 _atom_site_label
 _atom_site_symmetry_multiplicity
 _atom_site_fract_x
 _atom_site_fract_y
 _atom_site_fract_z
 _atom_site_occupancy
  Fe  Fe0  1  0.04727398  0.64764095  0.67418761  1
  Fe  Fe1  1  0.04727398  0.32581239  0.97345333  1
  Fe  Fe2  1  0.04727398  0.02654667  0.35235905  1
  Fe  Fe3  1  0.54727398  0.35235905  0.32581239  1
  Fe  Fe4  1  0.54727398  0.67418761  0.02654667  1
  Fe  Fe5  1  0.54727398  0.97345333  0.64764095  1
  Fe  Fe6  1  0.95272602  0.35235905  0.32581239  1
  Fe  Fe7  1  0.95272602  0.67418761  0.02654667  1
  Fe  Fe8  1  0.95272602  0.97345333  0.64764095  1
  Fe  Fe9  1  0.45272602  0.64764095  0.67418761  1
  Fe  Fe10  1  0.45272602  0.32581239  0.97345333  1
  Fe  Fe11  1  0.45272602  0.02654667  0.35235905  1
  P  P12  1  0.25000000  0.54259017  0.43816535  1
  P  P13  1  0.25000000  0.56183465  0.10442482  1
  P  P14  1  0.25000000  0.89557518  0.45740983  1
  P  P15  1  0.75000000  0.45740983  0.56183465  1
  P  P16  1  0.75000000  0.43816535  0.89557518  1
  P  P17  1  0.75000000  0.10442482  0.54259017  1
  P  P18  1  0.75000000  0.75512644  0.87130881  1
  P  P19  1  0.75000000  0.12869119  0.88381763  1
  P  P20  1  0.75000000  0.11618237  0.24487356  1
  P  P21  1  0.25000000  0.24487356  0.12869119  1
  P  P22  1  0.25000000  0.87130881  0.11618237  1
  P  P23  1  0.25000000  0.88381763  0.75512644  1
  P  P24  1  0.25000000  0.56784918  0.82908453  1
  P  P25  1  0.25000000  0.17091547  0.73876465  1
  P  P26  1  0.25000000  0.26123535  0.43215082  1
  P  P27  1  0.75000000  0.43215082  0.17091547  1
  P  P28  1  0.75000000  0.82908453  0.26123535  1
  P  P29  1  0.75000000  0.73876465  0.56784918  1
  O  O30  1  0.25000000  0.60890588  0.74994781  1
  O  O31  1  0.25000000  0.25005219  0.85895808  1
  O  O32  1  0.25000000  0.14104192  0.39109412  1
  O  O33  1  0.75000000  0.39109412  0.25005219  1
  O  O34  1  0.75000000  0.74994781  0.14104192  1
  O  O35  1  0.75000000  0.85895808  0.60890588  1
  O  O36  1  0.25000000  0.57369568  0.55615693  1
  O  O37  1  0.25000000  0.44384307  0.01753875  1
  O  O38  1  0.25000000  0.98246125  0.42630432  1
  O  O39  1  0.75000000  0.42630432  0.44384307  1
  O  O40  1  0.75000000  0.55615693  0.98246125  1
  O  O41  1  0.75000000  0.01753875  0.57369568  1
  O  O42  1  0.92090142  0.70213891  0.59544351  1
  O  O43  1  0.92090142  0.40455649  0.10669540  1
  O  O44  1  0.92090142  0.89330460  0.29786109  1
  O  O45  1  0.42090142  0.29786109  0.40455649  1
  O  O46  1  0.42090142  0.59544351  0.89330460  1
  O  O47  1  0.42090142  0.10669540  0.70213891  1
  O  O48  1  0.07909858  0.29786109  0.40455649  1
  O  O49  1  0.07909858  0.59544351  0.89330460  1
  O  O50  1  0.07909858  0.10669540  0.70213891  1
  O  O51  1  0.57909858  0.70213891  0.59544351  1
  O  O52  1  0.57909858  0.40455649  0.10669540  1
  O  O53  1  0.57909858  0.89330460  0.29786109  1
  O  O54  1  0.92124543  0.51346473  0.61781385  1
  O  O55  1  0.92124543  0.38218615  0.89565088  1
  O  O56  1  0.92124543  0.10434912  0.48653527  1
  O  O57  1  0.42124543  0.48653527  0.38218615  1
  O  O58  1  0.42124543  0.61781385  0.10434912  1
  O  O59  1  0.42124543  0.89565088  0.51346473  1
  O  O60  1  0.07875457  0.48653527  0.38218615  1
  O  O61  1  0.07875457  0.61781385  0.10434912  1
  O  O62  1  0.07875457  0.89565088  0.51346473  1
  O  O63  1  0.57875457  0.51346473  0.61781385  1
  O  O64  1  0.57875457  0.38218615  0.89565088  1
  O  O65  1  0.57875457  0.10434912  0.48653527  1
  O  O66  1  0.92136986  0.72824834  0.80711893  1
  O  O67  1  0.92136986  0.19288107  0.92112941  1
  O  O68  1  0.92136986  0.07887059  0.27175166  1
  O  O69  1  0.42136986  0.27175166  0.19288107  1
  O  O70  1  0.42136986  0.80711893  0.07887059  1
  O  O71  1  0.42136986  0.92112941  0.72824834  1
  O  O72  1  0.07863014  0.27175166  0.19288107  1
  O  O73  1  0.07863014  0.80711893  0.07887059  1
  O  O74  1  0.07863014  0.92112941  0.72824834  1
  O  O75  1  0.57863014  0.72824834  0.80711893  1
  O  O76  1  0.57863014  0.19288107  0.92112941  1
  O  O77  1  0.57863014  0.07887059  0.27175166  1
  O  O78  1  0.25000000  0.76382655  0.71296146  1
  O  O79  1  0.25000000  0.28703854  0.05086509  1
  O  O80  1  0.25000000  0.94913491  0.23617345  1
  O  O81  1  0.75000000  0.23617345  0.28703854  1
  O  O82  1  0.75000000  0.71296146  0.94913491  1
  O  O83  1  0.75000000  0.05086509  0.76382655  1
  F  F84  1  0.25000000  0.93364531  0.87741567  1
  F  F85  1  0.25000000  0.12258433  0.05622963  1
  F  F86  1  0.25000000  0.94377037  0.06635469  1
  F  F87  1  0.75000000  0.06635469  0.12258433  1
  F  F88  1  0.75000000  0.87741567  0.94377037  1
  F  F89  1  0.75000000  0.05622963  0.93364531  1
  F  F90  1  0.25000000  0.64991825  0.43889742  1
  F  F91  1  0.25000000  0.56110258  0.21102083  1
  F  F92  1  0.25000000  0.78897917  0.35008175  1
  F  F93  1  0.75000000  0.35008175  0.56110258  1
  F  F94  1  0.75000000  0.43889742  0.78897917  1
  F  F95  1  0.75000000  0.21102083  0.64991825  1
  F  F96  1  0.75000000  0.68784337  0.44582601  1
  F  F97  1  0.75000000  0.55417399  0.24201736  1
  F  F98  1  0.75000000  0.75798264  0.31215663  1
  F  F99  1  0.25000000  0.31215663  0.55417399  1
  F  F100  1  0.25000000  0.44582601  0.75798264  1
  F  F101  1  0.25000000  0.24201736  0.68784337  1
