# generated using pymatgen
data_Th(SO4)2
_symmetry_space_group_name_H-M   'P 1'
_cell_length_a   9.23509124
_cell_length_b   9.64414490
_cell_length_c   13.82739069
_cell_angle_alpha   90.00000000
_cell_angle_beta   90.00000000
_cell_angle_gamma   90.00000000
_symmetry_Int_Tables_number   1
_chemical_formula_structural   Th(SO4)2
_chemical_formula_sum   'Th8 S16 O64'
_cell_volume   1231.53044125
_cell_formula_units_Z   8
loop_
 _symmetry_equiv_pos_site_id
 _symmetry_equiv_pos_as_xyz
  1  'x, y, z'
loop_
 _atom_site_type_symbol
 _atom_site_label
 _atom_site_symmetry_multiplicity
 _atom_site_fract_x
 _atom_site_fract_y
 _atom_site_fract_z
 _atom_site_occupancy
  Th  Th0  1  0.78040041  0.03550765  0.89686177  1
  Th  Th1  1  0.71959959  0.53550765  0.10313823  1
  Th  Th2  1  0.28040041  0.96449235  0.60313823  1
  Th  Th3  1  0.21959959  0.46449235  0.39686177  1
  Th  Th4  1  0.21959959  0.96449235  0.10313823  1
  Th  Th5  1  0.28040041  0.46449235  0.89686177  1
  Th  Th6  1  0.71959959  0.03550765  0.39686177  1
  Th  Th7  1  0.78040041  0.53550765  0.60313823  1
  S  S8  1  0.99518980  0.72272843  0.94189291  1
  S  S9  1  0.50481020  0.22272843  0.05810709  1
  S  S10  1  0.49518980  0.27727157  0.55810709  1
  S  S11  1  0.00481020  0.77727157  0.44189291  1
  S  S12  1  0.00481020  0.27727157  0.05810709  1
  S  S13  1  0.49518980  0.77727157  0.94189291  1
  S  S14  1  0.50481020  0.72272843  0.44189291  1
  S  S15  1  0.99518980  0.22272843  0.55810709  1
  S  S16  1  0.82118527  0.89635210  0.15613199  1
  S  S17  1  0.67881473  0.39635210  0.84386801  1
  S  S18  1  0.32118527  0.10364790  0.34386801  1
  S  S19  1  0.17881473  0.60364790  0.65613199  1
  S  S20  1  0.17881473  0.10364790  0.84386801  1
  S  S21  1  0.32118527  0.60364790  0.15613199  1
  S  S22  1  0.67881473  0.89635210  0.65613199  1
  S  S23  1  0.82118527  0.39635210  0.34386801  1
  O  O24  1  0.89507360  0.80385939  0.88049510  1
  O  O25  1  0.60492640  0.30385939  0.11950490  1
  O  O26  1  0.39507360  0.19614061  0.61950490  1
  O  O27  1  0.10492640  0.69614061  0.38049510  1
  O  O28  1  0.10492640  0.19614061  0.11950490  1
  O  O29  1  0.39507360  0.69614061  0.88049510  1
  O  O30  1  0.60492640  0.80385939  0.38049510  1
  O  O31  1  0.89507360  0.30385939  0.61950490  1
  O  O32  1  0.91535328  0.64335694  0.01656759  1
  O  O33  1  0.58464672  0.14335694  0.98343241  1
  O  O34  1  0.41535328  0.35664306  0.48343241  1
  O  O35  1  0.08464672  0.85664306  0.51656759  1
  O  O36  1  0.08464672  0.35664306  0.98343241  1
  O  O37  1  0.41535328  0.85664306  0.01656759  1
  O  O38  1  0.58464672  0.64335694  0.51656759  1
  O  O39  1  0.91535328  0.14335694  0.48343241  1
  O  O40  1  0.08024801  0.62479452  0.88187560  1
  O  O41  1  0.41975199  0.12479452  0.11812440  1
  O  O42  1  0.58024801  0.37520548  0.61812440  1
  O  O43  1  0.91975199  0.87520548  0.38187560  1
  O  O44  1  0.91975199  0.37520548  0.11812440  1
  O  O45  1  0.58024801  0.87520548  0.88187560  1
  O  O46  1  0.41975199  0.62479452  0.38187560  1
  O  O47  1  0.08024801  0.12479452  0.61812440  1
  O  O48  1  0.09644592  0.82113258  0.99051625  1
  O  O49  1  0.40355408  0.32113258  0.00948375  1
  O  O50  1  0.59644592  0.17886742  0.50948375  1
  O  O51  1  0.90355408  0.67886742  0.49051625  1
  O  O52  1  0.90355408  0.17886742  0.00948375  1
  O  O53  1  0.59644592  0.67886742  0.99051625  1
  O  O54  1  0.40355408  0.82113258  0.49051625  1
  O  O55  1  0.09644592  0.32113258  0.50948375  1
  O  O56  1  0.77402740  0.92783700  0.05585957  1
  O  O57  1  0.72597260  0.42783700  0.94414043  1
  O  O58  1  0.27402740  0.07216300  0.44414043  1
  O  O59  1  0.22597260  0.57216300  0.55585957  1
  O  O60  1  0.22597260  0.07216300  0.94414043  1
  O  O61  1  0.27402740  0.57216300  0.05585957  1
  O  O62  1  0.72597260  0.92783700  0.55585957  1
  O  O63  1  0.77402740  0.42783700  0.44414043  1
  O  O64  1  0.74773464  0.99013723  0.22538490  1
  O  O65  1  0.75226536  0.49013723  0.77461510  1
  O  O66  1  0.24773464  0.00986277  0.27461510  1
  O  O67  1  0.25226536  0.50986277  0.72538490  1
  O  O68  1  0.25226536  0.00986277  0.77461510  1
  O  O69  1  0.24773464  0.50986277  0.22538490  1
  O  O70  1  0.75226536  0.99013723  0.72538490  1
  O  O71  1  0.74773464  0.49013723  0.27461510  1
  O  O72  1  0.78037557  0.75106500  0.17964470  1
  O  O73  1  0.71962443  0.25106500  0.82035530  1
  O  O74  1  0.28037557  0.24893500  0.32035530  1
  O  O75  1  0.21962443  0.74893500  0.67964470  1
  O  O76  1  0.21962443  0.24893500  0.82035530  1
  O  O77  1  0.28037557  0.74893500  0.17964470  1
  O  O78  1  0.71962443  0.75106500  0.67964470  1
  O  O79  1  0.78037557  0.25106500  0.32035530  1
  O  O80  1  0.98026594  0.91522264  0.16440044  1
  O  O81  1  0.51973406  0.41522264  0.83559956  1
  O  O82  1  0.48026594  0.08477736  0.33559956  1
  O  O83  1  0.01973406  0.58477736  0.66440044  1
  O  O84  1  0.01973406  0.08477736  0.83559956  1
  O  O85  1  0.48026594  0.58477736  0.16440044  1
  O  O86  1  0.51973406  0.91522264  0.66440044  1
  O  O87  1  0.98026594  0.41522264  0.33559956  1
