# generated using pymatgen
data_Cs3TaSe4
_symmetry_space_group_name_H-M   'P 1'
_cell_length_a   10.51648690
_cell_length_b   10.41223975
_cell_length_c   12.34000799
_cell_angle_alpha   90.00000000
_cell_angle_beta   90.00000000
_cell_angle_gamma   90.00000000
_symmetry_Int_Tables_number   1
_chemical_formula_structural   Cs3TaSe4
_chemical_formula_sum   'Cs12 Ta4 Se16'
_cell_volume   1351.23313227
_cell_formula_units_Z   4
loop_
 _symmetry_equiv_pos_site_id
 _symmetry_equiv_pos_as_xyz
  1  'x, y, z'
loop_
 _atom_site_type_symbol
 _atom_site_label
 _atom_site_symmetry_multiplicity
 _atom_site_fract_x
 _atom_site_fract_y
 _atom_site_fract_z
 _atom_site_occupancy
  Cs  Cs0  1  0.09108059  0.64568875  0.25000000  1
  Cs  Cs1  1  0.40891941  0.14568875  0.25000000  1
  Cs  Cs2  1  0.90891941  0.35431125  0.75000000  1
  Cs  Cs3  1  0.59108059  0.85431125  0.75000000  1
  Cs  Cs4  1  0.28996524  0.54426023  0.95651551  1
  Cs  Cs5  1  0.21003476  0.04426023  0.54348449  1
  Cs  Cs6  1  0.71003476  0.45573977  0.45651551  1
  Cs  Cs7  1  0.78996524  0.95573977  0.04348449  1
  Cs  Cs8  1  0.71003476  0.45573977  0.04348449  1
  Cs  Cs9  1  0.78996524  0.95573977  0.45651551  1
  Cs  Cs10  1  0.28996524  0.54426023  0.54348449  1
  Cs  Cs11  1  0.21003476  0.04426023  0.95651551  1
  Ta  Ta12  1  0.51848969  0.72127778  0.25000000  1
  Ta  Ta13  1  0.98151031  0.22127778  0.25000000  1
  Ta  Ta14  1  0.48151031  0.27872222  0.75000000  1
  Ta  Ta15  1  0.01848969  0.77872222  0.75000000  1
  Se  Se16  1  0.42831893  0.50704292  0.25000000  1
  Se  Se17  1  0.07168107  0.00704292  0.25000000  1
  Se  Se18  1  0.57168107  0.49295708  0.75000000  1
  Se  Se19  1  0.92831893  0.99295708  0.75000000  1
  Se  Se20  1  0.74732640  0.70565181  0.25000000  1
  Se  Se21  1  0.75267360  0.20565181  0.25000000  1
  Se  Se22  1  0.25267360  0.29434819  0.75000000  1
  Se  Se23  1  0.24732640  0.79434819  0.75000000  1
  Se  Se24  1  0.45189244  0.83203691  0.08752260  1
  Se  Se25  1  0.04810756  0.33203691  0.41247740  1
  Se  Se26  1  0.54810756  0.16796309  0.58752260  1
  Se  Se27  1  0.95189244  0.66796309  0.91247740  1
  Se  Se28  1  0.54810756  0.16796309  0.91247740  1
  Se  Se29  1  0.95189244  0.66796309  0.58752260  1
  Se  Se30  1  0.45189244  0.83203691  0.41247740  1
  Se  Se31  1  0.04810756  0.33203691  0.08752260  1
