# generated using pymatgen
data_K3Cd16
_symmetry_space_group_name_H-M   'P 1'
_cell_length_a   9.49295748
_cell_length_b   9.49295748
_cell_length_c   11.57259013
_cell_angle_alpha   90.00000000
_cell_angle_beta   90.00000000
_cell_angle_gamma   90.00000000
_symmetry_Int_Tables_number   1
_chemical_formula_structural   K3Cd16
_chemical_formula_sum   'K6 Cd32'
_cell_volume   1042.87832945
_cell_formula_units_Z   2
loop_
 _symmetry_equiv_pos_site_id
 _symmetry_equiv_pos_as_xyz
  1  'x, y, z'
loop_
 _atom_site_type_symbol
 _atom_site_label
 _atom_site_symmetry_multiplicity
 _atom_site_fract_x
 _atom_site_fract_y
 _atom_site_fract_z
 _atom_site_occupancy
  K  K0  1  0.75000000  0.75000000  0.75000000  1
  K  K1  1  0.25000000  0.25000000  0.25000000  1
  K  K2  1  0.75000000  0.75000000  0.41216727  1
  K  K3  1  0.75000000  0.75000000  0.08783273  1
  K  K4  1  0.25000000  0.25000000  0.58783273  1
  K  K5  1  0.25000000  0.25000000  0.91216727  1
  Cd  Cd6  1  0.40525782  0.60982540  0.93737056  1
  Cd  Cd7  1  0.09474218  0.89017460  0.93737056  1
  Cd  Cd8  1  0.09474218  0.60982540  0.56262944  1
  Cd  Cd9  1  0.40525782  0.89017460  0.56262944  1
  Cd  Cd10  1  0.59474218  0.39017460  0.06262944  1
  Cd  Cd11  1  0.90525782  0.10982540  0.06262944  1
  Cd  Cd12  1  0.90525782  0.39017460  0.43737056  1
  Cd  Cd13  1  0.59474218  0.10982540  0.43737056  1
  Cd  Cd14  1  0.60982540  0.40525782  0.56262944  1
  Cd  Cd15  1  0.89017460  0.09474218  0.56262944  1
  Cd  Cd16  1  0.60982540  0.09474218  0.93737056  1
  Cd  Cd17  1  0.89017460  0.40525782  0.93737056  1
  Cd  Cd18  1  0.39017460  0.59474218  0.43737056  1
  Cd  Cd19  1  0.10982540  0.90525782  0.43737056  1
  Cd  Cd20  1  0.39017460  0.90525782  0.06262944  1
  Cd  Cd21  1  0.10982540  0.59474218  0.06262944  1
  Cd  Cd22  1  0.89872954  0.10502543  0.81259421  1
  Cd  Cd23  1  0.60127046  0.39497457  0.81259421  1
  Cd  Cd24  1  0.60127046  0.10502543  0.68740579  1
  Cd  Cd25  1  0.89872954  0.39497457  0.68740579  1
  Cd  Cd26  1  0.10127046  0.89497457  0.18740579  1
  Cd  Cd27  1  0.39872954  0.60502543  0.18740579  1
  Cd  Cd28  1  0.39872954  0.89497457  0.31259421  1
  Cd  Cd29  1  0.10127046  0.60502543  0.31259421  1
  Cd  Cd30  1  0.10502543  0.89872954  0.68740579  1
  Cd  Cd31  1  0.39497457  0.60127046  0.68740579  1
  Cd  Cd32  1  0.10502543  0.60127046  0.81259421  1
  Cd  Cd33  1  0.39497457  0.89872954  0.81259421  1
  Cd  Cd34  1  0.89497457  0.10127046  0.31259421  1
  Cd  Cd35  1  0.60502543  0.39872954  0.31259421  1
  Cd  Cd36  1  0.89497457  0.39872954  0.18740579  1
  Cd  Cd37  1  0.60502543  0.10127046  0.18740579  1
