# generated using pymatgen
data_Hg2GeS6Cl2O21
_symmetry_space_group_name_H-M   'P 1'
_cell_length_a   11.71820055
_cell_length_b   12.52484837
_cell_length_c   13.47079449
_cell_angle_alpha   90.00000000
_cell_angle_beta   95.30457777
_cell_angle_gamma   90.00000000
_symmetry_Int_Tables_number   1
_chemical_formula_structural   Hg2GeS6Cl2O21
_chemical_formula_sum   'Hg8 Ge4 S24 Cl8 O84'
_cell_volume   1968.62353541
_cell_formula_units_Z   4
loop_
 _symmetry_equiv_pos_site_id
 _symmetry_equiv_pos_as_xyz
  1  'x, y, z'
loop_
 _atom_site_type_symbol
 _atom_site_label
 _atom_site_symmetry_multiplicity
 _atom_site_fract_x
 _atom_site_fract_y
 _atom_site_fract_z
 _atom_site_occupancy
  Hg  Hg0  1  0.20443023  0.64976429  0.36760868  1
  Hg  Hg1  1  0.70443023  0.85023571  0.86760868  1
  Hg  Hg2  1  0.79556977  0.35023571  0.63239132  1
  Hg  Hg3  1  0.29556977  0.14976429  0.13239132  1
  Hg  Hg4  1  0.09051455  0.91179628  0.21584007  1
  Hg  Hg5  1  0.59051455  0.58820372  0.71584007  1
  Hg  Hg6  1  0.90948545  0.08820372  0.78415993  1
  Hg  Hg7  1  0.40948545  0.41179628  0.28415993  1
  Ge  Ge8  1  0.84945923  0.44867444  0.13004877  1
  Ge  Ge9  1  0.34945923  0.05132556  0.63004877  1
  Ge  Ge10  1  0.15054077  0.55132556  0.86995123  1
  Ge  Ge11  1  0.65054077  0.94867444  0.36995123  1
  S  S12  1  0.61882993  0.57811801  0.13997294  1
  S  S13  1  0.11882993  0.92188199  0.63997294  1
  S  S14  1  0.38117007  0.42188199  0.86002706  1
  S  S15  1  0.88117007  0.07811801  0.36002706  1
  S  S16  1  0.07989791  0.34741825  0.23344308  1
  S  S17  1  0.57989791  0.15258175  0.73344308  1
  S  S18  1  0.92010209  0.65258175  0.76655692  1
  S  S19  1  0.42010209  0.84741825  0.26655692  1
  S  S20  1  0.82507641  0.69176790  0.10100083  1
  S  S21  1  0.32507641  0.80823210  0.60100083  1
  S  S22  1  0.17492359  0.30823210  0.89899917  1
  S  S23  1  0.67492359  0.19176790  0.39899917  1
  S  S24  1  0.92002054  0.43710707  0.35874537  1
  S  S25  1  0.42002054  0.06289293  0.85874537  1
  S  S26  1  0.07997946  0.56289293  0.64125463  1
  S  S27  1  0.57997946  0.93710707  0.14125463  1
  S  S28  1  0.77729094  0.39867037  0.90485048  1
  S  S29  1  0.27729094  0.10132963  0.40485048  1
  S  S30  1  0.22270906  0.60132963  0.09514952  1
  S  S31  1  0.72270906  0.89867037  0.59514952  1
  S  S32  1  0.79231662  0.22493617  0.04308559  1
  S  S33  1  0.29231662  0.27506383  0.54308559  1
  S  S34  1  0.20768338  0.77506383  0.95691441  1
  S  S35  1  0.70768338  0.72493617  0.45691441  1
  Cl  Cl36  1  0.04995468  0.78271558  0.34038326  1
  Cl  Cl37  1  0.54995468  0.71728442  0.84038326  1
  Cl  Cl38  1  0.95004532  0.21728442  0.65961674  1
  Cl  Cl39  1  0.45004532  0.28271558  0.15961674  1
  Cl  Cl40  1  0.36655729  0.53142406  0.41700191  1
  Cl  Cl41  1  0.86655729  0.96857594  0.91700191  1
  Cl  Cl42  1  0.63344271  0.46857594  0.58299809  1
  Cl  Cl43  1  0.13344271  0.03142406  0.08299809  1
  O  O44  1  0.71640053  0.67380351  0.16861532  1
  O  O45  1  0.21640053  0.82619649  0.66861532  1
  O  O46  1  0.28359947  0.32619649  0.83138468  1
  O  O47  1  0.78359947  0.17380351  0.33138468  1
  O  O48  1  0.57805260  0.55395711  0.23529794  1
  O  O49  1  0.07805260  0.94604289  0.73529794  1
  O  O50  1  0.42194740  0.44604289  0.76470206  1
  O  O51  1  0.92194740  0.05395711  0.26470206  1
  O  O52  1  0.01017724  0.41281347  0.15413122  1
  O  O53  1  0.51017724  0.08718653  0.65413122  1
  O  O54  1  0.98982276  0.58718653  0.84586878  1
  O  O55  1  0.48982276  0.91281347  0.34586878  1
  O  O56  1  0.99395367  0.33211327  0.32105422  1
  O  O57  1  0.49395367  0.16788673  0.82105422  1
  O  O58  1  0.00604633  0.66788673  0.67894578  1
  O  O59  1  0.50604633  0.83211327  0.17894578  1
  O  O60  1  0.89965041  0.59364915  0.12952368  1
  O  O61  1  0.39965041  0.90635085  0.62952368  1
  O  O62  1  0.10034959  0.40635085  0.87047632  1
  O  O63  1  0.60034959  0.09364915  0.37047632  1
  O  O64  1  0.54097831  0.61599102  0.06068843  1
  O  O65  1  0.04097831  0.88400898  0.56068843  1
  O  O66  1  0.45902169  0.38400898  0.93931157  1
  O  O67  1  0.95902169  0.11599102  0.43931157  1
  O  O68  1  0.87950081  0.78607752  0.14203794  1
  O  O69  1  0.37950081  0.71392248  0.64203794  1
  O  O70  1  0.12049919  0.21392248  0.85796206  1
  O  O71  1  0.62049919  0.28607752  0.35796206  1
  O  O72  1  0.78370800  0.69065484  0.99681647  1
  O  O73  1  0.28370800  0.80934516  0.49681647  1
  O  O74  1  0.21629200  0.30934516  0.00318353  1
  O  O75  1  0.71629200  0.19065484  0.50318353  1
  O  O76  1  0.69231384  0.48726276  0.10380641  1
  O  O77  1  0.19231384  0.01273724  0.60380641  1
  O  O78  1  0.30768616  0.51273724  0.89619359  1
  O  O79  1  0.80768616  0.98726276  0.39619359  1
  O  O80  1  0.17805844  0.40853282  0.27352485  1
  O  O81  1  0.67805844  0.09146718  0.77352485  1
  O  O82  1  0.82194156  0.59146718  0.72647515  1
  O  O83  1  0.32194156  0.90853282  0.22647515  1
  O  O84  1  0.10094413  0.23999782  0.20283723  1
  O  O85  1  0.60094413  0.26000218  0.70283723  1
  O  O86  1  0.89905587  0.76000218  0.79716277  1
  O  O87  1  0.39905587  0.73999782  0.29716277  1
  O  O88  1  0.86315446  0.44042388  0.98797995  1
  O  O89  1  0.36315446  0.05957612  0.48797995  1
  O  O90  1  0.13684554  0.55957612  0.01202005  1
  O  O91  1  0.63684554  0.94042388  0.51202005  1
  O  O92  1  0.80531555  0.30232052  0.13202266  1
  O  O93  1  0.30531555  0.19767948  0.63202266  1
  O  O94  1  0.19468445  0.69767948  0.86797734  1
  O  O95  1  0.69468445  0.80232052  0.36797734  1
  O  O96  1  0.83125091  0.45294888  0.26968303  1
  O  O97  1  0.33125091  0.04705112  0.76968303  1
  O  O98  1  0.16874909  0.54705112  0.73031697  1
  O  O99  1  0.66874909  0.95294888  0.23031697  1
  O  O100  1  0.86502282  0.39389984  0.44012311  1
  O  O101  1  0.36502282  0.10610016  0.94012311  1
  O  O102  1  0.13497718  0.60610016  0.55987689  1
  O  O103  1  0.63497718  0.89389984  0.05987689  1
  O  O104  1  0.99858155  0.52434658  0.37343583  1
  O  O105  1  0.49858155  0.97565342  0.87343583  1
  O  O106  1  0.00141845  0.47565342  0.62656417  1
  O  O107  1  0.50141845  0.02434658  0.12656417  1
  O  O108  1  0.71479234  0.30003292  0.95774208  1
  O  O109  1  0.21479234  0.19996708  0.45774208  1
  O  O110  1  0.28520766  0.69996708  0.04225792  1
  O  O111  1  0.78520766  0.80003292  0.54225792  1
  O  O112  1  0.83986389  0.35398142  0.82681900  1
  O  O113  1  0.33986389  0.14601858  0.32681900  1
  O  O114  1  0.16013611  0.64601858  0.17318100  1
  O  O115  1  0.66013611  0.85398142  0.67318100  1
  O  O116  1  0.89953838  0.20221014  0.00373487  1
  O  O117  1  0.39953838  0.29778986  0.50373487  1
  O  O118  1  0.10046162  0.79778986  0.99626513  1
  O  O119  1  0.60046162  0.70221014  0.49626513  1
  O  O120  1  0.68642500  0.47188101  0.87560554  1
  O  O121  1  0.18642500  0.02811899  0.37560554  1
  O  O122  1  0.31357500  0.52811899  0.12439446  1
  O  O123  1  0.81357500  0.97188101  0.62439446  1
  O  O124  1  0.71486540  0.14194247  0.06292890  1
  O  O125  1  0.21486540  0.35805753  0.56292890  1
  O  O126  1  0.28513460  0.85805753  0.93707110  1
  O  O127  1  0.78513460  0.64194247  0.43707110  1
