# generated using pymatgen
data_MgHAu2F11
_symmetry_space_group_name_H-M   'P 1'
_cell_length_a   5.45901969
_cell_length_b   10.55088553
_cell_length_c   16.01892442
_cell_angle_alpha   90.00000000
_cell_angle_beta   90.00000000
_cell_angle_gamma   90.55954104
_symmetry_Int_Tables_number   1
_chemical_formula_structural   MgHAu2F11
_chemical_formula_sum   'Mg4 H4 Au8 F44'
_cell_volume   922.60587149
_cell_formula_units_Z   4
loop_
 _symmetry_equiv_pos_site_id
 _symmetry_equiv_pos_as_xyz
  1  'x, y, z'
loop_
 _atom_site_type_symbol
 _atom_site_label
 _atom_site_symmetry_multiplicity
 _atom_site_fract_x
 _atom_site_fract_y
 _atom_site_fract_z
 _atom_site_occupancy
  Mg  Mg0  1  0.04699095  0.11466020  0.26628103  1
  Mg  Mg1  1  0.95300905  0.38533980  0.76628103  1
  Mg  Mg2  1  0.95300905  0.88533980  0.73371897  1
  Mg  Mg3  1  0.04699095  0.61466020  0.23371897  1
  H  H4  1  0.99109089  0.07882486  0.09111898  1
  H  H5  1  0.00890911  0.42117514  0.59111898  1
  H  H6  1  0.00890911  0.92117514  0.90888102  1
  H  H7  1  0.99109089  0.57882486  0.40888102  1
  Au  Au8  1  0.54582832  0.86405307  0.27902868  1
  Au  Au9  1  0.45417168  0.63594693  0.77902868  1
  Au  Au10  1  0.45417168  0.13594693  0.72097132  1
  Au  Au11  1  0.54582832  0.36405307  0.22097132  1
  Au  Au12  1  0.28763091  0.24525305  0.47405751  1
  Au  Au13  1  0.71236909  0.25474695  0.97405751  1
  Au  Au14  1  0.71236909  0.75474695  0.52594249  1
  Au  Au15  1  0.28763091  0.74525305  0.02594249  1
  F  F16  1  0.00872578  0.04626717  0.14930807  1
  F  F17  1  0.99127422  0.45373283  0.64930807  1
  F  F18  1  0.99127422  0.95373283  0.85069193  1
  F  F19  1  0.00872578  0.54626717  0.35069193  1
  F  F20  1  0.73554605  0.02142513  0.29356574  1
  F  F21  1  0.26445395  0.47857487  0.79356574  1
  F  F22  1  0.26445395  0.97857487  0.70643426  1
  F  F23  1  0.73554605  0.52142513  0.20643426  1
  F  F24  1  0.24280567  0.95955997  0.29654503  1
  F  F25  1  0.75719433  0.54044003  0.79654503  1
  F  F26  1  0.75719433  0.04044003  0.70345497  1
  F  F27  1  0.24280567  0.45955997  0.20345497  1
  F  F28  1  0.35509782  0.70562718  0.26750825  1
  F  F29  1  0.64490218  0.79437282  0.76750825  1
  F  F30  1  0.64490218  0.29437282  0.73249175  1
  F  F31  1  0.35509782  0.20562718  0.23249175  1
  F  F32  1  0.85058047  0.76971274  0.26218231  1
  F  F33  1  0.14941953  0.73028726  0.76218231  1
  F  F34  1  0.14941953  0.23028726  0.73781769  1
  F  F35  1  0.85058047  0.26971274  0.23781769  1
  F  F36  1  0.06757136  0.17962937  0.38468022  1
  F  F37  1  0.93242864  0.32037063  0.88468022  1
  F  F38  1  0.93242864  0.82037063  0.61531978  1
  F  F39  1  0.06757136  0.67962937  0.11531978  1
  F  F40  1  0.52847011  0.12115972  0.44378962  1
  F  F41  1  0.47152989  0.37884028  0.94378962  1
  F  F42  1  0.47152989  0.87884028  0.55621038  1
  F  F43  1  0.52847011  0.62115972  0.05621038  1
  F  F44  1  0.43563474  0.36213410  0.39351538  1
  F  F45  1  0.56436526  0.13786590  0.89351538  1
  F  F46  1  0.56436526  0.63786590  0.60648462  1
  F  F47  1  0.43563474  0.86213410  0.10648462  1
  F  F48  1  0.49619783  0.30825272  0.56150405  1
  F  F49  1  0.50380217  0.19174728  0.06150405  1
  F  F50  1  0.50380217  0.69174728  0.43849595  1
  F  F51  1  0.49619783  0.80825272  0.93849595  1
  F  F52  1  0.03968085  0.37339319  0.50588230  1
  F  F53  1  0.96031915  0.12660681  0.00588230  1
  F  F54  1  0.96031915  0.62660681  0.49411770  1
  F  F55  1  0.03968085  0.87339319  0.99411770  1
  F  F56  1  0.14278315  0.12908347  0.55495668  1
  F  F57  1  0.85721685  0.37091653  0.05495668  1
  F  F58  1  0.85721685  0.87091653  0.44504332  1
  F  F59  1  0.14278315  0.62908347  0.94504332  1
