# generated using pymatgen
data_Sc2Si4W3
_symmetry_space_group_name_H-M   'P 1'
_cell_length_a   6.58031626
_cell_length_b   6.78902598
_cell_length_c   12.66228200
_cell_angle_alpha   90.00000000
_cell_angle_beta   90.00000000
_cell_angle_gamma   90.00000000
_symmetry_Int_Tables_number   1
_chemical_formula_structural   Sc2Si4W3
_chemical_formula_sum   'Sc8 Si16 W12'
_cell_volume   565.67400159
_cell_formula_units_Z   4
loop_
 _symmetry_equiv_pos_site_id
 _symmetry_equiv_pos_as_xyz
  1  'x, y, z'
loop_
 _atom_site_type_symbol
 _atom_site_label
 _atom_site_symmetry_multiplicity
 _atom_site_fract_x
 _atom_site_fract_y
 _atom_site_fract_z
 _atom_site_occupancy
  Sc  Sc0  1  0.50689094  0.33046961  0.90758144  1
  Sc  Sc1  1  0.00689094  0.16953039  0.59241856  1
  Sc  Sc2  1  0.49310906  0.66953039  0.40758144  1
  Sc  Sc3  1  0.99310906  0.83046961  0.09241856  1
  Sc  Sc4  1  0.49310906  0.66953039  0.09241856  1
  Sc  Sc5  1  0.99310906  0.83046961  0.40758144  1
  Sc  Sc6  1  0.50689094  0.33046961  0.59241856  1
  Sc  Sc7  1  0.00689094  0.16953039  0.90758144  1
  Si  Si8  1  0.33183045  0.03728609  0.04437462  1
  Si  Si9  1  0.83183045  0.46271391  0.45562538  1
  Si  Si10  1  0.66816955  0.96271391  0.54437462  1
  Si  Si11  1  0.16816955  0.53728609  0.95562538  1
  Si  Si12  1  0.66816955  0.96271391  0.95562538  1
  Si  Si13  1  0.16816955  0.53728609  0.54437462  1
  Si  Si14  1  0.33183045  0.03728609  0.45562538  1
  Si  Si15  1  0.83183045  0.46271391  0.04437462  1
  Si  Si16  1  0.53627244  0.61846480  0.75000000  1
  Si  Si17  1  0.03627244  0.88153520  0.75000000  1
  Si  Si18  1  0.46372756  0.38153520  0.25000000  1
  Si  Si19  1  0.96372756  0.11846480  0.25000000  1
  Si  Si20  1  0.30266329  0.14294593  0.75000000  1
  Si  Si21  1  0.80266329  0.35705407  0.75000000  1
  Si  Si22  1  0.69733671  0.85705407  0.25000000  1
  Si  Si23  1  0.19733671  0.64294593  0.25000000  1
  W  W24  1  0.33276072  0.83557126  0.87542636  1
  W  W25  1  0.83276072  0.66442874  0.62457364  1
  W  W26  1  0.66723928  0.16442874  0.37542636  1
  W  W27  1  0.16723928  0.33557126  0.12457364  1
  W  W28  1  0.66723928  0.16442874  0.12457364  1
  W  W29  1  0.16723928  0.33557126  0.37542636  1
  W  W30  1  0.33276072  0.83557126  0.62457364  1
  W  W31  1  0.83276072  0.66442874  0.87542636  1
  W  W32  1  0.16711681  0.49645852  0.75000000  1
  W  W33  1  0.66711681  0.00354148  0.75000000  1
  W  W34  1  0.83288319  0.50354148  0.25000000  1
  W  W35  1  0.33288319  0.99645852  0.25000000  1
