# generated using pymatgen
data_Li9Mn2Co5O16
_symmetry_space_group_name_H-M   'P 1'
_cell_length_a   2.88893836
_cell_length_b   13.06870517
_cell_length_c   7.79429957
_cell_angle_alpha   87.56117674
_cell_angle_beta   79.31999034
_cell_angle_gamma   89.99999852
_symmetry_Int_Tables_number   1
_chemical_formula_structural   Li9Mn2Co5O16
_chemical_formula_sum   'Li9 Mn2 Co5 O16'
_cell_volume   288.90255872
_cell_formula_units_Z   1
loop_
 _symmetry_equiv_pos_site_id
 _symmetry_equiv_pos_as_xyz
  1  'x, y, z'
loop_
 _atom_site_type_symbol
 _atom_site_label
 _atom_site_symmetry_multiplicity
 _atom_site_fract_x
 _atom_site_fract_y
 _atom_site_fract_z
 _atom_site_occupancy
  Li  Li0  1  0.56251801  0.19596349  0.87496398  1
  Li  Li1  1  0.68846224  0.55861863  0.62307552  1
  Li  Li2  1  0.80753116  0.93871732  0.38493769  1
  Li  Li3  1  0.93578148  0.32812901  0.12843703  1
  Li  Li4  1  0.05979307  0.66693160  0.88041387  1
  Li  Li5  1  0.18961753  0.07055982  0.62076493  1
  Li  Li6  1  0.31362169  0.43532201  0.37275661  1
  Li  Li7  1  0.44194337  0.80572568  0.11611327  1
  Li  Li8  1  0.50054417  0.49908582  0.99891167  1
  Mn  Mn9  1  0.99964105  0.00022898  0.00071790  1
  Mn  Mn10  1  0.25275796  0.74911084  0.49448408  1
  Co  Co11  1  0.11910622  0.38863415  0.76178755  1
  Co  Co12  1  0.37208001  0.12849540  0.25583997  1
  Co  Co13  1  0.62485241  0.87255737  0.75029519  1
  Co  Co14  1  0.74669475  0.25144388  0.50661051  1
  Co  Co15  1  0.88422499  0.61042819  0.23155003  1
  O  O16  1  0.58381537  0.02579565  0.83236925  1
  O  O17  1  0.71025123  0.39818249  0.57949754  1
  O  O18  1  0.83410774  0.77934554  0.33178453  1
  O  O19  1  0.96680072  0.14213270  0.06639855  1
  O  O20  1  0.09795128  0.52349479  0.80409744  1
  O  O21  1  0.21829298  0.89335396  0.56341403  1
  O  O22  1  0.33968853  0.27634200  0.32062293  1
  O  O23  1  0.46461093  0.65691640  0.07077815  1
  O  O24  1  0.53922516  0.34643919  0.92154968  1
  O  O25  1  0.66761292  0.72285731  0.66477415  1
  O  O26  1  0.78339787  0.09595854  0.43320426  1
  O  O27  1  0.90076869  0.47623540  0.19846262  1
  O  O28  1  0.03076751  0.85778687  0.93846498  1
  O  O29  1  0.16059506  0.22104669  0.67880988  1
  O  O30  1  0.28660898  0.61029155  0.42678204  1
  O  O31  1  0.41633493  0.97386873  0.16733015  1
