# generated using pymatgen
data_Li5La5(SiN3)4
_symmetry_space_group_name_H-M   'P 1'
_cell_length_a   5.60835771
_cell_length_b   11.06710804
_cell_length_c   11.06710804
_cell_angle_alpha   90.00000000
_cell_angle_beta   90.00000000
_cell_angle_gamma   90.00000000
_symmetry_Int_Tables_number   1
_chemical_formula_structural   Li5La5(SiN3)4
_chemical_formula_sum   'Li10 La10 Si8 N24'
_cell_volume   686.91658975
_cell_formula_units_Z   2
loop_
 _symmetry_equiv_pos_site_id
 _symmetry_equiv_pos_as_xyz
  1  'x, y, z'
loop_
 _atom_site_type_symbol
 _atom_site_label
 _atom_site_symmetry_multiplicity
 _atom_site_fract_x
 _atom_site_fract_y
 _atom_site_fract_z
 _atom_site_occupancy
  Li  Li0  1  0.85313649  0.28919605  0.11711471  1
  Li  Li1  1  0.85313649  0.21080395  0.61711471  1
  Li  Li2  1  0.85313649  0.71080395  0.88288529  1
  Li  Li3  1  0.85313649  0.78919605  0.38288529  1
  Li  Li4  1  0.14686351  0.88288529  0.28919605  1
  Li  Li5  1  0.14686351  0.61711471  0.78919605  1
  Li  Li6  1  0.14686351  0.11711471  0.71080395  1
  Li  Li7  1  0.14686351  0.38288529  0.21080395  1
  Li  Li8  1  0.00000000  0.50000000  0.00000000  1
  Li  Li9  1  0.00000000  0.00000000  0.50000000  1
  La  La10  1  0.73302026  0.37648048  0.38323572  1
  La  La11  1  0.73302026  0.12351952  0.88323572  1
  La  La12  1  0.73302026  0.62351952  0.61676428  1
  La  La13  1  0.73302026  0.87648048  0.11676428  1
  La  La14  1  0.26697974  0.61676428  0.37648048  1
  La  La15  1  0.26697974  0.88323572  0.87648048  1
  La  La16  1  0.26697974  0.38323572  0.62351952  1
  La  La17  1  0.26697974  0.11676428  0.12351952  1
  La  La18  1  0.50000000  0.50000000  -0.00000000  1
  La  La19  1  0.50000000  0.00000000  0.50000000  1
  Si  Si20  1  0.76178940  0.60777591  0.23122521  1
  Si  Si21  1  0.76178940  0.89222409  0.73122521  1
  Si  Si22  1  0.76178940  0.39222409  0.76877479  1
  Si  Si23  1  0.76178940  0.10777591  0.26877479  1
  Si  Si24  1  0.23821060  0.76877479  0.60777591  1
  Si  Si25  1  0.23821060  0.73122521  0.10777591  1
  Si  Si26  1  0.23821060  0.23122521  0.39222409  1
  Si  Si27  1  0.23821060  0.26877479  0.89222409  1
  N  N28  1  0.79801650  0.46591504  0.16762945  1
  N  N29  1  0.79801650  0.03408496  0.66762945  1
  N  N30  1  0.79801650  0.53408496  0.83237055  1
  N  N31  1  0.79801650  0.96591504  0.33237055  1
  N  N32  1  0.20198350  0.83237055  0.46591504  1
  N  N33  1  0.20198350  0.66762945  0.96591504  1
  N  N34  1  0.20198350  0.16762945  0.53408496  1
  N  N35  1  0.20198350  0.33237055  0.03408496  1
  N  N36  1  0.73669034  0.60416134  0.39094229  1
  N  N37  1  0.73669034  0.89583866  0.89094229  1
  N  N38  1  0.73669034  0.39583866  0.60905771  1
  N  N39  1  0.73669034  0.10416134  0.10905771  1
  N  N40  1  0.26330966  0.60905771  0.60416134  1
  N  N41  1  0.26330966  0.89094229  0.10416134  1
  N  N42  1  0.26330966  0.39094229  0.39583866  1
  N  N43  1  0.26330966  0.10905771  0.89583866  1
  N  N44  1  0.00000000  0.20957156  0.29042844  1
  N  N45  1  0.00000000  0.29042844  0.79042844  1
  N  N46  1  0.00000000  0.79042844  0.70957156  1
  N  N47  1  0.00000000  0.70957156  0.20957156  1
  N  N48  1  0.50000000  0.67226999  0.17226999  1
  N  N49  1  0.50000000  0.82773001  0.67226999  1
  N  N50  1  0.50000000  0.32773001  0.82773001  1
  N  N51  1  0.50000000  0.17226999  0.32773001  1
