# generated using pymatgen
data_Cs4Ge5(PbS4)4
_symmetry_space_group_name_H-M   'P 1'
_cell_length_a   9.43244590
_cell_length_b   19.97744186
_cell_length_c   20.01857068
_cell_angle_alpha   90.00000000
_cell_angle_beta   103.62654554
_cell_angle_gamma   90.00000000
_symmetry_Int_Tables_number   1
_chemical_formula_structural   Cs4Ge5(PbS4)4
_chemical_formula_sum   'Cs16 Ge20 Pb16 S64'
_cell_volume   3666.04149295
_cell_formula_units_Z   4
loop_
 _symmetry_equiv_pos_site_id
 _symmetry_equiv_pos_as_xyz
  1  'x, y, z'
loop_
 _atom_site_type_symbol
 _atom_site_label
 _atom_site_symmetry_multiplicity
 _atom_site_fract_x
 _atom_site_fract_y
 _atom_site_fract_z
 _atom_site_occupancy
  Cs  Cs0  1  0.52034105  0.44384835  0.61445020  1
  Cs  Cs1  1  0.09410914  0.55615165  0.61445020  1
  Cs  Cs2  1  0.59410914  0.94384835  0.61445020  1
  Cs  Cs3  1  0.02034105  0.05615165  0.61445020  1
  Cs  Cs4  1  0.47965895  0.55615165  0.38554980  1
  Cs  Cs5  1  0.90589086  0.44384835  0.38554980  1
  Cs  Cs6  1  0.40589086  0.05615165  0.38554980  1
  Cs  Cs7  1  0.97965895  0.94384835  0.38554980  1
  Cs  Cs8  1  0.68047590  0.29279772  0.79764971  1
  Cs  Cs9  1  0.11717381  0.70720228  0.79764971  1
  Cs  Cs10  1  0.61717381  0.79279772  0.79764971  1
  Cs  Cs11  1  0.18047590  0.20720228  0.79764971  1
  Cs  Cs12  1  0.31952410  0.70720228  0.20235029  1
  Cs  Cs13  1  0.88282619  0.29279772  0.20235029  1
  Cs  Cs14  1  0.38282619  0.20720228  0.20235029  1
  Cs  Cs15  1  0.81952410  0.79279772  0.20235029  1
  Ge  Ge16  1  0.53266811  0.65318327  0.62725153  1
  Ge  Ge17  1  0.09458342  0.34681673  0.62725153  1
  Ge  Ge18  1  0.59458342  0.15318327  0.62725153  1
  Ge  Ge19  1  0.03266811  0.84681673  0.62725153  1
  Ge  Ge20  1  0.46733189  0.34681673  0.37274847  1
  Ge  Ge21  1  0.90541658  0.65318327  0.37274847  1
  Ge  Ge22  1  0.40541658  0.84681673  0.37274847  1
  Ge  Ge23  1  0.96733189  0.15318327  0.37274847  1
  Ge  Ge24  1  0.64322149  0.36816532  0.00000000  1
  Ge  Ge25  1  0.35677851  0.63183468  1.00000000  1
  Ge  Ge26  1  0.85677851  0.86816532  1.00000000  1
  Ge  Ge27  1  0.14322149  0.13183468  0.00000000  1
  Ge  Ge28  1  0.68517204  0.58664825  0.76805305  1
  Ge  Ge29  1  0.08288101  0.41335175  0.76805305  1
  Ge  Ge30  1  0.58288101  0.08664825  0.76805305  1
  Ge  Ge31  1  0.18517204  0.91335175  0.76805305  1
  Ge  Ge32  1  0.31482796  0.41335175  0.23194695  1
  Ge  Ge33  1  0.91711899  0.58664825  0.23194695  1
  Ge  Ge34  1  0.41711899  0.91335175  0.23194695  1
  Ge  Ge35  1  0.81482796  0.08664825  0.23194695  1
  Pb  Pb36  1  0.77121342  0.17234820  1.00000000  1
  Pb  Pb37  1  0.22878658  0.82765180  0.00000000  1
  Pb  Pb38  1  0.72878658  0.67234820  0.00000000  1
  Pb  Pb39  1  0.27121342  0.32765180  1.00000000  1
  Pb  Pb40  1  0.30333933  0.75000000  0.50000000  1
  Pb  Pb41  1  0.19666067  0.25000000  0.50000000  1
  Pb  Pb42  1  0.69666067  0.25000000  0.50000000  1
  Pb  Pb43  1  0.80333933  0.75000000  0.50000000  1
  Pb  Pb44  1  0.44404231  0.50000000  0.88808461  1
  Pb  Pb45  1  0.94404231  0.00000000  0.88808461  1
  Pb  Pb46  1  0.55595769  0.50000000  0.11191539  1
  Pb  Pb47  1  0.05595769  0.00000000  0.11191539  1
  Pb  Pb48  1  0.94586361  0.50000000  0.89172722  1
  Pb  Pb49  1  0.44586361  0.00000000  0.89172722  1
  Pb  Pb50  1  0.05413639  0.50000000  0.10827278  1
  Pb  Pb51  1  0.55413639  0.00000000  0.10827278  1
  S  S52  1  0.70070163  0.47910161  0.00000000  1
  S  S53  1  0.29929837  0.52089839  1.00000000  1
  S  S54  1  0.79929837  0.97910161  1.00000000  1
  S  S55  1  0.20070163  0.02089839  0.00000000  1
  S  S56  1  0.68020018  0.47941762  0.79572507  1
  S  S57  1  0.11552489  0.52058238  0.79572507  1
  S  S58  1  0.61552489  0.97941762  0.79572507  1
  S  S59  1  0.18020018  0.02058238  0.79572507  1
  S  S60  1  0.31979982  0.52058238  0.20427493  1
  S  S61  1  0.88447511  0.47941762  0.20427493  1
  S  S62  1  0.38447511  0.02058238  0.20427493  1
  S  S63  1  0.81979982  0.97941762  0.20427493  1
  S  S64  1  0.26891700  0.36911034  0.72692317  1
  S  S65  1  0.45800617  0.63088966  0.72692317  1
  S  S66  1  0.95800617  0.86911034  0.72692317  1
  S  S67  1  0.76891700  0.13088966  0.72692317  1
  S  S68  1  0.73108300  0.63088966  0.27307683  1
  S  S69  1  0.54199383  0.36911034  0.27307683  1
  S  S70  1  0.04199383  0.13088966  0.27307683  1
  S  S71  1  0.23108300  0.86911034  0.27307683  1
  S  S72  1  0.38597943  0.60673803  0.53890240  1
  S  S73  1  0.15292298  0.39326197  0.53890240  1
  S  S74  1  0.65292298  0.10673803  0.53890240  1
  S  S75  1  0.88597943  0.89326197  0.53890240  1
  S  S76  1  0.61402057  0.39326197  0.46109760  1
  S  S77  1  0.84707702  0.60673803  0.46109760  1
  S  S78  1  0.34707702  0.89326197  0.46109760  1
  S  S79  1  0.11402057  0.10673803  0.46109760  1
  S  S80  1  0.75255152  0.60123691  0.66665954  1
  S  S81  1  0.91410802  0.39876309  0.66665954  1
  S  S82  1  0.41410802  0.10123691  0.66665954  1
  S  S83  1  0.25255152  0.89876309  0.66665954  1
  S  S84  1  0.24744848  0.39876309  0.33334046  1
  S  S85  1  0.08589198  0.60123691  0.33334046  1
  S  S86  1  0.58589198  0.89876309  0.33334046  1
  S  S87  1  0.74744848  0.10123691  0.33334046  1
  S  S88  1  0.82491351  0.63858730  0.85538800  1
  S  S89  1  0.03047449  0.36141270  0.85538800  1
  S  S90  1  0.53047449  0.13858730  0.85538800  1
  S  S91  1  0.32491351  0.86141270  0.85538800  1
  S  S92  1  0.17508649  0.36141270  0.14461200  1
  S  S93  1  0.96952551  0.63858730  0.14461200  1
  S  S94  1  0.46952551  0.86141270  0.14461200  1
  S  S95  1  0.67508649  0.13858730  0.14461200  1
  S  S96  1  0.44939693  0.73966531  0.39225994  1
  S  S97  1  0.94286301  0.26033469  0.39225994  1
  S  S98  1  0.44286301  0.23966531  0.39225994  1
  S  S99  1  0.94939693  0.76033469  0.39225994  1
  S  S100  1  0.55060307  0.26033469  0.60774006  1
  S  S101  1  0.05713699  0.73966531  0.60774006  1
  S  S102  1  0.55713699  0.76033469  0.60774006  1
  S  S103  1  0.05060307  0.23966531  0.60774006  1
  S  S104  1  0.04528547  0.14810369  0.09033931  1
  S  S105  1  0.04505384  0.85189631  0.09033931  1
  S  S106  1  0.54505384  0.64810369  0.09033931  1
  S  S107  1  0.54528547  0.35189631  0.09033931  1
  S  S108  1  0.95471453  0.85189631  0.90966069  1
  S  S109  1  0.95494616  0.14810369  0.90966069  1
  S  S110  1  0.45494616  0.35189631  0.90966069  1
  S  S111  1  0.45471453  0.64810369  0.90966069  1
  S  S112  1  0.84133230  0.30931105  0.00000000  1
  S  S113  1  0.15866770  0.69068895  1.00000000  1
  S  S114  1  0.65866770  0.80931105  1.00000000  1
  S  S115  1  0.34133230  0.19068895  0.00000000  1
