# generated using pymatgen
data_Nb8S8O45
_symmetry_space_group_name_H-M   'P 1'
_cell_length_a   10.59482974
_cell_length_b   10.59482973
_cell_length_c   10.86482587
_cell_angle_alpha   60.81869835
_cell_angle_beta   60.81869834
_cell_angle_gamma   60.00000068
_symmetry_Int_Tables_number   1
_chemical_formula_structural   Nb8S8O45
_chemical_formula_sum   'Nb8 S8 O45'
_cell_volume   872.89209413
_cell_formula_units_Z   1
loop_
 _symmetry_equiv_pos_site_id
 _symmetry_equiv_pos_as_xyz
  1  'x, y, z'
loop_
 _atom_site_type_symbol
 _atom_site_label
 _atom_site_symmetry_multiplicity
 _atom_site_fract_x
 _atom_site_fract_y
 _atom_site_fract_z
 _atom_site_occupancy
  Nb  Nb0  1  0.42192975  0.87921378  0.37542798  1
  Nb  Nb1  1  0.87921378  0.32342848  0.37542798  1
  Nb  Nb2  1  0.32342848  0.42192975  0.37542798  1
  Nb  Nb3  1  0.57807025  0.12078622  0.62457202  1
  Nb  Nb4  1  0.12078622  0.67657152  0.62457202  1
  Nb  Nb5  1  0.67657152  0.57807025  0.62457202  1
  Nb  Nb6  1  0.37591208  0.37591208  0.87226375  1
  Nb  Nb7  1  0.62408792  0.62408792  0.12773625  1
  S  S8  1  0.18117466  0.11799842  0.14776096  1
  S  S9  1  0.11799842  0.55306597  0.14776096  1
  S  S10  1  0.55306597  0.18117466  0.14776096  1
  S  S11  1  0.81882534  0.88200158  0.85223904  1
  S  S12  1  0.88200158  0.44693403  0.85223904  1
  S  S13  1  0.44693403  0.81882534  0.85223904  1
  S  S14  1  0.14678892  0.14678892  0.55963325  1
  S  S15  1  0.85321108  0.85321108  0.44036675  1
  O  O16  1  0.54814524  0.74358916  0.49668260  1
  O  O17  1  0.74358916  0.21158301  0.49668260  1
  O  O18  1  0.21158301  0.54814524  0.49668260  1
  O  O19  1  0.45185476  0.25641084  0.50331740  1
  O  O20  1  0.25641084  0.78841699  0.50331740  1
  O  O21  1  0.78841699  0.45185476  0.50331740  1
  O  O22  1  0.48353885  0.23703302  0.75787431  1
  O  O23  1  0.23703302  0.52155382  0.75787431  1
  O  O24  1  0.52155382  0.48353885  0.75787431  1
  O  O25  1  0.51646115  0.76296698  0.24212569  1
  O  O26  1  0.76296698  0.47844618  0.24212569  1
  O  O27  1  0.47844618  0.51646115  0.24212569  1
  O  O28  1  0.03471507  0.16972540  0.49613831  1
  O  O29  1  0.16972540  0.29942122  0.49613831  1
  O  O30  1  0.29942122  0.03471507  0.49613831  1
  O  O31  1  0.96528493  0.83027460  0.50386169  1
  O  O32  1  0.83027460  0.70057878  0.50386169  1
  O  O33  1  0.70057878  0.96528493  0.50386169  1
  O  O34  1  0.27680316  0.05570540  0.24409993  1
  O  O35  1  0.05570540  0.42339152  0.24409993  1
  O  O36  1  0.42339152  0.27680316  0.24409993  1
  O  O37  1  0.72319684  0.94429460  0.75590007  1
  O  O38  1  0.94429460  0.57660848  0.75590007  1
  O  O39  1  0.57660848  0.72319684  0.75590007  1
  O  O40  1  0.22500930  0.25243590  0.01964159  1
  O  O41  1  0.25243590  0.50291321  0.01964159  1
  O  O42  1  0.50291321  0.22500930  0.01964159  1
  O  O43  1  0.77499070  0.74756410  0.98035841  1
  O  O44  1  0.74756410  0.49708679  0.98035841  1
  O  O45  1  0.49708679  0.77499070  0.98035841  1
  O  O46  1  0.80448926  0.99422035  0.89869586  1
  O  O47  1  0.99422035  0.30259453  0.89869586  1
  O  O48  1  0.30259453  0.80448926  0.89869586  1
  O  O49  1  0.19551074  0.00577965  0.10130414  1
  O  O50  1  0.00577965  0.69740547  0.10130414  1
  O  O51  1  0.69740547  0.19551074  0.10130414  1
  O  O52  1  0.01592413  0.18825793  0.23826700  1
  O  O53  1  0.18825793  0.55755095  0.23826700  1
  O  O54  1  0.55755095  0.01592413  0.23826700  1
  O  O55  1  0.98407587  0.81174207  0.76173300  1
  O  O56  1  0.81174207  0.44244905  0.76173300  1
  O  O57  1  0.44244905  0.98407587  0.76173300  1
  O  O58  1  0.09414721  0.09414721  0.71755837  1
  O  O59  1  0.90585279  0.90585279  0.28244163  1
  O  O60  1  -0.00000000  0.00000000  -0.00000000  1
