# generated using pymatgen
data_Hg3Pd8Se9
_symmetry_space_group_name_H-M   'P 1'
_cell_length_a   6.57388700
_cell_length_b   7.38179950
_cell_length_c   17.09448842
_cell_angle_alpha   90.00000000
_cell_angle_beta   90.00000000
_cell_angle_gamma   90.00000000
_symmetry_Int_Tables_number   1
_chemical_formula_structural   Hg3Pd8Se9
_chemical_formula_sum   'Hg6 Pd16 Se18'
_cell_volume   829.54621858
_cell_formula_units_Z   2
loop_
 _symmetry_equiv_pos_site_id
 _symmetry_equiv_pos_as_xyz
  1  'x, y, z'
loop_
 _atom_site_type_symbol
 _atom_site_label
 _atom_site_symmetry_multiplicity
 _atom_site_fract_x
 _atom_site_fract_y
 _atom_site_fract_z
 _atom_site_occupancy
  Hg  Hg0  1  0.12073850  0.75000000  0.54465292  1
  Hg  Hg1  1  0.12073850  0.75000000  0.95534708  1
  Hg  Hg2  1  0.87926150  0.25000000  0.45534708  1
  Hg  Hg3  1  0.87926150  0.25000000  0.04465292  1
  Hg  Hg4  1  0.29382350  0.75000000  0.25000000  1
  Hg  Hg5  1  0.70617650  0.25000000  0.75000000  1
  Pd  Pd6  1  0.53375772  0.75000000  0.01398580  1
  Pd  Pd7  1  0.53375772  0.75000000  0.48601420  1
  Pd  Pd8  1  0.46624228  0.25000000  0.98601420  1
  Pd  Pd9  1  0.46624228  0.25000000  0.51398580  1
  Pd  Pd10  1  0.96307360  0.51170073  0.66132267  1
  Pd  Pd11  1  0.96307360  0.98829927  0.66132267  1
  Pd  Pd12  1  0.96307360  0.51170073  0.83867733  1
  Pd  Pd13  1  0.96307360  0.98829927  0.83867733  1
  Pd  Pd14  1  0.03692640  0.48829927  0.33867733  1
  Pd  Pd15  1  0.03692640  0.01170073  0.33867733  1
  Pd  Pd16  1  0.03692640  0.48829927  0.16132267  1
  Pd  Pd17  1  0.03692640  0.01170073  0.16132267  1
  Pd  Pd18  1  0.40102382  0.75000000  0.66492253  1
  Pd  Pd19  1  0.40102382  0.75000000  0.83507747  1
  Pd  Pd20  1  0.59897618  0.25000000  0.33507747  1
  Pd  Pd21  1  0.59897618  0.25000000  0.16492253  1
  Se  Se22  1  0.61669307  0.51528369  0.59041684  1
  Se  Se23  1  0.61669307  0.98471631  0.59041684  1
  Se  Se24  1  0.61669307  0.51528369  0.90958316  1
  Se  Se25  1  0.61669307  0.98471631  0.90958316  1
  Se  Se26  1  0.38330693  0.48471631  0.40958316  1
  Se  Se27  1  0.38330693  0.01528369  0.40958316  1
  Se  Se28  1  0.38330693  0.48471631  0.09041684  1
  Se  Se29  1  0.38330693  0.01528369  0.09041684  1
  Se  Se30  1  0.89410108  0.75000000  0.08324679  1
  Se  Se31  1  0.89410108  0.75000000  0.41675321  1
  Se  Se32  1  0.10589892  0.25000000  0.91675321  1
  Se  Se33  1  0.10589892  0.25000000  0.58324679  1
  Se  Se34  1  0.27071643  0.00604235  0.75000000  1
  Se  Se35  1  0.27071643  0.49395765  0.75000000  1
  Se  Se36  1  0.72928357  0.99395765  0.25000000  1
  Se  Se37  1  0.72928357  0.50604235  0.25000000  1
  Se  Se38  1  0.80644458  0.75000000  0.75000000  1
  Se  Se39  1  0.19355542  0.25000000  0.25000000  1
