# generated using pymatgen
data_TcF4
_symmetry_space_group_name_H-M   'P 1'
_cell_length_a   5.48498634
_cell_length_b   10.00239823
_cell_length_c   11.78177353
_cell_angle_alpha   90.00000000
_cell_angle_beta   90.00000000
_cell_angle_gamma   90.00000000
_symmetry_Int_Tables_number   1
_chemical_formula_structural   TcF4
_chemical_formula_sum   'Tc8 F32'
_cell_volume   646.38364923
_cell_formula_units_Z   8
loop_
 _symmetry_equiv_pos_site_id
 _symmetry_equiv_pos_as_xyz
  1  'x, y, z'
loop_
 _atom_site_type_symbol
 _atom_site_label
 _atom_site_symmetry_multiplicity
 _atom_site_fract_x
 _atom_site_fract_y
 _atom_site_fract_z
 _atom_site_occupancy
  Tc  Tc0  1  0.59448792  0.62787817  0.17610132  1
  Tc  Tc1  1  0.40551208  0.12787817  0.32389868  1
  Tc  Tc2  1  0.90551208  0.37212183  0.67610132  1
  Tc  Tc3  1  0.09448792  0.87212183  0.82389868  1
  Tc  Tc4  1  0.40551208  0.37212183  0.82389868  1
  Tc  Tc5  1  0.59448792  0.87212183  0.67610132  1
  Tc  Tc6  1  0.09448792  0.62787817  0.32389868  1
  Tc  Tc7  1  0.90551208  0.12787817  0.17610132  1
  F  F8  1  0.40900209  0.73143169  0.30639734  1
  F  F9  1  0.59099791  0.23143169  0.19360266  1
  F  F10  1  0.09099791  0.26856831  0.80639734  1
  F  F11  1  0.90900209  0.76856831  0.69360266  1
  F  F12  1  0.59099791  0.26856831  0.69360266  1
  F  F13  1  0.40900209  0.76856831  0.80639734  1
  F  F14  1  0.90900209  0.73143169  0.19360266  1
  F  F15  1  0.09099791  0.23143169  0.30639734  1
  F  F16  1  0.28071285  0.52421053  0.19391114  1
  F  F17  1  0.71928715  0.02421053  0.30608886  1
  F  F18  1  0.21928715  0.47578947  0.69391114  1
  F  F19  1  0.78071285  0.97578947  0.80608886  1
  F  F20  1  0.71928715  0.47578947  0.80608886  1
  F  F21  1  0.28071285  0.97578947  0.69391114  1
  F  F22  1  0.78071285  0.52421053  0.30608886  1
  F  F23  1  0.21928715  0.02421053  0.19391114  1
  F  F24  1  0.45634749  0.74522946  0.07157685  1
  F  F25  1  0.54365251  0.24522946  0.42842315  1
  F  F26  1  0.04365251  0.25477054  0.57157685  1
  F  F27  1  0.95634749  0.75477054  0.92842315  1
  F  F28  1  0.54365251  0.25477054  0.92842315  1
  F  F29  1  0.45634749  0.75477054  0.57157685  1
  F  F30  1  0.95634749  0.74522946  0.42842315  1
  F  F31  1  0.04365251  0.24522946  0.07157685  1
  F  F32  1  0.73151991  0.51023435  0.07149354  1
  F  F33  1  0.26848009  0.01023435  0.42850646  1
  F  F34  1  0.76848009  0.48976565  0.57149354  1
  F  F35  1  0.23151991  0.98976565  0.92850646  1
  F  F36  1  0.26848009  0.48976565  0.92850646  1
  F  F37  1  0.73151991  0.98976565  0.57149354  1
  F  F38  1  0.23151991  0.51023435  0.42850646  1
  F  F39  1  0.76848009  0.01023435  0.07149354  1
