# generated using pymatgen
data_Lu10Mn13C18
_symmetry_space_group_name_H-M   'P 1'
_cell_length_a   8.59285407
_cell_length_b   8.59285407
_cell_length_c   8.59285407
_cell_angle_alpha   109.47122063
_cell_angle_beta   109.47122063
_cell_angle_gamma   109.47122063
_symmetry_Int_Tables_number   1
_chemical_formula_structural   Lu10Mn13C18
_chemical_formula_sum   'Lu10 Mn13 C18'
_cell_volume   488.41660242
_cell_formula_units_Z   1
loop_
 _symmetry_equiv_pos_site_id
 _symmetry_equiv_pos_as_xyz
  1  'x, y, z'
loop_
 _atom_site_type_symbol
 _atom_site_label
 _atom_site_symmetry_multiplicity
 _atom_site_fract_x
 _atom_site_fract_y
 _atom_site_fract_z
 _atom_site_occupancy
  Lu  Lu0  1  0.50000000  0.75000000  0.25000000  1
  Lu  Lu1  1  0.75000000  0.50000000  0.25000000  1
  Lu  Lu2  1  0.25000000  0.75000000  0.50000000  1
  Lu  Lu3  1  0.25000000  0.50000000  0.75000000  1
  Lu  Lu4  1  0.50000000  0.25000000  0.75000000  1
  Lu  Lu5  1  0.75000000  0.25000000  0.50000000  1
  Lu  Lu6  1  0.40895019  -0.00000000  0.00000000  1
  Lu  Lu7  1  0.00000000  0.40895019  -0.00000000  1
  Lu  Lu8  1  -0.00000000  -0.00000000  0.40895019  1
  Lu  Lu9  1  0.59104981  0.59104981  0.59104981  1
  Mn  Mn10  1  -0.00000000  0.00000000  0.00000000  1
  Mn  Mn11  1  0.66529935  0.82046625  0.00000000  1
  Mn  Mn12  1  0.84483310  0.17953375  0.17953375  1
  Mn  Mn13  1  0.66529935  -0.00000000  0.82046625  1
  Mn  Mn14  1  0.82046625  0.66529935  0.00000000  1
  Mn  Mn15  1  -0.00000000  0.66529935  0.82046625  1
  Mn  Mn16  1  0.17953375  0.84483310  0.17953375  1
  Mn  Mn17  1  0.17953375  0.17953375  0.84483310  1
  Mn  Mn18  1  -0.00000000  0.82046625  0.66529935  1
  Mn  Mn19  1  0.82046625  -0.00000000  0.66529935  1
  Mn  Mn20  1  0.33470065  0.33470065  0.15516690  1
  Mn  Mn21  1  0.15516690  0.33470065  0.33470065  1
  Mn  Mn22  1  0.33470065  0.15516690  0.33470065  1
  C  C23  1  0.70125442  0.22280485  0.00000000  1
  C  C24  1  0.47844957  0.77719515  0.77719515  1
  C  C25  1  0.70125442  0.00000000  0.22280485  1
  C  C26  1  0.22280485  0.70125442  -0.00000000  1
  C  C27  1  -0.00000000  0.70125442  0.22280485  1
  C  C28  1  0.77719515  0.47844957  0.77719515  1
  C  C29  1  0.77719515  0.77719515  0.47844957  1
  C  C30  1  -0.00000000  0.22280485  0.70125442  1
  C  C31  1  0.22280485  0.00000000  0.70125442  1
  C  C32  1  0.29874558  0.29874558  0.52155043  1
  C  C33  1  0.52155043  0.29874558  0.29874558  1
  C  C34  1  0.29874558  0.52155043  0.29874558  1
  C  C35  1  0.56943731  0.56943731  0.00000000  1
  C  C36  1  0.00000000  0.43056269  0.43056269  1
  C  C37  1  0.56943731  -0.00000000  0.56943731  1
  C  C38  1  -0.00000000  0.56943731  0.56943731  1
  C  C39  1  0.43056269  0.00000000  0.43056269  1
  C  C40  1  0.43056269  0.43056269  0.00000000  1
