# generated using pymatgen
data_H9Rh(NCl)3
_symmetry_space_group_name_H-M   'P 1'
_cell_length_a   5.58884157
_cell_length_b   7.04632015
_cell_length_c   9.87035609
_cell_angle_alpha   90.00000000
_cell_angle_beta   90.00000000
_cell_angle_gamma   93.28575864
_symmetry_Int_Tables_number   1
_chemical_formula_structural   H9Rh(NCl)3
_chemical_formula_sum   'H18 Rh2 N6 Cl6'
_cell_volume   388.06320323
_cell_formula_units_Z   2
loop_
 _symmetry_equiv_pos_site_id
 _symmetry_equiv_pos_as_xyz
  1  'x, y, z'
loop_
 _atom_site_type_symbol
 _atom_site_label
 _atom_site_symmetry_multiplicity
 _atom_site_fract_x
 _atom_site_fract_y
 _atom_site_fract_z
 _atom_site_occupancy
  H  H0  1  0.08691801  0.15535828  0.38850426  1
  H  H1  1  0.91308199  0.84464172  0.88850426  1
  H  H2  1  0.91308199  0.84464172  0.61149574  1
  H  H3  1  0.08691801  0.15535828  0.11149574  1
  H  H4  1  0.32182025  0.16142481  0.49148555  1
  H  H5  1  0.67817975  0.83857519  0.99148555  1
  H  H6  1  0.67817975  0.83857519  0.50851445  1
  H  H7  1  0.32182025  0.16142481  0.00851445  1
  H  H8  1  0.25922784  0.96894338  0.39947070  1
  H  H9  1  0.74077216  0.03105662  0.89947070  1
  H  H10  1  0.74077216  0.03105662  0.60052930  1
  H  H11  1  0.25922784  0.96894338  0.10052930  1
  H  H12  1  0.38561309  0.55479044  0.33456566  1
  H  H13  1  0.61438691  0.44520956  0.83456566  1
  H  H14  1  0.61438691  0.44520956  0.66543434  1
  H  H15  1  0.38561309  0.55479044  0.16543434  1
  H  H16  1  0.14782430  0.46540953  0.25000000  1
  H  H17  1  0.85217570  0.53459047  0.75000000  1
  Rh  Rh18  1  0.49400416  0.22004026  0.25000000  1
  Rh  Rh19  1  0.50599584  0.77995974  0.75000000  1
  N  N20  1  0.26034602  0.11494087  0.39818652  1
  N  N21  1  0.73965398  0.88505913  0.89818652  1
  N  N22  1  0.73965398  0.88505913  0.60181348  1
  N  N23  1  0.26034602  0.11494087  0.10181348  1
  N  N24  1  0.33253579  0.47882647  0.25000000  1
  N  N25  1  0.66746421  0.52117353  0.75000000  1
  Cl  Cl26  1  0.66503118  0.91499153  0.25000000  1
  Cl  Cl27  1  0.33496882  0.08500847  0.75000000  1
  Cl  Cl28  1  0.75620802  0.34320417  0.42532369  1
  Cl  Cl29  1  0.24379198  0.65679583  0.92532369  1
  Cl  Cl30  1  0.24379198  0.65679583  0.57467631  1
  Cl  Cl31  1  0.75620802  0.34320417  0.07467631  1
