# generated using pymatgen
data_Li9Mn2Co5O16
_symmetry_space_group_name_H-M   'P 1'
_cell_length_a   2.92707434
_cell_length_b   9.89078891
_cell_length_c   10.59826200
_cell_angle_alpha   72.39803629
_cell_angle_beta   82.06252623
_cell_angle_gamma   89.99999464
_symmetry_Int_Tables_number   1
_chemical_formula_structural   Li9Mn2Co5O16
_chemical_formula_sum   'Li9 Mn2 Co5 O16'
_cell_volume   289.37980066
_cell_formula_units_Z   1
loop_
 _symmetry_equiv_pos_site_id
 _symmetry_equiv_pos_as_xyz
  1  'x, y, z'
loop_
 _atom_site_type_symbol
 _atom_site_label
 _atom_site_symmetry_multiplicity
 _atom_site_fract_x
 _atom_site_fract_y
 _atom_site_fract_z
 _atom_site_occupancy
  Li  Li0  1  0.43702961  0.18612327  0.12594078  1
  Li  Li1  1  0.30685910  0.57137330  0.38628181  1
  Li  Li2  1  0.19303266  0.92624280  0.61393468  1
  Li  Li3  1  0.80856405  0.05272051  0.38287189  1
  Li  Li4  1  0.68655252  0.44462635  0.62689496  1
  Li  Li5  1  0.56469290  0.80718232  0.87061420  1
  Li  Li6  1  0.06663148  0.32077787  0.86673703  1
  Li  Li7  1  0.93681725  0.69040427  0.12636549  1
  Li  Li8  1  0.74992636  0.74898151  0.50014728  1
  Mn  Mn9  1  0.99965957  0.99917402  0.00068087  1
  Mn  Mn10  1  0.87486651  0.37511932  0.25026698  1
  Co  Co11  1  0.62853964  0.12382378  0.74292073  1
  Co  Co12  1  0.50603634  0.50520905  0.98792731  1
  Co  Co13  1  0.36500018  0.87020787  0.26999965  1
  Co  Co14  1  0.24635336  0.24893695  0.50729328  1
  Co  Co15  1  0.13516115  0.63248393  0.72967770  1
  O  O16  1  0.52815325  0.13843081  0.94369350  1
  O  O17  1  0.40358581  0.51154987  0.19282839  1
  O  O18  1  0.28775672  0.91066987  0.42448655  1
  O  O19  1  0.91175142  0.01920636  0.17649716  1
  O  O20  1  0.78470919  0.39369624  0.43058161  1
  O  O21  1  0.65342380  0.77179210  0.69315239  1
  O  O22  1  0.15500539  0.27133481  0.68998921  1
  O  O23  1  0.02755403  0.64636136  0.94489194  1
  O  O24  1  0.34648665  0.23802174  0.30702669  1
  O  O25  1  0.21275944  0.59062012  0.57448112  1
  O  O26  1  0.09017310  0.98257035  0.81965379  1
  O  O27  1  0.71940365  0.10101050  0.56119271  1
  O  O28  1  0.58896485  0.47303170  0.82207029  1
  O  O29  1  0.47325792  0.86448213  0.05348417  1
  O  O30  1  0.96252895  0.35306836  0.07494211  1
  O  O31  1  0.84876314  0.73076656  0.30247373  1
