# generated using pymatgen
data_Gd(NO3)3
_symmetry_space_group_name_H-M   'P 1'
_cell_length_a   6.28722915
_cell_length_b   9.79528965
_cell_length_c   11.20050946
_cell_angle_alpha   93.33009645
_cell_angle_beta   90.00000000
_cell_angle_gamma   90.00000000
_symmetry_Int_Tables_number   1
_chemical_formula_structural   Gd(NO3)3
_chemical_formula_sum   'Gd4 N12 O36'
_cell_volume   688.62121445
_cell_formula_units_Z   4
loop_
 _symmetry_equiv_pos_site_id
 _symmetry_equiv_pos_as_xyz
  1  'x, y, z'
loop_
 _atom_site_type_symbol
 _atom_site_label
 _atom_site_symmetry_multiplicity
 _atom_site_fract_x
 _atom_site_fract_y
 _atom_site_fract_z
 _atom_site_occupancy
  Gd  Gd0  1  0.32448952  0.70720093  0.73703444  1
  Gd  Gd1  1  0.82448952  0.79279907  0.26296556  1
  Gd  Gd2  1  0.67551048  0.29279907  0.26296556  1
  Gd  Gd3  1  0.17551048  0.20720093  0.73703444  1
  N  N4  1  0.61492850  0.83061263  0.49361503  1
  N  N5  1  0.11492850  0.66938737  0.50638497  1
  N  N6  1  0.38507150  0.16938737  0.50638497  1
  N  N7  1  0.88507150  0.33061263  0.49361503  1
  N  N8  1  0.27373534  0.80308030  0.20888656  1
  N  N9  1  0.77373534  0.69691970  0.79111344  1
  N  N10  1  0.72626466  0.19691970  0.79111344  1
  N  N11  1  0.22626466  0.30308030  0.20888656  1
  N  N12  1  0.27651856  0.46700745  0.88604158  1
  N  N13  1  0.77651856  0.03299255  0.11395842  1
  N  N14  1  0.72348144  0.53299255  0.11395842  1
  N  N15  1  0.22348144  0.96700745  0.88604158  1
  O  O16  1  0.57237006  0.72748833  0.42252516  1
  O  O17  1  0.07237006  0.77251167  0.57747484  1
  O  O18  1  0.42762994  0.27251167  0.57747484  1
  O  O19  1  0.92762994  0.22748833  0.42252516  1
  O  O20  1  0.73872281  0.92116298  0.45583861  1
  O  O21  1  0.23872281  0.57883702  0.54416139  1
  O  O22  1  0.26127719  0.07883702  0.54416139  1
  O  O23  1  0.76127719  0.42116298  0.45583861  1
  O  O24  1  0.53935597  0.84273465  0.59712004  1
  O  O25  1  0.03935597  0.65726535  0.40287996  1
  O  O26  1  0.46064403  0.15726535  0.40287996  1
  O  O27  1  0.96064403  0.34273465  0.59712004  1
  O  O28  1  0.18673593  0.89930629  0.27297616  1
  O  O29  1  0.68673593  0.60069371  0.72702384  1
  O  O30  1  0.81326407  0.10069371  0.72702384  1
  O  O31  1  0.31326407  0.39930629  0.27297616  1
  O  O32  1  0.46804858  0.80599128  0.18344609  1
  O  O33  1  0.96804858  0.69400872  0.81655391  1
  O  O34  1  0.53195142  0.19400872  0.81655391  1
  O  O35  1  0.03195142  0.30599128  0.18344609  1
  O  O36  1  0.15810471  0.70445285  0.16963630  1
  O  O37  1  0.65810471  0.79554715  0.83036370  1
  O  O38  1  0.84189529  0.29554715  0.83036370  1
  O  O39  1  0.34189529  0.20445285  0.16963630  1
  O  O40  1  0.26290272  0.45544856  0.76873669  1
  O  O41  1  0.76290272  0.04455144  0.23126331  1
  O  O42  1  0.73709728  0.54455144  0.23126331  1
  O  O43  1  0.23709728  0.95544856  0.76873669  1
  O  O44  1  0.33372304  0.58070921  0.93174713  1
  O  O45  1  0.83372304  0.91929079  0.06825287  1
  O  O46  1  0.66627696  0.41929079  0.06825287  1
  O  O47  1  0.16627696  0.08070921  0.93174713  1
  O  O48  1  0.23139759  0.36538501  0.94232155  1
  O  O49  1  0.73139759  0.13461499  0.05767845  1
  O  O50  1  0.76860241  0.63461499  0.05767845  1
  O  O51  1  0.26860241  0.86538501  0.94232155  1
