# generated using pymatgen
data_Zr2Te4Cl2O11
_symmetry_space_group_name_H-M   'P 1'
_cell_length_a   7.93298544
_cell_length_b   9.70673598
_cell_length_c   10.54791023
_cell_angle_alpha   111.64982218
_cell_angle_beta   108.31461795
_cell_angle_gamma   97.78381324
_symmetry_Int_Tables_number   1
_chemical_formula_structural   Zr2Te4Cl2O11
_chemical_formula_sum   'Zr4 Te8 Cl4 O22'
_cell_volume   686.99042769
_cell_formula_units_Z   2
loop_
 _symmetry_equiv_pos_site_id
 _symmetry_equiv_pos_as_xyz
  1  'x, y, z'
loop_
 _atom_site_type_symbol
 _atom_site_label
 _atom_site_symmetry_multiplicity
 _atom_site_fract_x
 _atom_site_fract_y
 _atom_site_fract_z
 _atom_site_occupancy
  Zr  Zr0  1  0.62452572  0.88976106  0.89134477  1
  Zr  Zr1  1  0.37547428  0.11023894  0.10865523  1
  Zr  Zr2  1  0.88674965  0.61119721  0.61919899  1
  Zr  Zr3  1  0.11325035  0.38880279  0.38080101  1
  Te  Te4  1  0.26185874  0.51007212  0.79424038  1
  Te  Te5  1  0.73814126  0.48992788  0.20575962  1
  Te  Te6  1  0.99272497  0.73850221  0.99989488  1
  Te  Te7  1  0.00727503  0.26149779  0.00010512  1
  Te  Te8  1  0.78950857  0.97998185  0.26450929  1
  Te  Te9  1  0.21049143  0.02001815  0.73549071  1
  Te  Te10  1  0.47588419  0.76058201  0.46917172  1
  Te  Te11  1  0.52411581  0.23941799  0.53082828  1
  Cl  Cl12  1  0.10260817  0.88046074  0.37040420  1
  Cl  Cl13  1  0.89739183  0.11953926  0.62959580  1
  Cl  Cl14  1  0.63370806  0.39113634  0.89292386  1
  Cl  Cl15  1  0.36629194  0.60886366  0.10707614  1
  O  O16  1  0.50530029  0.85785411  0.66984403  1
  O  O17  1  0.49469971  0.14214589  0.33015597  1
  O  O18  1  0.67250509  0.66900274  0.48837937  1
  O  O19  1  0.32749491  0.33099726  0.51162063  1
  O  O20  1  0.59055191  0.99439175  0.10807560  1
  O  O21  1  0.40944809  0.00560825  0.89192440  1
  O  O22  1  0.82640817  0.86654736  0.08154471  1
  O  O23  1  0.17359183  0.13345264  0.91845529  1
  O  O24  1  0.07255898  0.61278461  0.83120133  1
  O  O25  1  0.92744102  0.38721539  0.16879867  1
  O  O26  1  0.81932728  0.74381367  0.82372967  1
  O  O27  1  0.18067272  0.25618633  0.17627033  1
  O  O28  1  0.11146902  0.49534545  0.60082694  1
  O  O29  1  0.88853098  0.50465455  0.39917306  1
  O  O30  1  0.28778434  0.58364868  0.41154739  1
  O  O31  1  0.71221566  0.41635132  0.58845261  1
  O  O32  1  0.44720103  0.67963526  0.84003170  1
  O  O33  1  0.55279897  0.32036474  0.15996830  1
  O  O34  1  0.17914244  0.91643881  0.06034415  1
  O  O35  1  0.82085756  0.08356119  0.93965585  1
  O  O36  1  0.93800818  0.17545184  0.32609602  1
  O  O37  1  0.06199182  0.82454816  0.67390398  1
