# generated using pymatgen
data_Co9Te5(PbO5)6
_symmetry_space_group_name_H-M   'P 1'
_cell_length_a   10.54710703
_cell_length_b   10.54788228
_cell_length_c   13.82224996
_cell_angle_alpha   90.00000000
_cell_angle_beta   90.00000000
_cell_angle_gamma   119.99756646
_symmetry_Int_Tables_number   1
_chemical_formula_structural   Co9Te5(PbO5)6
_chemical_formula_sum   'Co18 Te10 Pb12 O60'
_cell_volume   1331.73756566
_cell_formula_units_Z   2
loop_
 _symmetry_equiv_pos_site_id
 _symmetry_equiv_pos_as_xyz
  1  'x, y, z'
loop_
 _atom_site_type_symbol
 _atom_site_label
 _atom_site_symmetry_multiplicity
 _atom_site_fract_x
 _atom_site_fract_y
 _atom_site_fract_z
 _atom_site_occupancy
  Co  Co0  1  0.66666323  0.33334348  0.61911237  1
  Co  Co1  1  0.33331976  0.66665652  0.38088763  1
  Co  Co2  1  0.33333677  0.66665652  0.11911237  1
  Co  Co3  1  0.66668024  0.33334348  0.88088763  1
  Co  Co4  1  0.83072061  0.66144123  0.25000000  1
  Co  Co5  1  0.83070044  0.16927929  0.24999775  1
  Co  Co6  1  0.33857885  0.16927929  0.25000225  1
  Co  Co7  1  0.16927939  0.33855877  0.75000000  1
  Co  Co8  1  0.66142115  0.83072071  0.75000225  1
  Co  Co9  1  0.16929956  0.83072071  0.74999775  1
  Co  Co10  1  0.00003168  0.00006336  0.75000000  1
  Co  Co11  1  0.99996832  0.99993664  0.25000000  1
  Co  Co12  1  0.99212633  0.49609006  0.24999547  1
  Co  Co13  1  0.50394016  0.00788032  0.25000000  1
  Co  Co14  1  0.50396373  0.49609006  0.25000453  1
  Co  Co15  1  0.49603627  0.50390994  0.75000453  1
  Co  Co16  1  0.49605984  0.99211968  0.75000000  1
  Co  Co17  1  0.00787367  0.50390994  0.74999547  1
  Te  Te18  1  0.66667969  0.33330966  0.40330425  1
  Te  Te19  1  0.33337003  0.66669034  0.59669575  1
  Te  Te20  1  0.33332031  0.66669034  0.90330425  1
  Te  Te21  1  0.66662997  0.33330966  0.09669575  1
  Te  Te22  1  0.83325916  0.66651832  0.75000000  1
  Te  Te23  1  0.83322589  0.16676392  0.75002527  1
  Te  Te24  1  0.33353803  0.16676392  0.74997473  1
  Te  Te25  1  0.16674084  0.33348168  0.25000000  1
  Te  Te26  1  0.66646197  0.83323608  0.24997473  1
  Te  Te27  1  0.16677411  0.83323608  0.25002527  1
  Pb  Pb28  1  0.73343043  0.73311511  0.50002238  1
  Pb  Pb29  1  0.00031532  0.26688489  0.49997762  1
  Pb  Pb30  1  0.26667125  0.00000000  0.50000000  1
  Pb  Pb31  1  0.26656957  0.26688489  0.00002238  1
  Pb  Pb32  1  0.99968468  0.73311511  0.99997762  1
  Pb  Pb33  1  0.73332875  1.00000000  0.00000000  1
  Pb  Pb34  1  0.61056235  1.00000000  0.50000000  1
  Pb  Pb35  1  0.38963047  0.38957035  0.49999018  1
  Pb  Pb36  1  0.00006013  0.61042965  0.50000982  1
  Pb  Pb37  1  0.38943765  0.00000000  -0.00000000  1
  Pb  Pb38  1  0.61036953  0.61042965  0.99999018  1
  Pb  Pb39  1  0.99993987  0.38957035  0.00000982  1
  O  O40  1  0.66511336  0.67494448  0.32826557  1
  O  O41  1  0.00980807  0.33488900  0.32828417  1
  O  O42  1  0.32508680  0.99018879  0.32831776  1
  O  O43  1  0.99016888  0.32505552  0.67173443  1
  O  O44  1  0.67491907  0.66511100  0.67171583  1
  O  O45  1  0.33489801  0.00981121  0.67168224  1
  O  O46  1  0.33488664  0.32505552  0.82826557  1
  O  O47  1  0.99019193  0.66511100  0.82828417  1
  O  O48  1  0.67491320  0.00981121  0.82831776  1
  O  O49  1  0.00983112  0.67494448  0.17173443  1
  O  O50  1  0.32508093  0.33488900  0.17171583  1
  O  O51  1  0.66510199  0.99018879  0.17168224  1
  O  O52  1  0.82930748  0.49838903  0.33799961  1
  O  O53  1  0.66906795  0.17066260  0.33797147  1
  O  O54  1  0.50161867  0.33093331  0.33799389  1
  O  O55  1  0.33091845  0.50161097  0.66200039  1
  O  O56  1  0.49840535  0.82933740  0.66202853  1
  O  O57  1  0.17068535  0.66906669  0.66200611  1
  O  O58  1  0.17069252  0.50161097  0.83799961  1
  O  O59  1  0.33093205  0.82933740  0.83797147  1
  O  O60  1  0.49838133  0.66906669  0.83799389  1
  O  O61  1  0.66908155  0.49838903  0.16200039  1
  O  O62  1  0.50159465  0.17066260  0.16202853  1
  O  O63  1  0.82931465  0.33093331  0.16200611  1
  O  O64  1  0.83095804  0.82052476  0.82771984  1
  O  O65  1  0.98952685  0.16904001  0.82775491  1
  O  O66  1  0.17956532  0.01047187  0.82773643  1
  O  O67  1  0.01043328  0.17947524  0.17228016  1
  O  O68  1  0.82048684  0.83095999  0.17224509  1
  O  O69  1  0.16909345  0.98952813  0.17226357  1
  O  O70  1  0.16904196  0.17947524  0.32771984  1
  O  O71  1  0.01047315  0.83095999  0.32775491  1
  O  O72  1  0.82043468  0.98952813  0.32773643  1
  O  O73  1  0.98956672  0.82052476  0.67228016  1
  O  O74  1  0.17951316  0.16904001  0.67224509  1
  O  O75  1  0.83090655  0.01047187  0.67226357  1
  O  O76  1  0.67359678  0.51698572  0.82953996  1
  O  O77  1  0.84340842  0.32642422  0.82957289  1
  O  O78  1  0.48309868  0.15664440  0.82949119  1
  O  O79  1  0.15661106  0.48301428  0.17046004  1
  O  O80  1  0.51698420  0.67357578  0.17042711  1
  O  O81  1  0.32645428  0.84335560  0.17050881  1
  O  O82  1  0.32640322  0.48301428  0.32953996  1
  O  O83  1  0.15659158  0.67357578  0.32957289  1
  O  O84  1  0.51690132  0.84335560  0.32949119  1
  O  O85  1  0.84338894  0.51698572  0.67046004  1
  O  O86  1  0.48301580  0.32642422  0.67042711  1
  O  O87  1  0.67354572  0.15664440  0.67050881  1
  O  O88  1  0.65257999  0.47303255  0.49746080  1
  O  O89  1  0.82043349  0.34733310  0.49745346  1
  O  O90  1  0.52695331  0.17957774  0.49745164  1
  O  O91  1  0.17954744  0.52696745  0.50253920  1
  O  O92  1  0.47310040  0.65266690  0.50254654  1
  O  O93  1  0.34737557  0.82042226  0.50254836  1
  O  O94  1  0.34742001  0.52696745  0.99746080  1
  O  O95  1  0.17956651  0.65266690  0.99745346  1
  O  O96  1  0.47304669  0.82042226  0.99745164  1
  O  O97  1  0.82045256  0.47303255  0.00253920  1
  O  O98  1  0.52689960  0.34733310  0.00254654  1
  O  O99  1  0.65262443  0.17957774  0.00254836  1
