# generated using pymatgen
data_KTi2H2F11
_symmetry_space_group_name_H-M   'P 1'
_cell_length_a   10.51369600
_cell_length_b   10.54756107
_cell_length_c   10.84156800
_cell_angle_alpha   79.08473611
_cell_angle_beta   64.86402182
_cell_angle_gamma   60.85900887
_symmetry_Int_Tables_number   1
_chemical_formula_structural   KTi2H2F11
_chemical_formula_sum   'K4 Ti8 H8 F44'
_cell_volume   950.41234261
_cell_formula_units_Z   4
loop_
 _symmetry_equiv_pos_site_id
 _symmetry_equiv_pos_as_xyz
  1  'x, y, z'
loop_
 _atom_site_type_symbol
 _atom_site_label
 _atom_site_symmetry_multiplicity
 _atom_site_fract_x
 _atom_site_fract_y
 _atom_site_fract_z
 _atom_site_occupancy
  K  K0  1  0.26062697  0.15695276  0.79883431  1
  K  K1  1  0.73937303  0.84304724  0.20116569  1
  K  K2  1  0.82134155  0.91552677  0.54822801  1
  K  K3  1  0.17865845  0.08447323  0.45177199  1
  Ti  Ti4  1  0.79698497  0.15433057  0.87933491  1
  Ti  Ti5  1  0.20301503  0.84566943  0.12066509  1
  Ti  Ti6  1  0.63905641  0.49886170  0.65932252  1
  Ti  Ti7  1  0.36094359  0.50113830  0.34067748  1
  Ti  Ti8  1  0.64814202  0.74531028  0.88506954  1
  Ti  Ti9  1  0.35185798  0.25468972  0.11493046  1
  Ti  Ti10  1  0.79951503  0.40696836  0.10977014  1
  Ti  Ti11  1  0.20048497  0.59303164  0.89022986  1
  H  H12  1  0.54927634  0.26793724  0.62461389  1
  H  H13  1  0.45072366  0.73206276  0.37538611  1
  H  H14  1  0.85902182  0.19737824  0.36777832  1
  H  H15  1  0.14097818  0.80262176  0.63222168  1
  H  H16  1  0.56660229  0.15044831  0.39718307  1
  H  H17  1  0.43339771  0.84955169  0.60281693  1
  H  H18  1  0.87303350  0.59491034  0.43154172  1
  H  H19  1  0.12696650  0.40508966  0.56845828  1
  F  F20  1  0.73081081  0.32803932  0.75749190  1
  F  F21  1  0.26918919  0.67196068  0.24250810  1
  F  F22  1  0.79031547  0.29398329  0.98753864  1
  F  F23  1  0.20968453  0.70601671  0.01246136  1
  F  F24  1  0.99898018  0.11447790  0.77222478  1
  F  F25  1  0.00101982  0.88552210  0.22777522  1
  F  F26  1  0.77720090  0.05277326  0.77872309  1
  F  F27  1  0.22279910  0.94722674  0.22127691  1
  F  F28  1  0.56250710  0.24389041  0.99034141  1
  F  F29  1  0.43749290  0.75610959  0.00965859  1
  F  F30  1  0.83175738  0.02045978  0.00657107  1
  F  F31  1  0.16824262  0.97954022  0.99342893  1
  F  F32  1  0.65630025  0.59937908  0.77958206  1
  F  F33  1  0.34369975  0.40062092  0.22041794  1
  F  F34  1  0.43405194  0.53232314  0.80591810  1
  F  F35  1  0.56594806  0.46767686  0.19408190  1
  F  F36  1  0.53911084  0.67691915  0.59100202  1
  F  F37  1  0.46088916  0.32308085  0.40899798  1
  F  F38  1  0.60321095  0.39294258  0.57340831  1
  F  F39  1  0.39678905  0.60705742  0.42659169  1
  F  F40  1  0.83429656  0.46796826  0.52810476  1
  F  F41  1  0.16570344  0.53203174  0.47189524  1
  F  F42  1  0.73799151  0.56750591  0.98484713  1
  F  F43  1  0.26200849  0.43249409  0.01515287  1
  F  F44  1  0.84325289  0.70910545  0.75995034  1
  F  F45  1  0.15674711  0.29089455  0.24004966  1
  F  F46  1  0.55154114  0.88892108  0.78596144  1
  F  F47  1  0.44845886  0.11107892  0.21403856  1
  F  F48  1  0.63697377  0.85286916  0.00219097  1
  F  F49  1  0.36302623  0.14713084  0.99780903  1
  F  F50  1  0.77272290  0.53624216  0.21639785  1
  F  F51  1  0.22727710  0.46375784  0.78360215  1
  F  F52  1  0.82381170  0.26090386  0.23461011  1
  F  F53  1  0.17618830  0.73909614  0.76538989  1
  F  F54  1  0.00523300  0.34551535  0.00489220  1
  F  F55  1  0.99476700  0.65448465  0.99510780  1
  F  F56  1  0.52999367  0.18421401  0.65149707  1
  F  F57  1  0.47000633  0.81578599  0.34850293  1
  F  F58  1  0.89044189  0.14585017  0.44170021  1
  F  F59  1  0.10955811  0.85414983  0.55829979  1
  F  F60  1  0.63380541  0.04680436  0.39079537  1
  F  F61  1  0.36619459  0.95319564  0.60920463  1
  F  F62  1  0.87084470  0.68609528  0.39338373  1
  F  F63  1  0.12915530  0.31390472  0.60661627  1
