# generated using pymatgen
data_Dy5RuI7
_symmetry_space_group_name_H-M   'P 1'
_cell_length_a   12.21704615
_cell_length_b   12.21704615
_cell_length_c   12.21704615
_cell_angle_alpha   90.00000000
_cell_angle_beta   90.00000000
_cell_angle_gamma   90.00000000
_symmetry_Int_Tables_number   1
_chemical_formula_structural   Dy5RuI7
_chemical_formula_sum   'Dy20 Ru4 I28'
_cell_volume   1823.47008676
_cell_formula_units_Z   4
loop_
 _symmetry_equiv_pos_site_id
 _symmetry_equiv_pos_as_xyz
  1  'x, y, z'
loop_
 _atom_site_type_symbol
 _atom_site_label
 _atom_site_symmetry_multiplicity
 _atom_site_fract_x
 _atom_site_fract_y
 _atom_site_fract_z
 _atom_site_occupancy
  Dy  Dy0  1  0.87553335  0.87553335  0.12446665  1
  Dy  Dy1  1  0.87553335  0.12446665  0.87553335  1
  Dy  Dy2  1  0.12446665  0.87553335  0.87553335  1
  Dy  Dy3  1  0.12446665  0.12446665  0.12446665  1
  Dy  Dy4  1  0.11368130  0.88631870  0.32207239  1
  Dy  Dy5  1  0.88631870  0.67792761  0.88631870  1
  Dy  Dy6  1  0.67792761  0.11368130  0.11368130  1
  Dy  Dy7  1  0.11368130  0.67792761  0.11368130  1
  Dy  Dy8  1  0.88631870  0.11368130  0.32207239  1
  Dy  Dy9  1  0.67792761  0.88631870  0.88631870  1
  Dy  Dy10  1  0.11368130  0.11368130  0.67792761  1
  Dy  Dy11  1  0.88631870  0.32207239  0.11368130  1
  Dy  Dy12  1  0.11368130  0.32207239  0.88631870  1
  Dy  Dy13  1  0.88631870  0.88631870  0.67792761  1
  Dy  Dy14  1  0.32207239  0.11368130  0.88631870  1
  Dy  Dy15  1  0.32207239  0.88631870  0.11368130  1
  Dy  Dy16  1  0.37712712  0.62287288  0.37712712  1
  Dy  Dy17  1  0.62287288  0.62287288  0.62287288  1
  Dy  Dy18  1  0.62287288  0.37712712  0.37712712  1
  Dy  Dy19  1  0.37712712  0.37712712  0.62287288  1
  Ru  Ru20  1  0.10289937  0.89710063  0.10289937  1
  Ru  Ru21  1  0.89710063  0.89710063  0.89710063  1
  Ru  Ru22  1  0.89710063  0.10289937  0.10289937  1
  Ru  Ru23  1  0.10289937  0.10289937  0.89710063  1
  I  I24  1  0.86720133  0.86720133  0.39450653  1
  I  I25  1  0.86720133  0.60549347  0.13279867  1
  I  I26  1  0.60549347  0.86720133  0.13279867  1
  I  I27  1  0.86720133  0.13279867  0.60549347  1
  I  I28  1  0.86720133  0.39450653  0.86720133  1
  I  I29  1  0.60549347  0.13279867  0.86720133  1
  I  I30  1  0.13279867  0.86720133  0.60549347  1
  I  I31  1  0.13279867  0.60549347  0.86720133  1
  I  I32  1  0.39450653  0.86720133  0.86720133  1
  I  I33  1  0.13279867  0.13279867  0.39450653  1
  I  I34  1  0.13279867  0.39450653  0.13279867  1
  I  I35  1  0.39450653  0.13279867  0.13279867  1
  I  I36  1  0.36929591  0.87751943  0.36929591  1
  I  I37  1  0.87751943  0.63070409  0.63070409  1
  I  I38  1  0.63070409  0.36929591  0.12248057  1
  I  I39  1  0.36929591  0.63070409  0.12248057  1
  I  I40  1  0.87751943  0.36929591  0.36929591  1
  I  I41  1  0.63070409  0.87751943  0.63070409  1
  I  I42  1  0.36929591  0.12248057  0.63070409  1
  I  I43  1  0.63070409  0.63070409  0.87751943  1
  I  I44  1  0.36929591  0.36929591  0.87751943  1
  I  I45  1  0.63070409  0.12248057  0.36929591  1
  I  I46  1  0.12248057  0.63070409  0.36929591  1
  I  I47  1  0.12248057  0.36929591  0.63070409  1
  I  I48  1  0.37163097  0.62836903  0.62836903  1
  I  I49  1  0.62836903  0.37163097  0.62836903  1
  I  I50  1  0.37163097  0.37163097  0.37163097  1
  I  I51  1  0.62836903  0.62836903  0.37163097  1
