# generated using pymatgen
data_Cs2Ni2(MoO4)3
_symmetry_space_group_name_H-M   'P 1'
_cell_length_a   10.93457390
_cell_length_b   10.93457390
_cell_length_c   10.93457390
_cell_angle_alpha   90.00000000
_cell_angle_beta   90.00000000
_cell_angle_gamma   90.00000000
_symmetry_Int_Tables_number   1
_chemical_formula_structural   Cs2Ni2(MoO4)3
_chemical_formula_sum   'Cs8 Ni8 Mo12 O48'
_cell_volume   1307.39130460
_cell_formula_units_Z   4
loop_
 _symmetry_equiv_pos_site_id
 _symmetry_equiv_pos_as_xyz
  1  'x, y, z'
loop_
 _atom_site_type_symbol
 _atom_site_label
 _atom_site_symmetry_multiplicity
 _atom_site_fract_x
 _atom_site_fract_y
 _atom_site_fract_z
 _atom_site_occupancy
  Cs  Cs0  1  0.42928598  0.92928598  0.57071402  1
  Cs  Cs1  1  0.92928598  0.57071402  0.42928598  1
  Cs  Cs2  1  0.57071402  0.42928598  0.92928598  1
  Cs  Cs3  1  0.07071402  0.07071402  0.07071402  1
  Cs  Cs4  1  0.20902299  0.70902299  0.79097701  1
  Cs  Cs5  1  0.70902299  0.79097701  0.20902299  1
  Cs  Cs6  1  0.79097701  0.20902299  0.70902299  1
  Cs  Cs7  1  0.29097701  0.29097701  0.29097701  1
  Ni  Ni8  1  0.91261187  0.41261187  0.08738813  1
  Ni  Ni9  1  0.41261187  0.08738813  0.91261187  1
  Ni  Ni10  1  0.08738813  0.91261187  0.41261187  1
  Ni  Ni11  1  0.58738813  0.58738813  0.58738813  1
  Ni  Ni12  1  0.63755715  0.13755715  0.36244285  1
  Ni  Ni13  1  0.13755715  0.36244285  0.63755715  1
  Ni  Ni14  1  0.36244285  0.63755715  0.13755715  1
  Ni  Ni15  1  0.86244285  0.86244285  0.86244285  1
  Mo  Mo16  1  0.22342631  0.37377065  0.94724786  1
  Mo  Mo17  1  0.05275214  0.72342631  0.12622935  1
  Mo  Mo18  1  0.87377065  0.55275214  0.77657369  1
  Mo  Mo19  1  0.72342631  0.12622935  0.05275214  1
  Mo  Mo20  1  0.55275214  0.77657369  0.87377065  1
  Mo  Mo21  1  0.37377065  0.94724786  0.22342631  1
  Mo  Mo22  1  0.77657369  0.87377065  0.55275214  1
  Mo  Mo23  1  0.94724786  0.22342631  0.37377065  1
  Mo  Mo24  1  0.12622935  0.05275214  0.72342631  1
  Mo  Mo25  1  0.27657369  0.62622935  0.44724786  1
  Mo  Mo26  1  0.44724786  0.27657369  0.62622935  1
  Mo  Mo27  1  0.62622935  0.44724786  0.27657369  1
  O  O28  1  0.06839016  0.35403302  0.99596898  1
  O  O29  1  0.00403102  0.56839016  0.14596698  1
  O  O30  1  0.85403302  0.50403102  0.93160984  1
  O  O31  1  0.56839016  0.14596698  0.00403102  1
  O  O32  1  0.50403102  0.93160984  0.85403302  1
  O  O33  1  0.35403302  0.99596898  0.06839016  1
  O  O34  1  0.93160984  0.85403302  0.50403102  1
  O  O35  1  0.99596898  0.06839016  0.35403302  1
  O  O36  1  0.14596698  0.00403102  0.56839016  1
  O  O37  1  0.43160984  0.64596698  0.49596898  1
  O  O38  1  0.49596898  0.43160984  0.64596698  1
  O  O39  1  0.64596698  0.49596898  0.43160984  1
  O  O40  1  0.29860125  0.48896257  0.03687040  1
  O  O41  1  0.96312960  0.79860125  0.01103743  1
  O  O42  1  0.98896257  0.46312960  0.70139875  1
  O  O43  1  0.79860125  0.01103743  0.96312960  1
  O  O44  1  0.46312960  0.70139875  0.98896257  1
  O  O45  1  0.48896257  0.03687040  0.29860125  1
  O  O46  1  0.70139875  0.98896257  0.46312960  1
  O  O47  1  0.03687040  0.29860125  0.48896257  1
  O  O48  1  0.01103743  0.96312960  0.79860125  1
  O  O49  1  0.20139875  0.51103743  0.53687040  1
  O  O50  1  0.53687040  0.20139875  0.51103743  1
  O  O51  1  0.51103743  0.53687040  0.20139875  1
  O  O52  1  0.23502494  0.42061532  0.78958568  1
  O  O53  1  0.21041432  0.73502494  0.07938468  1
  O  O54  1  0.92061532  0.71041432  0.76497506  1
  O  O55  1  0.73502494  0.07938468  0.21041432  1
  O  O56  1  0.71041432  0.76497506  0.92061532  1
  O  O57  1  0.42061532  0.78958568  0.23502494  1
  O  O58  1  0.76497506  0.92061532  0.71041432  1
  O  O59  1  0.78958568  0.23502494  0.42061532  1
  O  O60  1  0.07938468  0.21041432  0.73502494  1
  O  O61  1  0.26497506  0.57938468  0.28958568  1
  O  O62  1  0.28958568  0.26497506  0.57938468  1
  O  O63  1  0.57938468  0.28958568  0.26497506  1
  O  O64  1  0.30464426  0.23311091  0.97417845  1
  O  O65  1  0.02582155  0.80464426  0.26688909  1
  O  O66  1  0.73311091  0.52582155  0.69535574  1
  O  O67  1  0.80464426  0.26688909  0.02582155  1
  O  O68  1  0.52582155  0.69535574  0.73311091  1
  O  O69  1  0.23311091  0.97417845  0.30464426  1
  O  O70  1  0.69535574  0.73311091  0.52582155  1
  O  O71  1  0.97417845  0.30464426  0.23311091  1
  O  O72  1  0.26688909  0.02582155  0.80464426  1
  O  O73  1  0.19535574  0.76688909  0.47417845  1
  O  O74  1  0.47417845  0.19535574  0.76688909  1
  O  O75  1  0.76688909  0.47417845  0.19535574  1
