# generated using pymatgen
data_NdB7ClO18
_symmetry_space_group_name_H-M   'P 1'
_cell_length_a   8.33249927
_cell_length_b   9.96206321
_cell_length_c   16.74041136
_cell_angle_alpha   90.00000000
_cell_angle_beta   90.00000000
_cell_angle_gamma   89.99572746
_symmetry_Int_Tables_number   1
_chemical_formula_structural   NdB7ClO18
_chemical_formula_sum   'Nd4 B28 Cl4 O72'
_cell_volume   1389.60286838
_cell_formula_units_Z   4
loop_
 _symmetry_equiv_pos_site_id
 _symmetry_equiv_pos_as_xyz
  1  'x, y, z'
loop_
 _atom_site_type_symbol
 _atom_site_label
 _atom_site_symmetry_multiplicity
 _atom_site_fract_x
 _atom_site_fract_y
 _atom_site_fract_z
 _atom_site_occupancy
  Nd  Nd0  1  0.73611302  0.71908964  0.70408811  1
  Nd  Nd1  1  0.23611302  0.21908964  0.79591189  1
  Nd  Nd2  1  0.26388698  0.28091036  0.29591189  1
  Nd  Nd3  1  0.76388698  0.78091036  0.20408811  1
  B  B4  1  0.83635527  0.33851238  0.69964400  1
  B  B5  1  0.33635527  0.83851238  0.80035600  1
  B  B6  1  0.16364473  0.66148762  0.30035600  1
  B  B7  1  0.66364473  0.16148762  0.19964400  1
  B  B8  1  0.11552519  0.71898083  0.70890241  1
  B  B9  1  0.61552519  0.21898083  0.79109759  1
  B  B10  1  0.88447481  0.28101917  0.29109759  1
  B  B11  1  0.38447481  0.78101917  0.20890241  1
  B  B12  1  0.83982626  0.07934420  0.71506972  1
  B  B13  1  0.33982626  0.57934420  0.78493028  1
  B  B14  1  0.16017374  0.92065580  0.28493028  1
  B  B15  1  0.66017374  0.42065580  0.21506972  1
  B  B16  1  0.57262804  0.97943640  0.75810220  1
  B  B17  1  0.07262804  0.47943640  0.74189780  1
  B  B18  1  0.42737196  0.02056360  0.24189780  1
  B  B19  1  0.92737196  0.52056360  0.25810220  1
  B  B20  1  0.57188702  0.44673762  0.73655623  1
  B  B21  1  0.07188702  0.94673762  0.76344377  1
  B  B22  1  0.42811298  0.55326238  0.26344377  1
  B  B23  1  0.92811298  0.05326238  0.23655623  1
  B  B24  1  0.05840384  0.76546552  0.56390956  1
  B  B25  1  0.55840384  0.26546552  0.93609044  1
  B  B26  1  0.94159616  0.23453448  0.43609044  1
  B  B27  1  0.44159616  0.73453448  0.06390956  1
  B  B28  1  0.88053349  0.18921875  0.58525950  1
  B  B29  1  0.38053349  0.68921875  0.91474050  1
  B  B30  1  0.11946651  0.81078125  0.41474050  1
  B  B31  1  0.61946651  0.31078125  0.08525950  1
  Cl  Cl32  1  0.85810410  0.68757889  0.92020564  1
  Cl  Cl33  1  0.35810410  0.18757889  0.57979436  1
  Cl  Cl34  1  0.14189590  0.31242111  0.07979436  1
  Cl  Cl35  1  0.64189590  0.81242111  0.42020564  1
  O  O36  1  0.72956555  0.96732562  0.73335926  1
  O  O37  1  0.22956555  0.46732562  0.76664074  1
  O  O38  1  0.27043445  0.03267438  0.26664074  1
  O  O39  1  0.77043445  0.53267438  0.23335926  1
  O  O40  1  0.72823518  0.45494377  0.71086878  1
  O  O41  1  0.22823518  0.95494377  0.78913122  1
  O  O42  1  0.27176482  0.54505623  0.28913122  1
  O  O43  1  0.77176482  0.04505623  0.21086878  1
  O  O44  1  0.01232220  0.59968306  0.71698987  1
  O  O45  1  0.51232220  0.09968306  0.78301013  1
  O  O46  1  0.98767780  0.40031694  0.28301013  1
  O  O47  1  0.48767780  0.90031694  0.21698987  1
  O  O48  1  0.00916525  0.82898821  0.73500272  1
  O  O49  1  0.50916525  0.32898821  0.76499728  1
  O  O50  1  0.99083475  0.17101179  0.26499728  1
  O  O51  1  0.49083475  0.67101179  0.23500272  1
  O  O52  1  0.86346602  0.31538144  0.61666118  1
  O  O53  1  0.36346602  0.81538144  0.88333882  1
  O  O54  1  0.13653398  0.68461856  0.38333882  1
  O  O55  1  0.63653398  0.18461856  0.11666118  1
  O  O56  1  0.48873368  0.56563486  0.73511494  1
  O  O57  1  0.98873368  0.06563486  0.76488506  1
  O  O58  1  0.51126632  0.43436514  0.26488506  1
  O  O59  1  0.01126632  0.93436514  0.23511494  1
  O  O60  1  0.76026809  0.21207889  0.73855399  1
  O  O61  1  0.26026809  0.71207889  0.76144601  1
  O  O62  1  0.23973191  0.78792111  0.26144601  1
  O  O63  1  0.73973191  0.28792111  0.23855399  1
  O  O64  1  0.48925108  0.86119787  0.75698160  1
  O  O65  1  0.98925108  0.36119787  0.74301840  1
  O  O66  1  0.51074892  0.13880213  0.24301840  1
  O  O67  1  0.01074892  0.63880213  0.25698160  1
  O  O68  1  0.90237090  0.73245864  0.58424359  1
  O  O69  1  0.40237090  0.23245864  0.91575641  1
  O  O70  1  0.09762910  0.26754136  0.41575641  1
  O  O71  1  0.59762910  0.76754136  0.08424359  1
  O  O72  1  0.16283777  0.73591690  0.62526436  1
  O  O73  1  0.66283777  0.23591690  0.87473564  1
  O  O74  1  0.83716223  0.26408310  0.37473564  1
  O  O75  1  0.33716223  0.76408310  0.12526436  1
  O  O76  1  0.67534310  0.59681889  0.55400003  1
  O  O77  1  0.17534310  0.09681889  0.94599997  1
  O  O78  1  0.32465690  0.40318111  0.44599997  1
  O  O79  1  0.82465690  0.90318111  0.05400003  1
  O  O80  1  0.74273037  0.68740040  0.85184169  1
  O  O81  1  0.24273037  0.18740040  0.64815831  1
  O  O82  1  0.25726963  0.31259960  0.14815831  1
  O  O83  1  0.75726963  0.81259960  0.35184169  1
  O  O84  1  0.56635896  0.77881168  0.59274992  1
  O  O85  1  0.06635896  0.27881168  0.90725008  1
  O  O86  1  0.43364104  0.22118832  0.40725008  1
  O  O87  1  0.93364104  0.72118832  0.09274992  1
  O  O88  1  0.77300953  0.63000286  0.98823390  1
  O  O89  1  0.27300953  0.13000286  0.51176610  1
  O  O90  1  0.22699047  0.36999714  0.01176610  1
  O  O91  1  0.72699047  0.86999714  0.48823390  1
  O  O92  1  0.99841168  0.61144758  0.90003106  1
  O  O93  1  0.49841168  0.11144758  0.59996894  1
  O  O94  1  0.00158832  0.38855242  0.09996894  1
  O  O95  1  0.50158832  0.88855242  0.40003106  1
  O  O96  1  0.90146858  0.82928501  0.93595798  1
  O  O97  1  0.40146858  0.32928501  0.56404202  1
  O  O98  1  0.09853142  0.17071499  0.06404202  1
  O  O99  1  0.59853142  0.67071499  0.43595798  1
  O  O100  1  0.87782976  0.07690054  0.63198669  1
  O  O101  1  0.37782976  0.57690054  0.86801331  1
  O  O102  1  0.12217024  0.92309946  0.36801331  1
  O  O103  1  0.62217024  0.42309946  0.13198669  1
  O  O104  1  0.10363782  0.82666862  0.49592548  1
  O  O105  1  0.60363782  0.32666862  0.00407452  1
  O  O106  1  0.89636218  0.17333138  0.50407452  1
  O  O107  1  0.39636218  0.67333138  0.99592548  1
