# generated using pymatgen
data_Li9Mn2Co5O16
_symmetry_space_group_name_H-M   'P 1'
_cell_length_a   2.92030013
_cell_length_b   9.84812050
_cell_length_c   10.67869503
_cell_angle_alpha   72.67994605
_cell_angle_beta   82.14103904
_cell_angle_gamma   89.99999487
_symmetry_Int_Tables_number   1
_chemical_formula_structural   Li9Mn2Co5O16
_chemical_formula_sum   'Li9 Mn2 Co5 O16'
_cell_volume   290.16511223
_cell_formula_units_Z   1
loop_
 _symmetry_equiv_pos_site_id
 _symmetry_equiv_pos_as_xyz
  1  'x, y, z'
loop_
 _atom_site_type_symbol
 _atom_site_label
 _atom_site_symmetry_multiplicity
 _atom_site_fract_x
 _atom_site_fract_y
 _atom_site_fract_z
 _atom_site_occupancy
  Li  Li0  1  0.43694715  0.19886769  0.12610569  1
  Li  Li1  1  0.31359266  0.55208245  0.37281469  1
  Li  Li2  1  0.18845518  0.93734875  0.62308963  1
  Li  Li3  1  0.81204631  0.07396683  0.37590739  1
  Li  Li4  1  0.68513852  0.43361425  0.62972297  1
  Li  Li5  1  0.56289626  0.80704812  0.87420748  1
  Li  Li6  1  0.05826272  0.33036555  0.88347455  1
  Li  Li7  1  0.94381120  0.66830968  0.11237760  1
  Li  Li8  1  0.49983346  0.49900651  0.00033307  1
  Mn  Mn9  1  0.99982604  -0.00079177  0.00034792  1
  Mn  Mn10  1  0.74818591  0.74941999  0.50362817  1
  Co  Co11  1  0.88489922  0.38045692  0.23020157  1
  Co  Co12  1  0.62772196  0.13046957  0.74455609  1
  Co  Co13  1  0.37441354  0.87074078  0.25117292  1
  Co  Co14  1  0.25369611  0.25348089  0.49260777  1
  Co  Co15  1  0.11480982  0.61971092  0.77038037  1
  O  O16  1  0.52697146  0.13684449  0.94605707  1
  O  O17  1  0.40327597  0.52384255  0.19344805  1
  O  O18  1  0.27605059  0.88868434  0.44789883  1
  O  O19  1  0.90993542  0.01260563  0.18012916  1
  O  O20  1  0.77973858  0.39328990  0.44052285  1
  O  O21  1  0.66107586  0.76951828  0.67784829  1
  O  O22  1  0.15520974  0.26937836  0.68958052  1
  O  O23  1  0.03794666  0.66048637  0.92410668  1
  O  O24  1  0.34201243  0.22616387  0.31597513  1
  O  O25  1  0.22265055  0.61382860  0.55469891  1
  O  O26  1  0.09011133  0.98462105  0.81977733  1
  O  O27  1  0.71622529  0.10091313  0.56754941  1
  O  O28  1  0.59792980  0.47890251  0.80414041  1
  O  O29  1  0.47456479  0.86225546  0.05087043  1
  O  O30  1  0.96345660  0.34223442  0.07308679  1
  O  O31  1  0.83830887  0.73233391  0.32338226  1
