# generated using pymatgen
data_Sr2PH4F13
_symmetry_space_group_name_H-M   'P 1'
_cell_length_a   7.57228475
_cell_length_b   7.57228475
_cell_length_c   18.16711723
_cell_angle_alpha   90.00000000
_cell_angle_beta   90.00000000
_cell_angle_gamma   90.00000000
_symmetry_Int_Tables_number   1
_chemical_formula_structural   Sr2PH4F13
_chemical_formula_sum   'Sr8 P4 H16 F52'
_cell_volume   1041.69335183
_cell_formula_units_Z   4
loop_
 _symmetry_equiv_pos_site_id
 _symmetry_equiv_pos_as_xyz
  1  'x, y, z'
loop_
 _atom_site_type_symbol
 _atom_site_label
 _atom_site_symmetry_multiplicity
 _atom_site_fract_x
 _atom_site_fract_y
 _atom_site_fract_z
 _atom_site_occupancy
  Sr  Sr0  1  0.26541761  0.25714285  0.71044742  1
  Sr  Sr1  1  0.73458239  0.74285715  0.21044742  1
  Sr  Sr2  1  0.25714285  0.73458239  0.46044742  1
  Sr  Sr3  1  0.74285715  0.26541761  0.96044742  1
  Sr  Sr4  1  0.26541761  0.74285715  0.78955258  1
  Sr  Sr5  1  0.73458239  0.25714285  0.28955258  1
  Sr  Sr6  1  0.74285715  0.73458239  0.53955258  1
  Sr  Sr7  1  0.25714285  0.26541761  0.03955258  1
  P  P8  1  0.77740876  -0.00000000  0.75000000  1
  P  P9  1  0.22259124  -0.00000000  0.25000000  1
  P  P10  1  0.00000000  0.22259124  0.50000000  1
  P  P11  1  0.00000000  0.77740876  0.00000000  1
  H  H12  1  0.46499417  0.38622229  0.55690776  1
  H  H13  1  0.53500583  0.61377771  0.05690776  1
  H  H14  1  0.38622229  0.53500583  0.30690776  1
  H  H15  1  0.61377771  0.46499417  0.80690776  1
  H  H16  1  0.46499417  0.61377771  0.94309224  1
  H  H17  1  0.53500583  0.38622229  0.44309224  1
  H  H18  1  0.61377771  0.53500583  0.69309224  1
  H  H19  1  0.38622229  0.46499417  0.19309224  1
  H  H20  1  0.10796080  0.63003733  0.62675445  1
  H  H21  1  0.89203920  0.36996267  0.12675445  1
  H  H22  1  0.63003733  0.89203920  0.37675445  1
  H  H23  1  0.36996267  0.10796080  0.87675445  1
  H  H24  1  0.10796080  0.36996267  0.87324555  1
  H  H25  1  0.89203920  0.63003733  0.37324555  1
  H  H26  1  0.36996267  0.89203920  0.62324555  1
  H  H27  1  0.63003733  0.10796080  0.12324555  1
  F  F28  1  0.49566543  0.50000000  0.75000000  1
  F  F29  1  0.50433457  0.50000000  0.25000000  1
  F  F30  1  0.50000000  0.50433457  0.50000000  1
  F  F31  1  0.50000000  0.49566543  0.00000000  1
  F  F32  1  0.30163933  0.94153233  0.67674344  1
  F  F33  1  0.69836067  0.05846767  0.17674344  1
  F  F34  1  0.94153233  0.69836067  0.42674344  1
  F  F35  1  0.05846767  0.30163933  0.92674344  1
  F  F36  1  0.30163933  0.05846767  0.82325656  1
  F  F37  1  0.69836067  0.94153233  0.32325656  1
  F  F38  1  0.05846767  0.69836067  0.57325656  1
  F  F39  1  0.94153233  0.30163933  0.07325656  1
  F  F40  1  0.16379776  0.56555273  0.67812369  1
  F  F41  1  0.83620224  0.43444727  0.17812369  1
  F  F42  1  0.56555273  0.83620224  0.42812369  1
  F  F43  1  0.43444727  0.16379776  0.92812369  1
  F  F44  1  0.16379776  0.43444727  0.82187631  1
  F  F45  1  0.83620224  0.56555273  0.32187631  1
  F  F46  1  0.43444727  0.83620224  0.57187631  1
  F  F47  1  0.56555273  0.16379776  0.07187631  1
  F  F48  1  0.43992704  0.29933744  0.59773815  1
  F  F49  1  0.56007296  0.70066256  0.09773815  1
  F  F50  1  0.29933744  0.56007296  0.34773815  1
  F  F51  1  0.70066256  0.43992704  0.84773815  1
  F  F52  1  0.43992704  0.70066256  0.90226185  1
  F  F53  1  0.56007296  0.29933744  0.40226185  1
  F  F54  1  0.70066256  0.56007296  0.65226185  1
  F  F55  1  0.29933744  0.43992704  0.15226185  1
  F  F56  1  0.62664642  0.14777833  0.73292255  1
  F  F57  1  0.37335358  0.85222167  0.23292255  1
  F  F58  1  0.14777833  0.37335358  0.48292255  1
  F  F59  1  0.85222167  0.62664642  0.98292255  1
  F  F60  1  0.62664642  0.85222167  0.76707745  1
  F  F61  1  0.37335358  0.14777833  0.26707745  1
  F  F62  1  0.85222167  0.37335358  0.51707745  1
  F  F63  1  0.14777833  0.62664642  0.01707745  1
  F  F64  1  0.77870117  0.94358656  0.66299444  1
  F  F65  1  0.22129883  0.05641344  0.16299444  1
  F  F66  1  0.94358656  0.22129883  0.41299444  1
  F  F67  1  0.05641344  0.77870117  0.91299444  1
  F  F68  1  0.77870117  0.05641344  0.83700556  1
  F  F69  1  0.22129883  0.94358656  0.33700556  1
  F  F70  1  0.05641344  0.22129883  0.58700556  1
  F  F71  1  0.94358656  0.77870117  0.08700556  1
  F  F72  1  0.93275230  0.14753277  0.73381127  1
  F  F73  1  0.06724770  0.85246723  0.23381127  1
  F  F74  1  0.14753277  0.06724770  0.48381127  1
  F  F75  1  0.85246723  0.93275230  0.98381127  1
  F  F76  1  0.93275230  0.85246723  0.76618873  1
  F  F77  1  0.06724770  0.14753277  0.26618873  1
  F  F78  1  0.85246723  0.06724770  0.51618873  1
  F  F79  1  0.14753277  0.93275230  0.01618873  1
