# generated using pymatgen
data_Rb2U3P6O25
_symmetry_space_group_name_H-M   'P 1'
_cell_length_a   6.89928416
_cell_length_b   16.68340607
_cell_length_c   20.11834750
_cell_angle_alpha   90.00000000
_cell_angle_beta   97.79292608
_cell_angle_gamma   90.00000000
_symmetry_Int_Tables_number   1
_chemical_formula_structural   Rb2U3P6O25
_chemical_formula_sum   'Rb8 U12 P24 O100'
_cell_volume   2294.30702259
_cell_formula_units_Z   4
loop_
 _symmetry_equiv_pos_site_id
 _symmetry_equiv_pos_as_xyz
  1  'x, y, z'
loop_
 _atom_site_type_symbol
 _atom_site_label
 _atom_site_symmetry_multiplicity
 _atom_site_fract_x
 _atom_site_fract_y
 _atom_site_fract_z
 _atom_site_occupancy
  Rb  Rb0  1  0.75751952  0.92268768  0.86929039  1
  Rb  Rb1  1  0.24248048  0.42268768  0.63070961  1
  Rb  Rb2  1  0.24248048  0.07731232  0.13070961  1
  Rb  Rb3  1  0.75751952  0.57731232  0.36929039  1
  Rb  Rb4  1  0.65173675  0.93130058  0.62042308  1
  Rb  Rb5  1  0.34826325  0.43130058  0.87957692  1
  Rb  Rb6  1  0.34826325  0.06869942  0.37957692  1
  Rb  Rb7  1  0.65173675  0.56869942  0.12042308  1
  U  U8  1  0.20423804  0.83481622  0.74789842  1
  U  U9  1  0.79576196  0.33481622  0.75210158  1
  U  U10  1  0.79576196  0.16518378  0.25210158  1
  U  U11  1  0.20423804  0.66518378  0.24789842  1
  U  U12  1  0.38657650  0.11605924  0.90214722  1
  U  U13  1  0.61342350  0.61605924  0.59785278  1
  U  U14  1  0.61342350  0.88394076  0.09785278  1
  U  U15  1  0.38657650  0.38394076  0.40214722  1
  U  U16  1  0.21678528  0.10797536  0.60126336  1
  U  U17  1  0.78321472  0.60797536  0.89873664  1
  U  U18  1  0.78321472  0.89202464  0.39873664  1
  U  U19  1  0.21678528  0.39202464  0.10126336  1
  P  P20  1  0.69580447  0.14078916  0.54066756  1
  P  P21  1  0.30419553  0.64078916  0.95933244  1
  P  P22  1  0.30419553  0.85921084  0.45933244  1
  P  P23  1  0.69580447  0.35921084  0.04066756  1
  P  P24  1  0.33466961  0.81984979  0.93111031  1
  P  P25  1  0.66533039  0.31984979  0.56888969  1
  P  P26  1  0.66533039  0.18015021  0.06888969  1
  P  P27  1  0.33466961  0.68015021  0.43111031  1
  P  P28  1  0.05324901  0.82416390  0.55936459  1
  P  P29  1  0.94675099  0.32416390  0.94063541  1
  P  P30  1  0.94675099  0.17583610  0.44063541  1
  P  P31  1  0.05324901  0.67583610  0.05936459  1
  P  P32  1  0.92258793  0.14422863  0.96937489  1
  P  P33  1  0.07741207  0.64422863  0.53062511  1
  P  P34  1  0.07741207  0.85577137  0.03062511  1
  P  P35  1  0.92258793  0.35577137  0.46937489  1
  P  P36  1  0.03808099  0.05293186  0.75858852  1
  P  P37  1  0.96191901  0.55293186  0.74141148  1
  P  P38  1  0.96191901  0.94706814  0.24141148  1
  P  P39  1  0.03808099  0.44706814  0.25858852  1
  P  P40  1  0.62128630  0.11744544  0.74579799  1
  P  P41  1  0.37871370  0.61744544  0.75420201  1
  P  P42  1  0.37871370  0.88255456  0.25420201  1
  P  P43  1  0.62128630  0.38255456  0.24579799  1
  O  O44  1  0.50723998  0.83738686  0.98227578  1
  O  O45  1  0.49276002  0.33738686  0.51772422  1
  O  O46  1  0.49276002  0.16261314  0.01772422  1
  O  O47  1  0.50723998  0.66261314  0.48227578  1
  O  O48  1  0.26497473  0.83710014  0.53507592  1
  O  O49  1  0.73502527  0.33710014  0.96492408  1
  O  O50  1  0.73502527  0.16289986  0.46492408  1
  O  O51  1  0.26497473  0.66289986  0.03507592  1
  O  O52  1  0.89990163  0.87577986  0.52068217  1
  O  O53  1  0.10009837  0.37577986  0.97931783  1
  O  O54  1  0.10009837  0.12422014  0.47931783  1
  O  O55  1  0.89990163  0.62422014  0.02068217  1
  O  O56  1  0.85941001  0.09063703  0.57538909  1
  O  O57  1  0.14058999  0.59063703  0.92461091  1
  O  O58  1  0.14058999  0.90936297  0.42461091  1
  O  O59  1  0.85941001  0.40936297  0.07538909  1
  O  O60  1  0.50503201  0.10189994  0.67684574  1
  O  O61  1  0.49496799  0.60189994  0.82315426  1
  O  O62  1  0.49496799  0.89810006  0.32315426  1
  O  O63  1  0.50503201  0.39810006  0.17684574  1
  O  O64  1  0.86491754  0.14600368  0.04556748  1
  O  O65  1  0.13508246  0.64600368  0.45443252  1
  O  O66  1  0.13508246  0.85399632  0.95443252  1
  O  O67  1  0.86491754  0.35399632  0.54556748  1
  O  O68  1  0.49140092  0.10870248  0.53386715  1
  O  O69  1  0.50859908  0.60870248  0.96613285  1
  O  O70  1  0.50859908  0.89129752  0.46613285  1
  O  O71  1  0.49140092  0.39129752  0.03386715  1
  O  O72  1  0.79985820  0.05194218  0.75035446  1
  O  O73  1  0.20014180  0.55194218  0.74964554  1
  O  O74  1  0.20014180  0.94805782  0.24964554  1
  O  O75  1  0.79985820  0.44805782  0.25035446  1
  O  O76  1  0.97198453  0.80630106  0.77274804  1
  O  O77  1  0.02801547  0.30630106  0.72725196  1
  O  O78  1  0.02801547  0.19369894  0.22725196  1
  O  O79  1  0.97198453  0.69369894  0.27274804  1
  O  O80  1  0.50949076  0.09212902  0.80280212  1
  O  O81  1  0.49050924  0.59212902  0.69719788  1
  O  O82  1  0.49050924  0.90787098  0.19719788  1
  O  O83  1  0.50949076  0.40787098  0.30280212  1
  O  O84  1  0.33943416  0.84873563  0.86025708  1
  O  O85  1  0.66056584  0.34873563  0.63974292  1
  O  O86  1  0.66056584  0.15126437  0.13974292  1
  O  O87  1  0.33943416  0.65126437  0.36025708  1
  O  O88  1  0.22940357  -0.00000417  0.59574531  1
  O  O89  1  0.77059643  0.49999583  0.90425469  1
  O  O90  1  0.77059643  0.00000417  0.40425469  1
  O  O91  1  0.22940357  0.50000417  0.09574531  1
  O  O92  1  0.09598866  0.10261276  0.70098460  1
  O  O93  1  0.90401134  0.60261276  0.79901540  1
  O  O94  1  0.90401134  0.89738724  0.29901540  1
  O  O95  1  0.09598866  0.39738724  0.20098460  1
  O  O96  1  0.43841029  0.86866908  0.72673699  1
  O  O97  1  0.56158971  0.36866908  0.77326301  1
  O  O98  1  0.56158971  0.13133092  0.27326301  1
  O  O99  1  0.43841029  0.63133092  0.22673699  1
  O  O100  1  0.35605400  0.22153632  0.88394053  1
  O  O101  1  0.64394600  0.72153632  0.61605947  1
  O  O102  1  0.64394600  0.77846368  0.11605947  1
  O  O103  1  0.35605400  0.27846368  0.38394053  1
  O  O104  1  0.20752511  0.21620699  0.60429827  1
  O  O105  1  0.79247489  0.71620699  0.89570173  1
  O  O106  1  0.79247489  0.78379301  0.39570173  1
  O  O107  1  0.20752511  0.28379301  0.10429827  1
  O  O108  1  0.10308341  0.09386979  0.97165621  1
  O  O109  1  0.89691659  0.59386979  0.52834379  1
  O  O110  1  0.89691659  0.90613021  0.02834379  1
  O  O111  1  0.10308341  0.40613021  0.47165621  1
  O  O112  1  0.07956870  0.83092560  0.63458464  1
  O  O113  1  0.92043130  0.33092560  0.86541536  1
  O  O114  1  0.92043130  0.16907440  0.36541536  1
  O  O115  1  0.07956870  0.66907440  0.13458464  1
  O  O116  1  0.70686579  0.20223526  0.75317434  1
  O  O117  1  0.29313421  0.70223526  0.74682566  1
  O  O118  1  0.29313421  0.79776474  0.24682566  1
  O  O119  1  0.70686579  0.29776474  0.25317434  1
  O  O120  1  0.42700619  0.01141047  0.92217366  1
  O  O121  1  0.57299381  0.51141047  0.57782634  1
  O  O122  1  0.57299381  0.98858953  0.07782634  1
  O  O123  1  0.42700619  0.48858953  0.42217366  1
  O  O124  1  0.10773865  0.08741574  0.82780995  1
  O  O125  1  0.89226135  0.58741574  0.67219005  1
  O  O126  1  0.89226135  0.91258426  0.17219005  1
  O  O127  1  0.10773865  0.41258426  0.32780995  1
  O  O128  1  0.70974775  0.22615009  0.57736379  1
  O  O129  1  0.29025225  0.72615009  0.92263621  1
  O  O130  1  0.29025225  0.77384991  0.42263621  1
  O  O131  1  0.70974775  0.27384991  0.07736379  1
  O  O132  1  0.00254150  0.73405625  0.53873442  1
  O  O133  1  0.99745850  0.23405625  0.96126558  1
  O  O134  1  0.99745850  0.26594375  0.46126558  1
  O  O135  1  0.00254150  0.76594375  0.03873442  1
  O  O136  1  0.08759290  0.96341239  0.75344736  1
  O  O137  1  0.91240710  0.46341239  0.74655264  1
  O  O138  1  0.91240710  0.03658761  0.24655264  1
  O  O139  1  0.08759290  0.53658761  0.25344736  1
  O  O140  1  0.74238610  0.12641544  0.92153550  1
  O  O141  1  0.25761390  0.62641544  0.57846450  1
  O  O142  1  0.25761390  0.87358456  0.07846450  1
  O  O143  1  0.74238610  0.37358456  0.42153550  1
