# generated using pymatgen
data_CoH18CN6ClO3
_symmetry_space_group_name_H-M   'P 1'
_cell_length_a   10.19385540
_cell_length_b   10.19385540
_cell_length_c   10.19385540
_cell_angle_alpha   90.00000000
_cell_angle_beta   90.00000000
_cell_angle_gamma   90.00000000
_symmetry_Int_Tables_number   1
_chemical_formula_structural   CoH18CN6ClO3
_chemical_formula_sum   'Co4 H72 C4 N24 Cl4 O12'
_cell_volume   1059.29130255
_cell_formula_units_Z   4
loop_
 _symmetry_equiv_pos_site_id
 _symmetry_equiv_pos_as_xyz
  1  'x, y, z'
loop_
 _atom_site_type_symbol
 _atom_site_label
 _atom_site_symmetry_multiplicity
 _atom_site_fract_x
 _atom_site_fract_y
 _atom_site_fract_z
 _atom_site_occupancy
  Co  Co0  1  0.99104857  0.99104857  0.99104857  1
  Co  Co1  1  0.00895143  0.49104857  0.50895143  1
  Co  Co2  1  0.49104857  0.50895143  0.00895143  1
  Co  Co3  1  0.50895143  0.00895143  0.49104857  1
  H  H4  1  0.54910689  0.94940354  0.72976433  1
  H  H5  1  0.27023567  0.04910689  0.55059646  1
  H  H6  1  0.44940354  0.77023567  0.45089311  1
  H  H7  1  0.04910689  0.55059646  0.27023567  1
  H  H8  1  0.77023567  0.45089311  0.44940354  1
  H  H9  1  0.94940354  0.72976433  0.54910689  1
  H  H10  1  0.45089311  0.44940354  0.77023567  1
  H  H11  1  0.72976433  0.54910689  0.94940354  1
  H  H12  1  0.55059646  0.27023567  0.04910689  1
  H  H13  1  0.95089311  0.05059646  0.22976433  1
  H  H14  1  0.22976433  0.95089311  0.05059646  1
  H  H15  1  0.05059646  0.22976433  0.95089311  1
  H  H16  1  0.11219137  0.71322624  0.53574888  1
  H  H17  1  0.46425112  0.61219137  0.78677376  1
  H  H18  1  0.21322624  0.96425112  0.88780863  1
  H  H19  1  0.61219137  0.78677376  0.46425112  1
  H  H20  1  0.96425112  0.88780863  0.21322624  1
  H  H21  1  0.71322624  0.53574888  0.11219137  1
  H  H22  1  0.88780863  0.21322624  0.96425112  1
  H  H23  1  0.53574888  0.11219137  0.71322624  1
  H  H24  1  0.78677376  0.46425112  0.61219137  1
  H  H25  1  0.38780863  0.28677376  0.03574888  1
  H  H26  1  0.03574888  0.38780863  0.28677376  1
  H  H27  1  0.28677376  0.03574888  0.38780863  1
  H  H28  1  0.52272032  0.78643579  0.59976911  1
  H  H29  1  0.40023089  0.02272032  0.71356421  1
  H  H30  1  0.28643579  0.90023089  0.47727968  1
  H  H31  1  0.02272032  0.71356421  0.40023089  1
  H  H32  1  0.90023089  0.47727968  0.28643579  1
  H  H33  1  0.78643579  0.59976911  0.52272032  1
  H  H34  1  0.47727968  0.28643579  0.90023089  1
  H  H35  1  0.59976911  0.52272032  0.78643579  1
  H  H36  1  0.71356421  0.40023089  0.02272032  1
  H  H37  1  0.97727968  0.21356421  0.09976911  1
  H  H38  1  0.09976911  0.97727968  0.21356421  1
  H  H39  1  0.21356421  0.09976911  0.97727968  1
  H  H40  1  0.08091862  0.78220664  0.89705486  1
  H  H41  1  0.10294514  0.58091862  0.71779336  1
  H  H42  1  0.28220664  0.60294514  0.91908138  1
  H  H43  1  0.58091862  0.71779336  0.10294514  1
  H  H44  1  0.60294514  0.91908138  0.28220664  1
  H  H45  1  0.78220664  0.89705486  0.08091862  1
  H  H46  1  0.91908138  0.28220664  0.60294514  1
  H  H47  1  0.89705486  0.08091862  0.78220664  1
  H  H48  1  0.71779336  0.10294514  0.58091862  1
  H  H49  1  0.41908138  0.21779336  0.39705486  1
  H  H50  1  0.39705486  0.41908138  0.21779336  1
  H  H51  1  0.21779336  0.39705486  0.41908138  1
  H  H52  1  0.93074790  0.74871781  0.94715464  1
  H  H53  1  0.05284536  0.43074790  0.75128219  1
  H  H54  1  0.24871781  0.55284536  0.06925210  1
  H  H55  1  0.43074790  0.75128219  0.05284536  1
  H  H56  1  0.55284536  0.06925210  0.24871781  1
  H  H57  1  0.74871781  0.94715464  0.93074790  1
  H  H58  1  0.06925210  0.24871781  0.55284536  1
  H  H59  1  0.94715464  0.93074790  0.74871781  1
  H  H60  1  0.75128219  0.05284536  0.43074790  1
  H  H61  1  0.56925210  0.25128219  0.44715464  1
  H  H62  1  0.44715464  0.56925210  0.25128219  1
  H  H63  1  0.25128219  0.44715464  0.56925210  1
  H  H64  1  0.94384555  0.55622741  0.74216629  1
  H  H65  1  0.25783371  0.44384555  0.94377259  1
  H  H66  1  0.05622741  0.75783371  0.05615445  1
  H  H67  1  0.44384555  0.94377259  0.25783371  1
  H  H68  1  0.75783371  0.05615445  0.05622741  1
  H  H69  1  0.55622741  0.74216629  0.94384555  1
  H  H70  1  0.05615445  0.05622741  0.75783371  1
  H  H71  1  0.74216629  0.94384555  0.55622741  1
  H  H72  1  0.94377259  0.25783371  0.44384555  1
  H  H73  1  0.55615445  0.44377259  0.24216629  1
  H  H74  1  0.24216629  0.55615445  0.44377259  1
  H  H75  1  0.44377259  0.24216629  0.55615445  1
  C  C76  1  0.75121911  0.75121911  0.75121911  1
  C  C77  1  0.24878089  0.25121911  0.74878089  1
  C  C78  1  0.25121911  0.74878089  0.24878089  1
  C  C79  1  0.74878089  0.24878089  0.25121911  1
  N  N80  1  0.52414234  0.81618746  0.50374760  1
  N  N81  1  0.49625240  0.02414234  0.68381254  1
  N  N82  1  0.31618746  0.99625240  0.47585766  1
  N  N83  1  0.02414234  0.68381254  0.49625240  1
  N  N84  1  0.99625240  0.47585766  0.31618746  1
  N  N85  1  0.81618746  0.50374760  0.52414234  1
  N  N86  1  0.47585766  0.31618746  0.99625240  1
  N  N87  1  0.50374760  0.52414234  0.81618746  1
  N  N88  1  0.68381254  0.49625240  0.02414234  1
  N  N89  1  0.97585766  0.18381254  0.00374760  1
  N  N90  1  0.00374760  0.97585766  0.18381254  1
  N  N91  1  0.18381254  0.00374760  0.97585766  1
  N  N92  1  0.01468418  0.79924348  0.97224415  1
  N  N93  1  0.02775585  0.51468418  0.70075652  1
  N  N94  1  0.29924348  0.52775585  0.98531582  1
  N  N95  1  0.51468418  0.70075652  0.02775585  1
  N  N96  1  0.52775585  0.98531582  0.29924348  1
  N  N97  1  0.79924348  0.97224415  0.01468418  1
  N  N98  1  0.98531582  0.29924348  0.52775585  1
  N  N99  1  0.97224415  0.01468418  0.79924348  1
  N  N100  1  0.70075652  0.02775585  0.51468418  1
  N  N101  1  0.48531582  0.20075652  0.47224415  1
  N  N102  1  0.47224415  0.48531582  0.20075652  1
  N  N103  1  0.20075652  0.47224415  0.48531582  1
  Cl  Cl104  1  0.25052826  0.75052826  0.74947174  1
  Cl  Cl105  1  0.75052826  0.74947174  0.25052826  1
  Cl  Cl106  1  0.74947174  0.25052826  0.75052826  1
  Cl  Cl107  1  0.24947174  0.24947174  0.24947174  1
  O  O108  1  0.79640668  0.64697302  0.81073510  1
  O  O109  1  0.18926490  0.29640668  0.85302698  1
  O  O110  1  0.14697302  0.68926490  0.20359332  1
  O  O111  1  0.29640668  0.85302698  0.18926490  1
  O  O112  1  0.68926490  0.20359332  0.14697302  1
  O  O113  1  0.64697302  0.81073510  0.79640668  1
  O  O114  1  0.20359332  0.14697302  0.68926490  1
  O  O115  1  0.81073510  0.79640668  0.64697302  1
  O  O116  1  0.85302698  0.18926490  0.29640668  1
  O  O117  1  0.70359332  0.35302698  0.31073510  1
  O  O118  1  0.31073510  0.70359332  0.35302698  1
  O  O119  1  0.35302698  0.31073510  0.70359332  1
