# generated using pymatgen
data_Dy5B2(O2F3)3
_symmetry_space_group_name_H-M   'P 1'
_cell_length_a   6.13807917
_cell_length_b   8.29811618
_cell_length_c   10.74116458
_cell_angle_alpha   99.66949240
_cell_angle_beta   106.60230341
_cell_angle_gamma   90.00000000
_symmetry_Int_Tables_number   1
_chemical_formula_structural   Dy5B2(O2F3)3
_chemical_formula_sum   'Dy10 B4 O12 F18'
_cell_volume   516.17206124
_cell_formula_units_Z   2
loop_
 _symmetry_equiv_pos_site_id
 _symmetry_equiv_pos_as_xyz
  1  'x, y, z'
loop_
 _atom_site_type_symbol
 _atom_site_label
 _atom_site_symmetry_multiplicity
 _atom_site_fract_x
 _atom_site_fract_y
 _atom_site_fract_z
 _atom_site_occupancy
  Dy  Dy0  1  0.18738333  0.68123125  0.61176101  1
  Dy  Dy1  1  0.57562232  0.81876875  0.38823899  1
  Dy  Dy2  1  0.81261667  0.31876875  0.38823899  1
  Dy  Dy3  1  0.42437768  0.18123125  0.61176101  1
  Dy  Dy4  1  0.00081085  0.09563912  0.78041344  1
  Dy  Dy5  1  0.22039740  0.40436088  0.21958656  1
  Dy  Dy6  1  0.99918915  0.90436088  0.21958656  1
  Dy  Dy7  1  0.77960260  0.59563912  0.78041344  1
  Dy  Dy8  1  0.39119811  0.75000000  0.00000000  1
  Dy  Dy9  1  0.60880189  0.25000000  0.00000000  1
  B  B10  1  0.48476980  0.93842393  0.77711013  1
  B  B11  1  0.70765967  0.56157607  0.22288987  1
  B  B12  1  0.51523020  0.06157607  0.22288987  1
  B  B13  1  0.29234033  0.43842393  0.77711013  1
  O  O14  1  0.64719763  0.06532082  0.81745748  1
  O  O15  1  0.82974015  0.43467918  0.18254252  1
  O  O16  1  0.35280237  0.93467918  0.18254252  1
  O  O17  1  0.17025985  0.56532082  0.81745748  1
  O  O18  1  0.28234791  0.96179148  0.68265080  1
  O  O19  1  0.59969711  0.53820852  0.31734920  1
  O  O20  1  0.71765209  0.03820852  0.31734920  1
  O  O21  1  0.40030289  0.46179148  0.68265080  1
  O  O22  1  0.30313246  0.28544595  0.81394135  1
  O  O23  1  0.48919111  0.21455405  0.18605865  1
  O  O24  1  0.69686754  0.71455405  0.18605865  1
  O  O25  1  0.51080889  0.78544595  0.81394135  1
  F  F26  1  0.86684052  0.52045606  0.57860950  1
  F  F27  1  0.28823101  0.97954394  0.42139050  1
  F  F28  1  0.13315948  0.47954394  0.42139050  1
  F  F29  1  0.71176899  0.02045606  0.57860950  1
  F  F30  1  0.94651805  0.81546865  0.73666581  1
  F  F31  1  0.20985224  0.68453135  0.26333419  1
  F  F32  1  0.05348195  0.18453135  0.26333419  1
  F  F33  1  0.79014776  0.31546865  0.73666581  1
  F  F34  1  0.01609675  0.75000000  0.00000000  1
  F  F35  1  0.98390325  0.25000000  0.00000000  1
  F  F36  1  0.50044724  0.71246093  0.55176081  1
  F  F37  1  0.94868643  0.78753907  0.44823919  1
  F  F38  1  0.49955276  0.28753907  0.44823919  1
  F  F39  1  0.05131357  0.21246093  0.55176081  1
  F  F40  1  0.28802336  0.01739132  0.93677121  1
  F  F41  1  0.35125215  0.48260868  0.06322879  1
  F  F42  1  0.71197664  0.98260868  0.06322879  1
  F  F43  1  0.64874785  0.51739132  0.93677121  1
