# generated using pymatgen
data_KRb2CrF6
_symmetry_space_group_name_H-M   'P 1'
_cell_length_a   9.05236511
_cell_length_b   10.89073555
_cell_length_c   10.89073555
_cell_angle_alpha   80.05383050
_cell_angle_beta   65.44293118
_cell_angle_gamma   65.44293118
_symmetry_Int_Tables_number   1
_chemical_formula_structural   KRb2CrF6
_chemical_formula_sum   'K5 Rb10 Cr5 F30'
_cell_volume   888.23424581
_cell_formula_units_Z   5
loop_
 _symmetry_equiv_pos_site_id
 _symmetry_equiv_pos_as_xyz
  1  'x, y, z'
loop_
 _atom_site_type_symbol
 _atom_site_label
 _atom_site_symmetry_multiplicity
 _atom_site_fract_x
 _atom_site_fract_y
 _atom_site_fract_z
 _atom_site_occupancy
  K  K0  1  0.50000000  -0.00000000  -0.00000000  1
  K  K1  1  0.26606029  0.82165982  0.64621960  1
  K  K2  1  0.08772011  0.64621960  0.17834018  1
  K  K3  1  0.73393971  0.17834018  0.35378040  1
  K  K4  1  0.91227989  0.35378040  0.82165982  1
  Rb  Rb5  1  0.75000000  0.50000000  0.50000000  1
  Rb  Rb6  1  0.25000000  0.50000000  0.50000000  1
  Rb  Rb7  1  0.62041969  0.89395337  0.31807965  1
  Rb  Rb8  1  0.51437305  0.31807965  0.10604663  1
  Rb  Rb9  1  0.83245271  0.10604663  0.68192035  1
  Rb  Rb10  1  0.93849934  0.68192035  0.89395337  1
  Rb  Rb11  1  0.37958031  0.10604663  0.68192035  1
  Rb  Rb12  1  0.48562695  0.68192035  0.89395337  1
  Rb  Rb13  1  0.16754729  0.89395337  0.31807965  1
  Rb  Rb14  1  0.06150066  0.31807965  0.10604663  1
  Cr  Cr15  1  0.00000000  -0.00000000  -0.00000000  1
  Cr  Cr16  1  0.80307773  0.79175702  0.60208752  1
  Cr  Cr17  1  0.59483475  0.60208752  0.20824298  1
  Cr  Cr18  1  0.19692227  0.20824298  0.39791248  1
  Cr  Cr19  1  0.40516525  0.39791248  0.79175702  1
  F  F20  1  0.93701391  0.93756665  0.18840552  1
  F  F21  1  0.87458056  0.18840552  0.06243335  1
  F  F22  1  0.06298609  0.06243335  0.81159448  1
  F  F23  1  0.12541944  0.81159448  0.93756665  1
  F  F24  1  0.78445407  1.00000000  1.00000000  1
  F  F25  1  0.21554593  0.00000000  0.00000000  1
  F  F26  1  0.67096914  0.88087582  0.77718591  1
  F  F27  1  0.55184496  0.77718591  0.11912418  1
  F  F28  1  0.32903086  0.11912418  0.22281409  1
  F  F29  1  0.44815504  0.22281409  0.88087582  1
  F  F30  1  0.84570755  0.61550427  0.69308064  1
  F  F31  1  0.46121181  0.69308064  0.38449573  1
  F  F32  1  0.15429245  0.38449573  0.30691936  1
  F  F33  1  0.53878819  0.30691936  0.61550427  1
  F  F34  1  0.93437067  0.70320244  0.42805621  1
  F  F35  1  0.63757311  0.42805621  0.29679756  1
  F  F36  1  0.06562933  0.29679756  0.57194379  1
  F  F37  1  0.36242689  0.57194379  0.70320244  1
  F  F38  1  0.75782125  0.96963132  0.51472618  1
  F  F39  1  0.72745257  0.51472618  0.03036868  1
  F  F40  1  0.24217875  0.03036868  0.48527382  1
  F  F41  1  0.27254743  0.48527382  0.96963132  1
  F  F42  1  0.58344388  0.79472442  0.60385993  1
  F  F43  1  0.37816830  0.60385993  0.20527558  1
  F  F44  1  0.98202823  0.20527558  0.39614007  1
  F  F45  1  0.18730381  0.39614007  0.79472442  1
  F  F46  1  0.41655612  0.20527558  0.39614007  1
  F  F47  1  0.62183170  0.39614007  0.79472442  1
  F  F48  1  0.01797177  0.79472442  0.60385993  1
  F  F49  1  0.81269619  0.60385993  0.20527558  1
