# generated using pymatgen
data_BaUPO6F
_symmetry_space_group_name_H-M   'P 1'
_cell_length_a   6.72567372
_cell_length_b   8.37860503
_cell_length_c   11.17272229
_cell_angle_alpha   90.00000000
_cell_angle_beta   92.33373882
_cell_angle_gamma   90.00000000
_symmetry_Int_Tables_number   1
_chemical_formula_structural   BaUPO6F
_chemical_formula_sum   'Ba4 U4 P4 O24 F4'
_cell_volume   629.08040758
_cell_formula_units_Z   4
loop_
 _symmetry_equiv_pos_site_id
 _symmetry_equiv_pos_as_xyz
  1  'x, y, z'
loop_
 _atom_site_type_symbol
 _atom_site_label
 _atom_site_symmetry_multiplicity
 _atom_site_fract_x
 _atom_site_fract_y
 _atom_site_fract_z
 _atom_site_occupancy
  Ba  Ba0  1  0.83854330  0.26829615  0.50771425  1
  Ba  Ba1  1  0.16145670  0.76829615  0.99228575  1
  Ba  Ba2  1  0.16145670  0.73170385  0.49228575  1
  Ba  Ba3  1  0.83854330  0.23170385  0.00771425  1
  U  U4  1  0.39285022  0.38139536  0.76276623  1
  U  U5  1  0.60714978  0.88139536  0.73723377  1
  U  U6  1  0.60714978  0.61860464  0.23723377  1
  U  U7  1  0.39285022  0.11860464  0.26276623  1
  P  P8  1  0.90711483  0.53417090  0.76546279  1
  P  P9  1  0.09288517  0.03417090  0.73453721  1
  P  P10  1  0.09288517  0.46582910  0.23453721  1
  P  P11  1  0.90711483  0.96582910  0.26546279  1
  O  O12  1  0.84826048  0.70354310  0.81026146  1
  O  O13  1  0.15173952  0.20354310  0.68973854  1
  O  O14  1  0.15173952  0.29645690  0.18973854  1
  O  O15  1  0.84826048  0.79645690  0.31026146  1
  O  O16  1  0.09118916  0.48155099  0.84658758  1
  O  O17  1  0.90881084  0.98155099  0.65341242  1
  O  O18  1  0.90881084  0.51844901  0.15341242  1
  O  O19  1  0.09118916  0.01844901  0.34658758  1
  O  O20  1  0.73650672  0.41362171  0.79074152  1
  O  O21  1  0.26349328  0.91362171  0.70925848  1
  O  O22  1  0.26349328  0.58637829  0.20925848  1
  O  O23  1  0.73650672  0.08637829  0.29074152  1
  O  O24  1  0.95274299  0.53451198  0.63278400  1
  O  O25  1  0.04725701  0.03451198  0.86721600  1
  O  O26  1  0.04725701  0.46548802  0.36721600  1
  O  O27  1  0.95274299  0.96548802  0.13278400  1
  O  O28  1  0.38549014  0.47178608  0.61461806  1
  O  O29  1  0.61450986  0.97178608  0.88538194  1
  O  O30  1  0.61450986  0.52821392  0.38538194  1
  O  O31  1  0.38549014  0.02821392  0.11461806  1
  O  O32  1  0.42156234  0.29078320  0.90998838  1
  O  O33  1  0.57843766  0.79078320  0.59001162  1
  O  O34  1  0.57843766  0.70921680  0.09001162  1
  O  O35  1  0.42156234  0.20921680  0.40998838  1
  F  F36  1  0.44046483  0.65435551  0.82282801  1
  F  F37  1  0.55953517  0.15435551  0.67717199  1
  F  F38  1  0.55953517  0.34564449  0.17717199  1
  F  F39  1  0.44046483  0.84564449  0.32282801  1
