# generated using pymatgen
data_Tb6H44N8O51
_symmetry_space_group_name_H-M   'P 1'
_cell_length_a   11.61780957
_cell_length_b   11.80023025
_cell_length_c   16.75211634
_cell_angle_alpha   91.22565860
_cell_angle_beta   90.60106194
_cell_angle_gamma   112.55732892
_symmetry_Int_Tables_number   1
_chemical_formula_structural   Tb6H44N8O51
_chemical_formula_sum   'Tb12 H88 N16 O102'
_cell_volume   2119.97666768
_cell_formula_units_Z   2
loop_
 _symmetry_equiv_pos_site_id
 _symmetry_equiv_pos_as_xyz
  1  'x, y, z'
loop_
 _atom_site_type_symbol
 _atom_site_label
 _atom_site_symmetry_multiplicity
 _atom_site_fract_x
 _atom_site_fract_y
 _atom_site_fract_z
 _atom_site_occupancy
  Tb  Tb0  1  0.80097364  0.97708089  0.06767655  1
  Tb  Tb1  1  0.19902636  0.02291911  0.93232345  1
  Tb  Tb2  1  0.87776212  0.89606745  0.87746777  1
  Tb  Tb3  1  0.12223788  0.10393255  0.12253223  1
  Tb  Tb4  1  0.98201543  0.79438035  0.04957553  1
  Tb  Tb5  1  0.01798457  0.20561965  0.95042447  1
  Tb  Tb6  1  0.29279982  0.98490962  0.55105312  1
  Tb  Tb7  1  0.70720018  0.01509038  0.44894688  1
  Tb  Tb8  1  0.39277232  0.87459973  0.37762625  1
  Tb  Tb9  1  0.60722768  0.12540027  0.62237375  1
  Tb  Tb10  1  0.47618806  0.80609726  0.56833175  1
  Tb  Tb11  1  0.52381194  0.19390274  0.43166825  1
  H  H12  1  0.72409339  0.72518524  0.99636003  1
  H  H13  1  0.27590661  0.27481476  0.00363997  1
  H  H14  1  0.74519794  0.06333067  0.91600825  1
  H  H15  1  0.25480206  0.93666933  0.08399175  1
  H  H16  1  0.04507198  0.76665206  0.87640128  1
  H  H17  1  0.95492802  0.23334794  0.12359872  1
  H  H18  1  0.92335676  0.89227158  0.19979272  1
  H  H19  1  0.07664324  0.10772842  0.80020728  1
  H  H20  1  0.67637880  0.83289834  0.21089836  1
  H  H21  1  0.32362120  0.16710166  0.78910164  1
  H  H22  1  0.59338491  0.74611149  0.14040857  1
  H  H23  1  0.40661509  0.25388851  0.85959143  1
  H  H24  1  0.51224630  0.87516797  0.04171889  1
  H  H25  1  0.48775370  0.12483203  0.95828111  1
  H  H26  1  0.57574051  0.86677642  0.95723569  1
  H  H27  1  0.42425949  0.13322358  0.04276431  1
  H  H28  1  0.62527222  0.87518759  0.81337357  1
  H  H29  1  0.37472778  0.12481241  0.18662643  1
  H  H30  1  0.59099011  0.74204920  0.84815300  1
  H  H31  1  0.40900989  0.25795080  0.15184700  1
  H  H32  1  0.80295160  0.62100563  0.87407379  1
  H  H33  1  0.19704840  0.37899437  0.12592621  1
  H  H34  1  0.74354102  0.64601406  0.79050899  1
  H  H35  1  0.25645898  0.35398594  0.20949101  1
  H  H36  1  0.82271277  0.52761189  0.00158372  1
  H  H37  1  0.17728723  0.47238811  0.99841628  1
  H  H38  1  0.94463300  0.57137594  0.94739182  1
  H  H39  1  0.05536700  0.42862406  0.05260818  1
  H  H40  1  0.76233832  0.68784255  0.15468931  1
  H  H41  1  0.23766168  0.31215745  0.84531069  1
  H  H42  1  0.82145323  0.58481862  0.15811187  1
  H  H43  1  0.17854677  0.41518138  0.84188813  1
  H  H44  1  0.51381850  0.52081147  0.86865360  1
  H  H45  1  0.48618150  0.47918853  0.13134640  1
  H  H46  1  0.43289979  0.55165674  0.80528069  1
  H  H47  1  0.56710021  0.44834326  0.19471931  1
  H  H48  1  0.40761076  0.61813709  0.05915320  1
  H  H49  1  0.59238924  0.38186291  0.94084680  1
  H  H50  1  0.39628750  0.63331969  0.15096897  1
  H  H51  1  0.60371250  0.36668031  0.84903103  1
  H  H52  1  0.70180281  0.32715351  0.03454821  1
  H  H53  1  0.29819719  0.67284649  0.96545179  1
  H  H54  1  0.62571532  0.40109866  0.07295934  1
  H  H55  1  0.37428468  0.59890134  0.92704066  1
  H  H56  1  0.22277670  0.72513771  0.50033880  1
  H  H57  1  0.77722330  0.27486229  0.49966120  1
  H  H58  1  0.25987949  0.04084130  0.38073554  1
  H  H59  1  0.74012051  0.95915870  0.61926446  1
  H  H60  1  0.56475444  0.74539985  0.41952371  1
  H  H61  1  0.43524556  0.25460015  0.58047629  1
  H  H62  1  0.39211776  0.93212031  0.70019308  1
  H  H63  1  0.60788224  0.06787969  0.29980692  1
  H  H64  1  0.09075149  0.84197459  0.67172289  1
  H  H65  1  0.90924851  0.15802541  0.32827711  1
  H  H66  1  0.17717905  0.76757660  0.65180965  1
  H  H67  1  0.82282095  0.23242340  0.34819035  1
  H  H68  1  0.04809889  0.93031424  0.45210596  1
  H  H69  1  0.95190111  0.06968576  0.54789404  1
  H  H70  1  0.01771368  0.81366166  0.50441621  1
  H  H71  1  0.98228632  0.18633834  0.49558379  1
  H  H72  1  0.13670436  0.76835117  0.28486282  1
  H  H73  1  0.86329564  0.23164883  0.71513718  1
  H  H74  1  0.11450384  0.80171064  0.37518447  1
  H  H75  1  0.88549616  0.19828936  0.62481553  1
  H  H76  1  0.24130177  0.59315002  0.34817040  1
  H  H77  1  0.75869823  0.40684998  0.65182960  1
  H  H78  1  0.38742547  0.62588213  0.32915653  1
  H  H79  1  0.61257453  0.37411787  0.67084347  1
  H  H80  1  0.37956476  0.51978172  0.54183800  1
  H  H81  1  0.62043524  0.48021828  0.45816200  1
  H  H82  1  0.36124159  0.58766656  0.46229006  1
  H  H83  1  0.63875841  0.41233344  0.53770994  1
  H  H84  1  0.30133433  0.69235805  0.71209579  1
  H  H85  1  0.69866567  0.30764195  0.28790421  1
  H  H86  1  0.24492684  0.60156519  0.63911019  1
  H  H87  1  0.75507316  0.39843481  0.36088981  1
  H  H88  1  0.81428312  0.69247271  0.53785835  1
  H  H89  1  0.18571688  0.30752729  0.46214165  1
  H  H90  1  0.89754154  0.62629142  0.57346491  1
  H  H91  1  0.10245846  0.37370858  0.42653509  1
  H  H92  1  0.88327558  0.59391433  0.43534816  1
  H  H93  1  0.11672442  0.40608567  0.56465184  1
  H  H94  1  0.86511101  0.59035877  0.34195675  1
  H  H95  1  0.13488899  0.40964123  0.65804325  1
  H  H96  1  0.05367188  0.42786121  0.30015517  1
  H  H97  1  0.94632812  0.57213879  0.69984483  1
  H  H98  1  0.01997499  0.50881297  0.36312538  1
  H  H99  1  0.98002501  0.49118703  0.63687462  1
  N  N100  1  0.68140795  0.13293651  0.14539618  1
  N  N101  1  0.31859205  0.86706349  0.85460382  1
  N  N102  1  0.91030292  0.90840972  0.70062821  1
  N  N103  1  0.08969708  0.09159028  0.29937179  1
  N  N104  1  0.13791713  0.68671294  0.13505206  1
  N  N105  1  0.86208287  0.31328706  0.86494794  1
  N  N106  1  0.17832802  0.12827921  0.64379656  1
  N  N107  1  0.82167198  0.87172079  0.35620344  1
  N  N108  1  0.40546285  0.89847310  0.20154198  1
  N  N109  1  0.59453715  0.10152690  0.79845802  1
  N  N110  1  0.63562151  0.69106277  0.64407409  1
  N  N111  1  0.36437849  0.30893723  0.35592591  1
  N  N112  1  0.90365545  0.41780907  0.17336827  1
  N  N113  1  0.09634455  0.58219093  0.82663173  1
  N  N114  1  0.41007451  0.41351112  0.67937266  1
  N  N115  1  0.58992549  0.58648888  0.32062734  1
  O  O116  1  0.00000000  0.00000000  -0.00000000  1
  O  O117  1  0.79624295  0.80202542  0.99695089  1
  O  O118  1  0.20375705  0.19797458  0.00304911  1
  O  O119  1  0.81686063  0.04722395  0.93614429  1
  O  O120  1  0.18313937  0.95277605  0.06385571  1
  O  O121  1  0.03690566  0.82963971  0.91312365  1
  O  O122  1  0.96309434  0.17036029  0.08687635  1
  O  O123  1  0.94524661  0.92543191  0.14653557  1
  O  O124  1  0.05475339  0.07456809  0.85346443  1
  O  O125  1  0.67962500  0.80345704  0.15605147  1
  O  O126  1  0.32037500  0.19654296  0.84394853  1
  O  O127  1  0.58952158  0.88409143  0.01498469  1
  O  O128  1  0.41047842  0.11590857  0.98501531  1
  O  O129  1  0.64303664  0.83104403  0.85763040  1
  O  O130  1  0.35696336  0.16895597  0.14236960  1
  O  O131  1  0.78256167  0.68031534  0.84236047  1
  O  O132  1  0.21743833  0.31968466  0.15763953  1
  O  O133  1  0.88151295  0.59793115  0.97232340  1
  O  O134  1  0.11848705  0.40206885  0.02767660  1
  O  O135  1  0.81594336  0.65326078  0.12686509  1
  O  O136  1  0.18405664  0.34673922  0.87313491  1
  O  O137  1  0.48049637  0.58431149  0.85557024  1
  O  O138  1  0.51950363  0.41568851  0.14442976  1
  O  O139  1  0.45061401  0.61843214  0.11155890  1
  O  O140  1  0.54938599  0.38156786  0.88844110  1
  O  O141  1  0.67610928  0.39626332  0.02624284  1
  O  O142  1  0.32389072  0.60373668  0.97375716  1
  O  O143  1  0.70466075  0.14600021  0.07119530  1
  O  O144  1  0.29533925  0.85399979  0.92880470  1
  O  O145  1  0.71259084  0.05362323  0.18168825  1
  O  O146  1  0.28740916  0.94637677  0.81831175  1
  O  O147  1  0.63001587  0.19328834  0.18184819  1
  O  O148  1  0.36998413  0.80671166  0.81815181  1
  O  O149  1  0.97793657  0.86663647  0.74168049  1
  O  O150  1  0.02206343  0.13336353  0.25831951  1
  O  O151  1  0.83140331  0.93990196  0.73847450  1
  O  O152  1  0.16859669  0.06009804  0.26152550  1
  O  O153  1  0.91982950  0.91799406  0.62688334  1
  O  O154  1  0.08017050  0.08200594  0.37311666  1
  O  O155  1  0.08114969  0.74409619  0.17480936  1
  O  O156  1  0.91885031  0.25590381  0.82519064  1
  O  O157  1  0.12805299  0.68639280  0.05901543  1
  O  O158  1  0.87194701  0.31360720  0.94098457  1
  O  O159  1  0.19813776  0.63462991  0.16961147  1
  O  O160  1  0.80186224  0.36537009  0.83038853  1
  O  O161  1  0.50000000  0.00000000  0.50000000  1
  O  O162  1  0.29679947  0.80009086  0.49869380  1
  O  O163  1  0.70320053  0.19990914  0.50130620  1
  O  O164  1  0.32587497  0.03367543  0.41433341  1
  O  O165  1  0.67412503  0.96632457  0.58566659  1
  O  O166  1  0.54773536  0.81782974  0.43714599  1
  O  O167  1  0.45226464  0.18217026  0.56285401  1
  O  O168  1  0.42588730  0.95035428  0.64669649  1
  O  O169  1  0.57411270  0.04964572  0.35330351  1
  O  O170  1  0.14684348  0.82924857  0.63188508  1
  O  O171  1  0.85315652  0.17075143  0.36811492  1
  O  O172  1  0.08617383  0.87780008  0.47577129  1
  O  O173  1  0.91382617  0.12219992  0.52422871  1
  O  O174  1  0.17193202  0.78265476  0.33969029  1
  O  O175  1  0.82806798  0.21734524  0.66030971  1
  O  O176  1  0.32852643  0.64679481  0.36364411  1
  O  O177  1  0.67147357  0.35320519  0.63635589  1
  O  O178  1  0.37521361  0.59533814  0.52070742  1
  O  O179  1  0.62478639  0.40466186  0.47929258  1
  O  O180  1  0.29176739  0.68943985  0.65390661  1
  O  O181  1  0.70823261  0.31056015  0.34609339  1
  O  O182  1  0.88731113  0.67251268  0.52672558  1
  O  O183  1  0.11268887  0.32748732  0.47327442  1
  O  O184  1  0.89092589  0.55046907  0.38504363  1
  O  O185  1  0.10907411  0.44953093  0.61495637  1
  O  O186  1  0.08437428  0.47501420  0.35038552  1
  O  O187  1  0.91562572  0.52498580  0.64961448  1
  O  O188  1  0.16508215  0.11123794  0.56791698  1
  O  O189  1  0.83491785  0.88876206  0.43208302  1
  O  O190  1  0.25558406  0.09078729  0.67842077  1
  O  O191  1  0.74441594  0.90921271  0.32157923  1
  O  O192  1  0.11750550  0.17722910  0.68238445  1
  O  O193  1  0.88249450  0.82277090  0.31761555  1
  O  O194  1  0.44827979  0.82904323  0.23859489  1
  O  O195  1  0.55172021  0.17095677  0.76140511  1
  O  O196  1  0.36262511  0.96431321  0.24379586  1
  O  O197  1  0.63737489  0.03568679  0.75620414  1
  O  O198  1  0.40377895  0.90157678  0.12689496  1
  O  O199  1  0.59622105  0.09842322  0.87310504  1
  O  O200  1  0.55655160  0.72377650  0.68092045  1
  O  O201  1  0.44344840  0.27622350  0.31907955  1
  O  O202  1  0.64538497  0.70854565  0.56906431  1
  O  O203  1  0.35461503  0.29145435  0.43093569  1
  O  O204  1  0.70048003  0.64387101  0.67957042  1
  O  O205  1  0.29951997  0.35612899  0.32042958  1
  O  O206  1  0.83768366  0.46358220  0.21178954  1
  O  O207  1  0.16231634  0.53641780  0.78821046  1
  O  O208  1  0.93508336  0.45107097  0.10303982  1
  O  O209  1  0.06491664  0.54892903  0.89696018  1
  O  O210  1  0.93697688  0.33796220  0.20572331  1
  O  O211  1  0.06302312  0.66203780  0.79427669  1
  O  O212  1  0.34104765  0.45846871  0.71438495  1
  O  O213  1  0.65895235  0.54153129  0.28561505  1
  O  O214  1  0.40037522  0.39430426  0.60364883  1
  O  O215  1  0.59962478  0.60569574  0.39635117  1
  O  O216  1  0.48887366  0.38647613  0.71923238  1
  O  O217  1  0.51112634  0.61352387  0.28076762  1
