# generated using pymatgen
data_Sr6Sn12Pt11
_symmetry_space_group_name_H-M   'P 1'
_cell_length_a   6.67476883
_cell_length_b   14.89967392
_cell_length_c   14.89967392
_cell_angle_alpha   84.65398304
_cell_angle_beta   77.05648091
_cell_angle_gamma   77.05648091
_symmetry_Int_Tables_number   1
_chemical_formula_structural   Sr6Sn12Pt11
_chemical_formula_sum   'Sr12 Sn24 Pt22'
_cell_volume   1406.01316552
_cell_formula_units_Z   2
loop_
 _symmetry_equiv_pos_site_id
 _symmetry_equiv_pos_as_xyz
  1  'x, y, z'
loop_
 _atom_site_type_symbol
 _atom_site_label
 _atom_site_symmetry_multiplicity
 _atom_site_fract_x
 _atom_site_fract_y
 _atom_site_fract_z
 _atom_site_occupancy
  Sr  Sr0  1  0.38888021  0.87826861  0.87826861  1
  Sr  Sr1  1  0.61111979  0.12173139  0.12173139  1
  Sr  Sr2  1  0.14541743  0.62173139  0.62173139  1
  Sr  Sr3  1  0.85458257  0.37826861  0.37826861  1
  Sr  Sr4  1  0.36024387  0.21194454  0.54189922  1
  Sr  Sr5  1  0.63975613  0.45810078  0.78805546  1
  Sr  Sr6  1  0.11408763  0.28805546  0.95810078  1
  Sr  Sr7  1  0.88591237  0.04189922  0.71194454  1
  Sr  Sr8  1  0.63975613  0.78805546  0.45810078  1
  Sr  Sr9  1  0.36024387  0.54189922  0.21194454  1
  Sr  Sr10  1  0.88591237  0.71194454  0.04189922  1
  Sr  Sr11  1  0.11408763  0.95810078  0.28805546  1
  Sn  Sn12  1  0.26171473  0.66690930  0.83253054  1
  Sn  Sn13  1  0.73828527  0.16746946  0.33309070  1
  Sn  Sn14  1  0.76115457  0.83309070  0.66746946  1
  Sn  Sn15  1  0.23884543  0.33253054  0.16690930  1
  Sn  Sn16  1  0.73828527  0.33309070  0.16746946  1
  Sn  Sn17  1  0.26171473  0.83253054  0.66690930  1
  Sn  Sn18  1  0.23884543  0.16690930  0.33253054  1
  Sn  Sn19  1  0.76115457  0.66746946  0.83309070  1
  Sn  Sn20  1  0.73109105  0.55541124  0.55541124  1
  Sn  Sn21  1  0.26890895  0.44458876  0.44458876  1
  Sn  Sn22  1  0.84191353  0.94458876  0.94458876  1
  Sn  Sn23  1  0.15808647  0.05541124  0.05541124  1
  Sn  Sn24  1  0.24901814  0.00098186  0.50098186  1
  Sn  Sn25  1  0.75098186  0.49901814  0.99901814  1
  Sn  Sn26  1  0.75098186  0.99901814  0.49901814  1
  Sn  Sn27  1  0.24901814  0.50098186  0.00098186  1
  Sn  Sn28  1  0.65912221  0.88159179  0.23061289  1
  Sn  Sn29  1  0.34087779  0.76938711  0.11840821  1
  Sn  Sn30  1  0.77132689  0.61840821  0.26938711  1
  Sn  Sn31  1  0.22867311  0.73061289  0.38159179  1
  Sn  Sn32  1  0.34087779  0.11840821  0.76938711  1
  Sn  Sn33  1  0.65912221  0.23061289  0.88159179  1
  Sn  Sn34  1  0.22867311  0.38159179  0.73061289  1
  Sn  Sn35  1  0.77132689  0.26938711  0.61840821  1
  Pt  Pt36  1  0.57932048  0.68376136  0.68376136  1
  Pt  Pt37  1  0.42067952  0.31623864  0.31623864  1
  Pt  Pt38  1  0.94684320  0.81623864  0.81623864  1
  Pt  Pt39  1  0.05315680  0.18376136  0.18376136  1
  Pt  Pt40  1  -0.00000000  0.89892234  0.10107766  1
  Pt  Pt41  1  0.00000000  0.60107766  0.39892234  1
  Pt  Pt42  1  0.00000000  0.10107766  0.89892234  1
  Pt  Pt43  1  -0.00000000  0.39892234  0.60107766  1
  Pt  Pt44  1  0.50000000  0.42318681  0.57681319  1
  Pt  Pt45  1  0.50000000  0.07681319  0.92318681  1
  Pt  Pt46  1  0.50000000  0.57681319  0.42318681  1
  Pt  Pt47  1  0.50000000  0.92318681  0.07681319  1
  Pt  Pt48  1  -0.00000000  0.25000000  0.75000000  1
  Pt  Pt49  1  -0.00000000  0.75000000  0.25000000  1
  Pt  Pt50  1  0.55860570  0.01706358  0.35092944  1
  Pt  Pt51  1  0.44139430  0.64907056  0.98293642  1
  Pt  Pt52  1  0.92659872  0.48293642  0.14907056  1
  Pt  Pt53  1  0.07340128  0.85092944  0.51706358  1
  Pt  Pt54  1  0.44139430  0.98293642  0.64907056  1
  Pt  Pt55  1  0.55860570  0.35092944  0.01706358  1
  Pt  Pt56  1  0.07340128  0.51706358  0.85092944  1
  Pt  Pt57  1  0.92659872  0.14907056  0.48293642  1
