# generated using pymatgen
data_Ga3Sb7(Se4Cl7)2
_symmetry_space_group_name_H-M   'P 1'
_cell_length_a   12.55083633
_cell_length_b   17.48492038
_cell_length_c   18.35392309
_cell_angle_alpha   90.00000000
_cell_angle_beta   90.00000000
_cell_angle_gamma   90.00000000
_symmetry_Int_Tables_number   1
_chemical_formula_structural   Ga3Sb7(Se4Cl7)2
_chemical_formula_sum   'Ga12 Sb28 Se32 Cl56'
_cell_volume   4027.77528523
_cell_formula_units_Z   4
loop_
 _symmetry_equiv_pos_site_id
 _symmetry_equiv_pos_as_xyz
  1  'x, y, z'
loop_
 _atom_site_type_symbol
 _atom_site_label
 _atom_site_symmetry_multiplicity
 _atom_site_fract_x
 _atom_site_fract_y
 _atom_site_fract_z
 _atom_site_occupancy
  Ga  Ga0  1  0.26017620  0.29335013  0.85531980  1
  Ga  Ga1  1  0.23982380  0.70664987  0.35531980  1
  Ga  Ga2  1  0.76017620  0.20664987  0.14468020  1
  Ga  Ga3  1  0.73982380  0.79335013  0.64468020  1
  Ga  Ga4  1  0.25865447  0.00705444  0.62393590  1
  Ga  Ga5  1  0.24134553  0.99294556  0.12393590  1
  Ga  Ga6  1  0.75865447  0.49294556  0.37606410  1
  Ga  Ga7  1  0.74134553  0.50705444  0.87606410  1
  Ga  Ga8  1  0.75899458  0.22144945  0.63417981  1
  Ga  Ga9  1  0.74100542  0.77855055  0.13417981  1
  Ga  Ga10  1  0.25899458  0.27855055  0.36582019  1
  Ga  Ga11  1  0.24100542  0.72144945  0.86582019  1
  Sb  Sb12  1  0.74924304  0.01159215  0.84941100  1
  Sb  Sb13  1  0.75075696  0.98840785  0.34941100  1
  Sb  Sb14  1  0.24924304  0.48840785  0.15058900  1
  Sb  Sb15  1  0.25075696  0.51159215  0.65058900  1
  Sb  Sb16  1  0.46348634  0.90621243  0.88038981  1
  Sb  Sb17  1  0.03651366  0.09378757  0.38038981  1
  Sb  Sb18  1  0.96348634  0.59378757  0.11961019  1
  Sb  Sb19  1  0.53651366  0.40621243  0.61961019  1
  Sb  Sb20  1  0.47763663  0.11341071  0.78577157  1
  Sb  Sb21  1  0.02236337  0.88658929  0.28577157  1
  Sb  Sb22  1  0.97763663  0.38658929  0.21422843  1
  Sb  Sb23  1  0.52236337  0.61341071  0.71422843  1
  Sb  Sb24  1  0.54145350  0.10327742  0.98537707  1
  Sb  Sb25  1  0.95854650  0.89672258  0.48537707  1
  Sb  Sb26  1  0.04145350  0.39672258  0.01462293  1
  Sb  Sb27  1  0.45854650  0.60327742  0.51462293  1
  Sb  Sb28  1  0.03621594  0.11359089  0.88865099  1
  Sb  Sb29  1  0.46378406  0.88640911  0.38865099  1
  Sb  Sb30  1  0.53621594  0.38640911  0.11134901  1
  Sb  Sb31  1  0.96378406  0.61359089  0.61134901  1
  Sb  Sb32  1  0.95075249  0.90905503  0.98259406  1
  Sb  Sb33  1  0.54924751  0.09094497  0.48259406  1
  Sb  Sb34  1  0.45075249  0.59094497  0.01740594  1
  Sb  Sb35  1  0.04924751  0.40905503  0.51740594  1
  Sb  Sb36  1  0.02341081  0.91443811  0.78461567  1
  Sb  Sb37  1  0.47658919  0.08556189  0.28461567  1
  Sb  Sb38  1  0.52341081  0.58556189  0.21538433  1
  Sb  Sb39  1  0.97658919  0.41443811  0.71538433  1
  Se  Se40  1  0.62613424  0.96103642  0.96655015  1
  Se  Se41  1  0.87386576  0.03896358  0.46655015  1
  Se  Se42  1  0.12613424  0.53896358  0.03344985  1
  Se  Se43  1  0.37386576  0.46103642  0.53344985  1
  Se  Se44  1  0.37085047  0.08066839  0.90538408  1
  Se  Se45  1  0.12914953  0.91933161  0.40538408  1
  Se  Se46  1  0.87085047  0.41933161  0.09461592  1
  Se  Se47  1  0.62914953  0.58066839  0.59461592  1
  Se  Se48  1  0.54562492  0.97006583  0.76314597  1
  Se  Se49  1  0.95437508  0.02993417  0.26314597  1
  Se  Se50  1  0.04562492  0.52993417  0.23685403  1
  Se  Se51  1  0.45437508  0.47006583  0.73685403  1
  Se  Se52  1  0.64428412  0.15779694  0.86902248  1
  Se  Se53  1  0.85571588  0.84220306  0.36902248  1
  Se  Se54  1  0.14428412  0.34220306  0.13097752  1
  Se  Se55  1  0.35571588  0.65779694  0.63097752  1
  Se  Se56  1  0.87256717  0.05500308  0.97089368  1
  Se  Se57  1  0.62743283  0.94499692  0.47089368  1
  Se  Se58  1  0.37256717  0.44499692  0.02910632  1
  Se  Se59  1  0.12743283  0.55500308  0.52910632  1
  Se  Se60  1  0.12499147  0.93706971  0.90835484  1
  Se  Se61  1  0.37500853  0.06293029  0.40835484  1
  Se  Se62  1  0.62499147  0.56293029  0.09164516  1
  Se  Se63  1  0.87500853  0.43706971  0.59164516  1
  Se  Se64  1  0.95661091  0.05765558  0.76710957  1
  Se  Se65  1  0.54338909  0.94234442  0.26710957  1
  Se  Se66  1  0.45661091  0.44234442  0.23289043  1
  Se  Se67  1  0.04338909  0.55765558  0.73289043  1
  Se  Se68  1  0.85264525  0.86373239  0.86187827  1
  Se  Se69  1  0.64735475  0.13626761  0.36187827  1
  Se  Se70  1  0.35264525  0.63626761  0.13812173  1
  Se  Se71  1  0.14735475  0.36373239  0.63812173  1
  Cl  Cl72  1  0.93576630  0.23187775  0.87466409  1
  Cl  Cl73  1  0.56423370  0.76812225  0.37466409  1
  Cl  Cl74  1  0.43576630  0.26812225  0.12533591  1
  Cl  Cl75  1  0.06423370  0.73187775  0.62533591  1
  Cl  Cl76  1  0.56819067  0.79213169  0.86162585  1
  Cl  Cl77  1  0.93180933  0.20786831  0.36162585  1
  Cl  Cl78  1  0.06819067  0.70786831  0.13837415  1
  Cl  Cl79  1  0.43180933  0.29213169  0.63837415  1
  Cl  Cl80  1  0.43388971  0.29789159  0.85060305  1
  Cl  Cl81  1  0.06611029  0.70210841  0.35060305  1
  Cl  Cl82  1  0.93388971  0.20210841  0.14939695  1
  Cl  Cl83  1  0.56611029  0.79789159  0.64939695  1
  Cl  Cl84  1  0.19814690  0.21036303  0.77525359  1
  Cl  Cl85  1  0.30185310  0.78963697  0.27525359  1
  Cl  Cl86  1  0.69814690  0.28963697  0.22474641  1
  Cl  Cl87  1  0.80185310  0.71036303  0.72474641  1
  Cl  Cl88  1  0.21216501  0.25755894  0.96612316  1
  Cl  Cl89  1  0.28783499  0.74244106  0.46612316  1
  Cl  Cl90  1  0.71216501  0.24244106  0.03387684  1
  Cl  Cl91  1  0.78783499  0.75755894  0.53387684  1
  Cl  Cl92  1  0.18931706  0.40821356  0.83523126  1
  Cl  Cl93  1  0.31068294  0.59178644  0.33523126  1
  Cl  Cl94  1  0.68931706  0.09178644  0.16476874  1
  Cl  Cl95  1  0.81068294  0.90821356  0.66476874  1
  Cl  Cl96  1  0.33728466  0.90842068  0.57544719  1
  Cl  Cl97  1  0.16271534  0.09157932  0.07544719  1
  Cl  Cl98  1  0.83728466  0.59157932  0.42455281  1
  Cl  Cl99  1  0.66271534  0.40842068  0.92455281  1
  Cl  Cl100  1  0.09232300  0.01879935  0.58477295  1
  Cl  Cl101  1  0.40767700  0.98120065  0.08477295  1
  Cl  Cl102  1  0.59232300  0.48120065  0.41522705  1
  Cl  Cl103  1  0.90767700  0.51879935  0.91522705  1
  Cl  Cl104  1  0.24920673  -0.00022299  0.74563206  1
  Cl  Cl105  1  0.25079327  0.00022299  0.24563206  1
  Cl  Cl106  1  0.74920673  0.50022299  0.25436794  1
  Cl  Cl107  1  0.75079327  0.49977701  0.75436794  1
  Cl  Cl108  1  0.34948128  0.11203693  0.60145483  1
  Cl  Cl109  1  0.15051872  0.88796307  0.10145483  1
  Cl  Cl110  1  0.84948128  0.38796307  0.39854517  1
  Cl  Cl111  1  0.65051872  0.61203693  0.89854517  1
  Cl  Cl112  1  0.93269079  0.21790359  0.62900465  1
  Cl  Cl113  1  0.56730921  0.78209641  0.12900465  1
  Cl  Cl114  1  0.43269079  0.28209641  0.37099535  1
  Cl  Cl115  1  0.06730921  0.71790359  0.87099535  1
  Cl  Cl116  1  0.69368394  0.10627310  0.66218835  1
  Cl  Cl117  1  0.80631606  0.89372690  0.16218835  1
  Cl  Cl118  1  0.19368394  0.39372690  0.33781165  1
  Cl  Cl119  1  0.30631606  0.60627310  0.83781165  1
  Cl  Cl120  1  0.69095515  0.25628604  0.52823609  1
  Cl  Cl121  1  0.80904485  0.74371396  0.02823609  1
  Cl  Cl122  1  0.19095515  0.24371396  0.47176391  1
  Cl  Cl123  1  0.30904485  0.75628604  0.97176391  1
  Cl  Cl124  1  0.70613659  0.30115658  0.72066966  1
  Cl  Cl125  1  0.79386341  0.69884342  0.22066966  1
  Cl  Cl126  1  0.20613659  0.19884342  0.27933034  1
  Cl  Cl127  1  0.29386341  0.80115658  0.77933034  1
