# generated using pymatgen
data_Be2H18C3N9F7
_symmetry_space_group_name_H-M   'P 1'
_cell_length_a   12.76950848
_cell_length_b   12.76950848
_cell_length_c   12.76950848
_cell_angle_alpha   109.47122063
_cell_angle_beta   109.47122063
_cell_angle_gamma   109.47122063
_symmetry_Int_Tables_number   1
_chemical_formula_structural   Be2H18C3N9F7
_chemical_formula_sum   'Be8 H72 C12 N36 F28'
_cell_volume   1602.87867906
_cell_formula_units_Z   4
loop_
 _symmetry_equiv_pos_site_id
 _symmetry_equiv_pos_as_xyz
  1  'x, y, z'
loop_
 _atom_site_type_symbol
 _atom_site_label
 _atom_site_symmetry_multiplicity
 _atom_site_fract_x
 _atom_site_fract_y
 _atom_site_fract_z
 _atom_site_occupancy
  Be  Be0  1  0.00000000  0.50000000  0.62382264  1
  Be  Be1  1  0.62382264  0.00000000  0.50000000  1
  Be  Be2  1  0.50000000  0.62382264  -0.00000000  1
  Be  Be3  1  0.87617736  0.87617736  0.87617736  1
  Be  Be4  1  0.00000000  0.50000000  0.37617736  1
  Be  Be5  1  0.37617736  -0.00000000  0.50000000  1
  Be  Be6  1  0.50000000  0.37617736  0.00000000  1
  Be  Be7  1  0.12382264  0.12382264  0.12382264  1
  H  H8  1  0.23489126  0.33007272  0.90136096  1
  H  H9  1  0.07128825  0.16992728  0.90481854  1
  H  H10  1  0.26510874  0.66646971  0.59518146  1
  H  H11  1  0.42871175  0.83353029  0.59863904  1
  H  H12  1  0.33007272  0.90136096  0.23489126  1
  H  H13  1  0.16992728  0.90481854  0.07128825  1
  H  H14  1  0.66646971  0.59518146  0.26510874  1
  H  H15  1  0.83353029  0.59863904  0.42871175  1
  H  H16  1  0.90136096  0.23489126  0.33007272  1
  H  H17  1  0.90481854  0.07128825  0.16992728  1
  H  H18  1  0.59518146  0.26510874  0.66646971  1
  H  H19  1  0.59863904  0.42871175  0.83353029  1
  H  H20  1  0.76510874  0.66992728  0.09863904  1
  H  H21  1  0.92871175  0.83007272  0.09518146  1
  H  H22  1  0.73489126  0.33353029  0.40481854  1
  H  H23  1  0.57128825  0.16646971  0.40136096  1
  H  H24  1  0.66992728  0.09863904  0.76510874  1
  H  H25  1  0.83007272  0.09518146  0.92871175  1
  H  H26  1  0.33353029  0.40481854  0.73489126  1
  H  H27  1  0.16646971  0.40136096  0.57128825  1
  H  H28  1  0.09863904  0.76510874  0.66992728  1
  H  H29  1  0.09518146  0.92871175  0.83007272  1
  H  H30  1  0.40481854  0.73489126  0.33353029  1
  H  H31  1  0.40136096  0.57128825  0.16646971  1
  H  H32  1  0.91591832  0.08891414  0.77250173  1
  H  H33  1  0.18358759  0.41108586  0.82700418  1
  H  H34  1  0.58408168  0.85658341  0.67299582  1
  H  H35  1  0.31641241  0.64341659  0.72749827  1
  H  H36  1  0.08891414  0.77250173  0.91591832  1
  H  H37  1  0.41108586  0.82700418  0.18358759  1
  H  H38  1  0.85658341  0.67299582  0.58408168  1
  H  H39  1  0.64341659  0.72749827  0.31641241  1
  H  H40  1  0.77250173  0.91591832  0.08891414  1
  H  H41  1  0.82700418  0.18358759  0.41108586  1
  H  H42  1  0.67299582  0.58408168  0.85658341  1
  H  H43  1  0.72749827  0.31641241  0.64341659  1
  H  H44  1  0.08408168  0.91108586  0.22749827  1
  H  H45  1  0.81641241  0.58891414  0.17299582  1
  H  H46  1  0.41591832  0.14341659  0.32700418  1
  H  H47  1  0.68358759  0.35658341  0.27250173  1
  H  H48  1  0.91108586  0.22749827  0.08408168  1
  H  H49  1  0.58891414  0.17299582  0.81641241  1
  H  H50  1  0.14341659  0.32700418  0.41591832  1
  H  H51  1  0.35658341  0.27250173  0.68358759  1
  H  H52  1  0.22749827  0.08408168  0.91108586  1
  H  H53  1  0.17299582  0.81641241  0.58891414  1
  H  H54  1  0.32700418  0.41591832  0.14341659  1
  H  H55  1  0.27250173  0.68358759  0.35658341  1
  H  H56  1  0.02350654  0.68169888  0.32443456  1
  H  H57  1  0.14273568  0.81830112  0.34180766  1
  H  H58  1  0.47649346  0.30092802  0.15819234  1
  H  H59  1  0.35726432  0.19907198  0.17556544  1
  H  H60  1  0.68169888  0.32443456  0.02350654  1
  H  H61  1  0.81830112  0.34180766  0.14273568  1
  H  H62  1  0.30092802  0.15819234  0.47649346  1
  H  H63  1  0.19907198  0.17556544  0.35726432  1
  H  H64  1  0.32443456  0.02350654  0.68169888  1
  H  H65  1  0.34180766  0.14273568  0.81830112  1
  H  H66  1  0.15819234  0.47649346  0.30092802  1
  H  H67  1  0.17556544  0.35726432  0.19907198  1
  H  H68  1  0.97649346  0.31830112  0.67556544  1
  H  H69  1  0.85726432  0.18169888  0.65819234  1
  H  H70  1  0.52350654  0.69907198  0.84180766  1
  H  H71  1  0.64273568  0.80092802  0.82443456  1
  H  H72  1  0.31830112  0.67556544  0.97649346  1
  H  H73  1  0.18169888  0.65819234  0.85726432  1
  H  H74  1  0.69907198  0.84180766  0.52350654  1
  H  H75  1  0.80092802  0.82443456  0.64273568  1
  H  H76  1  0.67556544  0.97649346  0.31830112  1
  H  H77  1  0.65819234  0.85726432  0.18169888  1
  H  H78  1  0.84180766  0.52350654  0.69907198  1
  H  H79  1  0.82443456  0.64273568  0.80092802  1
  C  C80  1  0.75000000  0.20890849  0.95890849  1
  C  C81  1  0.25000000  0.29109151  0.54109151  1
  C  C82  1  0.20890849  0.95890849  0.75000000  1
  C  C83  1  0.29109151  0.54109151  0.25000000  1
  C  C84  1  0.95890849  0.75000000  0.20890849  1
  C  C85  1  0.54109151  0.25000000  0.29109151  1
  C  C86  1  0.25000000  0.79109151  0.04109151  1
  C  C87  1  0.75000000  0.70890849  0.45890849  1
  C  C88  1  0.79109151  0.04109151  0.25000000  1
  C  C89  1  0.70890849  0.45890849  0.75000000  1
  C  C90  1  0.04109151  0.25000000  0.79109151  1
  C  C91  1  0.45890849  0.75000000  0.70890849  1
  N  N92  1  0.84515151  0.18171564  0.98958790  1
  N  N93  1  0.30787226  0.31828436  0.66343587  1
  N  N94  1  0.65484849  0.14443639  0.83656413  1
  N  N95  1  0.19212774  0.35556361  0.51041210  1
  N  N96  1  0.18171564  0.98958790  0.84515151  1
  N  N97  1  0.31828436  0.66343587  0.30787226  1
  N  N98  1  0.14443639  0.83656413  0.65484849  1
  N  N99  1  0.35556361  0.51041210  0.19212774  1
  N  N100  1  0.98958790  0.84515151  0.18171564  1
  N  N101  1  0.66343587  0.30787226  0.31828436  1
  N  N102  1  0.83656413  0.65484849  0.14443639  1
  N  N103  1  0.51041210  0.19212774  0.35556361  1
  N  N104  1  0.15484849  0.81828436  0.01041210  1
  N  N105  1  0.69212774  0.68171564  0.33656413  1
  N  N106  1  0.34515151  0.85556361  0.16343587  1
  N  N107  1  0.80787226  0.64443639  0.48958790  1
  N  N108  1  0.81828436  0.01041210  0.15484849  1
  N  N109  1  0.68171564  0.33656413  0.69212774  1
  N  N110  1  0.85556361  0.16343587  0.34515151  1
  N  N111  1  0.64443639  0.48958790  0.80787226  1
  N  N112  1  0.01041210  0.15484849  0.81828436  1
  N  N113  1  0.33656413  0.69212774  0.68171564  1
  N  N114  1  0.16343587  0.34515151  0.85556361  1
  N  N115  1  0.48958790  0.80787226  0.64443639  1
  N  N116  1  0.20094221  0.45094221  0.25000000  1
  N  N117  1  0.29905779  0.04905779  0.75000000  1
  N  N118  1  0.45094221  0.25000000  0.20094221  1
  N  N119  1  0.04905779  0.75000000  0.29905779  1
  N  N120  1  0.25000000  0.20094221  0.45094221  1
  N  N121  1  0.75000000  0.29905779  0.04905779  1
  N  N122  1  0.79905779  0.54905779  0.75000000  1
  N  N123  1  0.70094221  0.95094221  0.25000000  1
  N  N124  1  0.54905779  0.75000000  0.79905779  1
  N  N125  1  0.95094221  0.25000000  0.70094221  1
  N  N126  1  0.75000000  0.79905779  0.54905779  1
  N  N127  1  0.25000000  0.70094221  0.95094221  1
  F  F128  1  0.18142324  0.21911565  0.08065904  1
  F  F129  1  0.36154340  0.28088435  0.96230759  1
  F  F130  1  0.31857676  0.89923581  0.53769241  1
  F  F131  1  0.13845660  0.60076419  0.41934096  1
  F  F132  1  0.21911565  0.08065904  0.18142324  1
  F  F133  1  0.28088435  0.96230759  0.36154340  1
  F  F134  1  0.89923581  0.53769241  0.31857676  1
  F  F135  1  0.60076419  0.41934096  0.13845660  1
  F  F136  1  0.08065904  0.18142324  0.21911565  1
  F  F137  1  0.96230759  0.36154340  0.28088435  1
  F  F138  1  0.53769241  0.31857676  0.89923581  1
  F  F139  1  0.41934096  0.13845660  0.60076419  1
  F  F140  1  0.81857676  0.78088435  0.91934096  1
  F  F141  1  0.63845660  0.71911565  0.03769241  1
  F  F142  1  0.68142324  0.10076419  0.46230759  1
  F  F143  1  0.86154340  0.39923581  0.58065904  1
  F  F144  1  0.78088435  0.91934096  0.81857676  1
  F  F145  1  0.71911565  0.03769241  0.63845660  1
  F  F146  1  0.10076419  0.46230759  0.68142324  1
  F  F147  1  0.39923581  0.58065904  0.86154340  1
  F  F148  1  0.91934096  0.81857676  0.78088435  1
  F  F149  1  0.03769241  0.63845660  0.71911565  1
  F  F150  1  0.46230759  0.68142324  0.10076419  1
  F  F151  1  0.58065904  0.86154340  0.39923581  1
  F  F152  1  0.50000000  0.00000000  0.50000000  1
  F  F153  1  0.00000000  0.50000000  0.50000000  1
  F  F154  1  0.00000000  -0.00000000  0.00000000  1
  F  F155  1  0.50000000  0.50000000  0.00000000  1
