# generated using pymatgen
data_Li9Mn2Co5O16
_symmetry_space_group_name_H-M   'P 1'
_cell_length_a   2.88522583
_cell_length_b   9.81055670
_cell_length_c   10.34134967
_cell_angle_alpha   83.14880219
_cell_angle_beta   89.99999969
_cell_angle_gamma   81.54416883
_symmetry_Int_Tables_number   1
_chemical_formula_structural   Li9Mn2Co5O16
_chemical_formula_sum   'Li9 Mn2 Co5 O16'
_cell_volume   287.42349782
_cell_formula_units_Z   1
loop_
 _symmetry_equiv_pos_site_id
 _symmetry_equiv_pos_as_xyz
  1  'x, y, z'
loop_
 _atom_site_type_symbol
 _atom_site_label
 _atom_site_symmetry_multiplicity
 _atom_site_fract_x
 _atom_site_fract_y
 _atom_site_fract_z
 _atom_site_occupancy
  Li  Li0  1  0.37060445  0.25879110  0.06360282  1
  Li  Li1  1  0.12899347  0.74201306  0.19749913  1
  Li  Li2  1  0.86745104  0.26509793  0.33226143  1
  Li  Li3  1  0.63326782  0.73346436  0.43634506  1
  Li  Li4  1  0.37402828  0.25194344  0.55784123  1
  Li  Li5  1  0.13118909  0.73762182  0.67509634  1
  Li  Li6  1  0.87021885  0.25956231  0.80511866  1
  Li  Li7  1  0.62737221  0.74525559  0.93682307  1
  Li  Li8  1  0.24829597  0.50340806  0.37492534  1
  Mn  Mn9  1  0.99768859  0.00462281  -0.00000630  1
  Mn  Mn10  1  0.74678320  0.50643360  0.13326846  1
  Co  Co11  1  0.49955850  0.00088299  0.25203178  1
  Co  Co12  1  0.00262303  -0.00524607  0.49803880  1
  Co  Co13  1  0.75728311  0.48543379  0.60629491  1
  Co  Co14  1  0.50073924  0.99852153  0.74845563  1
  Co  Co15  1  0.24826573  0.50346853  0.87198697  1
  O  O16  1  0.44074612  0.11850776  0.91925241  1
  O  O17  1  0.19245207  0.61509586  0.04188286  1
  O  O18  1  0.94665209  0.10669583  0.14866026  1
  O  O19  1  0.69254159  0.61491682  0.26755837  1
  O  O20  1  0.44200744  0.11598512  0.41167232  1
  O  O21  1  0.19395290  0.61209420  0.53846094  1
  O  O22  1  0.94633930  0.10732141  0.66471019  1
  O  O23  1  0.69189461  0.61621077  0.79340408  1
  O  O24  1  0.30629513  0.38740974  0.20704220  1
  O  O25  1  0.05737981  0.88524038  0.33937505  1
  O  O26  1  0.81211287  0.37577425  0.47836261  1
  O  O27  1  0.55902205  0.88195589  0.59058514  1
  O  O28  1  0.30716206  0.38567587  0.71825112  1
  O  O29  1  0.05073305  0.89853390  0.84706835  1
  O  O30  1  0.80056780  0.39886440  0.96738478  1
  O  O31  1  0.55577853  0.88844295  0.07674599  1
