# generated using pymatgen
data_Cs2CrH4F10
_symmetry_space_group_name_H-M   'P 1'
_cell_length_a   7.22049751
_cell_length_b   7.77087826
_cell_length_c   9.93414889
_cell_angle_alpha   106.72862318
_cell_angle_beta   90.00000000
_cell_angle_gamma   90.00000000
_symmetry_Int_Tables_number   1
_chemical_formula_structural   Cs2CrH4F10
_chemical_formula_sum   'Cs4 Cr2 H8 F20'
_cell_volume   533.81131494
_cell_formula_units_Z   2
loop_
 _symmetry_equiv_pos_site_id
 _symmetry_equiv_pos_as_xyz
  1  'x, y, z'
loop_
 _atom_site_type_symbol
 _atom_site_label
 _atom_site_symmetry_multiplicity
 _atom_site_fract_x
 _atom_site_fract_y
 _atom_site_fract_z
 _atom_site_occupancy
  Cs  Cs0  1  0.78353693  0.47480644  0.83494326  1
  Cs  Cs1  1  0.71646307  0.97480644  0.33494326  1
  Cs  Cs2  1  0.21646307  0.52519356  0.16505674  1
  Cs  Cs3  1  0.28353693  0.02519356  0.66505674  1
  Cr  Cr4  1  0.50000000  0.50000000  0.50000000  1
  Cr  Cr5  1  0.00000000  -0.00000000  -0.00000000  1
  H  H6  1  0.29598993  0.54823209  0.76768653  1
  H  H7  1  0.20401007  0.04823209  0.26768653  1
  H  H8  1  0.70401007  0.45176791  0.23231347  1
  H  H9  1  0.79598993  0.95176791  0.73231347  1
  H  H10  1  0.59670531  0.16539728  0.00491680  1
  H  H11  1  0.90329469  0.66539728  0.50491680  1
  H  H12  1  0.40329469  0.83460272  0.99508320  1
  H  H13  1  0.09670531  0.33460272  0.49508320  1
  F  F14  1  0.26056662  0.42425301  0.44468534  1
  F  F15  1  0.23943338  0.92425301  0.94468534  1
  F  F16  1  0.73943338  0.57574699  0.55531466  1
  F  F17  1  0.76056662  0.07574699  0.05531466  1
  F  F18  1  0.53549444  0.30261615  0.56176978  1
  F  F19  1  0.96450556  0.80261615  0.06176978  1
  F  F20  1  0.46450556  0.69738385  0.43823022  1
  F  F21  1  0.03549444  0.19738385  0.93823022  1
  F  F22  1  0.41079815  0.62898219  0.68083154  1
  F  F23  1  0.08920185  0.12898219  0.18083154  1
  F  F24  1  0.58920185  0.37101781  0.31916846  1
  F  F25  1  0.91079815  0.87101781  0.81916846  1
  F  F26  1  0.22569822  0.48345130  0.82299878  1
  F  F27  1  0.27430178  0.98345130  0.32299878  1
  F  F28  1  0.77430178  0.51654870  0.17700122  1
  F  F29  1  0.72569822  0.01654870  0.67700122  1
  F  F30  1  0.50501224  0.23441761  0.97089902  1
  F  F31  1  0.99498776  0.73441761  0.47089902  1
  F  F32  1  0.49498776  0.76558239  0.02910098  1
  F  F33  1  0.00501224  0.26558239  0.52910098  1
