# generated using pymatgen
data_Tm10Mn13C18
_symmetry_space_group_name_H-M   'P 1'
_cell_length_a   8.63414639
_cell_length_b   8.63414639
_cell_length_c   8.63414639
_cell_angle_alpha   109.47122063
_cell_angle_beta   109.47122063
_cell_angle_gamma   109.47122063
_symmetry_Int_Tables_number   1
_chemical_formula_structural   Tm10Mn13C18
_chemical_formula_sum   'Tm10 Mn13 C18'
_cell_volume   495.49164049
_cell_formula_units_Z   1
loop_
 _symmetry_equiv_pos_site_id
 _symmetry_equiv_pos_as_xyz
  1  'x, y, z'
loop_
 _atom_site_type_symbol
 _atom_site_label
 _atom_site_symmetry_multiplicity
 _atom_site_fract_x
 _atom_site_fract_y
 _atom_site_fract_z
 _atom_site_occupancy
  Tm  Tm0  1  0.50000000  0.75000000  0.25000000  1
  Tm  Tm1  1  0.75000000  0.50000000  0.25000000  1
  Tm  Tm2  1  0.25000000  0.75000000  0.50000000  1
  Tm  Tm3  1  0.25000000  0.50000000  0.75000000  1
  Tm  Tm4  1  0.50000000  0.25000000  0.75000000  1
  Tm  Tm5  1  0.75000000  0.25000000  0.50000000  1
  Tm  Tm6  1  0.40790444  -0.00000000  0.00000000  1
  Tm  Tm7  1  -0.00000000  0.40790444  -0.00000000  1
  Tm  Tm8  1  0.00000000  -0.00000000  0.40790444  1
  Tm  Tm9  1  0.59209556  0.59209556  0.59209556  1
  Mn  Mn10  1  0.00000000  0.00000000  0.00000000  1
  Mn  Mn11  1  0.66528031  0.82026185  -0.00000000  1
  Mn  Mn12  1  0.84501846  0.17973815  0.17973815  1
  Mn  Mn13  1  0.66528031  -0.00000000  0.82026185  1
  Mn  Mn14  1  0.82026185  0.66528031  0.00000000  1
  Mn  Mn15  1  -0.00000000  0.66528031  0.82026185  1
  Mn  Mn16  1  0.17973815  0.84501846  0.17973815  1
  Mn  Mn17  1  0.17973815  0.17973815  0.84501846  1
  Mn  Mn18  1  -0.00000000  0.82026185  0.66528031  1
  Mn  Mn19  1  0.82026185  0.00000000  0.66528031  1
  Mn  Mn20  1  0.33471969  0.33471969  0.15498154  1
  Mn  Mn21  1  0.15498154  0.33471969  0.33471969  1
  Mn  Mn22  1  0.33471969  0.15498154  0.33471969  1
  C  C23  1  0.70112914  0.22053486  -0.00000000  1
  C  C24  1  0.48059428  0.77946514  0.77946514  1
  C  C25  1  0.70112914  -0.00000000  0.22053486  1
  C  C26  1  0.22053486  0.70112914  -0.00000000  1
  C  C27  1  0.00000000  0.70112914  0.22053486  1
  C  C28  1  0.77946514  0.48059428  0.77946514  1
  C  C29  1  0.77946514  0.77946514  0.48059428  1
  C  C30  1  0.00000000  0.22053486  0.70112914  1
  C  C31  1  0.22053486  -0.00000000  0.70112914  1
  C  C32  1  0.29887086  0.29887086  0.51940572  1
  C  C33  1  0.51940572  0.29887086  0.29887086  1
  C  C34  1  0.29887086  0.51940572  0.29887086  1
  C  C35  1  0.56900234  0.56900234  0.00000000  1
  C  C36  1  -0.00000000  0.43099766  0.43099766  1
  C  C37  1  0.56900234  0.00000000  0.56900234  1
  C  C38  1  0.00000000  0.56900234  0.56900234  1
  C  C39  1  0.43099766  0.00000000  0.43099766  1
  C  C40  1  0.43099766  0.43099766  -0.00000000  1
