# generated using pymatgen
data_Nd4(TmS2)11
_symmetry_space_group_name_H-M   'P 1'
_cell_length_a   3.91622420
_cell_length_b   11.29204485
_cell_length_c   19.53975990
_cell_angle_alpha   91.40126260
_cell_angle_beta   95.75135988
_cell_angle_gamma   90.00000000
_symmetry_Int_Tables_number   1
_chemical_formula_structural   Nd4(TmS2)11
_chemical_formula_sum   'Nd4 Tm11 S22'
_cell_volume   859.48134088
_cell_formula_units_Z   1
loop_
 _symmetry_equiv_pos_site_id
 _symmetry_equiv_pos_as_xyz
  1  'x, y, z'
loop_
 _atom_site_type_symbol
 _atom_site_label
 _atom_site_symmetry_multiplicity
 _atom_site_fract_x
 _atom_site_fract_y
 _atom_site_fract_z
 _atom_site_occupancy
  Nd  Nd0  1  0.10468484  0.01251300  0.20936969  1
  Nd  Nd1  1  0.89531516  0.98748700  0.79063031  1
  Nd  Nd2  1  0.36701204  0.34827522  0.73402408  1
  Nd  Nd3  1  0.63298796  0.65172478  0.26597592  1
  Tm  Tm4  1  0.79776495  0.05821487  0.59552989  1
  Tm  Tm5  1  0.20223505  0.94178513  0.40447011  1
  Tm  Tm6  1  0.46164697  0.27039250  0.92329394  1
  Tm  Tm7  1  0.53835303  0.72960750  0.07670606  1
  Tm  Tm8  1  0.65765891  0.30101227  0.31531781  1
  Tm  Tm9  1  0.34234109  0.69898773  0.68468219  1
  Tm  Tm10  1  0.26365259  0.35174077  0.52730519  1
  Tm  Tm11  1  0.73634741  0.64825923  0.47269481  1
  Tm  Tm12  1  0.06974288  0.36060744  0.13948577  1
  Tm  Tm13  1  0.93025712  0.63939256  0.86051423  1
  Tm  Tm14  1  0.00000000  -0.00000000  0.00000000  1
  S  S15  1  0.08769681  0.75357934  0.17539362  1
  S  S16  1  0.91230319  0.24642066  0.82460638  1
  S  S17  1  0.18915557  0.69135237  0.37831114  1
  S  S18  1  0.81084443  0.30864763  0.62168886  1
  S  S19  1  0.28024475  0.58941880  0.56048950  1
  S  S20  1  0.71975525  0.41058120  0.43951050  1
  S  S21  1  0.44477967  0.49367601  0.88955934  1
  S  S22  1  0.55522033  0.50632399  0.11044066  1
  S  S23  1  0.13493471  0.45324448  0.26986941  1
  S  S24  1  0.86506529  0.54675552  0.73013059  1
  S  S25  1  0.59284393  0.21257848  0.18568786  1
  S  S26  1  0.40715607  0.78742152  0.81431214  1
  S  S27  1  0.45309539  0.03049404  0.90619078  1
  S  S28  1  0.54690461  0.96950596  0.09380922  1
  S  S29  1  0.35025068  0.09234254  0.70050136  1
  S  S30  1  0.64974932  0.90765746  0.29949864  1
  S  S31  1  0.16874374  0.15134742  0.33748749  1
  S  S32  1  0.83125626  0.84865258  0.66251251  1
  S  S33  1  0.00786790  0.23967264  0.01573579  1
  S  S34  1  0.99213210  0.76032736  0.98426421  1
  S  S35  1  0.25496373  0.11919653  0.50992746  1
  S  S36  1  0.74503627  0.88080347  0.49007254  1
