# generated using pymatgen
data_SrH6Cl2O11
_symmetry_space_group_name_H-M   'P 1'
_cell_length_a   9.32517862
_cell_length_b   13.72321517
_cell_length_c   15.03440442
_cell_angle_alpha   90.00000000
_cell_angle_beta   96.10869028
_cell_angle_gamma   90.00000000
_symmetry_Int_Tables_number   1
_chemical_formula_structural   SrH6Cl2O11
_chemical_formula_sum   'Sr8 H48 Cl16 O88'
_cell_volume   1913.04959097
_cell_formula_units_Z   8
loop_
 _symmetry_equiv_pos_site_id
 _symmetry_equiv_pos_as_xyz
  1  'x, y, z'
loop_
 _atom_site_type_symbol
 _atom_site_label
 _atom_site_symmetry_multiplicity
 _atom_site_fract_x
 _atom_site_fract_y
 _atom_site_fract_z
 _atom_site_occupancy
  Sr  Sr0  1  0.32207558  0.23937965  0.33897733  1
  Sr  Sr1  1  0.82207558  0.26062035  0.83897733  1
  Sr  Sr2  1  0.67792442  0.76062035  0.66102267  1
  Sr  Sr3  1  0.17792442  0.73937965  0.16102267  1
  Sr  Sr4  1  0.82689163  0.26180016  0.33531206  1
  Sr  Sr5  1  0.32689163  0.23819984  0.83531206  1
  Sr  Sr6  1  0.17310837  0.73819984  0.66468794  1
  Sr  Sr7  1  0.67310837  0.76180016  0.16468794  1
  H  H8  1  0.91052687  0.05191476  0.40901311  1
  H  H9  1  0.41052687  0.44808524  0.90901311  1
  H  H10  1  0.08947313  0.94808524  0.59098689  1
  H  H11  1  0.58947313  0.55191476  0.09098689  1
  H  H12  1  0.99811765  0.11957349  0.47906113  1
  H  H13  1  0.49811765  0.38042651  0.97906113  1
  H  H14  1  0.00188235  0.88042651  0.52093887  1
  H  H15  1  0.50188235  0.61957349  0.02093887  1
  H  H16  1  0.46086118  0.44455232  0.39738558  1
  H  H17  1  0.96086118  0.05544768  0.89738558  1
  H  H18  1  0.53913882  0.55544768  0.60261442  1
  H  H19  1  0.03913882  0.94455232  0.10261442  1
  H  H20  1  0.44497246  0.38626926  0.48548190  1
  H  H21  1  0.94497246  0.11373074  0.98548190  1
  H  H22  1  0.55502754  0.61373074  0.51451810  1
  H  H23  1  0.05502754  0.88626926  0.01451810  1
  H  H24  1  0.06040480  0.12197232  0.26852640  1
  H  H25  1  0.56040480  0.37802768  0.76852640  1
  H  H26  1  0.93959520  0.87802768  0.73147360  1
  H  H27  1  0.43959520  0.62197232  0.23147360  1
  H  H28  1  0.05510764  0.20864434  0.20029993  1
  H  H29  1  0.55510764  0.29135566  0.70029993  1
  H  H30  1  0.94489236  0.79135566  0.79970007  1
  H  H31  1  0.44489236  0.70864434  0.29970007  1
  H  H32  1  0.58343980  0.09822635  0.40631630  1
  H  H33  1  0.08343980  0.40177365  0.90631630  1
  H  H34  1  0.41656020  0.90177365  0.59368370  1
  H  H35  1  0.91656020  0.59822635  0.09368370  1
  H  H36  1  0.60186638  0.18399746  0.47481029  1
  H  H37  1  0.10186638  0.31600254  0.97481029  1
  H  H38  1  0.39813362  0.81600254  0.52518971  1
  H  H39  1  0.89813362  0.68399746  0.02518971  1
  H  H40  1  0.54334920  0.26441708  0.20169671  1
  H  H41  1  0.04334920  0.23558292  0.70169671  1
  H  H42  1  0.45665080  0.73558292  0.79830329  1
  H  H43  1  0.95665080  0.76441708  0.29830329  1
  H  H44  1  0.54471506  0.36660552  0.24701086  1
  H  H45  1  0.04471506  0.13339448  0.74701086  1
  H  H46  1  0.45528494  0.63339448  0.75298914  1
  H  H47  1  0.95528494  0.86660552  0.25298914  1
  H  H48  1  0.09914775  0.35036181  0.46595665  1
  H  H49  1  0.59914775  0.14963819  0.96595665  1
  H  H50  1  0.90085225  0.64963819  0.53404335  1
  H  H51  1  0.40085225  0.85036181  0.03404335  1
  H  H52  1  0.11113012  0.41107068  0.38086701  1
  H  H53  1  0.61113012  0.08892932  0.88086701  1
  H  H54  1  0.88886988  0.58892932  0.61913299  1
  H  H55  1  0.38886988  0.91107068  0.11913299  1
  Cl  Cl56  1  0.74061987  0.05302603  0.15418684  1
  Cl  Cl57  1  0.24061987  0.44697397  0.65418684  1
  Cl  Cl58  1  0.25938013  0.94697397  0.84581316  1
  Cl  Cl59  1  0.75938013  0.55302603  0.34581316  1
  Cl  Cl60  1  0.29535477  0.13193657  0.58255272  1
  Cl  Cl61  1  0.79535477  0.36806343  0.08255272  1
  Cl  Cl62  1  0.70464523  0.86806343  0.41744728  1
  Cl  Cl63  1  0.20464523  0.63193657  0.91744728  1
  Cl  Cl64  1  0.27531644  0.46038401  0.17893673  1
  Cl  Cl65  1  0.77531644  0.03961599  0.67893673  1
  Cl  Cl66  1  0.72468356  0.53961599  0.82106327  1
  Cl  Cl67  1  0.22468356  0.96038401  0.32106327  1
  Cl  Cl68  1  0.76453071  0.33838599  0.58182966  1
  Cl  Cl69  1  0.26453071  0.16161401  0.08182966  1
  Cl  Cl70  1  0.23546929  0.66161401  0.41817034  1
  Cl  Cl71  1  0.73546929  0.83838599  0.91817034  1
  O  O72  1  0.94319906  0.11905416  0.41991881  1
  O  O73  1  0.44319906  0.38094584  0.91991881  1
  O  O74  1  0.05680094  0.88094584  0.58008119  1
  O  O75  1  0.55680094  0.61905416  0.08008119  1
  O  O76  1  0.34949269  0.18632198  0.16654913  1
  O  O77  1  0.84949269  0.31367802  0.66654913  1
  O  O78  1  0.65050731  0.81367802  0.83345087  1
  O  O79  1  0.15050731  0.68632198  0.33345087  1
  O  O80  1  0.44371993  0.37971086  0.42075083  1
  O  O81  1  0.94371993  0.12028914  0.92075083  1
  O  O82  1  0.55628007  0.62028914  0.57924917  1
  O  O83  1  0.05628007  0.87971086  0.07924917  1
  O  O84  1  0.34476649  0.18692431  0.66324252  1
  O  O85  1  0.84476649  0.31307569  0.16324252  1
  O  O86  1  0.65523351  0.81307569  0.33675748  1
  O  O87  1  0.15523351  0.68692431  0.83675748  1
  O  O88  1  0.21056282  0.38994484  0.23596427  1
  O  O89  1  0.71056282  0.11005516  0.73596427  1
  O  O90  1  0.78943718  0.61005516  0.76403573  1
  O  O91  1  0.28943718  0.88994484  0.26403573  1
  O  O92  1  0.06410885  0.19381894  0.26466982  1
  O  O93  1  0.56410885  0.30618106  0.76466982  1
  O  O94  1  0.93589115  0.80618106  0.73533018  1
  O  O95  1  0.43589115  0.69381894  0.23533018  1
  O  O96  1  0.58342899  0.16938903  0.41050629  1
  O  O97  1  0.08342899  0.33061097  0.91050629  1
  O  O98  1  0.41657101  0.83061097  0.58949371  1
  O  O99  1  0.91657101  0.66938903  0.08949371  1
  O  O100  1  0.55818336  0.29676791  0.25996569  1
  O  O101  1  0.05818336  0.20323209  0.75996569  1
  O  O102  1  0.44181664  0.70323209  0.74003431  1
  O  O103  1  0.94181664  0.79676791  0.24003431  1
  O  O104  1  0.09458976  0.34443772  0.40064259  1
  O  O105  1  0.59458976  0.15556228  0.90064259  1
  O  O106  1  0.90541024  0.65556228  0.59935741  1
  O  O107  1  0.40541024  0.84443772  0.09935741  1
  O  O108  1  0.28643099  0.19936044  0.50631905  1
  O  O109  1  0.78643099  0.30063956  0.00631905  1
  O  O110  1  0.71356901  0.80063956  0.49368095  1
  O  O111  1  0.21356901  0.69936044  0.99368095  1
  O  O112  1  0.74065745  0.10468137  0.23991532  1
  O  O113  1  0.24065745  0.39531863  0.73991532  1
  O  O114  1  0.25934255  0.89531863  0.76008468  1
  O  O115  1  0.75934255  0.60468137  0.26008468  1
  O  O116  1  0.84275827  0.30441573  0.50823828  1
  O  O117  1  0.34275827  0.19558427  0.00823828  1
  O  O118  1  0.15724173  0.69558427  0.49176172  1
  O  O119  1  0.65724173  0.80441573  0.99176172  1
  O  O120  1  0.72116302  0.94908318  0.17177474  1
  O  O121  1  0.22116302  0.55091682  0.67177474  1
  O  O122  1  0.27883698  0.05091682  0.82822526  1
  O  O123  1  0.77883698  0.44908318  0.32822526  1
  O  O124  1  0.62526673  0.28761464  0.57731543  1
  O  O125  1  0.12526673  0.21238536  0.07731543  1
  O  O126  1  0.37473327  0.71238536  0.42268457  1
  O  O127  1  0.87473327  0.78761464  0.92268457  1
  O  O128  1  0.29023755  0.41899561  0.09231137  1
  O  O129  1  0.79023755  0.08100439  0.59231137  1
  O  O130  1  0.70976245  0.58100439  0.90768863  1
  O  O131  1  0.20976245  0.91899561  0.40768863  1
  O  O132  1  0.14986509  0.09358545  0.59035882  1
  O  O133  1  0.64986509  0.40641455  0.09035882  1
  O  O134  1  0.85013491  0.90641455  0.40964118  1
  O  O135  1  0.35013491  0.59358545  0.90964118  1
  O  O136  1  0.18496375  0.54762187  0.17021131  1
  O  O137  1  0.68496375  0.95237813  0.67021131  1
  O  O138  1  0.81503625  0.45237813  0.82978869  1
  O  O139  1  0.31503625  0.04762187  0.32978869  1
  O  O140  1  0.41893577  0.48787493  0.22386705  1
  O  O141  1  0.91893577  0.01212507  0.72386705  1
  O  O142  1  0.58106423  0.51212507  0.77613295  1
  O  O143  1  0.08106423  0.98787493  0.27613295  1
  O  O144  1  0.87828022  0.06762883  0.11859139  1
  O  O145  1  0.37828022  0.43237117  0.61859139  1
  O  O146  1  0.12171978  0.93237117  0.88140861  1
  O  O147  1  0.62171978  0.56762883  0.38140861  1
  O  O148  1  0.39469245  0.05359137  0.56945429  1
  O  O149  1  0.89469245  0.44640863  0.06945429  1
  O  O150  1  0.60530755  0.94640863  0.43054571  1
  O  O151  1  0.10530755  0.55359137  0.93054571  1
  O  O152  1  0.74238206  0.44257973  0.57614385  1
  O  O153  1  0.24238206  0.05742027  0.07614385  1
  O  O154  1  0.25761794  0.55742027  0.42385615  1
  O  O155  1  0.75761794  0.94257973  0.92385615  1
  O  O156  1  0.62237746  0.08828985  0.09210600  1
  O  O157  1  0.12237746  0.41171015  0.59210600  1
  O  O158  1  0.37762254  0.91171015  0.90789400  1
  O  O159  1  0.87762254  0.58828985  0.40789400  1
