# generated using pymatgen
data_Ho(BRu)4
_symmetry_space_group_name_H-M   'P 1'
_cell_length_a   7.48125249
_cell_length_b   7.48125249
_cell_length_c   9.19521485
_cell_angle_alpha   114.00405865
_cell_angle_beta   114.00405865
_cell_angle_gamma   90.00000000
_symmetry_Int_Tables_number   1
_chemical_formula_structural   Ho(BRu)4
_chemical_formula_sum   'Ho4 B16 Ru16'
_cell_volume   420.95122893
_cell_formula_units_Z   4
loop_
 _symmetry_equiv_pos_site_id
 _symmetry_equiv_pos_as_xyz
  1  'x, y, z'
loop_
 _atom_site_type_symbol
 _atom_site_label
 _atom_site_symmetry_multiplicity
 _atom_site_fract_x
 _atom_site_fract_y
 _atom_site_fract_z
 _atom_site_occupancy
  Ho  Ho0  1  0.12500000  0.37500000  0.25000000  1
  Ho  Ho1  1  0.62500000  0.87500000  0.25000000  1
  Ho  Ho2  1  0.87500000  0.62500000  0.75000000  1
  Ho  Ho3  1  0.37500000  0.12500000  0.75000000  1
  B  B4  1  0.78778088  0.34527290  0.91291266  1
  B  B5  1  0.62513178  0.84527290  0.91291266  1
  B  B6  1  0.84527290  0.28778088  0.41291266  1
  B  B7  1  0.06763976  0.78778088  0.41291266  1
  B  B8  1  0.21221912  0.65472710  0.08708734  1
  B  B9  1  0.37486822  0.15472710  0.08708734  1
  B  B10  1  0.15472710  0.71221912  0.58708734  1
  B  B11  1  0.93236024  0.21221912  0.58708734  1
  B  B12  1  0.28778088  0.56763976  0.91291266  1
  B  B13  1  0.12513178  0.06763976  0.91291266  1
  B  B14  1  0.34527290  0.12513178  0.41291266  1
  B  B15  1  0.56763976  0.62513178  0.41291266  1
  B  B16  1  0.71221912  0.43236024  0.08708734  1
  B  B17  1  0.87486822  0.93236024  0.08708734  1
  B  B18  1  0.65472710  0.87486822  0.58708734  1
  B  B19  1  0.43236024  0.37486822  0.58708734  1
  Ru  Ru20  1  0.94802287  0.66424836  0.12639088  1
  Ru  Ru21  1  0.67836801  0.16424836  0.12639088  1
  Ru  Ru22  1  0.16424836  0.44802287  0.62639088  1
  Ru  Ru23  1  0.96214252  0.94802287  0.62639088  1
  Ru  Ru24  1  0.05197713  0.33575164  0.87360912  1
  Ru  Ru25  1  0.32163199  0.83575164  0.87360912  1
  Ru  Ru26  1  0.83575164  0.55197713  0.37360912  1
  Ru  Ru27  1  0.03785748  0.05197713  0.37360912  1
  Ru  Ru28  1  0.44802287  0.46214252  0.12639088  1
  Ru  Ru29  1  0.17836801  0.96214252  0.12639088  1
  Ru  Ru30  1  0.66424836  0.17836801  0.62639088  1
  Ru  Ru31  1  0.46214252  0.67836801  0.62639088  1
  Ru  Ru32  1  0.55197713  0.53785748  0.87360912  1
  Ru  Ru33  1  0.82163199  0.03785748  0.87360912  1
  Ru  Ru34  1  0.33575164  0.82163199  0.37360912  1
  Ru  Ru35  1  0.53785748  0.32163199  0.37360912  1
