# generated using pymatgen
data_CsMnGa2P3(H2O7)2
_symmetry_space_group_name_H-M   'P 1'
_cell_length_a   8.65001238
_cell_length_b   8.65001238
_cell_length_c   8.99723164
_cell_angle_alpha   75.13811993
_cell_angle_beta   75.13811993
_cell_angle_gamma   74.65854348
_symmetry_Int_Tables_number   1
_chemical_formula_structural   CsMnGa2P3(H2O7)2
_chemical_formula_sum   'Cs2 Mn2 Ga4 P6 H8 O28'
_cell_volume   614.50740774
_cell_formula_units_Z   2
loop_
 _symmetry_equiv_pos_site_id
 _symmetry_equiv_pos_as_xyz
  1  'x, y, z'
loop_
 _atom_site_type_symbol
 _atom_site_label
 _atom_site_symmetry_multiplicity
 _atom_site_fract_x
 _atom_site_fract_y
 _atom_site_fract_z
 _atom_site_occupancy
  Cs  Cs0  1  0.36023749  0.63976251  0.25000000  1
  Cs  Cs1  1  0.63976251  0.36023749  0.75000000  1
  Mn  Mn2  1  0.27964697  0.72035303  0.75000000  1
  Mn  Mn3  1  0.72035303  0.27964697  0.25000000  1
  Ga  Ga4  1  0.90277079  0.75364406  0.57363101  1
  Ga  Ga5  1  0.24635594  0.09722921  0.92636899  1
  Ga  Ga6  1  0.09722921  0.24635594  0.42636899  1
  Ga  Ga7  1  0.75364406  0.90277079  0.07363101  1
  P  P8  1  0.57961524  0.83747437  0.82745517  1
  P  P9  1  0.16252563  0.42038476  0.67254483  1
  P  P10  1  0.42038476  0.16252563  0.17254483  1
  P  P11  1  0.83747437  0.57961524  0.32745517  1
  P  P12  1  0.99647156  0.00352844  0.25000000  1
  P  P13  1  0.00352844  0.99647156  0.75000000  1
  H  H14  1  0.53824654  0.78255167  0.49736343  1
  H  H15  1  0.21744833  0.46175346  0.00263657  1
  H  H16  1  0.46175346  0.21744833  0.50263657  1
  H  H17  1  0.78255167  0.53824654  -0.00263657  1
  H  H18  1  0.38981632  0.92701751  0.44917118  1
  H  H19  1  0.07298249  0.61018368  0.05082882  1
  H  H20  1  0.61018368  0.07298249  0.55082882  1
  H  H21  1  0.92701751  0.38981632  0.94917118  1
  O  O22  1  0.77602983  0.67599658  0.46337743  1
  O  O23  1  0.32400342  0.22397017  0.03662257  1
  O  O24  1  0.22397017  0.32400342  0.53662257  1
  O  O25  1  0.67599658  0.77602983  0.96337743  1
  O  O26  1  0.70166565  0.87763667  0.66588768  1
  O  O27  1  0.12236333  0.29833435  0.83411232  1
  O  O28  1  0.29833435  0.12236333  0.33411232  1
  O  O29  1  0.87763667  0.70166565  0.16588768  1
  O  O30  1  0.99233823  0.53676263  0.66104733  1
  O  O31  1  0.46323737  0.00766177  0.83895267  1
  O  O32  1  0.00766177  0.46323737  0.33895267  1
  O  O33  1  0.53676263  0.99233823  0.16104733  1
  O  O34  1  0.02636113  0.85370791  0.38459512  1
  O  O35  1  0.14629209  0.97363887  0.11540488  1
  O  O36  1  0.97363887  0.14629209  0.61540488  1
  O  O37  1  0.85370791  0.02636113  0.88459512  1
  O  O38  1  0.02522665  0.83222111  0.69727900  1
  O  O39  1  0.16777889  0.97477335  0.80272100  1
  O  O40  1  0.97477335  0.16777889  0.30272100  1
  O  O41  1  0.83222111  0.02522665  0.19727900  1
  O  O42  1  0.29485267  0.50795108  0.67027832  1
  O  O43  1  0.49204892  0.70514733  0.82972168  1
  O  O44  1  0.70514733  0.49204892  0.32972168  1
  O  O45  1  0.50795108  0.29485267  0.17027832  1
  O  O46  1  0.41815058  0.81455826  0.51050694  1
  O  O47  1  0.18544174  0.58184942  0.98949306  1
  O  O48  1  0.58184942  0.18544174  0.48949306  1
  O  O49  1  0.81455826  0.41815058  0.01050694  1
