# generated using pymatgen
data_Ba3GaS4Br
_symmetry_space_group_name_H-M   'P 1'
_cell_length_a   8.65249205
_cell_length_b   9.70896653
_cell_length_c   12.53380971
_cell_angle_alpha   90.00000000
_cell_angle_beta   90.00000000
_cell_angle_gamma   90.00000000
_symmetry_Int_Tables_number   1
_chemical_formula_structural   Ba3GaS4Br
_chemical_formula_sum   'Ba12 Ga4 S16 Br4'
_cell_volume   1052.92469048
_cell_formula_units_Z   4
loop_
 _symmetry_equiv_pos_site_id
 _symmetry_equiv_pos_as_xyz
  1  'x, y, z'
loop_
 _atom_site_type_symbol
 _atom_site_label
 _atom_site_symmetry_multiplicity
 _atom_site_fract_x
 _atom_site_fract_y
 _atom_site_fract_z
 _atom_site_occupancy
  Ba  Ba0  1  0.08304666  0.75000000  0.02560113  1
  Ba  Ba1  1  0.41695334  0.75000000  0.52560113  1
  Ba  Ba2  1  0.91695334  0.25000000  0.97439887  1
  Ba  Ba3  1  0.58304666  0.25000000  0.47439887  1
  Ba  Ba4  1  0.58923088  0.97973254  0.16495820  1
  Ba  Ba5  1  0.91076912  0.52026746  0.66495820  1
  Ba  Ba6  1  0.41076912  0.47973254  0.83504180  1
  Ba  Ba7  1  0.08923088  0.02026746  0.33504180  1
  Ba  Ba8  1  0.41076912  0.02026746  0.83504180  1
  Ba  Ba9  1  0.08923088  0.47973254  0.33504180  1
  Ba  Ba10  1  0.58923088  0.52026746  0.16495820  1
  Ba  Ba11  1  0.91076912  0.97973254  0.66495820  1
  Ga  Ga12  1  0.81082094  0.75000000  0.39587347  1
  Ga  Ga13  1  0.68917906  0.75000000  0.89587347  1
  Ga  Ga14  1  0.18917906  0.25000000  0.60412653  1
  Ga  Ga15  1  0.31082094  0.25000000  0.10412653  1
  S  S16  1  0.68557987  0.94954123  0.42938443  1
  S  S17  1  0.81442013  0.55045877  0.92938443  1
  S  S18  1  0.31442013  0.44954123  0.57061557  1
  S  S19  1  0.18557987  0.05045877  0.07061557  1
  S  S20  1  0.31442013  0.05045877  0.57061557  1
  S  S21  1  0.18557987  0.44954123  0.07061557  1
  S  S22  1  0.68557987  0.55045877  0.42938443  1
  S  S23  1  0.81442013  0.94954123  0.92938443  1
  S  S24  1  0.86253885  0.75000000  0.21644508  1
  S  S25  1  0.63746115  0.75000000  0.71644508  1
  S  S26  1  0.13746115  0.25000000  0.78355492  1
  S  S27  1  0.36253885  0.25000000  0.28355492  1
  S  S28  1  0.03395199  0.75000000  0.49425118  1
  S  S29  1  0.46604801  0.75000000  0.99425118  1
  S  S30  1  0.96604801  0.25000000  0.50574882  1
  S  S31  1  0.53395199  0.25000000  0.00574882  1
  Br  Br32  1  0.33119989  0.75000000  0.26794667  1
  Br  Br33  1  0.16880011  0.75000000  0.76794667  1
  Br  Br34  1  0.66880011  0.25000000  0.73205333  1
  Br  Br35  1  0.83119989  0.25000000  0.23205333  1
