# generated using pymatgen
data_Cu2AsO5
_symmetry_space_group_name_H-M   'P 1'
_cell_length_a   5.87815966
_cell_length_b   8.15094256
_cell_length_c   8.85570305
_cell_angle_alpha   90.00000000
_cell_angle_beta   90.00000000
_cell_angle_gamma   89.79394832
_symmetry_Int_Tables_number   1
_chemical_formula_structural   Cu2AsO5
_chemical_formula_sum   'Cu8 As4 O20'
_cell_volume   424.29649843
_cell_formula_units_Z   4
loop_
 _symmetry_equiv_pos_site_id
 _symmetry_equiv_pos_as_xyz
  1  'x, y, z'
loop_
 _atom_site_type_symbol
 _atom_site_label
 _atom_site_symmetry_multiplicity
 _atom_site_fract_x
 _atom_site_fract_y
 _atom_site_fract_z
 _atom_site_occupancy
  Cu  Cu0  1  0.49119839  0.85000171  0.61130817  1
  Cu  Cu1  1  0.50880161  0.14999829  0.38869183  1
  Cu  Cu2  1  0.99119839  0.35000171  0.88869183  1
  Cu  Cu3  1  0.00880161  0.64999829  0.11130817  1
  Cu  Cu4  1  0.74738738  0.49959177  0.49842039  1
  Cu  Cu5  1  0.25261262  0.50040823  0.50157961  1
  Cu  Cu6  1  0.24738738  0.99959177  0.00157961  1
  Cu  Cu7  1  0.75261262  0.00040823  0.99842039  1
  As  As8  1  0.50821431  0.76333430  0.25011164  1
  As  As9  1  0.49178569  0.23666570  0.74988836  1
  As  As10  1  0.00821431  0.26333430  0.24988836  1
  As  As11  1  0.99178569  0.73666570  0.75011164  1
  O  O12  1  0.52666491  0.91059846  0.39387536  1
  O  O13  1  0.47333509  0.08940154  0.60612464  1
  O  O14  1  0.02666491  0.41059846  0.10612464  1
  O  O15  1  0.97333509  0.58940154  0.89387536  1
  O  O16  1  0.50368670  0.86524427  0.07505560  1
  O  O17  1  0.49631330  0.13475573  0.92494440  1
  O  O18  1  0.00368670  0.36524427  0.42494440  1
  O  O19  1  0.99631330  0.63475573  0.57505560  1
  O  O20  1  0.49959915  0.62863391  0.56793969  1
  O  O21  1  0.50040085  0.37136609  0.43206031  1
  O  O22  1  0.99959915  0.12863391  0.93206031  1
  O  O23  1  0.00040085  0.87136609  0.06793969  1
  O  O24  1  0.74672263  0.64326314  0.26168874  1
  O  O25  1  0.25327737  0.35673686  0.73831126  1
  O  O26  1  0.24672263  0.14326314  0.23831126  1
  O  O27  1  0.75327737  0.85673686  0.76168874  1
  O  O28  1  0.25960776  0.65568051  0.26671219  1
  O  O29  1  0.74039224  0.34431949  0.73328781  1
  O  O30  1  0.75960776  0.15568051  0.23328781  1
  O  O31  1  0.24039224  0.84431949  0.76671219  1
