# generated using pymatgen
data_KFe3As4(HO8)2
_symmetry_space_group_name_H-M   'P 1'
_cell_length_a   6.68848106
_cell_length_b   10.26574442
_cell_length_c   11.13827566
_cell_angle_alpha   99.85705327
_cell_angle_beta   90.00000000
_cell_angle_gamma   109.01204612
_symmetry_Int_Tables_number   1
_chemical_formula_structural   KFe3As4(HO8)2
_chemical_formula_sum   'K2 Fe6 As8 H4 O32'
_cell_volume   711.10856193
_cell_formula_units_Z   2
loop_
 _symmetry_equiv_pos_site_id
 _symmetry_equiv_pos_as_xyz
  1  'x, y, z'
loop_
 _atom_site_type_symbol
 _atom_site_label
 _atom_site_symmetry_multiplicity
 _atom_site_fract_x
 _atom_site_fract_y
 _atom_site_fract_z
 _atom_site_occupancy
  K  K0  1  0.16221604  1.00000000  0.25000000  1
  K  K1  1  0.83778396  0.00000000  0.75000000  1
  Fe  Fe2  1  0.50000000  0.50000000  -0.00000000  1
  Fe  Fe3  1  -0.00000000  0.50000000  0.50000000  1
  Fe  Fe4  1  0.33149800  0.69938381  0.27498052  1
  Fe  Fe5  1  0.63211418  0.30061619  0.22501948  1
  Fe  Fe6  1  0.66850200  0.30061619  0.72501948  1
  Fe  Fe7  1  0.36788582  0.69938381  0.77498052  1
  As  As8  1  0.58247811  0.84124365  0.05174338  1
  As  As9  1  0.74123446  0.15875635  0.44825662  1
  As  As10  1  0.41752189  0.15875635  0.94825662  1
  As  As11  1  0.25876554  0.84124365  0.55174338  1
  As  As12  1  0.17907995  0.39444562  0.22984410  1
  As  As13  1  0.78463432  0.60555438  0.27015590  1
  As  As14  1  0.82092005  0.60555438  0.77015590  1
  As  As15  1  0.21536568  0.39444562  0.72984410  1
  H  H16  1  0.79583178  0.07242212  0.09655455  1
  H  H17  1  0.72340966  0.92757788  0.40344545  1
  H  H18  1  0.20416822  0.92757788  0.90344545  1
  H  H19  1  0.27659034  0.07242212  0.59655455  1
  O  O20  1  0.41207595  0.83778011  0.16572883  1
  O  O21  1  0.57429584  0.16221989  0.33427117  1
  O  O22  1  0.58792405  0.16221989  0.83427117  1
  O  O23  1  0.42570416  0.83778011  0.66572883  1
  O  O24  1  0.66908109  0.70060058  0.03468677  1
  O  O25  1  0.96848051  0.29939942  0.46531323  1
  O  O26  1  0.33091891  0.29939942  0.96531323  1
  O  O27  1  0.03151949  0.70060058  0.53468677  1
  O  O28  1  0.47003552  0.85594591  0.91896733  1
  O  O29  1  0.61408961  0.14405409  0.58103267  1
  O  O30  1  0.52996448  0.14405409  0.08103267  1
  O  O31  1  0.38591039  0.85594591  0.41896733  1
  O  O32  1  0.82186738  0.98174922  0.08997611  1
  O  O33  1  0.84011817  0.01825078  0.41002389  1
  O  O34  1  0.17813262  0.01825078  0.91002389  1
  O  O35  1  0.15988183  0.98174922  0.58997611  1
  O  O36  1  0.32615429  0.29172105  0.24840444  1
  O  O37  1  0.03443324  0.70827895  0.25159556  1
  O  O38  1  0.67384571  0.70827895  0.75159556  1
  O  O39  1  0.96556676  0.29172105  0.74840444  1
  O  O40  1  0.92530187  0.29185714  0.18513726  1
  O  O41  1  0.63344474  0.70814286  0.31486274  1
  O  O42  1  0.07469813  0.70814286  0.81486274  1
  O  O43  1  0.36655526  0.29185714  0.68513726  1
  O  O44  1  0.28719143  0.52098731  0.13724583  1
  O  O45  1  0.76620413  0.47901269  0.36275417  1
  O  O46  1  0.71280857  0.47901269  0.86275417  1
  O  O47  1  0.23379587  0.52098731  0.63724583  1
  O  O48  1  0.20505470  0.52517917  0.36107428  1
  O  O49  1  0.67987553  0.47482083  0.13892572  1
  O  O50  1  0.79494530  0.47482083  0.63892572  1
  O  O51  1  0.32012447  0.52517917  0.86107428  1
