# generated using pymatgen
data_NdRe3(H2O5)3
_symmetry_space_group_name_H-M   'P 1'
_cell_length_a   7.70209781
_cell_length_b   13.24487615
_cell_length_c   13.89069557
_cell_angle_alpha   90.00000000
_cell_angle_beta   90.00000000
_cell_angle_gamma   103.65634489
_symmetry_Int_Tables_number   1
_chemical_formula_structural   NdRe3(H2O5)3
_chemical_formula_sum   'Nd4 Re12 H24 O60'
_cell_volume   1376.97551734
_cell_formula_units_Z   4
loop_
 _symmetry_equiv_pos_site_id
 _symmetry_equiv_pos_as_xyz
  1  'x, y, z'
loop_
 _atom_site_type_symbol
 _atom_site_label
 _atom_site_symmetry_multiplicity
 _atom_site_fract_x
 _atom_site_fract_y
 _atom_site_fract_z
 _atom_site_occupancy
  Nd  Nd0  1  0.68188631  0.32602162  0.63510462  1
  Nd  Nd1  1  0.31811369  0.17397838  0.13510462  1
  Nd  Nd2  1  0.31811369  0.67397838  0.36489538  1
  Nd  Nd3  1  0.68188631  0.82602162  0.86489538  1
  Re  Re4  1  0.20131009  0.38376988  0.51273097  1
  Re  Re5  1  0.79868991  0.11623012  0.01273097  1
  Re  Re6  1  0.79868991  0.61623012  0.48726903  1
  Re  Re7  1  0.20131009  0.88376988  0.98726903  1
  Re  Re8  1  0.31627555  0.19897168  0.83897983  1
  Re  Re9  1  0.68372445  0.30102832  0.33897983  1
  Re  Re10  1  0.68372445  0.80102832  0.16102017  1
  Re  Re11  1  0.31627555  0.69897168  0.66102017  1
  Re  Re12  1  0.28245030  0.05954598  0.55593839  1
  Re  Re13  1  0.71754970  0.44045402  0.05593839  1
  Re  Re14  1  0.71754970  0.94045402  0.44406161  1
  Re  Re15  1  0.28245030  0.55954598  0.94406161  1
  H  H16  1  0.85027034  0.39275322  0.83592059  1
  H  H17  1  0.14972966  0.10724678  0.33592059  1
  H  H18  1  0.14972966  0.60724678  0.16407941  1
  H  H19  1  0.85027034  0.89275322  0.66407941  1
  H  H20  1  0.02142560  0.39812805  0.77307030  1
  H  H21  1  0.97857440  0.10187195  0.27307030  1
  H  H22  1  0.97857440  0.60187195  0.22692970  1
  H  H23  1  0.02142560  0.89812805  0.72692970  1
  H  H24  1  0.56395479  0.53120005  0.70195415  1
  H  H25  1  0.43604521  0.96879995  0.20195415  1
  H  H26  1  0.43604521  0.46879995  0.29804585  1
  H  H27  1  0.56395479  0.03120005  0.79804585  1
  H  H28  1  0.58869390  0.47046719  0.79634821  1
  H  H29  1  0.41130610  0.02953281  0.29634821  1
  H  H30  1  0.41130610  0.52953281  0.20365179  1
  H  H31  1  0.58869390  0.97046719  0.70365179  1
  H  H32  1  0.77215679  0.10766501  0.64403050  1
  H  H33  1  0.22784321  0.39233499  0.14403050  1
  H  H34  1  0.22784321  0.89233499  0.35596950  1
  H  H35  1  0.77215679  0.60766501  0.85596950  1
  H  H36  1  0.91969458  0.18128660  0.70754524  1
  H  H37  1  0.08030542  0.31871340  0.20754524  1
  H  H38  1  0.08030542  0.81871340  0.29245476  1
  H  H39  1  0.91969458  0.68128660  0.79245476  1
  O  O40  1  0.01100247  0.36303212  0.58702923  1
  O  O41  1  0.98899753  0.13696788  0.08702923  1
  O  O42  1  0.98899753  0.63696788  0.41297077  1
  O  O43  1  0.01100247  0.86303212  0.91297077  1
  O  O44  1  0.24211226  0.50864187  0.46060384  1
  O  O45  1  0.75788774  0.99135813  0.96060384  1
  O  O46  1  0.75788774  0.49135813  0.53939616  1
  O  O47  1  0.24211226  0.00864187  0.03939616  1
  O  O48  1  0.39094280  0.36526925  0.57462548  1
  O  O49  1  0.60905720  0.13473075  0.07462548  1
  O  O50  1  0.60905720  0.63473075  0.42537452  1
  O  O51  1  0.39094280  0.86526925  0.92537452  1
  O  O52  1  0.16075237  0.29496061  0.41955871  1
  O  O53  1  0.83924763  0.20503939  0.91955871  1
  O  O54  1  0.83924763  0.70503939  0.58044129  1
  O  O55  1  0.16075237  0.79496061  0.08044129  1
  O  O56  1  0.30590531  0.22550129  0.96319166  1
  O  O57  1  0.69409469  0.27449871  0.46319166  1
  O  O58  1  0.69409469  0.77449871  0.03680834  1
  O  O59  1  0.30590531  0.72550129  0.53680834  1
  O  O60  1  0.52289126  0.26582878  0.78976149  1
  O  O61  1  0.47710874  0.23417122  0.28976149  1
  O  O62  1  0.47710874  0.73417122  0.21023851  1
  O  O63  1  0.52289126  0.76582878  0.71023851  1
  O  O64  1  0.14087044  0.23013514  0.77570166  1
  O  O65  1  0.85912956  0.26986486  0.27570166  1
  O  O66  1  0.85912956  0.76986486  0.22429834  1
  O  O67  1  0.14087044  0.73013514  0.72429834  1
  O  O68  1  0.29949580  0.06617748  0.82676293  1
  O  O69  1  0.70050420  0.43382252  0.32676293  1
  O  O70  1  0.70050420  0.93382252  0.17323707  1
  O  O71  1  0.29949580  0.56617748  0.67323707  1
  O  O72  1  0.45787197  0.15830065  0.60375257  1
  O  O73  1  0.54212803  0.34169935  0.10375257  1
  O  O74  1  0.54212803  0.84169935  0.39624743  1
  O  O75  1  0.45787197  0.65830065  0.89624743  1
  O  O76  1  0.25793288  0.94774092  0.62586826  1
  O  O77  1  0.74206712  0.55225908  0.12586826  1
  O  O78  1  0.74206712  0.05225908  0.37413174  1
  O  O79  1  0.25793288  0.44774092  0.87413174  1
  O  O80  1  0.32381250  0.03254308  0.43457203  1
  O  O81  1  0.67618750  0.46745692  0.93457203  1
  O  O82  1  0.67618750  0.96745692  0.56542797  1
  O  O83  1  0.32381250  0.53254308  0.06542797  1
  O  O84  1  0.08559296  0.10173111  0.56291298  1
  O  O85  1  0.91440704  0.39826889  0.06291298  1
  O  O86  1  0.91440704  0.89826889  0.43708702  1
  O  O87  1  0.08559296  0.60173111  0.93708702  1
  O  O88  1  0.89256439  0.39125103  0.76981517  1
  O  O89  1  0.10743561  0.10874897  0.26981517  1
  O  O90  1  0.10743561  0.60874897  0.23018483  1
  O  O91  1  0.89256439  0.89125103  0.73018483  1
  O  O92  1  0.60537018  0.47217862  0.72647098  1
  O  O93  1  0.39462982  0.02782138  0.22647098  1
  O  O94  1  0.39462982  0.52782138  0.27352902  1
  O  O95  1  0.60537018  0.97217862  0.77352902  1
  O  O96  1  0.80014032  0.17355727  0.67924494  1
  O  O97  1  0.19985968  0.32644273  0.17924494  1
  O  O98  1  0.19985968  0.82644273  0.32075506  1
  O  O99  1  0.80014032  0.67355727  0.82075506  1
