# generated using pymatgen
data_Ba3SmIr2O9
_symmetry_space_group_name_H-M   'P 1'
_cell_length_a   5.99531158
_cell_length_b   5.99531158
_cell_length_c   14.86919186
_cell_angle_alpha   90.00000000
_cell_angle_beta   90.00000000
_cell_angle_gamma   119.99810195
_symmetry_Int_Tables_number   1
_chemical_formula_structural   Ba3SmIr2O9
_chemical_formula_sum   'Ba6 Sm2 Ir4 O18'
_cell_volume   462.86018039
_cell_formula_units_Z   2
loop_
 _symmetry_equiv_pos_site_id
 _symmetry_equiv_pos_as_xyz
  1  'x, y, z'
loop_
 _atom_site_type_symbol
 _atom_site_label
 _atom_site_symmetry_multiplicity
 _atom_site_fract_x
 _atom_site_fract_y
 _atom_site_fract_z
 _atom_site_occupancy
  Ba  Ba0  1  0.99999314  0.00000686  0.75000000  1
  Ba  Ba1  1  0.00000686  0.99999314  0.25000000  1
  Ba  Ba2  1  0.66667636  0.33332364  0.40312602  1
  Ba  Ba3  1  0.33332364  0.66667636  0.59687398  1
  Ba  Ba4  1  0.33332364  0.66667636  0.90312602  1
  Ba  Ba5  1  0.66667636  0.33332364  0.09687398  1
  Sm  Sm6  1  0.00000000  0.00000000  0.50000000  1
  Sm  Sm7  1  0.00000000  0.00000000  -0.00000000  1
  Ir  Ir8  1  0.66666191  0.33333809  0.66531888  1
  Ir  Ir9  1  0.33333809  0.66666191  0.33468112  1
  Ir  Ir10  1  0.33333809  0.66666191  0.16531888  1
  Ir  Ir11  1  0.66666191  0.33333809  0.83468112  1
  O  O12  1  0.50934351  0.01849388  0.75000000  1
  O  O13  1  0.50917150  0.49082850  0.75000000  1
  O  O14  1  0.98150612  0.49065649  0.75000000  1
  O  O15  1  0.49065649  0.98150612  0.25000000  1
  O  O16  1  0.49082850  0.50917150  0.25000000  1
  O  O17  1  0.01849388  0.50934351  0.25000000  1
  O  O18  1  0.82192440  0.64388068  0.91117812  1
  O  O19  1  0.82197899  0.17802101  0.91117917  1
  O  O20  1  0.35611932  0.17807560  0.91117812  1
  O  O21  1  0.17807560  0.35611932  0.08882188  1
  O  O22  1  0.17802101  0.82197899  0.08882083  1
  O  O23  1  0.64388068  0.82192440  0.08882188  1
  O  O24  1  0.17807560  0.35611932  0.41117812  1
  O  O25  1  0.17802101  0.82197899  0.41117917  1
  O  O26  1  0.64388068  0.82192440  0.41117812  1
  O  O27  1  0.82192440  0.64388068  0.58882188  1
  O  O28  1  0.82197899  0.17802101  0.58882083  1
  O  O29  1  0.35611932  0.17807560  0.58882188  1
