# generated using pymatgen
data_K3Er(SO4)3
_symmetry_space_group_name_H-M   'P 1'
_cell_length_a   9.12985039
_cell_length_b   9.32015545
_cell_length_c   14.81854172
_cell_angle_alpha   90.00000000
_cell_angle_beta   90.00000000
_cell_angle_gamma   110.63846799
_symmetry_Int_Tables_number   1
_chemical_formula_structural   K3Er(SO4)3
_chemical_formula_sum   'K12 Er4 S12 O48'
_cell_volume   1180.01097323
_cell_formula_units_Z   4
loop_
 _symmetry_equiv_pos_site_id
 _symmetry_equiv_pos_as_xyz
  1  'x, y, z'
loop_
 _atom_site_type_symbol
 _atom_site_label
 _atom_site_symmetry_multiplicity
 _atom_site_fract_x
 _atom_site_fract_y
 _atom_site_fract_z
 _atom_site_occupancy
  K  K0  1  0.25692731  0.73606549  0.44112843  1
  K  K1  1  0.75692731  0.73606549  0.55887157  1
  K  K2  1  0.46109392  0.33332251  0.48838938  1
  K  K3  1  0.96109392  0.33332251  0.51161062  1
  K  K4  1  0.47040637  0.84692818  0.01124695  1
  K  K5  1  0.97040637  0.84692818  0.98875305  1
  K  K6  1  0.79339453  0.23060291  0.92404018  1
  K  K7  1  0.29339453  0.23060291  0.07595982  1
  K  K8  1  0.54911216  0.68568571  0.26163262  1
  K  K9  1  0.04911216  0.68568571  0.73836738  1
  K  K10  1  0.58258768  0.20758770  0.26332308  1
  K  K11  1  0.08258768  0.20758770  0.73667692  1
  Er  Er12  1  0.49867188  0.00000715  0.67374240  1
  Er  Er13  1  0.99867188  0.00000715  0.32625760  1
  Er  Er14  1  0.53671033  0.50987286  0.85342495  1
  Er  Er15  1  0.03671033  0.50987286  0.14657505  1
  S  S16  1  0.84467072  0.58785337  0.34885855  1
  S  S17  1  0.34467072  0.58785337  0.65114145  1
  S  S18  1  0.71785032  0.84401721  0.80763201  1
  S  S19  1  0.21785032  0.84401721  0.19236799  1
  S  S20  1  0.66429465  0.49632647  0.04759504  1
  S  S21  1  0.16429465  0.49632647  0.95240496  1
  S  S22  1  0.70708924  0.34196123  0.69058692  1
  S  S23  1  0.20708924  0.34196123  0.30941308  1
  S  S24  1  0.65470547  0.01268131  0.44806093  1
  S  S25  1  0.15470547  0.01268131  0.55193907  1
  S  S26  1  0.35688487  0.08730880  0.84472734  1
  S  S27  1  0.85688487  0.08730880  0.15527266  1
  O  O28  1  0.67735871  0.49356876  0.35944702  1
  O  O29  1  0.17735871  0.49356876  0.64055298  1
  O  O30  1  0.93435272  0.59412823  0.43232680  1
  O  O31  1  0.43435272  0.59412823  0.56767320  1
  O  O32  1  0.85320670  0.74748772  0.32277555  1
  O  O33  1  0.35320670  0.74748772  0.67722445  1
  O  O34  1  0.91303319  0.52368362  0.27329882  1
  O  O35  1  0.41303319  0.52368362  0.72670118  1
  O  O36  1  0.56559635  0.77507331  0.85713924  1
  O  O37  1  0.06559635  0.77507331  0.14286076  1
  O  O38  1  0.77565010  0.71169433  0.79815383  1
  O  O39  1  0.27565010  0.71169433  0.20184617  1
  O  O40  1  0.68720254  0.89614721  0.71686324  1
  O  O41  1  0.18720254  0.89614721  0.28313676  1
  O  O42  1  0.83308421  0.97182366  0.85688836  1
  O  O43  1  0.33308421  0.97182366  0.14311164  1
  O  O44  1  0.65945991  0.63882774  0.00313916  1
  O  O45  1  0.15945991  0.63882774  0.99686084  1
  O  O46  1  0.83118159  0.51220673  0.06184279  1
  O  O47  1  0.33118159  0.51220673  0.93815721  1
  O  O48  1  0.59316789  0.37116010  0.97874421  1
  O  O49  1  0.09316789  0.37116010  0.02125579  1
  O  O50  1  0.57629839  0.46062198  0.13278539  1
  O  O51  1  0.07629839  0.46062198  0.86721461  1
  O  O52  1  0.36241365  0.24990684  0.84324241  1
  O  O53  1  0.86241365  0.24990684  0.15675759  1
  O  O54  1  0.28390427  0.01419404  0.92986211  1
  O  O55  1  0.78390427  0.01419404  0.07013789  1
  O  O56  1  0.26776891  0.00468824  0.76346087  1
  O  O57  1  0.76776891  0.00468824  0.23653913  1
  O  O58  1  0.51758805  0.07882447  0.83283189  1
  O  O59  1  0.01758805  0.07882447  0.16716811  1
  O  O60  1  0.54417886  0.25845032  0.65494154  1
  O  O61  1  0.04417886  0.25845032  0.34505846  1
  O  O62  1  0.78152125  0.22305391  0.69733906  1
  O  O63  1  0.28152125  0.22305391  0.30266094  1
  O  O64  1  0.69560479  0.40312002  0.78310328  1
  O  O65  1  0.19560479  0.40312002  0.21689672  1
  O  O66  1  0.79409568  0.46893340  0.63034504  1
  O  O67  1  0.29409568  0.46893340  0.36965496  1
  O  O68  1  0.53977830  0.90888981  0.38568295  1
  O  O69  1  0.03977830  0.90888981  0.61431705  1
  O  O70  1  0.81350094  0.00036779  0.43392370  1
  O  O71  1  0.31350094  0.00036779  0.56607630  1
  O  O72  1  0.66540404  0.17373651  0.43754549  1
  O  O73  1  0.16540404  0.17373651  0.56245451  1
  O  O74  1  0.61034953  0.96239034  0.54429872  1
  O  O75  1  0.11034953  0.96239034  0.45570128  1
