# generated using pymatgen
data_AlSeCl7
_symmetry_space_group_name_H-M   'P 1'
_cell_length_a   6.57534293
_cell_length_b   8.46613799
_cell_length_c   10.20696338
_cell_angle_alpha   85.69298379
_cell_angle_beta   76.69928468
_cell_angle_gamma   83.55584128
_symmetry_Int_Tables_number   1
_chemical_formula_structural   AlSeCl7
_chemical_formula_sum   'Al2 Se2 Cl14'
_cell_volume   548.74975965
_cell_formula_units_Z   2
loop_
 _symmetry_equiv_pos_site_id
 _symmetry_equiv_pos_as_xyz
  1  'x, y, z'
loop_
 _atom_site_type_symbol
 _atom_site_label
 _atom_site_symmetry_multiplicity
 _atom_site_fract_x
 _atom_site_fract_y
 _atom_site_fract_z
 _atom_site_occupancy
  Al  Al0  1  0.45935261  0.39818740  0.95320090  1
  Al  Al1  1  0.21022531  0.95613409  0.51716772  1
  Se  Se2  1  0.99822664  0.00803725  0.99605436  1
  Se  Se3  1  0.78282273  0.56139855  0.52749880  1
  Cl  Cl4  1  0.87644145  0.79325780  0.95323161  1
  Cl  Cl5  1  0.66193821  0.19088447  0.87054135  1
  Cl  Cl6  1  0.13415974  0.34084233  0.00118443  1
  Cl  Cl7  1  0.26566520  0.89410821  0.07006331  1
  Cl  Cl8  1  0.78540977  0.04983761  0.19025943  1
  Cl  Cl9  1  0.28123172  0.01336625  0.70478422  1
  Cl  Cl10  1  0.64231936  0.34549716  0.50895849  1
  Cl  Cl11  1  0.02465874  0.46359769  0.63238827  1
  Cl  Cl12  1  0.41263461  0.75165813  0.42842472  1
  Cl  Cl13  1  0.88583352  0.89870344  0.55599489  1
  Cl  Cl14  1  0.97485266  0.56964627  0.32283112  1
  Cl  Cl15  1  0.48187188  0.59017358  0.79581012  1
  Cl  Cl16  1  0.53989529  0.47997041  0.12447246  1
  Cl  Cl17  1  0.25956055  0.15519935  0.37533380  1
