# generated using pymatgen
data_B11H2CCl11
_symmetry_space_group_name_H-M   'P 1'
_cell_length_a   9.37888074
_cell_length_b   14.84924101
_cell_length_c   15.83719938
_cell_angle_alpha   73.23180692
_cell_angle_beta   75.21654640
_cell_angle_gamma   82.38883320
_symmetry_Int_Tables_number   1
_chemical_formula_structural   B11H2CCl11
_chemical_formula_sum   'B44 H8 C4 Cl44'
_cell_volume   2037.81513490
_cell_formula_units_Z   4
loop_
 _symmetry_equiv_pos_site_id
 _symmetry_equiv_pos_as_xyz
  1  'x, y, z'
loop_
 _atom_site_type_symbol
 _atom_site_label
 _atom_site_symmetry_multiplicity
 _atom_site_fract_x
 _atom_site_fract_y
 _atom_site_fract_z
 _atom_site_occupancy
  B  B0  1  0.57549063  0.53582564  0.80468245  1
  B  B1  1  0.42450937  0.46417436  0.19531755  1
  B  B2  1  0.38156036  0.51371782  0.84389208  1
  B  B3  1  0.61843964  0.48628218  0.15610792  1
  B  B4  1  0.27919221  0.62507477  0.84030456  1
  B  B5  1  0.72080779  0.37492523  0.15969544  1
  B  B6  1  0.41115538  0.71582988  0.79858610  1
  B  B7  1  0.58884462  0.28417012  0.20141390  1
  B  B8  1  0.59365826  0.66034669  0.77582762  1
  B  B9  1  0.40634174  0.33965331  0.22417238  1
  B  B10  1  0.60789722  0.60362995  0.68793642  1
  B  B11  1  0.39210278  0.39637005  0.31206358  1
  B  B12  1  0.47735956  0.51471023  0.73073584  1
  B  B13  1  0.52264044  0.48528977  0.26926416  1
  B  B14  1  0.29216372  0.56848692  0.75193142  1
  B  B15  1  0.70783628  0.43151308  0.24806858  1
  B  B16  1  0.31410315  0.69329501  0.72500873  1
  B  B17  1  0.68589685  0.30670499  0.27499127  1
  B  B18  1  0.50517994  0.71598400  0.68406511  1
  B  B19  1  0.49482006  0.28401600  0.31593489  1
  B  B20  1  0.43270894  0.62457567  0.65528206  1
  B  B21  1  0.56729106  0.37542433  0.34471794  1
  B  B22  1  0.77520743  0.04361378  0.82228221  1
  B  B23  1  0.22479257  0.95638622  0.17771779  1
  B  B24  1  0.96079316  0.99322827  0.81717693  1
  B  B25  1  0.03920684  0.00677173  0.18282307  1
  B  B26  1  0.07749991  0.08391054  0.81084072  1
  B  B27  1  0.92250009  0.91608946  0.18915928  1
  B  B28  1  0.96308927  0.19026516  0.81294410  1
  B  B29  1  0.03691073  0.80973484  0.18705590  1
  B  B30  1  0.77527606  0.16504666  0.82068763  1
  B  B31  1  0.22472394  0.83495334  0.17931237  1
  B  B32  1  0.77152359  0.13401627  0.71929068  1
  B  B33  1  0.22847641  0.86598373  0.28070932  1
  B  B34  1  0.88730778  0.02692434  0.71694644  1
  B  B35  1  0.11269222  0.97307566  0.28305356  1
  B  B36  1  0.07104009  0.05218521  0.71145793  1
  B  B37  1  0.92895991  0.94781479  0.28854207  1
  B  B38  1  0.07607319  0.17429683  0.70704073  1
  B  B39  1  0.92392681  0.82570317  0.29295927  1
  B  B40  1  0.88807393  0.22173057  0.71491381  1
  B  B41  1  0.11192607  0.77826943  0.28508619  1
  B  B42  1  0.95728688  0.13901439  0.64907147  1
  B  B43  1  0.04271312  0.86098561  0.35092853  1
  H  H44  1  0.45969590  0.59970623  0.93143658  1
  H  H45  1  0.54030410  0.40029377  0.06856342  1
  H  H46  1  0.87447663  0.06198455  0.94330818  1
  H  H47  1  0.12552337  0.93801545  0.05669182  1
  H  H48  1  0.69082538  0.37346524  0.68218096  1
  H  H49  1  0.30917462  0.62653476  0.31781904  1
  H  H50  1  0.20343004  0.88355684  0.67595882  1
  H  H51  1  0.79656996  0.11644316  0.32404118  1
  C  C52  1  0.45257412  0.60561226  0.86236347  1
  C  C53  1  0.54742588  0.39438774  0.13763653  1
  C  C54  1  0.89595290  0.08162417  0.86955060  1
  C  C55  1  0.10404710  0.91837583  0.13044940  1
  Cl  Cl56  1  0.70716352  0.45747218  0.85552076  1
  Cl  Cl57  1  0.29283648  0.54252782  0.14447924  1
  Cl  Cl58  1  0.32254523  0.41301705  0.93231078  1
  Cl  Cl59  1  0.67745477  0.58698295  0.06768922  1
  Cl  Cl60  1  0.11770074  0.63317021  0.92462114  1
  Cl  Cl61  1  0.88229926  0.36682979  0.07537886  1
  Cl  Cl62  1  0.38239869  0.81488601  0.84229843  1
  Cl  Cl63  1  0.61760131  0.18511399  0.15770157  1
  Cl  Cl64  1  0.74198075  0.70330902  0.79865231  1
  Cl  Cl65  1  0.25801925  0.29669098  0.20134769  1
  Cl  Cl66  1  0.77784342  0.59095316  0.60973355  1
  Cl  Cl67  1  0.22215658  0.40904684  0.39026645  1
  Cl  Cl68  1  0.51268191  0.40493330  0.69531992  1
  Cl  Cl69  1  0.48731809  0.59506670  0.30468008  1
  Cl  Cl70  1  0.13651430  0.52159343  0.73988633  1
  Cl  Cl71  1  0.86348570  0.47840657  0.26011367  1
  Cl  Cl72  1  0.17004893  0.77832122  0.68246219  1
  Cl  Cl73  1  0.82995107  0.22167878  0.31753781  1
  Cl  Cl74  1  0.56483798  0.82174962  0.60201259  1
  Cl  Cl75  1  0.43516202  0.17825038  0.39798741  1
  Cl  Cl76  1  0.41901817  0.63376966  0.54342281  1
  Cl  Cl77  1  0.58098183  0.36623034  0.45657719  1
  Cl  Cl78  1  0.62643418  0.97588678  0.89029399  1
  Cl  Cl79  1  0.37356582  0.02411322  0.10970601  1
  Cl  Cl80  1  0.99167002  0.87663627  0.88060958  1
  Cl  Cl81  1  0.00832998  0.12336373  0.11939042  1
  Cl  Cl82  1  0.22589268  0.05722760  0.86561808  1
  Cl  Cl83  1  0.77410732  0.94277240  0.13438192  1
  Cl  Cl84  1  0.99912581  0.26848316  0.86888880  1
  Cl  Cl85  1  0.00087419  0.73151684  0.13111120  1
  Cl  Cl86  1  0.62410374  0.21605472  0.88712710  1
  Cl  Cl87  1  0.37589626  0.78394528  0.11287290  1
  Cl  Cl88  1  0.61363074  0.16154370  0.67221292  1
  Cl  Cl89  1  0.38636926  0.83845630  0.32778708  1
  Cl  Cl90  1  0.85026124  0.94296918  0.66667960  1
  Cl  Cl91  1  0.14973876  0.05703082  0.33332040  1
  Cl  Cl92  1  0.23409396  0.99150276  0.65284588  1
  Cl  Cl93  1  0.76590604  0.00849724  0.34715412  1
  Cl  Cl94  1  0.22899797  0.24328102  0.64698474  1
  Cl  Cl95  1  0.77100203  0.75671898  0.35301526  1
  Cl  Cl96  1  0.85706239  0.34738637  0.65714365  1
  Cl  Cl97  1  0.14293761  0.65261363  0.34285635  1
  Cl  Cl98  1  0.99254628  0.17221532  0.52923962  1
  Cl  Cl99  1  0.00745372  0.82778468  0.47076038  1
