# generated using pymatgen
data_Y6CoBr10
_symmetry_space_group_name_H-M   'P 1'
_cell_length_a   7.35807341
_cell_length_b   9.08334904
_cell_length_c   9.22931150
_cell_angle_alpha   108.41775416
_cell_angle_beta   97.18465954
_cell_angle_gamma   105.33953923
_symmetry_Int_Tables_number   1
_chemical_formula_structural   Y6CoBr10
_chemical_formula_sum   'Y6 Co1 Br10'
_cell_volume   549.53365495
_cell_formula_units_Z   1
loop_
 _symmetry_equiv_pos_site_id
 _symmetry_equiv_pos_as_xyz
  1  'x, y, z'
loop_
 _atom_site_type_symbol
 _atom_site_label
 _atom_site_symmetry_multiplicity
 _atom_site_fract_x
 _atom_site_fract_y
 _atom_site_fract_z
 _atom_site_occupancy
  Y  Y0  1  0.47193899  0.78815334  0.58899322  1
  Y  Y1  1  0.52806101  0.21184666  0.41100678  1
  Y  Y2  1  0.37856604  0.45547021  0.74566426  1
  Y  Y3  1  0.62143396  0.54452979  0.25433574  1
  Y  Y4  1  0.86050937  0.63557263  0.67821507  1
  Y  Y5  1  0.13949063  0.36442737  0.32178493  1
  Co  Co6  1  0.50000000  0.50000000  0.50000000  1
  Br  Br7  1  0.41360371  0.12828080  0.67394623  1
  Br  Br8  1  0.58639629  0.87171920  0.32605377  1
  Br  Br9  1  0.04868083  0.67985189  0.41390100  1
  Br  Br10  1  0.95131917  0.32014811  0.58609900  1
  Br  Br11  1  0.28970371  0.76148897  0.84986717  1
  Br  Br12  1  0.71029629  0.23851103  0.15013283  1
  Br  Br13  1  0.24383475  0.41346871  0.03859346  1
  Br  Br14  1  0.75616525  0.58653129  0.96140654  1
  Br  Br15  1  0.85600896  0.95958298  0.77480777  1
  Br  Br16  1  0.14399104  0.04041702  0.22519223  1
