# generated using pymatgen
data_Li9Mn2Co5O16
_symmetry_space_group_name_H-M   'P 1'
_cell_length_a   2.89546703
_cell_length_b   9.85291262
_cell_length_c   10.28304335
_cell_angle_alpha   84.12707523
_cell_angle_beta   89.99999963
_cell_angle_gamma   81.55068127
_symmetry_Int_Tables_number   1
_chemical_formula_structural   Li9Mn2Co5O16
_chemical_formula_sum   'Li9 Mn2 Co5 O16'
_cell_volume   288.62186012
_cell_formula_units_Z   1
loop_
 _symmetry_equiv_pos_site_id
 _symmetry_equiv_pos_as_xyz
  1  'x, y, z'
loop_
 _atom_site_type_symbol
 _atom_site_label
 _atom_site_symmetry_multiplicity
 _atom_site_fract_x
 _atom_site_fract_y
 _atom_site_fract_z
 _atom_site_occupancy
  Li  Li0  1  0.37970559  0.24058883  0.07109795  1
  Li  Li1  1  0.11844535  0.76310929  0.19517812  1
  Li  Li2  1  0.88272047  0.23455906  0.30279294  1
  Li  Li3  1  0.62027875  0.75944249  0.43493839  1
  Li  Li4  1  0.38286837  0.23426327  0.56192656  1
  Li  Li5  1  0.11888479  0.76223041  0.68406326  1
  Li  Li6  1  0.87788806  0.24422388  0.81401637  1
  Li  Li7  1  0.62191835  0.75616329  0.94436500  1
  Li  Li8  1  0.49817242  0.00365516  0.24833404  1
  Mn  Mn9  1  0.99798791  0.00402419  0.00675624  1
  Mn  Mn10  1  0.75059742  0.49880516  0.62508708  1
  Co  Co11  1  0.74958147  0.50083706  0.12593187  1
  Co  Co12  1  0.25034733  0.49930535  0.37243408  1
  Co  Co13  1  0.00412017  0.99175965  0.48018106  1
  Co  Co14  1  0.49986626  0.00026747  0.74475817  1
  Co  Co15  1  0.24921156  0.50157688  0.87724449  1
  O  O16  1  0.44395782  0.11208437  0.91274980  1
  O  O17  1  0.19108543  0.61782914  0.03717534  1
  O  O18  1  0.94203547  0.11592905  0.13959952  1
  O  O19  1  0.69486436  0.61027129  0.28718324  1
  O  O20  1  0.44056190  0.11887619  0.41307135  1
  O  O21  1  0.19380370  0.61239259  0.54846984  1
  O  O22  1  0.94163585  0.11672830  0.66493152  1
  O  O23  1  0.69862737  0.60274525  0.78058127  1
  O  O24  1  0.30865353  0.38269293  0.21186955  1
  O  O25  1  0.06222356  0.87555287  0.35415058  1
  O  O26  1  0.80102812  0.39794376  0.47214810  1
  O  O27  1  0.55763380  0.88473240  0.59521900  1
  O  O28  1  0.30721893  0.38556213  0.70460011  1
  O  O29  1  0.05536493  0.88927015  0.84697385  1
  O  O30  1  0.80363694  0.39272612  0.95948991  1
  O  O31  1  0.55507400  0.88985201  0.08268141  1
