# generated using pymatgen
data_KNa4FeO4
_symmetry_space_group_name_H-M   'P 1'
_cell_length_a   6.07157902
_cell_length_b   10.63873421
_cell_length_c   18.97363128
_cell_angle_alpha   90.00000000
_cell_angle_beta   90.00000000
_cell_angle_gamma   90.00000000
_symmetry_Int_Tables_number   1
_chemical_formula_structural   KNa4FeO4
_chemical_formula_sum   'K8 Na32 Fe8 O32'
_cell_volume   1225.58113428
_cell_formula_units_Z   8
loop_
 _symmetry_equiv_pos_site_id
 _symmetry_equiv_pos_as_xyz
  1  'x, y, z'
loop_
 _atom_site_type_symbol
 _atom_site_label
 _atom_site_symmetry_multiplicity
 _atom_site_fract_x
 _atom_site_fract_y
 _atom_site_fract_z
 _atom_site_occupancy
  K  K0  1  0.90963467  0.15695358  0.50337675  1
  K  K1  1  0.59036533  0.65695358  0.49662325  1
  K  K2  1  0.40963467  0.84304642  0.99662325  1
  K  K3  1  0.09036533  0.34304642  0.00337675  1
  K  K4  1  0.09036533  0.84304642  0.49662325  1
  K  K5  1  0.40963467  0.34304642  0.50337675  1
  K  K6  1  0.59036533  0.15695358  0.00337675  1
  K  K7  1  0.90963467  0.65695358  0.99662325  1
  Na  Na8  1  0.89976566  0.19623575  0.85697245  1
  Na  Na9  1  0.60023434  0.69623575  0.14302755  1
  Na  Na10  1  0.39976566  0.80376425  0.64302755  1
  Na  Na11  1  0.10023434  0.30376425  0.35697245  1
  Na  Na12  1  0.10023434  0.80376425  0.14302755  1
  Na  Na13  1  0.39976566  0.30376425  0.85697245  1
  Na  Na14  1  0.60023434  0.19623575  0.35697245  1
  Na  Na15  1  0.89976566  0.69623575  0.64302755  1
  Na  Na16  1  0.58298297  0.32567506  0.67691405  1
  Na  Na17  1  0.91701703  0.82567506  0.32308595  1
  Na  Na18  1  0.08298297  0.67432494  0.82308595  1
  Na  Na19  1  0.41701703  0.17432494  0.17691405  1
  Na  Na20  1  0.41701703  0.67432494  0.32308595  1
  Na  Na21  1  0.08298297  0.17432494  0.67691405  1
  Na  Na22  1  0.91701703  0.32567506  0.17691405  1
  Na  Na23  1  0.58298297  0.82567506  0.82308595  1
  Na  Na24  1  0.57518752  0.07711903  0.74874183  1
  Na  Na25  1  0.92481248  0.57711903  0.25125817  1
  Na  Na26  1  0.07518752  0.92288097  0.75125817  1
  Na  Na27  1  0.42481248  0.42288097  0.24874183  1
  Na  Na28  1  0.42481248  0.92288097  0.25125817  1
  Na  Na29  1  0.07518752  0.42288097  0.74874183  1
  Na  Na30  1  0.92481248  0.07711903  0.24874183  1
  Na  Na31  1  0.57518752  0.57711903  0.75125817  1
  Na  Na32  1  0.90555174  0.44280606  0.56667652  1
  Na  Na33  1  0.59444826  0.94280606  0.43332348  1
  Na  Na34  1  0.40555174  0.55719394  0.93332348  1
  Na  Na35  1  0.09444826  0.05719394  0.06667652  1
  Na  Na36  1  0.09444826  0.55719394  0.43332348  1
  Na  Na37  1  0.40555174  0.05719394  0.56667652  1
  Na  Na38  1  0.59444826  0.44280606  0.06667652  1
  Na  Na39  1  0.90555174  0.94280606  0.93332348  1
  Fe  Fe40  1  0.80347290  0.46232082  0.87215585  1
  Fe  Fe41  1  0.69652710  0.96232082  0.12784415  1
  Fe  Fe42  1  0.30347290  0.53767918  0.62784415  1
  Fe  Fe43  1  0.19652710  0.03767918  0.37215585  1
  Fe  Fe44  1  0.19652710  0.53767918  0.12784415  1
  Fe  Fe45  1  0.30347290  0.03767918  0.87215585  1
  Fe  Fe46  1  0.69652710  0.46232082  0.37215585  1
  Fe  Fe47  1  0.80347290  0.96232082  0.62784415  1
  O  O48  1  0.61819405  0.03948279  0.87536495  1
  O  O49  1  0.88180595  0.53948279  0.12463505  1
  O  O50  1  0.11819405  0.96051721  0.62463505  1
  O  O51  1  0.38180595  0.46051721  0.37536495  1
  O  O52  1  0.38180595  0.96051721  0.12463505  1
  O  O53  1  0.11819405  0.46051721  0.87536495  1
  O  O54  1  0.88180595  0.03948279  0.37536495  1
  O  O55  1  0.61819405  0.53948279  0.62463505  1
  O  O56  1  0.67005363  0.38296284  0.95150733  1
  O  O57  1  0.82994637  0.88296284  0.04849267  1
  O  O58  1  0.17005363  0.61703716  0.54849267  1
  O  O59  1  0.32994637  0.11703716  0.45150733  1
  O  O60  1  0.32994637  0.61703716  0.04849267  1
  O  O61  1  0.17005363  0.11703716  0.95150733  1
  O  O62  1  0.82994637  0.38296284  0.45150733  1
  O  O63  1  0.67005363  0.88296284  0.54849267  1
  O  O64  1  0.71383029  0.37080568  0.78972442  1
  O  O65  1  0.78616971  0.87080568  0.21027558  1
  O  O66  1  0.21383029  0.62919432  0.71027558  1
  O  O67  1  0.28616971  0.12919432  0.28972442  1
  O  O68  1  0.28616971  0.62919432  0.21027558  1
  O  O69  1  0.21383029  0.12919432  0.78972442  1
  O  O70  1  0.78616971  0.37080568  0.28972442  1
  O  O71  1  0.71383029  0.87080568  0.71027558  1
  O  O72  1  0.70693857  0.13432683  0.63480784  1
  O  O73  1  0.79306143  0.63432683  0.36519216  1
  O  O74  1  0.20693857  0.86567317  0.86519216  1
  O  O75  1  0.29306143  0.36567317  0.13480784  1
  O  O76  1  0.29306143  0.86567317  0.36519216  1
  O  O77  1  0.20693857  0.36567317  0.63480784  1
  O  O78  1  0.79306143  0.13432683  0.13480784  1
  O  O79  1  0.70693857  0.63432683  0.86519216  1
