# generated using pymatgen
data_Ce4Mg7Ge6
_symmetry_space_group_name_H-M   'P 1'
_cell_length_a   4.50442576
_cell_length_b   8.73021222
_cell_length_c   11.05538297
_cell_angle_alpha   79.23688641
_cell_angle_beta   78.24536636
_cell_angle_gamma   75.04981320
_symmetry_Int_Tables_number   1
_chemical_formula_structural   Ce4Mg7Ge6
_chemical_formula_sum   'Ce4 Mg7 Ge6'
_cell_volume   407.06451277
_cell_formula_units_Z   1
loop_
 _symmetry_equiv_pos_site_id
 _symmetry_equiv_pos_as_xyz
  1  'x, y, z'
loop_
 _atom_site_type_symbol
 _atom_site_label
 _atom_site_symmetry_multiplicity
 _atom_site_fract_x
 _atom_site_fract_y
 _atom_site_fract_z
 _atom_site_occupancy
  Ce  Ce0  1  0.26789485  0.85494088  0.60926943  1
  Ce  Ce1  1  0.73210515  0.14505912  0.39073057  1
  Ce  Ce2  1  0.37216216  0.42018752  0.83548816  1
  Ce  Ce3  1  0.62783784  0.57981248  0.16451184  1
  Mg  Mg4  1  0.03921698  0.06035228  0.86121377  1
  Mg  Mg5  1  0.96078302  0.93964772  0.13878623  1
  Mg  Mg6  1  0.06288679  0.27099517  0.60323125  1
  Mg  Mg7  1  0.93711321  0.72900483  0.39676875  1
  Mg  Mg8  1  0.68918286  0.77550115  0.84613313  1
  Mg  Mg9  1  0.31081714  0.22449885  0.15386687  1
  Mg  Mg10  1  0.50000000  0.50000000  0.50000000  1
  Ge  Ge11  1  0.12199408  0.41129086  0.34472098  1
  Ge  Ge12  1  0.87800592  0.58870914  0.65527902  1
  Ge  Ge13  1  0.15154195  0.71874720  0.97816890  1
  Ge  Ge14  1  0.84845805  0.28125280  0.02183110  1
  Ge  Ge15  1  0.60963422  0.09077824  0.68995332  1
  Ge  Ge16  1  0.39036578  0.90922176  0.31004668  1
