# generated using pymatgen
data_Dy(InPt)4
_symmetry_space_group_name_H-M   'P 1'
_cell_length_a   4.61540940
_cell_length_b   4.61540940
_cell_length_c   20.24545213
_cell_angle_alpha   90.00000000
_cell_angle_beta   90.00000000
_cell_angle_gamma   119.99991880
_symmetry_Int_Tables_number   1
_chemical_formula_structural   Dy(InPt)4
_chemical_formula_sum   'Dy2 In8 Pt8'
_cell_volume   373.48995562
_cell_formula_units_Z   2
loop_
 _symmetry_equiv_pos_site_id
 _symmetry_equiv_pos_as_xyz
  1  'x, y, z'
loop_
 _atom_site_type_symbol
 _atom_site_label
 _atom_site_symmetry_multiplicity
 _atom_site_fract_x
 _atom_site_fract_y
 _atom_site_fract_z
 _atom_site_occupancy
  Dy  Dy0  1  0.66660404  0.33339596  0.75000000  1
  Dy  Dy1  1  0.33339596  0.66660404  0.25000000  1
  In  In2  1  0.66664866  0.33335134  0.04154140  1
  In  In3  1  0.33335134  0.66664866  0.95845860  1
  In  In4  1  0.33335134  0.66664866  0.54154140  1
  In  In5  1  0.66664866  0.33335134  0.45845860  1
  In  In6  1  0.00006290  0.99993710  0.64234064  1
  In  In7  1  0.99993710  0.00006290  0.35765936  1
  In  In8  1  0.99993710  0.00006290  0.14234064  1
  In  In9  1  0.00006290  0.99993710  0.85765936  1
  Pt  Pt10  1  0.66658738  0.33341262  0.59487060  1
  Pt  Pt11  1  0.33341262  0.66658738  0.40512940  1
  Pt  Pt12  1  0.33341262  0.66658738  0.09487060  1
  Pt  Pt13  1  0.66658738  0.33341262  0.90512940  1
  Pt  Pt14  1  0.66664179  0.33335821  0.18079763  1
  Pt  Pt15  1  0.33335821  0.66664179  0.81920237  1
  Pt  Pt16  1  0.33335821  0.66664179  0.68079763  1
  Pt  Pt17  1  0.66664179  0.33335821  0.31920237  1
