# generated using pymatgen
data_ThMn2SiC
_symmetry_space_group_name_H-M   'P 1'
_cell_length_a   3.85363165
_cell_length_b   5.72592685
_cell_length_c   7.04990271
_cell_angle_alpha   90.00000000
_cell_angle_beta   90.00000000
_cell_angle_gamma   109.66421841
_symmetry_Int_Tables_number   1
_chemical_formula_structural   ThMn2SiC
_chemical_formula_sum   'Th2 Mn4 Si2 C2'
_cell_volume   146.48827723
_cell_formula_units_Z   2
loop_
 _symmetry_equiv_pos_site_id
 _symmetry_equiv_pos_as_xyz
  1  'x, y, z'
loop_
 _atom_site_type_symbol
 _atom_site_label
 _atom_site_symmetry_multiplicity
 _atom_site_fract_x
 _atom_site_fract_y
 _atom_site_fract_z
 _atom_site_occupancy
  Th  Th0  1  0.44936153  0.89872305  0.25000000  1
  Th  Th1  1  0.55063847  0.10127695  0.75000000  1
  Mn  Mn2  1  0.16782278  0.33564555  0.06203688  1
  Mn  Mn3  1  0.83217722  0.66435445  0.93796312  1
  Mn  Mn4  1  0.83217722  0.66435445  0.56203688  1
  Mn  Mn5  1  0.16782278  0.33564555  0.43796312  1
  Si  Si6  1  0.72988009  0.45976019  0.25000000  1
  Si  Si7  1  0.27011991  0.54023981  0.75000000  1
  C  C8  1  -0.00000000  0.00000000  0.00000000  1
  C  C9  1  -0.00000000  -0.00000000  0.50000000  1
