# generated using pymatgen
data_Tb2CdPd2
_symmetry_space_group_name_H-M   'P 1'
_cell_length_a   3.85051047
_cell_length_b   7.65465999
_cell_length_c   7.65465999
_cell_angle_alpha   90.00000000
_cell_angle_beta   90.00000000
_cell_angle_gamma   90.00000000
_symmetry_Int_Tables_number   1
_chemical_formula_structural   Tb2CdPd2
_chemical_formula_sum   'Tb4 Cd2 Pd4'
_cell_volume   225.61611570
_cell_formula_units_Z   2
loop_
 _symmetry_equiv_pos_site_id
 _symmetry_equiv_pos_as_xyz
  1  'x, y, z'
loop_
 _atom_site_type_symbol
 _atom_site_label
 _atom_site_symmetry_multiplicity
 _atom_site_fract_x
 _atom_site_fract_y
 _atom_site_fract_z
 _atom_site_occupancy
  Tb  Tb0  1  0.50000000  0.17340164  0.67340164  1
  Tb  Tb1  1  0.50000000  0.82659836  0.32659836  1
  Tb  Tb2  1  0.50000000  0.32659836  0.17340164  1
  Tb  Tb3  1  0.50000000  0.67340164  0.82659836  1
  Cd  Cd4  1  0.00000000  -0.00000000  0.00000000  1
  Cd  Cd5  1  -0.00000000  0.50000000  0.50000000  1
  Pd  Pd6  1  0.00000000  0.62709074  0.12709074  1
  Pd  Pd7  1  -0.00000000  0.37290926  0.87290926  1
  Pd  Pd8  1  -0.00000000  0.87290926  0.62709074  1
  Pd  Pd9  1  0.00000000  0.12709074  0.37290926  1
