# generated using pymatgen
data_YbInBr3
_symmetry_space_group_name_H-M   'P 1'
_cell_length_a   4.30059807
_cell_length_b   7.43768056
_cell_length_c   10.85887557
_cell_angle_alpha   90.00000000
_cell_angle_beta   90.00000000
_cell_angle_gamma   106.80460533
_symmetry_Int_Tables_number   1
_chemical_formula_structural   YbInBr3
_chemical_formula_sum   'Yb2 In2 Br6'
_cell_volume   332.50455402
_cell_formula_units_Z   2
loop_
 _symmetry_equiv_pos_site_id
 _symmetry_equiv_pos_as_xyz
  1  'x, y, z'
loop_
 _atom_site_type_symbol
 _atom_site_label
 _atom_site_symmetry_multiplicity
 _atom_site_fract_x
 _atom_site_fract_y
 _atom_site_fract_z
 _atom_site_occupancy
  Yb  Yb0  1  -0.00000000  -0.00000000  -0.00000000  1
  Yb  Yb1  1  -0.00000000  -0.00000000  0.50000000  1
  In  In2  1  0.74974961  0.49949921  0.25000000  1
  In  In3  1  0.25025039  0.50050079  0.75000000  1
  Br  Br4  1  0.36779320  0.73558640  0.05123484  1
  Br  Br5  1  0.63220680  0.26441360  0.94876516  1
  Br  Br6  1  0.63220680  0.26441360  0.55123484  1
  Br  Br7  1  0.36779320  0.73558640  0.44876516  1
  Br  Br8  1  0.07388843  0.14777687  0.25000000  1
  Br  Br9  1  0.92611157  0.85222313  0.75000000  1
