# generated using pymatgen
data_Li9Mn2Co5O16
_symmetry_space_group_name_H-M   'P 1'
_cell_length_a   2.89106399
_cell_length_b   10.63901720
_cell_length_c   10.27674141
_cell_angle_alpha   112.92739775
_cell_angle_beta   89.99999963
_cell_angle_gamma   82.19102511
_symmetry_Int_Tables_number   1
_chemical_formula_structural   Li9Mn2Co5O16
_chemical_formula_sum   'Li9 Mn2 Co5 O16'
_cell_volume   287.93588205
_cell_formula_units_Z   1
loop_
 _symmetry_equiv_pos_site_id
 _symmetry_equiv_pos_as_xyz
  1  'x, y, z'
loop_
 _atom_site_type_symbol
 _atom_site_label
 _atom_site_symmetry_multiplicity
 _atom_site_fract_x
 _atom_site_fract_y
 _atom_site_fract_z
 _atom_site_occupancy
  Li  Li0  1  0.38015299  0.23969401  0.18277779  1
  Li  Li1  1  0.11411487  0.77177026  0.57643321  1
  Li  Li2  1  0.88205142  0.23589717  0.91279712  1
  Li  Li3  1  0.87941122  0.24117756  0.43962889  1
  Li  Li4  1  0.62063132  0.75873736  0.81803276  1
  Li  Li5  1  0.37826320  0.24347360  0.68726594  1
  Li  Li6  1  0.12451471  0.75097058  0.06246827  1
  Li  Li7  1  0.61826871  0.76346257  0.31969392  1
  Li  Li8  1  0.50168156  0.99663687  0.74919702  1
  Mn  Mn9  1  0.00163914  0.99672171  0.99021572  1
  Mn  Mn10  1  0.74948652  0.50102696  0.37564304  1
  Co  Co11  1  0.25033063  0.49933874  0.12267516  1
  Co  Co12  1  0.99539133  0.00921733  0.52248527  1
  Co  Co13  1  0.75094990  0.49810019  0.87399138  1
  Co  Co14  1  0.50088700  0.99822601  0.25435290  1
  Co  Co15  1  0.24923701  0.50152599  0.62750714  1
  O  O16  1  0.44374534  0.11250933  0.97264419  1
  O  O17  1  0.19345990  0.61308019  0.35350848  1
  O  O18  1  0.93864365  0.12271271  0.70665934  1
  O  O19  1  0.94457691  0.11084619  0.20694699  1
  O  O20  1  0.69792730  0.60414541  0.58136901  1
  O  O21  1  0.44261136  0.11477729  0.46093804  1
  O  O22  1  0.19225852  0.61548295  0.84778679  1
  O  O23  1  0.69556550  0.60886899  0.09331849  1
  O  O24  1  0.30692335  0.38615330  0.39589870  1
  O  O25  1  0.05869413  0.88261173  0.80028453  1
  O  O26  1  0.80105260  0.39789480  0.16963629  1
  O  O27  1  0.80452672  0.39094656  0.65586223  1
  O  O28  1  0.55459665  0.89080670  0.03138544  1
  O  O29  1  0.30938346  0.38123307  0.90530511  1
  O  O30  1  0.06045588  0.87908824  0.27583766  1
  O  O31  1  0.55856719  0.88286563  0.52745318  1
