# generated using pymatgen
data_Rb2P2Pt
_symmetry_space_group_name_H-M   'P 1'
_cell_length_a   6.31885033
_cell_length_b   6.64700873
_cell_length_c   7.90267889
_cell_angle_alpha   114.86957796
_cell_angle_beta   90.00000000
_cell_angle_gamma   90.00000000
_symmetry_Int_Tables_number   1
_chemical_formula_structural   Rb2P2Pt
_chemical_formula_sum   'Rb4 P4 Pt2'
_cell_volume   301.14383690
_cell_formula_units_Z   2
loop_
 _symmetry_equiv_pos_site_id
 _symmetry_equiv_pos_as_xyz
  1  'x, y, z'
loop_
 _atom_site_type_symbol
 _atom_site_label
 _atom_site_symmetry_multiplicity
 _atom_site_fract_x
 _atom_site_fract_y
 _atom_site_fract_z
 _atom_site_occupancy
  Rb  Rb0  1  0.25000000  0.21233017  0.42466034  1
  Rb  Rb1  1  0.75000000  0.78766983  0.57533966  1
  Rb  Rb2  1  0.25000000  0.57993729  0.15987458  1
  Rb  Rb3  1  0.75000000  0.42006271  0.84012542  1
  P  P4  1  0.25000000  0.73248651  0.79493480  1
  P  P5  1  0.75000000  0.26751349  0.20506520  1
  P  P6  1  0.25000000  0.06244829  0.79493480  1
  P  P7  1  0.75000000  0.93755171  0.20506520  1
  Pt  Pt8  1  0.00000000  0.00000000  0.00000000  1
  Pt  Pt9  1  0.50000000  -0.00000000  -0.00000000  1
