# generated using pymatgen
data_Ho2Ge2Ru
_symmetry_space_group_name_H-M   'P 1'
_cell_length_a   4.29263827
_cell_length_b   5.78156068
_cell_length_c   9.23057106
_cell_angle_alpha   81.82571337
_cell_angle_beta   76.55434909
_cell_angle_gamma   68.20818142
_symmetry_Int_Tables_number   1
_chemical_formula_structural   Ho2Ge2Ru
_chemical_formula_sum   'Ho4 Ge4 Ru2'
_cell_volume   206.48843323
_cell_formula_units_Z   2
loop_
 _symmetry_equiv_pos_site_id
 _symmetry_equiv_pos_as_xyz
  1  'x, y, z'
loop_
 _atom_site_type_symbol
 _atom_site_label
 _atom_site_symmetry_multiplicity
 _atom_site_fract_x
 _atom_site_fract_y
 _atom_site_fract_z
 _atom_site_occupancy
  Ho  Ho0  1  0.99899009  0.67417669  0.32784313  1
  Ho  Ho1  1  0.00100991  0.32582331  0.67215687  1
  Ho  Ho2  1  0.81617927  0.25764077  0.11000068  1
  Ho  Ho3  1  0.18382073  0.74235923  0.88999932  1
  Ge  Ge4  1  0.64502238  0.27737888  0.43257635  1
  Ge  Ge5  1  0.35497762  0.72262112  0.56742365  1
  Ge  Ge6  1  0.51189746  0.85161075  0.12459433  1
  Ge  Ge7  1  0.48810254  0.14838925  0.87540567  1
  Ru  Ru8  1  0.72857590  0.91566803  0.62718017  1
  Ru  Ru9  1  0.27142410  0.08433197  0.37281983  1
