# generated using pymatgen
data_TbMgAg
_symmetry_space_group_name_H-M   'P 1'
_cell_length_a   4.13375441
_cell_length_b   7.75136152
_cell_length_c   7.75136152
_cell_angle_alpha   119.99999860
_cell_angle_beta   90.00000000
_cell_angle_gamma   90.00000000
_symmetry_Int_Tables_number   1
_chemical_formula_structural   TbMgAg
_chemical_formula_sum   'Tb3 Mg3 Ag3'
_cell_volume   215.09548481
_cell_formula_units_Z   3
loop_
 _symmetry_equiv_pos_site_id
 _symmetry_equiv_pos_as_xyz
  1  'x, y, z'
loop_
 _atom_site_type_symbol
 _atom_site_label
 _atom_site_symmetry_multiplicity
 _atom_site_fract_x
 _atom_site_fract_y
 _atom_site_fract_z
 _atom_site_occupancy
  Tb  Tb0  1  -0.00000000  0.41072899  0.41072899  1
  Tb  Tb1  1  -0.00000000  0.00000000  0.58927101  1
  Tb  Tb2  1  0.00000000  0.58927101  0.00000000  1
  Mg  Mg3  1  0.50000000  0.75262462  0.75262462  1
  Mg  Mg4  1  0.50000000  0.00000000  0.24737538  1
  Mg  Mg5  1  0.50000000  0.24737538  0.00000000  1
  Ag  Ag6  1  0.50000000  0.66666700  0.33333300  1
  Ag  Ag7  1  0.50000000  0.33333300  0.66666700  1
  Ag  Ag8  1  -0.00000000  -0.00000000  0.00000000  1
