# generated using pymatgen
data_La2MgSi2
_symmetry_space_group_name_H-M   'P 1'
_cell_length_a   4.46984268
_cell_length_b   7.53299073
_cell_length_c   7.53299073
_cell_angle_alpha   90.00000000
_cell_angle_beta   90.00000000
_cell_angle_gamma   90.00000000
_symmetry_Int_Tables_number   1
_chemical_formula_structural   La2MgSi2
_chemical_formula_sum   'La4 Mg2 Si4'
_cell_volume   253.64546627
_cell_formula_units_Z   2
loop_
 _symmetry_equiv_pos_site_id
 _symmetry_equiv_pos_as_xyz
  1  'x, y, z'
loop_
 _atom_site_type_symbol
 _atom_site_label
 _atom_site_symmetry_multiplicity
 _atom_site_fract_x
 _atom_site_fract_y
 _atom_site_fract_z
 _atom_site_occupancy
  La  La0  1  0.50000000  0.18056426  0.68056426  1
  La  La1  1  0.50000000  0.81943574  0.31943574  1
  La  La2  1  0.50000000  0.31943574  0.18056426  1
  La  La3  1  0.50000000  0.68056426  0.81943574  1
  Mg  Mg4  1  0.00000000  0.00000000  -0.00000000  1
  Mg  Mg5  1  -0.00000000  0.50000000  0.50000000  1
  Si  Si6  1  -0.00000000  0.61270502  0.11270502  1
  Si  Si7  1  0.00000000  0.38729498  0.88729498  1
  Si  Si8  1  0.00000000  0.88729498  0.61270502  1
  Si  Si9  1  -0.00000000  0.11270502  0.38729498  1
