# generated using pymatgen
data_Cs2ReF6
_symmetry_space_group_name_H-M   'P 1'
_cell_length_a   5.10735185
_cell_length_b   6.33124809
_cell_length_c   6.33124809
_cell_angle_alpha   119.99999722
_cell_angle_beta   90.00000000
_cell_angle_gamma   90.00000000
_symmetry_Int_Tables_number   1
_chemical_formula_structural   Cs2ReF6
_chemical_formula_sum   'Cs2 Re1 F6'
_cell_volume   177.29850989
_cell_formula_units_Z   1
loop_
 _symmetry_equiv_pos_site_id
 _symmetry_equiv_pos_as_xyz
  1  'x, y, z'
loop_
 _atom_site_type_symbol
 _atom_site_label
 _atom_site_symmetry_multiplicity
 _atom_site_fract_x
 _atom_site_fract_y
 _atom_site_fract_z
 _atom_site_occupancy
  Cs  Cs0  1  0.68898228  0.66666700  0.33333300  1
  Cs  Cs1  1  0.31101772  0.33333300  0.66666700  1
  Re  Re2  1  -0.00000000  0.00000000  -0.00000000  1
  F  F3  1  0.78864608  0.15294779  0.30589558  1
  F  F4  1  0.21135392  0.84705221  0.69410442  1
  F  F5  1  0.78864608  0.15294779  0.84705221  1
  F  F6  1  0.21135392  0.84705221  0.15294779  1
  F  F7  1  0.78864608  0.69410442  0.84705221  1
  F  F8  1  0.21135392  0.30589558  0.15294779  1
