# generated using pymatgen
data_Li9Mn2Co5O16
_symmetry_space_group_name_H-M   'P 1'
_cell_length_a   2.94378527
_cell_length_b   9.90066083
_cell_length_c   10.54209582
_cell_angle_alpha   72.88559886
_cell_angle_beta   81.97410399
_cell_angle_gamma   89.99999470
_symmetry_Int_Tables_number   1
_chemical_formula_structural   Li9Mn2Co5O16
_chemical_formula_sum   'Li9 Mn2 Co5 O16'
_cell_volume   290.49787643
_cell_formula_units_Z   1
loop_
 _symmetry_equiv_pos_site_id
 _symmetry_equiv_pos_as_xyz
  1  'x, y, z'
loop_
 _atom_site_type_symbol
 _atom_site_label
 _atom_site_symmetry_multiplicity
 _atom_site_fract_x
 _atom_site_fract_y
 _atom_site_fract_z
 _atom_site_occupancy
  Li  Li0  1  0.42943807  0.19079922  0.14112387  1
  Li  Li1  1  0.31409171  0.54639026  0.37181658  1
  Li  Li2  1  0.18962527  0.94163810  0.62074945  1
  Li  Li3  1  0.81104197  0.07103603  0.37791606  1
  Li  Li4  1  0.69055129  0.43034644  0.61889741  1
  Li  Li5  1  0.56425833  0.82003332  0.87148334  1
  Li  Li6  1  0.06565076  0.32185479  0.86869849  1
  Li  Li7  1  0.93185034  0.66895222  0.13629932  1
  Li  Li8  1  0.87396913  0.37702735  0.25206174  1
  Mn  Mn9  1  0.00046694  0.00322478  0.99906612  1
  Mn  Mn10  1  0.49583759  0.50016114  0.00832482  1
  Co  Co11  1  0.75094190  0.74216904  0.49811619  1
  Co  Co12  1  0.63251841  0.13051201  0.73496318  1
  Co  Co13  1  0.37184471  0.87647455  0.25631057  1
  Co  Co14  1  0.26021713  0.25871800  0.47956574  1
  Co  Co15  1  0.12542698  0.62501415  0.74914605  1
  O  O16  1  0.52904550  0.13738803  0.94190900  1
  O  O17  1  0.41387433  0.53105319  0.17225134  1
  O  O18  1  0.28427626  0.89525930  0.43144749  1
  O  O19  1  0.91082314  0.02471217  0.17835372  1
  O  O20  1  0.77942486  0.39826279  0.44115028  1
  O  O21  1  0.65740050  0.76931760  0.68519899  1
  O  O22  1  0.15367675  0.27202851  0.69264650  1
  O  O23  1  0.02879983  0.64078927  0.94240034  1
  O  O24  1  0.33798159  0.21354793  0.32403683  1
  O  O25  1  0.21816506  0.60147333  0.56366987  1
  O  O26  1  0.08700685  0.97534616  0.82598630  1
  O  O27  1  0.71324279  0.09339560  0.57351441  1
  O  O28  1  0.59120808  0.48430820  0.81758383  1
  O  O29  1  0.46925460  0.86579512  0.06149081  1
  O  O30  1  0.97410718  0.36451461  0.05178563  1
  O  O31  1  0.84398214  0.72845677  0.31203572  1
