# generated using pymatgen
data_HoBiRh
_symmetry_space_group_name_H-M   'P 1'
_cell_length_a   3.97420602
_cell_length_b   7.67805238
_cell_length_c   7.67805238
_cell_angle_alpha   119.99999189
_cell_angle_beta   90.00000000
_cell_angle_gamma   90.00000000
_symmetry_Int_Tables_number   1
_chemical_formula_structural   HoBiRh
_chemical_formula_sum   'Ho3 Bi3 Rh3'
_cell_volume   202.90053168
_cell_formula_units_Z   3
loop_
 _symmetry_equiv_pos_site_id
 _symmetry_equiv_pos_as_xyz
  1  'x, y, z'
loop_
 _atom_site_type_symbol
 _atom_site_label
 _atom_site_symmetry_multiplicity
 _atom_site_fract_x
 _atom_site_fract_y
 _atom_site_fract_z
 _atom_site_occupancy
  Ho  Ho0  1  0.00000000  0.39950189  0.39950189  1
  Ho  Ho1  1  -0.00000000  1.00000000  0.60049811  1
  Ho  Ho2  1  0.00000000  0.60049811  1.00000000  1
  Bi  Bi3  1  0.50000000  0.73497656  0.73497656  1
  Bi  Bi4  1  0.50000000  1.00000000  0.26502344  1
  Bi  Bi5  1  0.50000000  0.26502344  1.00000000  1
  Rh  Rh6  1  0.50000000  0.66666700  0.33333300  1
  Rh  Rh7  1  0.50000000  0.33333300  0.66666700  1
  Rh  Rh8  1  0.00000000  -0.00000000  0.00000000  1
