# generated using pymatgen
data_Li9Mn2Co5O16
_symmetry_space_group_name_H-M   'P 1'
_cell_length_a   2.89650457
_cell_length_b   12.95186591
_cell_length_c   7.83240878
_cell_angle_alpha   88.02372001
_cell_angle_beta   79.34440205
_cell_angle_gamma   89.99999849
_symmetry_Int_Tables_number   1
_chemical_formula_structural   Li9Mn2Co5O16
_chemical_formula_sum   'Li9 Mn2 Co5 O16'
_cell_volume   288.58929960
_cell_formula_units_Z   1
loop_
 _symmetry_equiv_pos_site_id
 _symmetry_equiv_pos_as_xyz
  1  'x, y, z'
loop_
 _atom_site_type_symbol
 _atom_site_label
 _atom_site_symmetry_multiplicity
 _atom_site_fract_x
 _atom_site_fract_y
 _atom_site_fract_z
 _atom_site_occupancy
  Li  Li0  1  0.56332878  0.19918631  0.87334244  1
  Li  Li1  1  0.69151997  0.54764851  0.61696006  1
  Li  Li2  1  0.80568309  0.94063418  0.38863381  1
  Li  Li3  1  0.94215779  0.31675528  0.11568443  1
  Li  Li4  1  0.06224990  0.68343767  0.87550019  1
  Li  Li5  1  0.19327026  0.06869326  0.61345948  1
  Li  Li6  1  0.30974502  0.43046331  0.38050996  1
  Li  Li7  1  0.43870131  0.80877786  0.12259738  1
  Li  Li8  1  0.12461827  0.37143553  0.75076345  1
  Mn  Mn9  1  0.99697639  0.00191579  0.00604723  1
  Mn  Mn10  1  0.50522478  0.49446454  0.98955045  1
  Co  Co11  1  0.24921367  0.74854773  0.50157266  1
  Co  Co12  1  0.36964290  0.13721523  0.26071420  1
  Co  Co13  1  0.62656855  0.87644090  0.74686289  1
  Co  Co14  1  0.74119993  0.25886389  0.51760014  1
  Co  Co15  1  0.87351628  0.62143568  0.25296743  1
  O  O16  1  0.57995627  0.02649934  0.84008747  1
  O  O17  1  0.72450463  0.39541211  0.55099074  1
  O  O18  1  0.83311418  0.77234031  0.33377165  1
  O  O19  1  0.96585339  0.14391120  0.06829322  1
  O  O20  1  0.08507094  0.52861633  0.82985811  1
  O  O21  1  0.21343975  0.90722992  0.57312050  1
  O  O22  1  0.34478365  0.27460443  0.31043269  1
  O  O23  1  0.46545639  0.64769418  0.06908722  1
  O  O24  1  0.52923810  0.35678861  0.94152380  1
  O  O25  1  0.66540570  0.72650718  0.66918861  1
  O  O26  1  0.78607696  0.09947708  0.42784609  1
  O  O27  1  0.91954272  0.47496478  0.16091456  1
  O  O28  1  0.03151510  0.85534638  0.93696979  1
  O  O29  1  0.16121138  0.21781021  0.67757725  1
  O  O30  1  0.28677871  0.59163253  0.42644258  1
  O  O31  1  0.41443524  0.97524977  0.17112952  1
