# generated using pymatgen
data_Zr6FeBi2
_symmetry_space_group_name_H-M   'P 1'
_cell_length_a   3.65484783
_cell_length_b   7.98076429
_cell_length_c   7.98076429
_cell_angle_alpha   120.00000292
_cell_angle_beta   90.00000000
_cell_angle_gamma   90.00000000
_symmetry_Int_Tables_number   1
_chemical_formula_structural   Zr6FeBi2
_chemical_formula_sum   'Zr6 Fe1 Bi2'
_cell_volume   201.59923851
_cell_formula_units_Z   1
loop_
 _symmetry_equiv_pos_site_id
 _symmetry_equiv_pos_as_xyz
  1  'x, y, z'
loop_
 _atom_site_type_symbol
 _atom_site_label
 _atom_site_symmetry_multiplicity
 _atom_site_fract_x
 _atom_site_fract_y
 _atom_site_fract_z
 _atom_site_occupancy
  Zr  Zr0  1  0.50000000  0.76449638  0.76449638  1
  Zr  Zr1  1  0.50000000  1.00000000  0.23550362  1
  Zr  Zr2  1  0.50000000  0.23550362  1.00000000  1
  Zr  Zr3  1  0.00000000  0.39066334  0.39066334  1
  Zr  Zr4  1  0.00000000  0.00000000  0.60933666  1
  Zr  Zr5  1  -0.00000000  0.60933666  0.00000000  1
  Fe  Fe6  1  -0.00000000  0.00000000  0.00000000  1
  Bi  Bi7  1  0.50000000  0.66666700  0.33333300  1
  Bi  Bi8  1  0.50000000  0.33333300  0.66666700  1
