# generated using pymatgen
data_Sm2Ge2Rh
_symmetry_space_group_name_H-M   'P 1'
_cell_length_a   4.35294025
_cell_length_b   5.81513332
_cell_length_c   9.66146663
_cell_angle_alpha   82.15423651
_cell_angle_beta   76.98105503
_cell_angle_gamma   68.02037614
_symmetry_Int_Tables_number   1
_chemical_formula_structural   Sm2Ge2Rh
_chemical_formula_sum   'Sm4 Ge4 Rh2'
_cell_volume   220.58631264
_cell_formula_units_Z   2
loop_
 _symmetry_equiv_pos_site_id
 _symmetry_equiv_pos_as_xyz
  1  'x, y, z'
loop_
 _atom_site_type_symbol
 _atom_site_label
 _atom_site_symmetry_multiplicity
 _atom_site_fract_x
 _atom_site_fract_y
 _atom_site_fract_z
 _atom_site_occupancy
  Sm  Sm0  1  0.99458743  0.68113833  0.32968681  1
  Sm  Sm1  1  0.00541257  0.31886167  0.67031319  1
  Sm  Sm2  1  0.81127936  0.26036042  0.11708086  1
  Sm  Sm3  1  0.18872064  0.73963958  0.88291914  1
  Ge  Ge4  1  0.64809248  0.25843147  0.44538357  1
  Ge  Ge5  1  0.35190752  0.74156853  0.55461643  1
  Ge  Ge6  1  0.51840249  0.84697604  0.11621899  1
  Ge  Ge7  1  0.48159751  0.15302396  0.88378101  1
  Rh  Rh8  1  0.72534040  0.89062237  0.65869683  1
  Rh  Rh9  1  0.27465960  0.10937763  0.34130317  1
