# generated using pymatgen
data_Rb2LiRhCl6
_symmetry_space_group_name_H-M   'P 1'
_cell_length_a   6.07509838
_cell_length_b   7.12508958
_cell_length_c   7.12508958
_cell_angle_alpha   119.99999539
_cell_angle_beta   90.00000000
_cell_angle_gamma   90.00000000
_symmetry_Int_Tables_number   1
_chemical_formula_structural   Rb2LiRhCl6
_chemical_formula_sum   'Rb2 Li1 Rh1 Cl6'
_cell_volume   267.09430330
_cell_formula_units_Z   1
loop_
 _symmetry_equiv_pos_site_id
 _symmetry_equiv_pos_as_xyz
  1  'x, y, z'
loop_
 _atom_site_type_symbol
 _atom_site_label
 _atom_site_symmetry_multiplicity
 _atom_site_fract_x
 _atom_site_fract_y
 _atom_site_fract_z
 _atom_site_occupancy
  Rb  Rb0  1  0.74510015  0.66666700  0.33333300  1
  Rb  Rb1  1  0.25489985  0.33333300  0.66666700  1
  Li  Li2  1  0.00000000  -0.00000000  0.00000000  1
  Rh  Rh3  1  0.50000000  -0.00000000  0.00000000  1
  Cl  Cl4  1  0.72697320  0.15606910  0.31213819  1
  Cl  Cl5  1  0.27302680  0.84393090  0.68786181  1
  Cl  Cl6  1  0.72697320  0.15606910  0.84393090  1
  Cl  Cl7  1  0.27302680  0.84393090  0.15606910  1
  Cl  Cl8  1  0.72697320  0.68786181  0.84393090  1
  Cl  Cl9  1  0.27302680  0.31213819  0.15606910  1
