# generated using pymatgen
data_SmAgGe
_symmetry_space_group_name_H-M   'P 1'
_cell_length_a   4.30211230
_cell_length_b   7.27850560
_cell_length_c   7.27850560
_cell_angle_alpha   119.99999978
_cell_angle_beta   90.00000000
_cell_angle_gamma   90.00000000
_symmetry_Int_Tables_number   1
_chemical_formula_structural   SmAgGe
_chemical_formula_sum   'Sm3 Ag3 Ge3'
_cell_volume   197.37712369
_cell_formula_units_Z   3
loop_
 _symmetry_equiv_pos_site_id
 _symmetry_equiv_pos_as_xyz
  1  'x, y, z'
loop_
 _atom_site_type_symbol
 _atom_site_label
 _atom_site_symmetry_multiplicity
 _atom_site_fract_x
 _atom_site_fract_y
 _atom_site_fract_z
 _atom_site_occupancy
  Sm  Sm0  1  0.00000000  0.41125873  0.41125873  1
  Sm  Sm1  1  -0.00000000  1.00000000  0.58874127  1
  Sm  Sm2  1  0.00000000  0.58874127  1.00000000  1
  Ag  Ag3  1  0.50000000  0.74890059  0.74890059  1
  Ag  Ag4  1  0.50000000  0.00000000  0.25109941  1
  Ag  Ag5  1  0.50000000  0.25109941  0.00000000  1
  Ge  Ge6  1  0.50000000  0.66666700  0.33333300  1
  Ge  Ge7  1  0.50000000  0.33333300  0.66666700  1
  Ge  Ge8  1  -0.00000000  -0.00000000  0.00000000  1
