# generated using pymatgen
data_Li9Mn2Co5O16
_symmetry_space_group_name_H-M   'P 1'
_cell_length_a   2.90180702
_cell_length_b   9.82389166
_cell_length_c   10.27352291
_cell_angle_alpha   84.16005623
_cell_angle_beta   89.99999963
_cell_angle_gamma   81.50684471
_symmetry_Int_Tables_number   1
_chemical_formula_structural   Li9Mn2Co5O16
_chemical_formula_sum   'Li9 Mn2 Co5 O16'
_cell_volume   288.11905432
_cell_formula_units_Z   1
loop_
 _symmetry_equiv_pos_site_id
 _symmetry_equiv_pos_as_xyz
  1  'x, y, z'
loop_
 _atom_site_type_symbol
 _atom_site_label
 _atom_site_symmetry_multiplicity
 _atom_site_fract_x
 _atom_site_fract_y
 _atom_site_fract_z
 _atom_site_occupancy
  Li  Li0  1  0.38152278  0.23695443  0.06801462  1
  Li  Li1  1  0.11588116  0.76823768  0.19755419  1
  Li  Li2  1  0.88300463  0.23399075  0.31316670  1
  Li  Li3  1  0.62221167  0.75557666  0.44242429  1
  Li  Li4  1  0.38047545  0.23904911  0.56227630  1
  Li  Li5  1  0.12258715  0.75482570  0.68096119  1
  Li  Li6  1  0.87550626  0.24898748  0.80653659  1
  Li  Li7  1  0.62049820  0.75900360  0.93537687  1
  Li  Li8  1  0.49807211  0.00385578  0.24928635  1
  Mn  Mn9  1  0.99820568  0.00358863  0.00674192  1
  Mn  Mn10  1  0.74958097  0.50083805  0.12481199  1
  Co  Co11  1  0.25002205  0.49995590  0.37794329  1
  Co  Co12  1  0.00458117  0.99083765  0.48043700  1
  Co  Co13  1  0.75074846  0.49850309  0.62505793  1
  Co  Co14  1  0.49951431  0.00097138  0.74375740  1
  Co  Co15  1  0.24908905  0.50182191  0.87170836  1
  O  O16  1  0.44360911  0.11278177  0.91368134  1
  O  O17  1  0.19283197  0.61433607  0.04736513  1
  O  O18  1  0.94196143  0.11607714  0.14065546  1
  O  O19  1  0.69867827  0.60264345  0.27992264  1
  O  O20  1  0.44134598  0.11730804  0.41431890  1
  O  O21  1  0.19238315  0.61523370  0.53861339  1
  O  O22  1  0.94197011  0.11605978  0.66316962  1
  O  O23  1  0.69376007  0.61247985  0.78753489  1
  O  O24  1  0.30659270  0.38681460  0.20246093  1
  O  O25  1  0.06246221  0.87507558  0.35422339  1
  O  O26  1  0.80549947  0.38900106  0.46261300  1
  O  O27  1  0.55686851  0.88626298  0.59500195  1
  O  O28  1  0.30935146  0.38129708  0.71533352  1
  O  O29  1  0.05520251  0.88959497  0.84924583  1
  O  O30  1  0.79981883  0.40036233  0.96776701  1
  O  O31  1  0.55616311  0.88767377  0.08203804  1
