# generated using pymatgen
data_LuIn2
_symmetry_space_group_name_H-M   'P 1'
_cell_length_a   4.64501210
_cell_length_b   4.58087386
_cell_length_c   7.38476454
_cell_angle_alpha   90.00000000
_cell_angle_beta   108.33061230
_cell_angle_gamma   90.00000000
_symmetry_Int_Tables_number   1
_chemical_formula_structural   LuIn2
_chemical_formula_sum   'Lu2 In4'
_cell_volume   149.16121399
_cell_formula_units_Z   2
loop_
 _symmetry_equiv_pos_site_id
 _symmetry_equiv_pos_as_xyz
  1  'x, y, z'
loop_
 _atom_site_type_symbol
 _atom_site_label
 _atom_site_symmetry_multiplicity
 _atom_site_fract_x
 _atom_site_fract_y
 _atom_site_fract_z
 _atom_site_occupancy
  Lu  Lu0  1  0.84441836  0.50000000  0.68883672  1
  Lu  Lu1  1  0.15558164  0.50000000  0.31116328  1
  In  In2  1  0.67485246  -0.00000000  0.34970491  1
  In  In3  1  0.32514754  -0.00000000  0.65029509  1
  In  In4  1  0.50000000  0.50000000  -0.00000000  1
  In  In5  1  -0.00000000  -0.00000000  -0.00000000  1
