# generated using pymatgen
data_Tb2CdNi2
_symmetry_space_group_name_H-M   'P 1'
_cell_length_a   3.69040733
_cell_length_b   3.86479518
_cell_length_c   7.35556871
_cell_angle_alpha   105.23105129
_cell_angle_beta   90.00000000
_cell_angle_gamma   90.00000000
_symmetry_Int_Tables_number   1
_chemical_formula_structural   Tb2CdNi2
_chemical_formula_sum   'Tb2 Cd1 Ni2'
_cell_volume   101.22499520
_cell_formula_units_Z   1
loop_
 _symmetry_equiv_pos_site_id
 _symmetry_equiv_pos_as_xyz
  1  'x, y, z'
loop_
 _atom_site_type_symbol
 _atom_site_label
 _atom_site_symmetry_multiplicity
 _atom_site_fract_x
 _atom_site_fract_y
 _atom_site_fract_z
 _atom_site_occupancy
  Tb  Tb0  1  0.50000000  0.36248617  0.72497234  1
  Tb  Tb1  1  0.50000000  0.63751383  0.27502766  1
  Cd  Cd2  1  -0.00000000  -0.00000000  -0.00000000  1
  Ni  Ni3  1  0.00000000  0.20128381  0.40256763  1
  Ni  Ni4  1  -0.00000000  0.79871619  0.59743237  1
