# generated using pymatgen
data_ThSiIr
_symmetry_space_group_name_H-M   'P 1'
_cell_length_a   4.19050303
_cell_length_b   4.19050303
_cell_length_c   7.81684491
_cell_angle_alpha   105.54785057
_cell_angle_beta   105.54785057
_cell_angle_gamma   90.00000000
_symmetry_Int_Tables_number   1
_chemical_formula_structural   ThSiIr
_chemical_formula_sum   'Th2 Si2 Ir2'
_cell_volume   127.02180094
_cell_formula_units_Z   2
loop_
 _symmetry_equiv_pos_site_id
 _symmetry_equiv_pos_as_xyz
  1  'x, y, z'
loop_
 _atom_site_type_symbol
 _atom_site_label
 _atom_site_symmetry_multiplicity
 _atom_site_fract_x
 _atom_site_fract_y
 _atom_site_fract_z
 _atom_site_occupancy
  Th  Th0  1  0.57787493  0.57787493  0.15574985  1
  Th  Th1  1  0.82787493  0.32787493  0.65574985  1
  Si  Si2  1  0.00043270  0.00043270  0.00086540  1
  Si  Si3  1  0.25043270  0.75043270  0.50086540  1
  Ir  Ir4  1  0.16869237  0.16869237  0.33738474  1
  Ir  Ir5  1  0.41869237  0.91869237  0.83738474  1
