# generated using pymatgen
data_Li9Mn2Co5O16
_symmetry_space_group_name_H-M   'P 1'
_cell_length_a   2.89819280
_cell_length_b   10.65557161
_cell_length_c   10.26377541
_cell_angle_alpha   113.00661534
_cell_angle_beta   89.99999963
_cell_angle_gamma   82.18388725
_symmetry_Int_Tables_number   1
_chemical_formula_structural   Li9Mn2Co5O16
_chemical_formula_sum   'Li9 Mn2 Co5 O16'
_cell_volume   288.55153055
_cell_formula_units_Z   1
loop_
 _symmetry_equiv_pos_site_id
 _symmetry_equiv_pos_as_xyz
  1  'x, y, z'
loop_
 _atom_site_type_symbol
 _atom_site_label
 _atom_site_symmetry_multiplicity
 _atom_site_fract_x
 _atom_site_fract_y
 _atom_site_fract_z
 _atom_site_occupancy
  Li  Li0  1  0.36770838  0.26458324  0.18839702  1
  Li  Li1  1  0.12786094  0.74427812  0.55275896  1
  Li  Li2  1  0.86412092  0.27175816  0.94874178  1
  Li  Li3  1  0.87507882  0.24984236  0.44777513  1
  Li  Li4  1  0.63088581  0.73822838  0.80946101  1
  Li  Li5  1  0.36938140  0.26123721  0.69292273  1
  Li  Li6  1  0.13081544  0.73836913  0.05829845  1
  Li  Li7  1  0.63264143  0.73471715  0.29756690  1
  Li  Li8  1  0.25162858  0.49674285  0.12441135  1
  Mn  Mn9  1  0.99948591  0.00102819  0.99964084  1
  Mn  Mn10  1  0.75218205  0.49563590  0.36662507  1
  Co  Co11  1  0.49902228  0.00195545  0.74788875  1
  Co  Co12  1  0.00071661  0.99856677  0.50005959  1
  Co  Co13  1  0.74616005  0.50767989  0.89797430  1
  Co  Co14  1  0.50145669  0.99708661  0.25088815  1
  Co  Co15  1  0.24946345  0.50107310  0.63146822  1
  O  O16  1  0.44239856  0.11520288  0.97996981  1
  O  O17  1  0.19513323  0.60973354  0.34710222  1
  O  O18  1  0.94491927  0.11016145  0.71706631  1
  O  O19  1  0.95042863  0.09914274  0.20755991  1
  O  O20  1  0.69446666  0.61106667  0.58255679  1
  O  O21  1  0.44210508  0.11578984  0.46878162  1
  O  O22  1  0.19166152  0.61667697  0.83819947  1
  O  O23  1  0.68796153  0.62407694  0.08336959  1
  O  O24  1  0.30629948  0.38740104  0.40548284  1
  O  O25  1  0.05069242  0.89861516  0.79397813  1
  O  O26  1  0.80838126  0.38323749  0.17600514  1
  O  O27  1  0.80684767  0.38630467  0.65572904  1
  O  O28  1  0.55581307  0.88837385  0.02018393  1
  O  O29  1  0.30914358  0.38171284  0.90304641  1
  O  O30  1  0.05582364  0.88835273  0.27896386  1
  O  O31  1  0.55931565  0.88136871  0.52712671  1
