# generated using pymatgen
data_Sr2TiMnO6
_symmetry_space_group_name_H-M   'P 1'
_cell_length_a   5.50847985
_cell_length_b   5.50847985
_cell_length_c   5.50847985
_cell_angle_alpha   89.97706073
_cell_angle_beta   120.01324488
_cell_angle_gamma   120.01324488
_symmetry_Int_Tables_number   1
_chemical_formula_structural   Sr2TiMnO6
_chemical_formula_sum   'Sr2 Ti1 Mn1 O6'
_cell_volume   118.16621041
_cell_formula_units_Z   1
loop_
 _symmetry_equiv_pos_site_id
 _symmetry_equiv_pos_as_xyz
  1  'x, y, z'
loop_
 _atom_site_type_symbol
 _atom_site_label
 _atom_site_symmetry_multiplicity
 _atom_site_fract_x
 _atom_site_fract_y
 _atom_site_fract_z
 _atom_site_occupancy
  Sr  Sr0  1  0.50000000  0.75000000  0.25000000  1
  Sr  Sr1  1  0.50000000  0.25000000  0.75000000  1
  Ti  Ti2  1  0.00000000  0.50000000  0.50000000  1
  Mn  Mn3  1  0.00000000  0.00000000  -0.00000000  1
  O  O4  1  0.50508729  0.75963272  0.74545456  1
  O  O5  1  0.49491271  0.24036728  0.25454544  1
  O  O6  1  0.01417816  0.25454544  0.75963272  1
  O  O7  1  0.98582184  0.74545456  0.24036728  1
  O  O8  1  -0.00000000  0.75257964  0.75257964  1
  O  O9  1  0.00000000  0.24742036  0.24742036  1
