# generated using pymatgen
data_DyB3Mo
_symmetry_space_group_name_H-M   'P 1'
_cell_length_a   3.17453339
_cell_length_b   5.45688426
_cell_length_c   6.84556371
_cell_angle_alpha   102.13880657
_cell_angle_beta   90.00000000
_cell_angle_gamma   90.00000000
_symmetry_Int_Tables_number   1
_chemical_formula_structural   DyB3Mo
_chemical_formula_sum   'Dy2 B6 Mo2'
_cell_volume   115.93465706
_cell_formula_units_Z   2
loop_
 _symmetry_equiv_pos_site_id
 _symmetry_equiv_pos_as_xyz
  1  'x, y, z'
loop_
 _atom_site_type_symbol
 _atom_site_label
 _atom_site_symmetry_multiplicity
 _atom_site_fract_x
 _atom_site_fract_y
 _atom_site_fract_z
 _atom_site_occupancy
  Dy  Dy0  1  0.75000000  0.32373412  0.29064980  1
  Dy  Dy1  1  0.25000000  0.67626588  0.70935020  1
  B  B2  1  0.75000000  0.92042118  0.47568399  1
  B  B3  1  0.25000000  0.07957882  0.52431601  1
  B  B4  1  0.75000000  0.91237912  0.99566434  1
  B  B5  1  0.25000000  0.08762088  0.00433566  1
  B  B6  1  0.75000000  0.58362176  0.99362964  1
  B  B7  1  0.25000000  0.41637824  0.00637036  1
  Mo  Mo8  1  0.75000000  0.18790190  0.78016447  1
  Mo  Mo9  1  0.25000000  0.81209810  0.21983553  1
