# generated using pymatgen
data_Li9Mn2Co5O16
_symmetry_space_group_name_H-M   'P 1'
_cell_length_a   2.89729402
_cell_length_b   9.85944851
_cell_length_c   10.21547753
_cell_angle_alpha   84.69058521
_cell_angle_beta   89.99999962
_cell_angle_gamma   81.55095650
_symmetry_Int_Tables_number   1
_chemical_formula_structural   Li9Mn2Co5O16
_chemical_formula_sum   'Li9 Mn2 Co5 O16'
_cell_volume   287.37960417
_cell_formula_units_Z   1
loop_
 _symmetry_equiv_pos_site_id
 _symmetry_equiv_pos_as_xyz
  1  'x, y, z'
loop_
 _atom_site_type_symbol
 _atom_site_label
 _atom_site_symmetry_multiplicity
 _atom_site_fract_x
 _atom_site_fract_y
 _atom_site_fract_z
 _atom_site_occupancy
  Li  Li0  1  0.36653462  0.26693076  0.06924789  1
  Li  Li1  1  0.13333385  0.73333230  0.18235100  1
  Li  Li2  1  0.87186101  0.25627799  0.31138759  1
  Li  Li3  1  0.62779572  0.74440857  0.43788353  1
  Li  Li4  1  0.37461155  0.25077691  0.56009734  1
  Li  Li5  1  0.12739369  0.74521263  0.68111763  1
  Li  Li6  1  0.86712381  0.26575237  0.81092502  1
  Li  Li7  1  0.62985942  0.74028117  0.93871633  1
  Li  Li8  1  0.75182944  0.49634111  0.12623315  1
  Mn  Mn9  1  0.99725663  0.00548674  0.00124410  1
  Mn  Mn10  1  0.25240736  0.49518529  0.36774263  1
  Co  Co11  1  0.50150033  0.99699934  0.25698639  1
  Co  Co12  1  0.00270304  0.99459391  0.49754349  1
  Co  Co13  1  0.75065691  0.49868618  0.62998016  1
  Co  Co14  1  0.49900439  0.00199121  0.74669102  1
  Co  Co15  1  0.24500570  0.50998860  0.89352618  1
  O  O16  1  0.44204494  0.11591012  0.92061394  1
  O  O17  1  0.18736114  0.62527772  0.02224176  1
  O  O18  1  0.94524657  0.10950685  0.15254950  1
  O  O19  1  0.69521661  0.60956679  0.29202220  1
  O  O20  1  0.44302373  0.11395254  0.41305073  1
  O  O21  1  0.19623219  0.60753562  0.52803969  1
  O  O22  1  0.94476833  0.11046334  0.66308935  1
  O  O23  1  0.69255691  0.61488618  0.78222704  1
  O  O24  1  0.30886844  0.38226312  0.23324195  1
  O  O25  1  0.06090219  0.87819561  0.33905295  1
  O  O26  1  0.80604295  0.38791410  0.46094489  1
  O  O27  1  0.55983066  0.88033869  0.59014069  1
  O  O28  1  0.30862416  0.38275168  0.71035092  1
  O  O29  1  0.04892484  0.90215032  0.84272768  1
  O  O30  1  0.80675614  0.38648772  0.95988671  1
  O  O31  1  0.55472275  0.89055450  0.07814657  1
