# generated using pymatgen
data_Ho2GaNi2
_symmetry_space_group_name_H-M   'P 1'
_cell_length_a   4.19707367
_cell_length_b   5.32586332
_cell_length_c   5.32586332
_cell_angle_alpha   60.10507477
_cell_angle_beta   66.79466647
_cell_angle_gamma   66.79466647
_symmetry_Int_Tables_number   1
_chemical_formula_structural   Ho2GaNi2
_chemical_formula_sum   'Ho2 Ga1 Ni2'
_cell_volume   91.89455849
_cell_formula_units_Z   1
loop_
 _symmetry_equiv_pos_site_id
 _symmetry_equiv_pos_as_xyz
  1  'x, y, z'
loop_
 _atom_site_type_symbol
 _atom_site_label
 _atom_site_symmetry_multiplicity
 _atom_site_fract_x
 _atom_site_fract_y
 _atom_site_fract_z
 _atom_site_occupancy
  Ho  Ho0  1  0.20203588  0.29796412  0.29796412  1
  Ho  Ho1  1  0.79796412  0.70203588  0.70203588  1
  Ga  Ga2  1  -0.00000000  -0.00000000  -0.00000000  1
  Ni  Ni3  1  0.50000000  0.26845233  0.73154767  1
  Ni  Ni4  1  0.50000000  0.73154767  0.26845233  1
