# generated using pymatgen
data_Nd2Ni2Sn
_symmetry_space_group_name_H-M   'P 1'
_cell_length_a   4.34510953
_cell_length_b   5.59123826
_cell_length_c   5.59123826
_cell_angle_alpha   62.88024784
_cell_angle_beta   67.13481358
_cell_angle_gamma   67.13481358
_symmetry_Int_Tables_number   1
_chemical_formula_structural   Nd2Ni2Sn
_chemical_formula_sum   'Nd2 Ni2 Sn1'
_cell_volume   107.63588417
_cell_formula_units_Z   1
loop_
 _symmetry_equiv_pos_site_id
 _symmetry_equiv_pos_as_xyz
  1  'x, y, z'
loop_
 _atom_site_type_symbol
 _atom_site_label
 _atom_site_symmetry_multiplicity
 _atom_site_fract_x
 _atom_site_fract_y
 _atom_site_fract_z
 _atom_site_occupancy
  Nd  Nd0  1  0.20419160  0.29580840  0.29580840  1
  Nd  Nd1  1  0.79580840  0.70419160  0.70419160  1
  Ni  Ni2  1  0.50000000  0.29201856  0.70798144  1
  Ni  Ni3  1  0.50000000  0.70798144  0.29201856  1
  Sn  Sn4  1  0.00000000  -0.00000000  -0.00000000  1
