# generated using pymatgen
data_TmTiClO3
_symmetry_space_group_name_H-M   'P 1'
_cell_length_a   3.88799718
_cell_length_b   5.28906302
_cell_length_c   9.74767952
_cell_angle_alpha   105.67836531
_cell_angle_beta   90.00000000
_cell_angle_gamma   111.56463907
_symmetry_Int_Tables_number   1
_chemical_formula_structural   TmTiClO3
_chemical_formula_sum   'Tm2 Ti2 Cl2 O6'
_cell_volume   178.37550165
_cell_formula_units_Z   2
loop_
 _symmetry_equiv_pos_site_id
 _symmetry_equiv_pos_as_xyz
  1  'x, y, z'
loop_
 _atom_site_type_symbol
 _atom_site_label
 _atom_site_symmetry_multiplicity
 _atom_site_fract_x
 _atom_site_fract_y
 _atom_site_fract_z
 _atom_site_occupancy
  Tm  Tm0  1  0.27673729  0.55347458  0.79542729  1
  Tm  Tm1  1  0.72326271  0.44652542  0.20457271  1
  Ti  Ti2  1  0.88241546  0.76483092  0.57316101  1
  Ti  Ti3  1  0.11758454  0.23516908  0.42683899  1
  Cl  Cl4  1  0.61589290  0.23178580  0.90731039  1
  Cl  Cl5  1  0.38410710  0.76821420  0.09268961  1
  O  O6  1  0.84789562  0.69579123  0.75266786  1
  O  O7  1  0.15210438  0.30420877  0.24733214  1
  O  O8  1  0.66762173  0.33524345  0.43202698  1
  O  O9  1  0.33237827  0.66475655  0.56797302  1
  O  O10  1  0.92135969  0.84271939  0.37305625  1
  O  O11  1  0.07864031  0.15728061  0.62694375  1
