# generated using pymatgen
data_Zn10Si(B4Rh9)2
_symmetry_space_group_name_H-M   'P 1'
_cell_length_a   2.87480302
_cell_length_b   17.85615987
_cell_length_c   17.85615987
_cell_angle_alpha   90.00000000
_cell_angle_beta   90.00000000
_cell_angle_gamma   90.00000000
_symmetry_Int_Tables_number   1
_chemical_formula_structural   Zn10Si(B4Rh9)2
_chemical_formula_sum   'Zn20 Si2 B16 Rh36'
_cell_volume   916.60922466
_cell_formula_units_Z   2
loop_
 _symmetry_equiv_pos_site_id
 _symmetry_equiv_pos_as_xyz
  1  'x, y, z'
loop_
 _atom_site_type_symbol
 _atom_site_label
 _atom_site_symmetry_multiplicity
 _atom_site_fract_x
 _atom_site_fract_y
 _atom_site_fract_z
 _atom_site_occupancy
  Zn  Zn0  1  -0.00000000  0.05021971  0.55021971  1
  Zn  Zn1  1  0.00000000  0.94978029  0.44978029  1
  Zn  Zn2  1  0.00000000  0.44978029  0.05021971  1
  Zn  Zn3  1  -0.00000000  0.55021971  0.94978029  1
  Zn  Zn4  1  0.00000000  0.18932780  0.03203290  1
  Zn  Zn5  1  -0.00000000  0.81067220  0.96796710  1
  Zn  Zn6  1  0.00000000  0.96796710  0.18932780  1
  Zn  Zn7  1  -0.00000000  0.31067220  0.53203290  1
  Zn  Zn8  1  -0.00000000  0.03203290  0.81067220  1
  Zn  Zn9  1  0.00000000  0.68932780  0.46796710  1
  Zn  Zn10  1  -0.00000000  0.53203290  0.68932780  1
  Zn  Zn11  1  -0.00000000  0.46796710  0.31067220  1
  Zn  Zn12  1  0.00000000  0.70905377  0.20905377  1
  Zn  Zn13  1  -0.00000000  0.29094623  0.79094623  1
  Zn  Zn14  1  0.00000000  0.79094623  0.70905377  1
  Zn  Zn15  1  -0.00000000  0.20905377  0.29094623  1
  Zn  Zn16  1  0.00000000  0.16886630  0.66886630  1
  Zn  Zn17  1  0.00000000  0.83113370  0.33113370  1
  Zn  Zn18  1  0.00000000  0.33113370  0.16886630  1
  Zn  Zn19  1  0.00000000  0.66886630  0.83113370  1
  Si  Si20  1  -0.00000000  0.00000000  -0.00000000  1
  Si  Si21  1  -0.00000000  0.50000000  0.50000000  1
  B  B22  1  0.00000000  0.03889239  0.33417486  1
  B  B23  1  -0.00000000  0.96110761  0.66582514  1
  B  B24  1  -0.00000000  0.66582514  0.03889239  1
  B  B25  1  -0.00000000  0.46110761  0.83417486  1
  B  B26  1  0.00000000  0.33417486  0.96110761  1
  B  B27  1  -0.00000000  0.53889239  0.16582514  1
  B  B28  1  0.00000000  0.83417486  0.53889239  1
  B  B29  1  -0.00000000  0.16582514  0.46110761  1
  B  B30  1  -0.00000000  0.12431060  0.16694666  1
  B  B31  1  0.00000000  0.87568940  0.83305334  1
  B  B32  1  0.00000000  0.83305334  0.12431060  1
  B  B33  1  0.00000000  0.37568940  0.66694666  1
  B  B34  1  0.00000000  0.16694666  0.87568940  1
  B  B35  1  -0.00000000  0.62431060  0.33305334  1
  B  B36  1  -0.00000000  0.66694666  0.62431060  1
  B  B37  1  -0.00000000  0.33305334  0.37568940  1
  Rh  Rh38  1  0.50000000  0.08722793  0.25431268  1
  Rh  Rh39  1  0.50000000  0.91277207  0.74568732  1
  Rh  Rh40  1  0.50000000  0.74568732  0.08722793  1
  Rh  Rh41  1  0.50000000  0.41277207  0.75431268  1
  Rh  Rh42  1  0.50000000  0.25431268  0.91277207  1
  Rh  Rh43  1  0.50000000  0.58722793  0.24568732  1
  Rh  Rh44  1  0.50000000  0.75431268  0.58722793  1
  Rh  Rh45  1  0.50000000  0.24568732  0.41277207  1
  Rh  Rh46  1  0.50000000  0.32560335  0.04777588  1
  Rh  Rh47  1  0.50000000  0.67439665  0.95222412  1
  Rh  Rh48  1  0.50000000  0.95222412  0.32560335  1
  Rh  Rh49  1  0.50000000  0.17439665  0.54777588  1
  Rh  Rh50  1  0.50000000  0.04777588  0.67439665  1
  Rh  Rh51  1  0.50000000  0.82560335  0.45222412  1
  Rh  Rh52  1  0.50000000  0.54777588  0.82560335  1
  Rh  Rh53  1  0.50000000  0.45222412  0.17439665  1
  Rh  Rh54  1  0.50000000  0.21033879  0.15977399  1
  Rh  Rh55  1  0.50000000  0.78966121  0.84022601  1
  Rh  Rh56  1  0.50000000  0.84022601  0.21033879  1
  Rh  Rh57  1  0.50000000  0.28966121  0.65977399  1
  Rh  Rh58  1  0.50000000  0.15977399  0.78966121  1
  Rh  Rh59  1  0.50000000  0.71033879  0.34022601  1
  Rh  Rh60  1  0.50000000  0.65977399  0.71033879  1
  Rh  Rh61  1  0.50000000  0.34022601  0.28966121  1
  Rh  Rh62  1  0.50000000  0.06528138  0.09534548  1
  Rh  Rh63  1  0.50000000  0.93471862  0.90465452  1
  Rh  Rh64  1  0.50000000  0.90465452  0.06528138  1
  Rh  Rh65  1  0.50000000  0.43471862  0.59534548  1
  Rh  Rh66  1  0.50000000  0.09534548  0.93471862  1
  Rh  Rh67  1  0.50000000  0.56528138  0.40465452  1
  Rh  Rh68  1  0.50000000  0.59534548  0.56528138  1
  Rh  Rh69  1  0.50000000  0.40465452  0.43471862  1
  Rh  Rh70  1  0.50000000  0.58233250  0.08233250  1
  Rh  Rh71  1  0.50000000  0.41766750  0.91766750  1
  Rh  Rh72  1  0.50000000  0.91766750  0.58233250  1
  Rh  Rh73  1  0.50000000  0.08233250  0.41766750  1
