# generated using pymatgen
data_Zr6CoI14
_symmetry_space_group_name_H-M   'P 1'
_cell_length_a   11.05223377
_cell_length_b   11.05223377
_cell_length_c   13.35257522
_cell_angle_alpha   90.00000000
_cell_angle_beta   90.00000000
_cell_angle_gamma   94.80393057
_symmetry_Int_Tables_number   1
_chemical_formula_structural   Zr6CoI14
_chemical_formula_sum   'Zr12 Co2 I28'
_cell_volume   1625.31238821
_cell_formula_units_Z   2
loop_
 _symmetry_equiv_pos_site_id
 _symmetry_equiv_pos_as_xyz
  1  'x, y, z'
loop_
 _atom_site_type_symbol
 _atom_site_label
 _atom_site_symmetry_multiplicity
 _atom_site_fract_x
 _atom_site_fract_y
 _atom_site_fract_z
 _atom_site_occupancy
  Zr  Zr0  1  0.17661135  0.95476891  0.11346784  1
  Zr  Zr1  1  0.82338865  0.04523109  0.88653216  1
  Zr  Zr2  1  0.32338865  0.54523109  0.61346784  1
  Zr  Zr3  1  0.45476891  0.67661135  0.38653216  1
  Zr  Zr4  1  0.67661135  0.45476891  0.38653216  1
  Zr  Zr5  1  0.54523109  0.32338865  0.61346784  1
  Zr  Zr6  1  0.04523109  0.82338865  0.88653216  1
  Zr  Zr7  1  0.95476891  0.17661135  0.11346784  1
  Zr  Zr8  1  0.36219162  0.36219162  0.39857451  1
  Zr  Zr9  1  0.63780838  0.63780838  0.60142549  1
  Zr  Zr10  1  0.13780838  0.13780838  0.89857451  1
  Zr  Zr11  1  0.86219162  0.86219162  0.10142549  1
  Co  Co12  1  -0.00000000  -0.00000000  0.00000000  1
  Co  Co13  1  0.50000000  0.50000000  0.50000000  1
  I  I14  1  0.53489916  0.28620523  0.25451078  1
  I  I15  1  0.46510084  0.71379477  0.74548922  1
  I  I16  1  0.96510084  0.21379477  0.75451078  1
  I  I17  1  0.78620523  0.03489916  0.24548922  1
  I  I18  1  0.03489916  0.78620523  0.24548922  1
  I  I19  1  0.21379477  0.96510084  0.75451078  1
  I  I20  1  0.71379477  0.46510084  0.74548922  1
  I  I21  1  0.28620523  0.53489916  0.25451078  1
  I  I22  1  0.36045421  0.11400775  0.00945396  1
  I  I23  1  0.63954579  0.88599225  0.99054604  1
  I  I24  1  0.13954579  0.38599225  0.50945396  1
  I  I25  1  0.61400775  0.86045421  0.49054604  1
  I  I26  1  0.86045421  0.61400775  0.49054604  1
  I  I27  1  0.38599225  0.13954579  0.50945396  1
  I  I28  1  0.88599225  0.63954579  0.99054604  1
  I  I29  1  0.11400775  0.36045421  0.00945396  1
  I  I30  1  0.39670043  0.89670043  0.25000000  1
  I  I31  1  0.60329957  0.10329957  0.75000000  1
  I  I32  1  0.10329957  0.60329957  0.75000000  1
  I  I33  1  0.89670043  0.39670043  0.25000000  1
  I  I34  1  0.24994142  0.75005858  0.00000000  1
  I  I35  1  0.75005858  0.24994142  0.00000000  1
  I  I36  1  0.25005858  0.74994142  0.50000000  1
  I  I37  1  0.74994142  0.25005858  0.50000000  1
  I  I38  1  0.15087280  0.15087280  0.26180203  1
  I  I39  1  0.84912720  0.84912720  0.73819797  1
  I  I40  1  0.34912720  0.34912720  0.76180203  1
  I  I41  1  0.65087280  0.65087280  0.23819797  1
