# generated using pymatgen
data_Li9Mn2Co5O16
_symmetry_space_group_name_H-M   'P 1'
_cell_length_a   2.90610773
_cell_length_b   9.86837740
_cell_length_c   10.66362381
_cell_angle_alpha   72.57003141
_cell_angle_beta   82.16835016
_cell_angle_gamma   89.99999485
_symmetry_Int_Tables_number   1
_chemical_formula_structural   Li9Mn2Co5O16
_chemical_formula_sum   'Li9 Mn2 Co5 O16'
_cell_volume   288.78436947
_cell_formula_units_Z   1
loop_
 _symmetry_equiv_pos_site_id
 _symmetry_equiv_pos_as_xyz
  1  'x, y, z'
loop_
 _atom_site_type_symbol
 _atom_site_label
 _atom_site_symmetry_multiplicity
 _atom_site_fract_x
 _atom_site_fract_y
 _atom_site_fract_z
 _atom_site_occupancy
  Li  Li0  1  0.43900971  0.20009603  0.12198058  1
  Li  Li1  1  0.31154140  0.55971574  0.37691719  1
  Li  Li2  1  0.19015578  0.93445156  0.61968844  1
  Li  Li3  1  0.80908328  0.05532868  0.38183344  1
  Li  Li4  1  0.68533028  0.44927734  0.62933944  1
  Li  Li5  1  0.56369204  0.80304125  0.87261592  1
  Li  Li6  1  0.05813900  0.33217671  0.88372200  1
  Li  Li7  1  0.94359189  0.67396234  0.11281622  1
  Li  Li8  1  0.49989427  0.49649202  0.00021147  1
  Mn  Mn9  1  -0.00053920  0.00206519  0.00107840  1
  Mn  Mn10  1  0.87957968  0.37503696  0.24084063  1
  Co  Co11  1  0.74463415  0.74501687  0.51073171  1
  Co  Co12  1  0.62676135  0.13221094  0.74647730  1
  Co  Co13  1  0.37173228  0.86701290  0.25653543  1
  Co  Co14  1  0.25069661  0.24813020  0.49860679  1
  Co  Co15  1  0.11440970  0.62005721  0.77118060  1
  O  O16  1  0.52472433  0.13880907  0.95055134  1
  O  O17  1  0.40261507  0.51249186  0.19476985  1
  O  O18  1  0.28431133  0.89909442  0.43137734  1
  O  O19  1  0.90959913  0.01292519  0.18080173  1
  O  O20  1  0.78559421  0.39460180  0.42881159  1
  O  O21  1  0.65908900  0.77497548  0.68182201  1
  O  O22  1  0.15562405  0.26646306  0.68875190  1
  O  O23  1  0.03669613  0.66231956  0.92660774  1
  O  O24  1  0.34646629  0.23434434  0.30706742  1
  O  O25  1  0.21938675  0.60199539  0.56122650  1
  O  O26  1  0.09201520  0.99635221  0.81596959  1
  O  O27  1  0.71964807  0.10001600  0.56070386  1
  O  O28  1  0.59529921  0.47644895  0.80940158  1
  O  O29  1  0.47474646  0.86288428  0.05050708  1
  O  O30  1  0.96136140  0.34445497  0.07727719  1
  O  O31  1  0.84511114  0.72775151  0.30977771  1
