# generated using pymatgen
data_Yb5P7Pd9
_symmetry_space_group_name_H-M   'P 1'
_cell_length_a   4.06550170
_cell_length_b   10.08867062
_cell_length_c   10.08867062
_cell_angle_alpha   119.99999749
_cell_angle_beta   90.00000000
_cell_angle_gamma   90.00000000
_symmetry_Int_Tables_number   1
_chemical_formula_structural   Yb5P7Pd9
_chemical_formula_sum   'Yb5 P7 Pd9'
_cell_volume   358.35434605
_cell_formula_units_Z   1
loop_
 _symmetry_equiv_pos_site_id
 _symmetry_equiv_pos_as_xyz
  1  'x, y, z'
loop_
 _atom_site_type_symbol
 _atom_site_label
 _atom_site_symmetry_multiplicity
 _atom_site_fract_x
 _atom_site_fract_y
 _atom_site_fract_z
 _atom_site_occupancy
  Yb  Yb0  1  0.00000000  0.66666700  0.33333300  1
  Yb  Yb1  1  0.50000000  0.33333300  0.66666700  1
  Yb  Yb2  1  0.50000000  0.77127596  0.89462966  1
  Yb  Yb3  1  0.50000000  0.12335370  0.22872404  1
  Yb  Yb4  1  0.50000000  0.10537034  0.87664630  1
  P  P5  1  0.50000000  0.72250536  0.14743392  1
  P  P6  1  0.50000000  0.42492856  0.27749464  1
  P  P7  1  0.50000000  0.85256608  0.57507144  1
  P  P8  1  -0.00000000  -0.00000000  0.00000000  1
  P  P9  1  -0.00000000  0.57488358  0.68495791  1
  P  P10  1  0.00000000  0.11007433  0.42511642  1
  P  P11  1  0.00000000  0.31504209  0.88992567  1
  Pd  Pd12  1  0.50000000  0.94571562  0.40263101  1
  Pd  Pd13  1  0.50000000  0.45691539  0.05428438  1
  Pd  Pd14  1  0.50000000  0.59736899  0.54308461  1
  Pd  Pd15  1  0.00000000  0.87267359  0.17003621  1
  Pd  Pd16  1  -0.00000000  0.29736262  0.12732641  1
  Pd  Pd17  1  0.00000000  0.82996379  0.70263738  1
  Pd  Pd18  1  -0.00000000  0.56181358  0.92055550  1
  Pd  Pd19  1  0.00000000  0.35874193  0.43818642  1
  Pd  Pd20  1  0.00000000  0.07944450  0.64125807  1
