# generated using pymatgen
data_K4Cd3(PO4)6
_symmetry_space_group_name_H-M   'P 1'
_cell_length_a   6.76311098
_cell_length_b   9.28131801
_cell_length_c   18.93408202
_cell_angle_alpha   92.46279378
_cell_angle_beta   90.00000000
_cell_angle_gamma   90.00000000
_symmetry_Int_Tables_number   1
_chemical_formula_structural   K4Cd3(PO4)6
_chemical_formula_sum   'K8 Cd6 P12 O48'
_cell_volume   1187.40560286
_cell_formula_units_Z   2
loop_
 _symmetry_equiv_pos_site_id
 _symmetry_equiv_pos_as_xyz
  1  'x, y, z'
loop_
 _atom_site_type_symbol
 _atom_site_label
 _atom_site_symmetry_multiplicity
 _atom_site_fract_x
 _atom_site_fract_y
 _atom_site_fract_z
 _atom_site_occupancy
  K  K0  1  0.00857814  0.01126995  0.31237314  1
  K  K1  1  0.49142186  0.51126995  0.81237314  1
  K  K2  1  0.99142186  0.98873005  0.68762686  1
  K  K3  1  0.50857814  0.48873005  0.18762686  1
  K  K4  1  0.99117915  0.51998623  0.62683143  1
  K  K5  1  0.50882085  0.01998623  0.12683143  1
  K  K6  1  0.00882085  0.48001377  0.37316857  1
  K  K7  1  0.49117915  0.98001377  0.87316857  1
  Cd  Cd8  1  0.50000000  0.50000000  0.50000000  1
  Cd  Cd9  1  0.00000000  -0.00000000  -0.00000000  1
  Cd  Cd10  1  0.31688236  0.86422787  0.49298058  1
  Cd  Cd11  1  0.18311764  0.36422787  0.99298058  1
  Cd  Cd12  1  0.68311764  0.13577213  0.50701942  1
  Cd  Cd13  1  0.81688236  0.63577213  0.00701942  1
  P  P14  1  0.42614407  0.73588471  0.65128646  1
  P  P15  1  0.07385593  0.23588471  0.15128646  1
  P  P16  1  0.57385593  0.26411529  0.34871354  1
  P  P17  1  0.92614407  0.76411529  0.84871354  1
  P  P18  1  0.39477663  0.72010835  0.34723670  1
  P  P19  1  0.10522337  0.22010835  0.84723670  1
  P  P20  1  0.60522337  0.27989165  0.65276330  1
  P  P21  1  0.89477663  0.77989165  0.15276330  1
  P  P22  1  0.83659636  0.78870651  0.48510564  1
  P  P23  1  0.66340364  0.28870651  0.98510564  1
  P  P24  1  0.16340364  0.21129349  0.51489436  1
  P  P25  1  0.33659636  0.71129349  0.01489436  1
  O  O26  1  0.78501062  0.63102168  0.50128568  1
  O  O27  1  0.71498938  0.13102168  0.00128568  1
  O  O28  1  0.21498938  0.36897832  0.49871432  1
  O  O29  1  0.28501062  0.86897832  0.99871432  1
  O  O30  1  0.36869627  0.67672696  0.57518279  1
  O  O31  1  0.13130373  0.17672696  0.07518279  1
  O  O32  1  0.63130373  0.32327304  0.42481721  1
  O  O33  1  0.86869627  0.82327304  0.92481721  1
  O  O34  1  0.36103894  0.65197215  0.42076704  1
  O  O35  1  0.13896106  0.15197215  0.92076704  1
  O  O36  1  0.63896106  0.34802785  0.57923296  1
  O  O37  1  0.86103894  0.84802785  0.07923296  1
  O  O38  1  0.00869263  0.84189532  0.53401213  1
  O  O39  1  0.49130737  0.34189532  0.03401213  1
  O  O40  1  0.99130737  0.15810468  0.46598787  1
  O  O41  1  0.50869263  0.65810468  0.96598787  1
  O  O42  1  0.34364317  0.10815383  0.50078502  1
  O  O43  1  0.15635683  0.60815383  0.00078502  1
  O  O44  1  0.65635683  0.89184617  0.49921498  1
  O  O45  1  0.84364317  0.39184617  0.99921498  1
  O  O46  1  0.34286799  0.88061850  0.35940312  1
  O  O47  1  0.15713201  0.38061850  0.85940312  1
  O  O48  1  0.65713201  0.11938150  0.64059688  1
  O  O49  1  0.84286799  0.61938150  0.14059688  1
  O  O50  1  0.37674432  0.89830169  0.65746609  1
  O  O51  1  0.12325568  0.39830169  0.15746609  1
  O  O52  1  0.62325568  0.10169831  0.34253391  1
  O  O53  1  0.87674432  0.60169831  0.84253391  1
  O  O54  1  0.64454626  0.69991380  0.66436375  1
  O  O55  1  0.85545374  0.19991380  0.16436375  1
  O  O56  1  0.35545374  0.30008620  0.33563625  1
  O  O57  1  0.14454626  0.80008620  0.83563625  1
  O  O58  1  0.28627984  0.66831607  0.70541238  1
  O  O59  1  0.21372016  0.16831607  0.20541238  1
  O  O60  1  0.71372016  0.33168393  0.29458762  1
  O  O61  1  0.78627984  0.83168393  0.79458762  1
  O  O62  1  0.60864247  0.68996510  0.32060280  1
  O  O63  1  0.89135753  0.18996510  0.82060280  1
  O  O64  1  0.39135753  0.31003490  0.67939720  1
  O  O65  1  0.10864247  0.81003490  0.17939720  1
  O  O66  1  0.26293550  0.64328824  0.29068038  1
  O  O67  1  0.23706450  0.14328824  0.79068038  1
  O  O68  1  0.73706450  0.35671176  0.70931962  1
  O  O69  1  0.76293550  0.85671176  0.20931962  1
  O  O70  1  0.90932893  0.79225938  0.40774961  1
  O  O71  1  0.59067107  0.29225938  0.90774961  1
  O  O72  1  0.09067107  0.20774062  0.59225039  1
  O  O73  1  0.40932893  0.70774062  0.09225039  1
