# generated using pymatgen
data_Li9Mn2Co5O16
_symmetry_space_group_name_H-M   'P 1'
_cell_length_a   5.20071711
_cell_length_b   11.35697060
_cell_length_c   5.20835045
_cell_angle_alpha   90.00000000
_cell_angle_beta   67.71723572
_cell_angle_gamma   90.00000000
_symmetry_Int_Tables_number   1
_chemical_formula_structural   Li9Mn2Co5O16
_chemical_formula_sum   'Li9 Mn2 Co5 O16'
_cell_volume   284.65556265
_cell_formula_units_Z   1
loop_
 _symmetry_equiv_pos_site_id
 _symmetry_equiv_pos_as_xyz
  1  'x, y, z'
loop_
 _atom_site_type_symbol
 _atom_site_label
 _atom_site_symmetry_multiplicity
 _atom_site_fract_x
 _atom_site_fract_y
 _atom_site_fract_z
 _atom_site_occupancy
  Li  Li0  1  0.50000000  0.12832531  0.00000000  1
  Li  Li1  1  0.50000000  0.25196358  0.50000000  1
  Li  Li2  1  0.50000000  0.37500000  0.00000000  1
  Li  Li3  1  0.50000000  0.49803642  0.50000000  1
  Li  Li4  1  0.50000000  0.62167469  0.00000000  1
  Li  Li5  1  0.50000000  0.75083524  0.50000000  1
  Li  Li6  1  0.50000000  0.87500000  0.00000000  1
  Li  Li7  1  0.50000000  0.99916476  0.50000000  1
  Li  Li8  1  -0.00000000  0.37500000  0.50000000  1
  Mn  Mn9  1  -0.00000000  0.00292582  0.00000000  1
  Mn  Mn10  1  -0.00000000  0.74707418  0.00000000  1
  Co  Co11  1  -0.00000000  0.12657425  0.50000000  1
  Co  Co12  1  -0.00000000  0.25105854  0.00000000  1
  Co  Co13  1  -0.00000000  0.49894146  0.00000000  1
  Co  Co14  1  -0.00000000  0.62342575  0.50000000  1
  Co  Co15  1  -0.00000000  0.87500000  0.50000000  1
  O  O16  1  0.23579717  0.12969569  0.77344784  1
  O  O17  1  0.20605259  0.24410608  0.24251124  1
  O  O18  1  0.23183568  0.37500000  0.78789770  1
  O  O19  1  0.20605259  0.50589392  0.24251124  1
  O  O20  1  0.23579717  0.62030431  0.77344784  1
  O  O21  1  0.22678737  0.74972353  0.27795720  1
  O  O22  1  0.23377285  0.87500000  0.77317734  1
  O  O23  1  0.22678737  0.00027647  0.27795720  1
  O  O24  1  0.76420283  0.12969569  0.22655216  1
  O  O25  1  0.79394741  0.24410608  0.75748876  1
  O  O26  1  0.76816432  0.37500000  0.21210230  1
  O  O27  1  0.79394741  0.50589392  0.75748876  1
  O  O28  1  0.76420283  0.62030431  0.22655216  1
  O  O29  1  0.77321263  0.74972353  0.72204280  1
  O  O30  1  0.76622715  0.87500000  0.22682266  1
  O  O31  1  0.77321263  0.00027647  0.72204280  1
