# generated using pymatgen
data_Y5(SiSb)2
_symmetry_space_group_name_H-M   'P 1'
_cell_length_a   7.89445436
_cell_length_b   7.86836602
_cell_length_c   8.55883157
_cell_angle_alpha   117.36539618
_cell_angle_beta   90.00000000
_cell_angle_gamma   90.00000000
_symmetry_Int_Tables_number   1
_chemical_formula_structural   Y5(SiSb)2
_chemical_formula_sum   'Y10 Si4 Sb4'
_cell_volume   472.14965634
_cell_formula_units_Z   2
loop_
 _symmetry_equiv_pos_site_id
 _symmetry_equiv_pos_as_xyz
  1  'x, y, z'
loop_
 _atom_site_type_symbol
 _atom_site_label
 _atom_site_symmetry_multiplicity
 _atom_site_fract_x
 _atom_site_fract_y
 _atom_site_fract_z
 _atom_site_occupancy
  Y  Y0  1  0.66402634  0.70888337  0.74786205  1
  Y  Y1  1  0.33597366  0.29111663  0.25213795  1
  Y  Y2  1  0.16402634  0.79111663  0.25213795  1
  Y  Y3  1  0.83597366  0.46102132  0.25213795  1
  Y  Y4  1  0.83597366  0.20888337  0.74786205  1
  Y  Y5  1  0.16402634  0.53897868  0.74786205  1
  Y  Y6  1  0.33597366  0.03897868  0.74786205  1
  Y  Y7  1  0.66402634  0.96102132  0.25213795  1
  Y  Y8  1  0.00000000  -0.00000000  -0.00000000  1
  Y  Y9  1  0.50000000  0.50000000  -0.00000000  1
  Si  Si10  1  0.86656526  0.63471602  0.00000000  1
  Si  Si11  1  0.13343474  0.36528398  1.00000000  1
  Si  Si12  1  0.36656526  0.86528398  1.00000000  1
  Si  Si13  1  0.63343474  0.13471602  0.00000000  1
  Sb  Sb14  1  -0.00000000  0.79468976  0.58937951  1
  Sb  Sb15  1  -0.00000000  0.20531024  0.41062049  1
  Sb  Sb16  1  0.50000000  0.70531024  0.41062049  1
  Sb  Sb17  1  0.50000000  0.29468976  0.58937951  1
