# generated using pymatgen
data_Y2(Al3Rh)3
_symmetry_space_group_name_H-M   'P 1'
_cell_length_a   7.56256655
_cell_length_b   7.56256655
_cell_length_c   9.48868395
_cell_angle_alpha   90.00000000
_cell_angle_beta   90.00000000
_cell_angle_gamma   119.46487201
_symmetry_Int_Tables_number   1
_chemical_formula_structural   Y2(Al3Rh)3
_chemical_formula_sum   'Y4 Al18 Rh6'
_cell_volume   472.48901313
_cell_formula_units_Z   2
loop_
 _symmetry_equiv_pos_site_id
 _symmetry_equiv_pos_as_xyz
  1  'x, y, z'
loop_
 _atom_site_type_symbol
 _atom_site_label
 _atom_site_symmetry_multiplicity
 _atom_site_fract_x
 _atom_site_fract_y
 _atom_site_fract_z
 _atom_site_occupancy
  Y  Y0  1  0.66961489  0.99490980  0.25000000  1
  Y  Y1  1  0.33038511  0.00509020  0.75000000  1
  Y  Y2  1  0.99490980  0.66961489  0.25000000  1
  Y  Y3  1  0.00509020  0.33038511  0.75000000  1
  Al  Al4  1  0.12703559  0.12703559  0.25000000  1
  Al  Al5  1  0.87296441  0.87296441  0.75000000  1
  Al  Al6  1  0.33482766  0.00167489  0.07341716  1
  Al  Al7  1  0.66517234  0.99832511  0.92658284  1
  Al  Al8  1  0.66517234  0.99832511  0.57341716  1
  Al  Al9  1  0.00167489  0.33482766  0.42658284  1
  Al  Al10  1  0.33482766  0.00167489  0.42658284  1
  Al  Al11  1  0.99832511  0.66517234  0.57341716  1
  Al  Al12  1  0.99832511  0.66517234  0.92658284  1
  Al  Al13  1  0.00167489  0.33482766  0.07341716  1
  Al  Al14  1  0.33377275  0.33377275  0.55214775  1
  Al  Al15  1  0.66622725  0.66622725  0.44785225  1
  Al  Al16  1  0.66622725  0.66622725  0.05214775  1
  Al  Al17  1  0.33377275  0.33377275  0.94785225  1
  Al  Al18  1  0.54752467  0.33779032  0.25000000  1
  Al  Al19  1  0.45247533  0.66220968  0.75000000  1
  Al  Al20  1  0.33779032  0.54752467  0.25000000  1
  Al  Al21  1  0.66220968  0.45247533  0.75000000  1
  Rh  Rh22  1  0.32821990  0.67178010  0.00000000  1
  Rh  Rh23  1  0.67178010  0.32821990  0.00000000  1
  Rh  Rh24  1  0.67178010  0.32821990  0.50000000  1
  Rh  Rh25  1  0.32821990  0.67178010  0.50000000  1
  Rh  Rh26  1  0.00000000  -0.00000000  0.00000000  1
  Rh  Rh27  1  0.00000000  -0.00000000  0.50000000  1
