# generated using pymatgen
data_Y5SbPt2
_symmetry_space_group_name_H-M   'P 1'
_cell_length_a   7.78769609
_cell_length_b   7.78769609
_cell_length_c   8.81562502
_cell_angle_alpha   116.21230021
_cell_angle_beta   116.21230021
_cell_angle_gamma   90.00000000
_symmetry_Int_Tables_number   1
_chemical_formula_structural   Y5SbPt2
_chemical_formula_sum   'Y10 Sb2 Pt4'
_cell_volume   417.50969518
_cell_formula_units_Z   2
loop_
 _symmetry_equiv_pos_site_id
 _symmetry_equiv_pos_as_xyz
  1  'x, y, z'
loop_
 _atom_site_type_symbol
 _atom_site_label
 _atom_site_symmetry_multiplicity
 _atom_site_fract_x
 _atom_site_fract_y
 _atom_site_fract_z
 _atom_site_occupancy
  Y  Y0  1  -0.00000000  -0.00000000  -0.00000000  1
  Y  Y1  1  0.50000000  0.50000000  0.00000000  1
  Y  Y2  1  0.29736788  0.79736788  0.27891928  1
  Y  Y3  1  0.70263212  0.20263212  0.72108072  1
  Y  Y4  1  0.98155140  0.48155140  0.27891928  1
  Y  Y5  1  0.48155140  0.29736788  0.27891928  1
  Y  Y6  1  0.20263212  0.01844860  0.72108072  1
  Y  Y7  1  0.01844860  0.51844860  0.72108072  1
  Y  Y8  1  0.51844860  0.70263212  0.72108072  1
  Y  Y9  1  0.79736788  0.98155140  0.27891928  1
  Sb  Sb10  1  0.25000000  0.25000000  0.50000000  1
  Sb  Sb11  1  0.75000000  0.75000000  0.50000000  1
  Pt  Pt12  1  0.63770180  0.13770180  -0.00000000  1
  Pt  Pt13  1  0.36229820  0.86229820  0.00000000  1
  Pt  Pt14  1  0.86229820  0.63770180  0.00000000  1
  Pt  Pt15  1  0.13770180  0.36229820  -0.00000000  1
