# generated using pymatgen
data_Yb10Ni28As19
_symmetry_space_group_name_H-M   'P 1'
_cell_length_a   3.93799371
_cell_length_b   16.01866461
_cell_length_c   16.01866460
_cell_angle_alpha   119.99999982
_cell_angle_beta   90.00000000
_cell_angle_gamma   90.00000000
_symmetry_Int_Tables_number   1
_chemical_formula_structural   Yb10Ni28As19
_chemical_formula_sum   'Yb10 Ni28 As19'
_cell_volume   875.10117565
_cell_formula_units_Z   1
loop_
 _symmetry_equiv_pos_site_id
 _symmetry_equiv_pos_as_xyz
  1  'x, y, z'
loop_
 _atom_site_type_symbol
 _atom_site_label
 _atom_site_symmetry_multiplicity
 _atom_site_fract_x
 _atom_site_fract_y
 _atom_site_fract_z
 _atom_site_occupancy
  Yb  Yb0  1  0.50000000  0.96737854  0.27245803  1
  Yb  Yb1  1  0.50000000  0.30507950  0.03262146  1
  Yb  Yb2  1  0.50000000  0.72754197  0.69492050  1
  Yb  Yb3  1  0.00000000  0.47348057  0.81359934  1
  Yb  Yb4  1  0.00000000  0.34011878  0.52651943  1
  Yb  Yb5  1  -0.00000000  0.18640066  0.65988122  1
  Yb  Yb6  1  0.00000000  0.66666700  0.33333300  1
  Yb  Yb7  1  0.50000000  0.84797062  0.98044567  1
  Yb  Yb8  1  0.50000000  0.13247505  0.15202938  1
  Yb  Yb9  1  0.50000000  0.01955433  0.86752495  1
  Ni  Ni10  1  -0.00000000  0.56669203  0.67286304  1
  Ni  Ni11  1  0.00000000  0.10617101  0.43330797  1
  Ni  Ni12  1  0.00000000  0.32713696  0.89382899  1
  Ni  Ni13  1  0.50000000  0.83864501  0.37564879  1
  Ni  Ni14  1  0.50000000  0.53700377  0.16135499  1
  Ni  Ni15  1  0.50000000  0.62435121  0.46299623  1
  Ni  Ni16  1  0.00000000  0.68640885  0.96582554  1
  Ni  Ni17  1  -0.00000000  0.27941670  0.31359115  1
  Ni  Ni18  1  -0.00000000  0.03417446  0.72058330  1
  Ni  Ni19  1  0.50000000  0.62554321  0.82582881  1
  Ni  Ni20  1  0.50000000  0.20028559  0.37445679  1
  Ni  Ni21  1  0.50000000  0.17417119  0.79971441  1
  Ni  Ni22  1  0.00000000  0.98808852  0.13803656  1
  Ni  Ni23  1  -0.00000000  0.14994804  0.01191148  1
  Ni  Ni24  1  0.00000000  0.86196344  0.85005196  1
  Ni  Ni25  1  0.00000000  0.79737467  0.24243461  1
  Ni  Ni26  1  -0.00000000  0.44505994  0.20262533  1
  Ni  Ni27  1  0.00000000  0.75756539  0.55494006  1
  Ni  Ni28  1  0.50000000  0.51225816  0.54078212  1
  Ni  Ni29  1  0.50000000  0.02852396  0.48774184  1
  Ni  Ni30  1  0.50000000  0.45921788  0.97147604  1
  Ni  Ni31  1  0.50000000  0.75023599  0.10191118  1
  Ni  Ni32  1  0.50000000  0.35167518  0.24976401  1
  Ni  Ni33  1  0.50000000  0.89808882  0.64832482  1
  Ni  Ni34  1  0.50000000  0.33333300  0.66666700  1
  Ni  Ni35  1  0.00000000  0.61959508  0.08554876  1
  Ni  Ni36  1  0.00000000  0.46595368  0.38040492  1
  Ni  Ni37  1  -0.00000000  0.91445124  0.53404632  1
  As  As38  1  0.00000000  -0.00000000  -0.00000000  1
  As  As39  1  0.50000000  0.59998884  0.96205589  1
  As  As40  1  0.50000000  0.36206706  0.40001116  1
  As  As41  1  0.50000000  0.03794411  0.63793294  1
  As  As42  1  0.50000000  0.48219712  0.67243095  1
  As  As43  1  0.50000000  0.19023383  0.51780288  1
  As  As44  1  0.50000000  0.32756905  0.80976617  1
  As  As45  1  0.50000000  0.70228794  0.21670630  1
  As  As46  1  0.50000000  0.51441837  0.29771206  1
  As  As47  1  0.50000000  0.78329370  0.48558163  1
  As  As48  1  0.00000000  0.93937156  0.39916707  1
  As  As49  1  0.00000000  0.45979551  0.06062844  1
  As  As50  1  -0.00000000  0.60083293  0.54020449  1
  As  As51  1  0.00000000  0.83733076  0.11801412  1
  As  As52  1  -0.00000000  0.28068336  0.16266924  1
  As  As53  1  0.00000000  0.88198588  0.71931664  1
  As  As54  1  0.00000000  0.70967029  0.82998195  1
  As  As55  1  0.00000000  0.12031167  0.29032971  1
  As  As56  1  -0.00000000  0.17001805  0.87968833  1
