# generated using pymatgen
data_Y5(CoTe)2
_symmetry_space_group_name_H-M   'P 1'
_cell_length_a   3.93831924
_cell_length_b   7.80324980
_cell_length_c   15.02106921
_cell_angle_alpha   90.00000000
_cell_angle_beta   90.00000000
_cell_angle_gamma   104.61668909
_symmetry_Int_Tables_number   1
_chemical_formula_structural   Y5(CoTe)2
_chemical_formula_sum   'Y10 Co4 Te4'
_cell_volume   446.68272855
_cell_formula_units_Z   2
loop_
 _symmetry_equiv_pos_site_id
 _symmetry_equiv_pos_as_xyz
  1  'x, y, z'
loop_
 _atom_site_type_symbol
 _atom_site_label
 _atom_site_symmetry_multiplicity
 _atom_site_fract_x
 _atom_site_fract_y
 _atom_site_fract_z
 _atom_site_occupancy
  Y  Y0  1  0.03922260  0.07844520  0.12433897  1
  Y  Y1  1  0.96077740  0.92155480  0.87566103  1
  Y  Y2  1  0.96077740  0.92155480  0.62433897  1
  Y  Y3  1  0.03922260  0.07844520  0.37566103  1
  Y  Y4  1  0.25768460  0.51536920  0.62891324  1
  Y  Y5  1  0.74231540  0.48463080  0.37108676  1
  Y  Y6  1  0.74231540  0.48463080  0.12891324  1
  Y  Y7  1  0.25768460  0.51536920  0.87108676  1
  Y  Y8  1  0.39515329  0.79030658  0.25000000  1
  Y  Y9  1  0.60484671  0.20969342  0.75000000  1
  Co  Co10  1  0.59063134  0.18126267  0.25000000  1
  Co  Co11  1  0.40936866  0.81873733  0.75000000  1
  Co  Co12  1  0.17906826  0.35813652  0.25000000  1
  Co  Co13  1  0.82093174  0.64186348  0.75000000  1
  Te  Te14  1  0.38317014  0.76634029  0.03865417  1
  Te  Te15  1  0.61682986  0.23365971  0.96134583  1
  Te  Te16  1  0.61682986  0.23365971  0.53865417  1
  Te  Te17  1  0.38317014  0.76634029  0.46134583  1
