# generated using pymatgen
data_Y12(MnC3)5
_symmetry_space_group_name_H-M   'P 1'
_cell_length_a   5.06206683
_cell_length_b   10.50390863
_cell_length_c   10.50390863
_cell_angle_alpha   119.99999994
_cell_angle_beta   90.00000000
_cell_angle_gamma   90.00000000
_symmetry_Int_Tables_number   1
_chemical_formula_structural   Y12(MnC3)5
_chemical_formula_sum   'Y12 Mn5 C15'
_cell_volume   483.68250280
_cell_formula_units_Z   1
loop_
 _symmetry_equiv_pos_site_id
 _symmetry_equiv_pos_as_xyz
  1  'x, y, z'
loop_
 _atom_site_type_symbol
 _atom_site_label
 _atom_site_symmetry_multiplicity
 _atom_site_fract_x
 _atom_site_fract_y
 _atom_site_fract_z
 _atom_site_occupancy
  Y  Y0  1  0.50000000  0.20707875  0.20707875  1
  Y  Y1  1  0.50000000  0.00000000  0.79292125  1
  Y  Y2  1  0.50000000  0.79292125  0.00000000  1
  Y  Y3  1  -0.00000000  0.73009285  0.18517710  1
  Y  Y4  1  0.00000000  0.45508425  0.26990715  1
  Y  Y5  1  0.00000000  0.54491575  0.81482290  1
  Y  Y6  1  0.00000000  0.81482290  0.54491575  1
  Y  Y7  1  -0.00000000  0.18517710  0.73009285  1
  Y  Y8  1  0.00000000  0.26990715  0.45508425  1
  Y  Y9  1  0.50000000  0.57219148  0.57219148  1
  Y  Y10  1  0.50000000  1.00000000  0.42780852  1
  Y  Y11  1  0.50000000  0.42780852  1.00000000  1
  Mn  Mn12  1  -0.00000000  0.84722974  0.84722974  1
  Mn  Mn13  1  0.00000000  1.00000000  0.15277026  1
  Mn  Mn14  1  0.00000000  0.15277026  1.00000000  1
  Mn  Mn15  1  0.50000000  0.66666700  0.33333300  1
  Mn  Mn16  1  0.50000000  0.33333300  0.66666700  1
  C  C17  1  0.00000000  0.67620457  0.67620457  1
  C  C18  1  -0.00000000  0.00000000  0.32379543  1
  C  C19  1  -0.00000000  0.32379543  0.00000000  1
  C  C20  1  -0.00000000  0.19986589  0.19986589  1
  C  C21  1  0.00000000  0.00000000  0.80013411  1
  C  C22  1  0.00000000  0.80013411  0.00000000  1
  C  C23  1  -0.00000000  0.54751575  0.54751575  1
  C  C24  1  0.00000000  1.00000000  0.45248425  1
  C  C25  1  0.00000000  0.45248425  1.00000000  1
  C  C26  1  0.50000000  0.71498104  0.19265917  1
  C  C27  1  0.50000000  0.47767813  0.28501896  1
  C  C28  1  0.50000000  0.52232187  0.80734083  1
  C  C29  1  0.50000000  0.80734083  0.52232187  1
  C  C30  1  0.50000000  0.19265917  0.71498104  1
  C  C31  1  0.50000000  0.28501896  0.47767813  1
