# generated using pymatgen
data_TmTl(MoO4)2
_symmetry_space_group_name_H-M   'P 1'
_cell_length_a   6.08961853
_cell_length_b   15.33116763
_cell_length_c   9.07554282
_cell_angle_alpha   90.00000000
_cell_angle_beta   90.00000000
_cell_angle_gamma   90.00000000
_symmetry_Int_Tables_number   1
_chemical_formula_structural   TmTl(MoO4)2
_chemical_formula_sum   'Tm4 Tl4 Mo8 O32'
_cell_volume   847.30141276
_cell_formula_units_Z   4
loop_
 _symmetry_equiv_pos_site_id
 _symmetry_equiv_pos_as_xyz
  1  'x, y, z'
loop_
 _atom_site_type_symbol
 _atom_site_label
 _atom_site_symmetry_multiplicity
 _atom_site_fract_x
 _atom_site_fract_y
 _atom_site_fract_z
 _atom_site_occupancy
  Tm  Tm0  1  0.75000000  0.89373591  0.69517801  1
  Tm  Tm1  1  0.25000000  0.10626409  0.30482199  1
  Tm  Tm2  1  0.25000000  0.60626409  0.19517801  1
  Tm  Tm3  1  0.75000000  0.39373591  0.80482199  1
  Tl  Tl4  1  0.75000000  0.62526802  0.55622016  1
  Tl  Tl5  1  0.25000000  0.37473198  0.44377984  1
  Tl  Tl6  1  0.25000000  0.87473198  0.05622016  1
  Tl  Tl7  1  0.75000000  0.12526802  0.94377984  1
  Mo  Mo8  1  0.75000000  0.96049360  0.28255423  1
  Mo  Mo9  1  0.25000000  0.03950640  0.71744577  1
  Mo  Mo10  1  0.25000000  0.53950640  0.78255423  1
  Mo  Mo11  1  0.75000000  0.46049360  0.21744577  1
  Mo  Mo12  1  0.75000000  0.71621373  0.99564966  1
  Mo  Mo13  1  0.25000000  0.28378627  0.00435034  1
  Mo  Mo14  1  0.25000000  0.78378627  0.49564966  1
  Mo  Mo15  1  0.75000000  0.21621373  0.50435034  1
  O  O16  1  0.75000000  0.85291524  0.21968127  1
  O  O17  1  0.25000000  0.14708476  0.78031873  1
  O  O18  1  0.25000000  0.64708476  0.71968127  1
  O  O19  1  0.75000000  0.35291524  0.28031873  1
  O  O20  1  0.75000000  0.96268141  0.48024906  1
  O  O21  1  0.25000000  0.03731859  0.51975094  1
  O  O22  1  0.25000000  0.53731859  0.98024906  1
  O  O23  1  0.75000000  0.46268141  0.01975094  1
  O  O24  1  0.75000000  0.64027489  0.85187201  1
  O  O25  1  0.25000000  0.35972511  0.14812799  1
  O  O26  1  0.25000000  0.85972511  0.35187201  1
  O  O27  1  0.75000000  0.14027489  0.64812799  1
  O  O28  1  0.75000000  0.82278577  0.90783011  1
  O  O29  1  0.25000000  0.17721423  0.09216989  1
  O  O30  1  0.25000000  0.67721423  0.40783011  1
  O  O31  1  0.75000000  0.32278577  0.59216989  1
  O  O32  1  0.00229854  0.80421215  0.60196508  1
  O  O33  1  0.99770146  0.19578785  0.39803492  1
  O  O34  1  0.99770146  0.69578785  0.10196508  1
  O  O35  1  0.50229854  0.19578785  0.39803492  1
  O  O36  1  0.00229854  0.30421215  0.89803492  1
  O  O37  1  0.49770146  0.80421215  0.60196508  1
  O  O38  1  0.49770146  0.30421215  0.89803492  1
  O  O39  1  0.50229854  0.69578785  0.10196508  1
  O  O40  1  0.49044242  0.98203379  0.78944650  1
  O  O41  1  0.50955758  0.01796621  0.21055350  1
  O  O42  1  0.50955758  0.51796621  0.28944650  1
  O  O43  1  0.99044242  0.01796621  0.21055350  1
  O  O44  1  0.49044242  0.48203379  0.71055350  1
  O  O45  1  0.00955758  0.98203379  0.78944650  1
  O  O46  1  0.00955758  0.48203379  0.71055350  1
  O  O47  1  0.99044242  0.51796621  0.28944650  1
