# generated using pymatgen
data_Tm5Re2C7
_symmetry_space_group_name_H-M   'P 1'
_cell_length_a   3.37880758
_cell_length_b   7.95956888
_cell_length_c   8.21465660
_cell_angle_alpha   118.97799134
_cell_angle_beta   90.00000000
_cell_angle_gamma   90.00000000
_symmetry_Int_Tables_number   1
_chemical_formula_structural   Tm5Re2C7
_chemical_formula_sum   'Tm5 Re2 C7'
_cell_volume   193.26539854
_cell_formula_units_Z   1
loop_
 _symmetry_equiv_pos_site_id
 _symmetry_equiv_pos_as_xyz
  1  'x, y, z'
loop_
 _atom_site_type_symbol
 _atom_site_label
 _atom_site_symmetry_multiplicity
 _atom_site_fract_x
 _atom_site_fract_y
 _atom_site_fract_z
 _atom_site_occupancy
  Tm  Tm0  1  0.00000000  0.50000000  -0.00000000  1
  Tm  Tm1  1  0.50000000  0.33588266  0.25873293  1
  Tm  Tm2  1  0.50000000  0.66411734  0.74126707  1
  Tm  Tm3  1  0.50000000  0.92285026  0.25873293  1
  Tm  Tm4  1  0.50000000  0.07714974  0.74126707  1
  Re  Re5  1  -0.00000000  0.28535147  0.57070294  1
  Re  Re6  1  -0.00000000  0.71464853  0.42929706  1
  C  C7  1  0.50000000  0.37563770  0.75127540  1
  C  C8  1  0.50000000  0.62436230  0.24872460  1
  C  C9  1  0.00000000  -0.00000000  -0.00000000  1
  C  C10  1  0.00000000  0.17081413  -0.00000000  1
  C  C11  1  0.00000000  0.82918587  -0.00000000  1
  C  C12  1  0.00000000  0.50000000  0.50000000  1
  C  C13  1  0.00000000  -0.00000000  0.50000000  1
