# generated using pymatgen
data_V3Co10AsO20
_symmetry_space_group_name_H-M   'P 1'
_cell_length_a   6.15341795
_cell_length_b   10.18852614
_cell_length_c   13.45564735
_cell_angle_alpha   75.82518370
_cell_angle_beta   76.78206642
_cell_angle_gamma   72.42356529
_symmetry_Int_Tables_number   1
_chemical_formula_structural   V3Co10AsO20
_chemical_formula_sum   'V6 Co20 As2 O40'
_cell_volume   768.72316187
_cell_formula_units_Z   2
loop_
 _symmetry_equiv_pos_site_id
 _symmetry_equiv_pos_as_xyz
  1  'x, y, z'
loop_
 _atom_site_type_symbol
 _atom_site_label
 _atom_site_symmetry_multiplicity
 _atom_site_fract_x
 _atom_site_fract_y
 _atom_site_fract_z
 _atom_site_occupancy
  V  V0  1  0.99212463  0.64226651  0.37348423  1
  V  V1  1  0.00787537  0.35773349  0.62651577  1
  V  V2  1  0.60412217  0.56740295  0.22435271  1
  V  V3  1  0.39587783  0.43259705  0.77564729  1
  V  V4  1  0.89970617  0.17368402  0.02690363  1
  V  V5  1  0.10029383  0.82631598  0.97309637  1
  Co  Co6  1  0.80617080  0.58827637  0.79938203  1
  Co  Co7  1  0.19382920  0.41172363  0.20061797  1
  Co  Co8  1  0.38839267  0.31650573  0.40296897  1
  Co  Co9  1  0.61160733  0.68349427  0.59703103  1
  Co  Co10  1  0.10786736  0.68349427  0.59703103  1
  Co  Co11  1  0.89213264  0.31650573  0.40296897  1
  Co  Co12  1  0.40557632  0.79370350  0.39514385  1
  Co  Co13  1  0.59442368  0.20629650  0.60485615  1
  Co  Co14  1  0.79525588  0.11609120  0.29339705  1
  Co  Co15  1  0.20474412  0.88390880  0.70660295  1
  Co  Co16  1  0.38796289  0.18803110  0.03604313  1
  Co  Co17  1  0.61203711  0.81196890  0.96395687  1
  Co  Co18  1  0.70644378  0.89469666  0.19224036  1
  Co  Co19  1  0.29355622  0.10530334  0.80775964  1
  Co  Co20  1  0.79338080  0.10530334  0.80775964  1
  Co  Co21  1  0.20661920  0.89469666  0.19224036  1
  Co  Co22  1  0.50000000  0.00000000  0.50000000  1
  Co  Co23  1  0.00000000  0.00000000  0.50000000  1
  Co  Co24  1  0.50000000  0.50000000  0.00000000  1
  Co  Co25  1  0.00000000  0.50000000  0.00000000  1
  As  As26  1  0.70208347  0.89390186  0.70193120  1
  As  As27  1  0.29791653  0.10609814  0.29806880  1
  O  O28  1  0.69722781  0.15337884  0.45216555  1
  O  O29  1  0.30277219  0.84662116  0.54783445  1
  O  O30  1  0.98931412  0.76406266  0.25730910  1
  O  O31  1  0.01068588  0.23593734  0.74269090  1
  O  O32  1  0.42136378  0.54282256  0.15505151  1
  O  O33  1  0.57863622  0.45717744  0.84494849  1
  O  O34  1  0.11923785  0.45717744  0.84494849  1
  O  O35  1  0.88076215  0.54282256  0.15505151  1
  O  O36  1  0.89893323  0.05111157  0.15102196  1
  O  O37  1  0.10106677  0.94888843  0.84897804  1
  O  O38  1  0.50240884  0.74946458  0.24571773  1
  O  O39  1  0.49759116  0.25053542  0.75428227  1
  O  O40  1  0.56259257  0.96982276  0.34035031  1
  O  O41  1  0.43740743  0.03017724  0.65964969  1
  O  O42  1  0.87276563  0.03017724  0.65964969  1
  O  O43  1  0.12723437  0.96982276  0.34035031  1
  O  O44  1  0.39242827  0.04745676  0.16768671  1
  O  O45  1  0.60757173  0.95254324  0.83231329  1
  O  O46  1  0.71232114  0.66638535  0.44407695  1
  O  O47  1  0.28767886  0.33361465  0.55592305  1
  O  O48  1  0.82278344  0.33361465  0.55592305  1
  O  O49  1  0.17721656  0.66638535  0.44407695  1
  O  O50  1  0.90760166  0.53620889  0.64858778  1
  O  O51  1  0.09239834  0.46379111  0.35141222  1
  O  O52  1  0.78948872  0.85717534  0.56384722  1
  O  O53  1  0.21051128  0.14282466  0.43615278  1
  O  O54  1  0.60508042  0.44675051  0.34308865  1
  O  O55  1  0.39491958  0.55324949  0.65691135  1
  O  O56  1  0.46285617  0.23984553  0.26422062  1
  O  O57  1  0.53714383  0.76015447  0.73577938  1
  O  O58  1  0.96692232  0.76015447  0.73577938  1
  O  O59  1  0.03307768  0.23984553  0.26422062  1
  O  O60  1  0.28420737  0.37827570  0.05330956  1
  O  O61  1  0.71579263  0.62172430  0.94669044  1
  O  O62  1  0.28862475  0.85118404  0.04338150  1
  O  O63  1  0.71137525  0.14881596  0.95661850  1
  O  O64  1  0.18319029  0.14881596  0.95661850  1
  O  O65  1  0.81680971  0.85118404  0.04338150  1
  O  O66  1  0.80623233  0.34178823  0.04574712  1
  O  O67  1  0.19376767  0.65821177  0.95425288  1
