# generated using pymatgen
data_Tm5(GeSb)2
_symmetry_space_group_name_H-M   'P 1'
_cell_length_a   7.81040827
_cell_length_b   7.83251479
_cell_length_c   8.43972937
_cell_angle_alpha   90.00000000
_cell_angle_beta   117.56255373
_cell_angle_gamma   90.00000000
_symmetry_Int_Tables_number   1
_chemical_formula_structural   Tm5(GeSb)2
_chemical_formula_sum   'Tm10 Ge4 Sb4'
_cell_volume   457.70457018
_cell_formula_units_Z   2
loop_
 _symmetry_equiv_pos_site_id
 _symmetry_equiv_pos_as_xyz
  1  'x, y, z'
loop_
 _atom_site_type_symbol
 _atom_site_label
 _atom_site_symmetry_multiplicity
 _atom_site_fract_x
 _atom_site_fract_y
 _atom_site_fract_z
 _atom_site_occupancy
  Tm  Tm0  1  0.29117900  0.33656470  0.25438387  1
  Tm  Tm1  1  0.70882100  0.66343530  0.74561613  1
  Tm  Tm2  1  0.20882100  0.83656470  0.74561613  1
  Tm  Tm3  1  0.53679513  0.16343530  0.74561613  1
  Tm  Tm4  1  0.79117900  0.16343530  0.25438387  1
  Tm  Tm5  1  0.46320487  0.83656470  0.25438387  1
  Tm  Tm6  1  0.96320487  0.66343530  0.25438387  1
  Tm  Tm7  1  0.03679513  0.33656470  0.74561613  1
  Tm  Tm8  1  -0.00000000  0.00000000  -0.00000000  1
  Tm  Tm9  1  0.50000000  0.50000000  0.00000000  1
  Ge  Ge10  1  0.36131532  0.13781156  0.00000000  1
  Ge  Ge11  1  0.63868468  0.86218844  0.00000000  1
  Ge  Ge12  1  0.13868468  0.63781156  -0.00000000  1
  Ge  Ge13  1  0.86131532  0.36218844  -0.00000000  1
  Sb  Sb14  1  0.20513597  0.00000000  0.41027195  1
  Sb  Sb15  1  0.79486403  -0.00000000  0.58972805  1
  Sb  Sb16  1  0.29486403  0.50000000  0.58972805  1
  Sb  Sb17  1  0.70513597  0.50000000  0.41027195  1
