# generated using pymatgen
data_TmB7Mo3
_symmetry_space_group_name_H-M   'P 1'
_cell_length_a   3.10328084
_cell_length_b   11.04587677
_cell_length_c   12.83924992
_cell_angle_alpha   90.00000000
_cell_angle_beta   90.00000000
_cell_angle_gamma   90.00000000
_symmetry_Int_Tables_number   1
_chemical_formula_structural   TmB7Mo3
_chemical_formula_sum   'Tm4 B28 Mo12'
_cell_volume   440.10968581
_cell_formula_units_Z   4
loop_
 _symmetry_equiv_pos_site_id
 _symmetry_equiv_pos_as_xyz
  1  'x, y, z'
loop_
 _atom_site_type_symbol
 _atom_site_label
 _atom_site_symmetry_multiplicity
 _atom_site_fract_x
 _atom_site_fract_y
 _atom_site_fract_z
 _atom_site_occupancy
  Tm  Tm0  1  0.75000000  0.55248493  0.30778459  1
  Tm  Tm1  1  0.25000000  0.44751507  0.69221541  1
  Tm  Tm2  1  0.25000000  0.94751507  0.80778459  1
  Tm  Tm3  1  0.75000000  0.05248493  0.19221541  1
  B  B4  1  0.75000000  0.74915615  0.17386881  1
  B  B5  1  0.25000000  0.25084385  0.82613119  1
  B  B6  1  0.25000000  0.75084385  0.67386881  1
  B  B7  1  0.75000000  0.24915615  0.32613119  1
  B  B8  1  0.75000000  0.93242635  0.38371302  1
  B  B9  1  0.25000000  0.06757365  0.61628698  1
  B  B10  1  0.25000000  0.56757365  0.88371302  1
  B  B11  1  0.75000000  0.43242635  0.11628698  1
  B  B12  1  0.75000000  0.98908598  0.63905125  1
  B  B13  1  0.25000000  0.01091402  0.36094875  1
  B  B14  1  0.25000000  0.51091402  0.13905125  1
  B  B15  1  0.75000000  0.48908598  0.86094875  1
  B  B16  1  0.75000000  0.76880301  0.41774478  1
  B  B17  1  0.25000000  0.23119699  0.58225522  1
  B  B18  1  0.25000000  0.73119699  0.91774478  1
  B  B19  1  0.75000000  0.26880301  0.08225522  1
  B  B20  1  0.75000000  0.96274092  0.98124646  1
  B  B21  1  0.25000000  0.03725908  0.01875354  1
  B  B22  1  0.25000000  0.53725908  0.48124646  1
  B  B23  1  0.75000000  0.46274092  0.51875354  1
  B  B24  1  0.75000000  0.81437310  0.93273848  1
  B  B25  1  0.25000000  0.18562690  0.06726152  1
  B  B26  1  0.25000000  0.68562690  0.43273848  1
  B  B27  1  0.75000000  0.31437310  0.56726152  1
  B  B28  1  0.75000000  0.83479838  0.66820892  1
  B  B29  1  0.25000000  0.16520162  0.33179108  1
  B  B30  1  0.25000000  0.66520162  0.16820892  1
  B  B31  1  0.75000000  0.33479838  0.83179108  1
  Mo  Mo32  1  0.75000000  0.11805924  0.47307510  1
  Mo  Mo33  1  0.25000000  0.88194076  0.52692490  1
  Mo  Mo34  1  0.25000000  0.38194076  0.97307510  1
  Mo  Mo35  1  0.75000000  0.61805924  0.02692490  1
  Mo  Mo36  1  0.75000000  0.65890935  0.56467358  1
  Mo  Mo37  1  0.25000000  0.34109065  0.43532642  1
  Mo  Mo38  1  0.25000000  0.84109065  0.06467358  1
  Mo  Mo39  1  0.75000000  0.15890935  0.93532642  1
  Mo  Mo40  1  0.75000000  0.68448802  0.79805520  1
  Mo  Mo41  1  0.25000000  0.31551198  0.20194480  1
  Mo  Mo42  1  0.25000000  0.81551198  0.29805520  1
  Mo  Mo43  1  0.75000000  0.18448802  0.70194480  1
