# generated using pymatgen
data_Li9Mn2Co5O16
_symmetry_space_group_name_H-M   'P 1'
_cell_length_a   2.88809297
_cell_length_b   19.59066411
_cell_length_c   5.21283676
_cell_angle_alpha   99.18628011
_cell_angle_beta   90.00000000
_cell_angle_gamma   90.00000000
_symmetry_Int_Tables_number   1
_chemical_formula_structural   Li9Mn2Co5O16
_chemical_formula_sum   'Li9 Mn2 Co5 O16'
_cell_volume   291.15777437
_cell_formula_units_Z   1
loop_
 _symmetry_equiv_pos_site_id
 _symmetry_equiv_pos_as_xyz
  1  'x, y, z'
loop_
 _atom_site_type_symbol
 _atom_site_label
 _atom_site_symmetry_multiplicity
 _atom_site_fract_x
 _atom_site_fract_y
 _atom_site_fract_z
 _atom_site_occupancy
  Li  Li0  1  0.50000000  0.99747856  0.50279411  1
  Li  Li1  1  0.00000000  0.12791729  0.75093177  1
  Li  Li2  1  0.50000000  0.25000000  -0.00000000  1
  Li  Li3  1  0.00000000  0.37208271  0.24906823  1
  Li  Li4  1  0.50000000  0.50252144  0.49720589  1
  Li  Li5  1  0.00000000  0.86803369  0.23076024  1
  Li  Li6  1  0.50000000  0.75000000  -0.00000000  1
  Li  Li7  1  0.00000000  0.63196631  0.76923976  1
  Li  Li8  1  -0.00000000  0.75000000  0.50000000  1
  Mn  Mn9  1  0.00000000  0.99954897  0.00227890  1
  Mn  Mn10  1  -0.00000000  0.50045103  0.99772110  1
  Co  Co11  1  0.50000000  0.12863392  0.25160313  1
  Co  Co12  1  0.00000000  0.25000000  0.50000000  1
  Co  Co13  1  0.50000000  0.37136608  0.74839687  1
  Co  Co14  1  0.50000000  0.63420514  0.28562328  1
  Co  Co15  1  0.50000000  0.86579486  0.71437672  1
  O  O16  1  0.50000000  0.94717256  0.12132074  1
  O  O17  1  -0.00000000  0.06269349  0.34091488  1
  O  O18  1  0.50000000  0.18714573  0.60193485  1
  O  O19  1  0.00000000  0.31661465  0.87765587  1
  O  O20  1  0.50000000  0.44433190  0.11202911  1
  O  O21  1  0.00000000  0.81860875  0.86695374  1
  O  O22  1  0.50000000  0.68083446  0.60827866  1
  O  O23  1  0.00000000  0.56087723  0.32706471  1
  O  O24  1  0.50000000  0.05566810  0.88797089  1
  O  O25  1  0.00000000  0.18338535  0.12234413  1
  O  O26  1  0.50000000  0.31285427  0.39806515  1
  O  O27  1  0.00000000  0.43730651  0.65908512  1
  O  O28  1  0.50000000  0.55282744  0.87867926  1
  O  O29  1  -0.00000000  0.93912277  0.67293529  1
  O  O30  1  0.50000000  0.81916554  0.39172134  1
  O  O31  1  0.00000000  0.68139125  0.13304626  1
