# generated using pymatgen
data_TlCr2FeO8
_symmetry_space_group_name_H-M   'P 1'
_cell_length_a   5.26743023
_cell_length_b   5.26743023
_cell_length_c   8.28753168
_cell_angle_alpha   86.19074443
_cell_angle_beta   86.19074443
_cell_angle_gamma   63.72598817
_symmetry_Int_Tables_number   1
_chemical_formula_structural   TlCr2FeO8
_chemical_formula_sum   'Tl1 Cr2 Fe1 O8'
_cell_volume   205.55642938
_cell_formula_units_Z   1
loop_
 _symmetry_equiv_pos_site_id
 _symmetry_equiv_pos_as_xyz
  1  'x, y, z'
loop_
 _atom_site_type_symbol
 _atom_site_label
 _atom_site_symmetry_multiplicity
 _atom_site_fract_x
 _atom_site_fract_y
 _atom_site_fract_z
 _atom_site_occupancy
  Tl  Tl0  1  0.00000000  0.00000000  0.50000000  1
  Cr  Cr1  1  0.36893294  0.36893294  0.80585672  1
  Cr  Cr2  1  0.63106706  0.63106706  0.19414328  1
  Fe  Fe3  1  0.00000000  0.00000000  0.00000000  1
  O  O4  1  0.31500391  0.31500391  0.62252437  1
  O  O5  1  0.68499609  0.68499609  0.37747563  1
  O  O6  1  0.72272377  0.22424179  0.82910586  1
  O  O7  1  0.27727623  0.77575821  0.17089414  1
  O  O8  1  0.77575821  0.27727623  0.17089414  1
  O  O9  1  0.22424179  0.72272377  0.82910586  1
  O  O10  1  0.22233757  0.22233757  0.94165414  1
  O  O11  1  0.77766243  0.77766243  0.05834586  1
