# generated using pymatgen
data_Tm2Si3Pd
_symmetry_space_group_name_H-M   'P 1'
_cell_length_a   7.73860620
_cell_length_b   8.16371705
_cell_length_c   8.16371705
_cell_angle_alpha   119.99999293
_cell_angle_beta   90.00000000
_cell_angle_gamma   90.00000000
_symmetry_Int_Tables_number   1
_chemical_formula_structural   Tm2Si3Pd
_chemical_formula_sum   'Tm8 Si12 Pd4'
_cell_volume   446.65201450
_cell_formula_units_Z   4
loop_
 _symmetry_equiv_pos_site_id
 _symmetry_equiv_pos_as_xyz
  1  'x, y, z'
loop_
 _atom_site_type_symbol
 _atom_site_label
 _atom_site_symmetry_multiplicity
 _atom_site_fract_x
 _atom_site_fract_y
 _atom_site_fract_z
 _atom_site_occupancy
  Tm  Tm0  1  0.75000000  0.48749030  0.51250970  1
  Tm  Tm1  1  0.25000000  0.51250970  0.48749030  1
  Tm  Tm2  1  0.75000000  0.02501940  0.51250970  1
  Tm  Tm3  1  0.25000000  0.97498060  0.48749030  1
  Tm  Tm4  1  0.75000000  0.48749030  0.97498060  1
  Tm  Tm5  1  0.25000000  0.51250970  0.02501940  1
  Tm  Tm6  1  0.75000000  -0.00000000  -0.00000000  1
  Tm  Tm7  1  0.25000000  -0.00000000  -0.00000000  1
  Si  Si8  1  0.99795462  0.83424497  0.16575503  1
  Si  Si9  1  0.00204538  0.16575503  0.83424497  1
  Si  Si10  1  0.99795462  0.33151005  0.16575503  1
  Si  Si11  1  0.49795462  0.16575503  0.83424497  1
  Si  Si12  1  0.00204538  0.66848995  0.83424497  1
  Si  Si13  1  0.50204538  0.83424497  0.16575503  1
  Si  Si14  1  0.99795462  0.83424497  0.66848995  1
  Si  Si15  1  0.49795462  0.66848995  0.83424497  1
  Si  Si16  1  0.00204538  0.16575503  0.33151005  1
  Si  Si17  1  0.50204538  0.33151005  0.16575503  1
  Si  Si18  1  0.49795462  0.16575503  0.33151005  1
  Si  Si19  1  0.50204538  0.83424497  0.66848995  1
  Pd  Pd20  1  0.95444455  0.66666700  0.33333300  1
  Pd  Pd21  1  0.04555545  0.33333300  0.66666700  1
  Pd  Pd22  1  0.45444455  0.33333300  0.66666700  1
  Pd  Pd23  1  0.54555545  0.66666700  0.33333300  1
