# generated using pymatgen
data_Tm5BiPd2
_symmetry_space_group_name_H-M   'P 1'
_cell_length_a   7.67541605
_cell_length_b   7.67541605
_cell_length_c   8.79328518
_cell_angle_alpha   115.87672089
_cell_angle_beta   115.87672089
_cell_angle_gamma   90.00000000
_symmetry_Int_Tables_number   1
_chemical_formula_structural   Tm5BiPd2
_chemical_formula_sum   'Tm10 Bi2 Pd4'
_cell_volume   407.58363906
_cell_formula_units_Z   2
loop_
 _symmetry_equiv_pos_site_id
 _symmetry_equiv_pos_as_xyz
  1  'x, y, z'
loop_
 _atom_site_type_symbol
 _atom_site_label
 _atom_site_symmetry_multiplicity
 _atom_site_fract_x
 _atom_site_fract_y
 _atom_site_fract_z
 _atom_site_occupancy
  Tm  Tm0  1  -0.00000000  -0.00000000  -0.00000000  1
  Tm  Tm1  1  0.50000000  0.50000000  -0.00000000  1
  Tm  Tm2  1  0.29429498  0.79429498  0.27859788  1
  Tm  Tm3  1  0.70570502  0.20570502  0.72140212  1
  Tm  Tm4  1  0.98430290  0.48430290  0.27859788  1
  Tm  Tm5  1  0.48430290  0.29429498  0.27859788  1
  Tm  Tm6  1  0.20570502  0.01569710  0.72140212  1
  Tm  Tm7  1  0.01569710  0.51569710  0.72140212  1
  Tm  Tm8  1  0.51569710  0.70570502  0.72140212  1
  Tm  Tm9  1  0.79429498  0.98430290  0.27859788  1
  Bi  Bi10  1  0.25000000  0.25000000  0.50000000  1
  Bi  Bi11  1  0.75000000  0.75000000  0.50000000  1
  Pd  Pd12  1  0.63907943  0.13907943  0.00000000  1
  Pd  Pd13  1  0.36092057  0.86092057  1.00000000  1
  Pd  Pd14  1  0.86092057  0.63907943  0.00000000  1
  Pd  Pd15  1  0.13907943  0.36092057  -0.00000000  1
