# generated using pymatgen
data_TlBi(MoO4)2
_symmetry_space_group_name_H-M   'P 1'
_cell_length_a   5.37423544
_cell_length_b   11.75997888
_cell_length_c   12.22342268
_cell_angle_alpha   90.00000000
_cell_angle_beta   90.00000000
_cell_angle_gamma   92.50657795
_symmetry_Int_Tables_number   1
_chemical_formula_structural   TlBi(MoO4)2
_chemical_formula_sum   'Tl4 Bi4 Mo8 O32'
_cell_volume   771.79210335
_cell_formula_units_Z   4
loop_
 _symmetry_equiv_pos_site_id
 _symmetry_equiv_pos_as_xyz
  1  'x, y, z'
loop_
 _atom_site_type_symbol
 _atom_site_label
 _atom_site_symmetry_multiplicity
 _atom_site_fract_x
 _atom_site_fract_y
 _atom_site_fract_z
 _atom_site_occupancy
  Tl  Tl0  1  0.01615718  0.87795464  0.37623202  1
  Tl  Tl1  1  0.98384282  0.12204536  0.62376798  1
  Tl  Tl2  1  0.48384282  0.12204536  0.87623202  1
  Tl  Tl3  1  0.51615718  0.87795464  0.12376798  1
  Bi  Bi4  1  0.49175786  0.37872878  0.12422097  1
  Bi  Bi5  1  0.50824214  0.62127122  0.87577903  1
  Bi  Bi6  1  0.00824214  0.62127122  0.62422097  1
  Bi  Bi7  1  0.99175786  0.37872878  0.37577903  1
  Mo  Mo8  1  0.02179474  0.61306139  0.11414302  1
  Mo  Mo9  1  0.97820526  0.38693861  0.88585698  1
  Mo  Mo10  1  0.47820526  0.38693861  0.61414302  1
  Mo  Mo11  1  0.52179474  0.61306139  0.38585698  1
  Mo  Mo12  1  0.99369339  0.15498258  0.14601272  1
  Mo  Mo13  1  0.00630661  0.84501742  0.85398728  1
  Mo  Mo14  1  0.50630661  0.84501742  0.64601272  1
  Mo  Mo15  1  0.49369339  0.15498258  0.35398728  1
  O  O16  1  0.07948350  0.27695710  0.80248277  1
  O  O17  1  0.92051650  0.72304290  0.19751723  1
  O  O18  1  0.42051650  0.72304290  0.30248277  1
  O  O19  1  0.57948350  0.27695710  0.69751723  1
  O  O20  1  0.14756529  0.49948541  0.19702259  1
  O  O21  1  0.85243471  0.50051459  0.80297741  1
  O  O22  1  0.35243471  0.50051459  0.69702259  1
  O  O23  1  0.64756529  0.49948541  0.30297741  1
  O  O24  1  0.23721745  0.32334111  0.52699597  1
  O  O25  1  0.76278255  0.67665889  0.47300403  1
  O  O26  1  0.26278255  0.67665889  0.02699597  1
  O  O27  1  0.73721745  0.32334111  0.97300403  1
  O  O28  1  0.16093749  0.05864968  0.22768486  1
  O  O29  1  0.83906251  0.94135032  0.77231514  1
  O  O30  1  0.33906251  0.94135032  0.72768486  1
  O  O31  1  0.66093749  0.05864968  0.27231514  1
  O  O32  1  0.25051142  0.55099205  0.46009710  1
  O  O33  1  0.74948858  0.44900795  0.53990290  1
  O  O34  1  0.24948858  0.44900795  0.96009710  1
  O  O35  1  0.75051142  0.55099205  0.03990290  1
  O  O36  1  0.31381410  0.27580752  0.29098119  1
  O  O37  1  0.68618590  0.72419248  0.70901881  1
  O  O38  1  0.18618590  0.72419248  0.79098119  1
  O  O39  1  0.81381410  0.27580752  0.20901881  1
  O  O40  1  0.23796799  0.22924432  0.06338139  1
  O  O41  1  0.76203201  0.77075568  0.93661861  1
  O  O42  1  0.26203201  0.77075568  0.56338139  1
  O  O43  1  0.73796799  0.22924432  0.43661861  1
  O  O44  1  0.31347873  0.07740799  0.44951674  1
  O  O45  1  0.68652127  0.92259201  0.55048326  1
  O  O46  1  0.18652127  0.92259201  0.94951674  1
  O  O47  1  0.81347873  0.07740799  0.05048326  1
