# generated using pymatgen
data_Tb4MgCo
_symmetry_space_group_name_H-M   'P 1'
_cell_length_a   9.59914123
_cell_length_b   9.59914123
_cell_length_c   9.59914123
_cell_angle_alpha   60.00000000
_cell_angle_beta   60.00000000
_cell_angle_gamma   60.00000000
_symmetry_Int_Tables_number   1
_chemical_formula_structural   Tb4MgCo
_chemical_formula_sum   'Tb16 Mg4 Co4'
_cell_volume   625.43495063
_cell_formula_units_Z   4
loop_
 _symmetry_equiv_pos_site_id
 _symmetry_equiv_pos_as_xyz
  1  'x, y, z'
loop_
 _atom_site_type_symbol
 _atom_site_label
 _atom_site_symmetry_multiplicity
 _atom_site_fract_x
 _atom_site_fract_y
 _atom_site_fract_z
 _atom_site_occupancy
  Tb  Tb0  1  0.81343590  0.81343590  0.18656410  1
  Tb  Tb1  1  0.18656410  0.18656410  0.81343590  1
  Tb  Tb2  1  0.81343590  0.18656410  0.81343590  1
  Tb  Tb3  1  0.18656410  0.81343590  0.18656410  1
  Tb  Tb4  1  0.18656410  0.81343590  0.81343590  1
  Tb  Tb5  1  0.81343590  0.18656410  0.18656410  1
  Tb  Tb6  1  0.43677950  0.43677950  0.06322050  1
  Tb  Tb7  1  0.06322050  0.06322050  0.43677950  1
  Tb  Tb8  1  0.43677950  0.06322050  0.43677950  1
  Tb  Tb9  1  0.06322050  0.43677950  0.06322050  1
  Tb  Tb10  1  0.06322050  0.43677950  0.43677950  1
  Tb  Tb11  1  0.43677950  0.06322050  0.06322050  1
  Tb  Tb12  1  0.65540669  0.65540669  0.65540669  1
  Tb  Tb13  1  0.03377993  0.65540669  0.65540669  1
  Tb  Tb14  1  0.65540669  0.03377993  0.65540669  1
  Tb  Tb15  1  0.65540669  0.65540669  0.03377993  1
  Mg  Mg16  1  0.42091913  0.42091913  0.42091913  1
  Mg  Mg17  1  0.73724261  0.42091913  0.42091913  1
  Mg  Mg18  1  0.42091913  0.73724261  0.42091913  1
  Mg  Mg19  1  0.42091913  0.42091913  0.73724261  1
  Co  Co20  1  0.85937323  0.85937323  0.85937323  1
  Co  Co21  1  0.42188030  0.85937323  0.85937323  1
  Co  Co22  1  0.85937323  0.42188030  0.85937323  1
  Co  Co23  1  0.85937323  0.85937323  0.42188030  1
