# generated using pymatgen
data_Tb4MgRh
_symmetry_space_group_name_H-M   'P 1'
_cell_length_a   9.73543980
_cell_length_b   9.73543980
_cell_length_c   9.73543980
_cell_angle_alpha   60.00000000
_cell_angle_beta   60.00000000
_cell_angle_gamma   60.00000000
_symmetry_Int_Tables_number   1
_chemical_formula_structural   Tb4MgRh
_chemical_formula_sum   'Tb16 Mg4 Rh4'
_cell_volume   652.45675069
_cell_formula_units_Z   4
loop_
 _symmetry_equiv_pos_site_id
 _symmetry_equiv_pos_as_xyz
  1  'x, y, z'
loop_
 _atom_site_type_symbol
 _atom_site_label
 _atom_site_symmetry_multiplicity
 _atom_site_fract_x
 _atom_site_fract_y
 _atom_site_fract_z
 _atom_site_occupancy
  Tb  Tb0  1  0.65193789  0.65193789  0.65193789  1
  Tb  Tb1  1  0.04418634  0.65193789  0.65193789  1
  Tb  Tb2  1  0.65193789  0.04418634  0.65193789  1
  Tb  Tb3  1  0.65193789  0.65193789  0.04418634  1
  Tb  Tb4  1  0.81305934  0.81305934  0.18694066  1
  Tb  Tb5  1  0.18694066  0.18694066  0.81305934  1
  Tb  Tb6  1  0.81305934  0.18694066  0.81305934  1
  Tb  Tb7  1  0.18694066  0.81305934  0.18694066  1
  Tb  Tb8  1  0.18694066  0.81305934  0.81305934  1
  Tb  Tb9  1  0.81305934  0.18694066  0.18694066  1
  Tb  Tb10  1  0.43534639  0.43534639  0.06465361  1
  Tb  Tb11  1  0.06465361  0.06465361  0.43534639  1
  Tb  Tb12  1  0.43534639  0.06465361  0.43534639  1
  Tb  Tb13  1  0.06465361  0.43534639  0.06465361  1
  Tb  Tb14  1  0.06465361  0.43534639  0.43534639  1
  Tb  Tb15  1  0.43534639  0.06465361  0.06465361  1
  Mg  Mg16  1  0.42042233  0.42042233  0.42042233  1
  Mg  Mg17  1  0.73873302  0.42042233  0.42042233  1
  Mg  Mg18  1  0.42042233  0.73873302  0.42042233  1
  Mg  Mg19  1  0.42042233  0.42042233  0.73873302  1
  Rh  Rh20  1  0.85760173  0.85760173  0.85760173  1
  Rh  Rh21  1  0.42719481  0.85760173  0.85760173  1
  Rh  Rh22  1  0.85760173  0.42719481  0.85760173  1
  Rh  Rh23  1  0.85760173  0.85760173  0.42719481  1
