# generated using pymatgen
data_TbTl(MoO4)2
_symmetry_space_group_name_H-M   'P 1'
_cell_length_a   5.15809267
_cell_length_b   8.17990795
_cell_length_c   18.80718571
_cell_angle_alpha   90.00000000
_cell_angle_beta   90.00000000
_cell_angle_gamma   90.00000000
_symmetry_Int_Tables_number   1
_chemical_formula_structural   TbTl(MoO4)2
_chemical_formula_sum   'Tb4 Tl4 Mo8 O32'
_cell_volume   793.52638155
_cell_formula_units_Z   4
loop_
 _symmetry_equiv_pos_site_id
 _symmetry_equiv_pos_as_xyz
  1  'x, y, z'
loop_
 _atom_site_type_symbol
 _atom_site_label
 _atom_site_symmetry_multiplicity
 _atom_site_fract_x
 _atom_site_fract_y
 _atom_site_fract_z
 _atom_site_occupancy
  Tb  Tb0  1  -0.00000000  0.75000000  0.99357943  1
  Tb  Tb1  1  -0.00000000  0.25000000  0.00642057  1
  Tb  Tb2  1  0.50000000  0.25000000  0.50642057  1
  Tb  Tb3  1  0.50000000  0.75000000  0.49357943  1
  Tl  Tl4  1  -0.00000000  0.75000000  0.23023351  1
  Tl  Tl5  1  -0.00000000  0.25000000  0.76976649  1
  Tl  Tl6  1  0.50000000  0.25000000  0.26976649  1
  Tl  Tl7  1  0.50000000  0.75000000  0.73023351  1
  Mo  Mo8  1  0.97733628  0.98371366  0.60005078  1
  Mo  Mo9  1  0.02266372  0.01628634  0.39994922  1
  Mo  Mo10  1  0.52266372  0.48371366  0.89994922  1
  Mo  Mo11  1  0.02266372  0.51628634  0.60005078  1
  Mo  Mo12  1  0.47733628  0.51628634  0.10005078  1
  Mo  Mo13  1  0.97733628  0.48371366  0.39994922  1
  Mo  Mo14  1  0.47733628  0.01628634  0.89994922  1
  Mo  Mo15  1  0.52266372  0.98371366  0.10005078  1
  O  O16  1  0.89918761  0.52458516  0.68728897  1
  O  O17  1  0.10081239  0.47541484  0.31271103  1
  O  O18  1  0.60081239  0.02458516  0.81271103  1
  O  O19  1  0.10081239  0.97541484  0.68728897  1
  O  O20  1  0.39918761  0.97541484  0.18728897  1
  O  O21  1  0.89918761  0.02458516  0.31271103  1
  O  O22  1  0.39918761  0.47541484  0.81271103  1
  O  O23  1  0.60081239  0.52458516  0.18728897  1
  O  O24  1  0.72997267  0.66000318  0.90193285  1
  O  O25  1  0.27002733  0.33999682  0.09806715  1
  O  O26  1  0.77002733  0.16000318  0.59806715  1
  O  O27  1  0.27002733  0.83999682  0.90193285  1
  O  O28  1  0.22997267  0.83999682  0.40193285  1
  O  O29  1  0.72997267  0.16000318  0.09806715  1
  O  O30  1  0.22997267  0.33999682  0.59806715  1
  O  O31  1  0.77002733  0.66000318  0.40193285  1
  O  O32  1  0.75155614  0.99537292  0.96444596  1
  O  O33  1  0.24844386  0.00462708  0.03555404  1
  O  O34  1  0.74844386  0.49537292  0.53555404  1
  O  O35  1  0.24844386  0.50462708  0.96444596  1
  O  O36  1  0.25155614  0.50462708  0.46444596  1
  O  O37  1  0.75155614  0.49537292  0.03555404  1
  O  O38  1  0.25155614  0.00462708  0.53555404  1
  O  O39  1  0.74844386  0.99537292  0.46444596  1
  O  O40  1  0.75816843  0.81113807  0.59059805  1
  O  O41  1  0.24183157  0.18886193  0.40940195  1
  O  O42  1  0.74183157  0.31113807  0.90940195  1
  O  O43  1  0.24183157  0.68886193  0.59059805  1
  O  O44  1  0.25816843  0.68886193  0.09059805  1
  O  O45  1  0.75816843  0.31113807  0.40940195  1
  O  O46  1  0.25816843  0.18886193  0.90940195  1
  O  O47  1  0.74183157  0.81113807  0.09059805  1
