# generated using pymatgen
data_Li9Mn2Co5O16
_symmetry_space_group_name_H-M   'P 1'
_cell_length_a   2.91756844
_cell_length_b   9.78109625
_cell_length_c   10.33437637
_cell_angle_alpha   100.27318942
_cell_angle_beta   90.00000000
_cell_angle_gamma   90.00000000
_symmetry_Int_Tables_number   1
_chemical_formula_structural   Li9Mn2Co5O16
_chemical_formula_sum   'Li9 Mn2 Co5 O16'
_cell_volume   290.18442436
_cell_formula_units_Z   1
loop_
 _symmetry_equiv_pos_site_id
 _symmetry_equiv_pos_as_xyz
  1  'x, y, z'
loop_
 _atom_site_type_symbol
 _atom_site_label
 _atom_site_symmetry_multiplicity
 _atom_site_fract_x
 _atom_site_fract_y
 _atom_site_fract_z
 _atom_site_occupancy
  Li  Li0  1  0.50000000  0.00000000  0.25000000  1
  Li  Li1  1  0.50000000  0.00000000  0.75000000  1
  Li  Li2  1  -0.00000000  0.25685513  0.37239166  1
  Li  Li3  1  -0.00000000  0.25838134  0.88239513  1
  Li  Li4  1  0.50000000  0.49924803  0.48785534  1
  Li  Li5  1  0.50000000  0.50075197  0.01214466  1
  Li  Li6  1  -0.00000000  0.74314487  0.12760834  1
  Li  Li7  1  -0.00000000  0.74161866  0.61760487  1
  Li  Li8  1  -0.00000000  0.50000000  0.25000000  1
  Mn  Mn9  1  -0.00000000  0.00459386  0.00084716  1
  Mn  Mn10  1  0.00000000  0.99540614  0.49915284  1
  Co  Co11  1  0.50000000  0.27144861  0.14222555  1
  Co  Co12  1  0.50000000  0.25391618  0.62724433  1
  Co  Co13  1  -0.00000000  0.50000000  0.75000000  1
  Co  Co14  1  0.50000000  0.72855139  0.35777445  1
  Co  Co15  1  0.50000000  0.74608382  0.87275567  1
  O  O16  1  0.50000000  0.88985315  0.05364105  1
  O  O17  1  0.50000000  0.88971603  0.55818442  1
  O  O18  1  0.00000000  0.12106068  0.16810925  1
  O  O19  1  -0.00000000  0.12458469  0.67228599  1
  O  O20  1  0.50000000  0.36491988  0.30803093  1
  O  O21  1  0.50000000  0.37968243  0.80439785  1
  O  O22  1  -0.00000000  0.63467315  0.92963780  1
  O  O23  1  -0.00000000  0.63496622  0.43613679  1
  O  O24  1  0.50000000  0.11014685  0.44635895  1
  O  O25  1  0.50000000  0.11028397  0.94181558  1
  O  O26  1  -0.00000000  0.36532685  0.57036220  1
  O  O27  1  -0.00000000  0.36503378  0.06386321  1
  O  O28  1  0.50000000  0.62031757  0.69560215  1
  O  O29  1  0.50000000  0.63508012  0.19196907  1
  O  O30  1  -0.00000000  0.87893932  0.33189075  1
  O  O31  1  -0.00000000  0.87541531  0.82771401  1
