# generated using pymatgen
data_Tb5(SiSb)2
_symmetry_space_group_name_H-M   'P 1'
_cell_length_a   7.86380320
_cell_length_b   7.88996981
_cell_length_c   8.56042605
_cell_angle_alpha   90.00000000
_cell_angle_beta   117.34268478
_cell_angle_gamma   90.00000000
_symmetry_Int_Tables_number   1
_chemical_formula_structural   Tb5(SiSb)2
_chemical_formula_sum   'Tb10 Si4 Sb4'
_cell_volume   471.79240152
_cell_formula_units_Z   2
loop_
 _symmetry_equiv_pos_site_id
 _symmetry_equiv_pos_as_xyz
  1  'x, y, z'
loop_
 _atom_site_type_symbol
 _atom_site_label
 _atom_site_symmetry_multiplicity
 _atom_site_fract_x
 _atom_site_fract_y
 _atom_site_fract_z
 _atom_site_occupancy
  Tb  Tb0  1  0.29591549  0.33164639  0.25337399  1
  Tb  Tb1  1  0.70408451  0.66835361  0.74662601  1
  Tb  Tb2  1  0.20408451  0.83164639  0.74662601  1
  Tb  Tb3  1  0.54254150  0.16835361  0.74662601  1
  Tb  Tb4  1  0.79591549  0.16835361  0.25337399  1
  Tb  Tb5  1  0.45745850  0.83164639  0.25337399  1
  Tb  Tb6  1  0.95745850  0.66835361  0.25337399  1
  Tb  Tb7  1  0.04254150  0.33164639  0.74662601  1
  Tb  Tb8  1  -0.00000000  -0.00000000  0.00000000  1
  Tb  Tb9  1  0.50000000  0.50000000  -0.00000000  1
  Si  Si10  1  0.37374834  0.12550012  0.00000000  1
  Si  Si11  1  0.62625166  0.87449988  0.00000000  1
  Si  Si12  1  0.12625166  0.62550012  0.00000000  1
  Si  Si13  1  0.87374834  0.37449988  -0.00000000  1
  Sb  Sb14  1  0.20619766  -0.00000000  0.41239532  1
  Sb  Sb15  1  0.79380234  -0.00000000  0.58760468  1
  Sb  Sb16  1  0.29380234  0.50000000  0.58760468  1
  Sb  Sb17  1  0.70619766  0.50000000  0.41239532  1
