# generated using pymatgen
data_Tb4(Al8Pt3)3
_symmetry_space_group_name_H-M   'P 1'
_cell_length_a   7.51564631
_cell_length_b   7.55051832
_cell_length_c   13.22481784
_cell_angle_alpha   84.59319003
_cell_angle_beta   79.21890667
_cell_angle_gamma   59.92573495
_symmetry_Int_Tables_number   1
_chemical_formula_structural   Tb4(Al8Pt3)3
_chemical_formula_sum   'Tb4 Al24 Pt9'
_cell_volume   637.97504428
_cell_formula_units_Z   1
loop_
 _symmetry_equiv_pos_site_id
 _symmetry_equiv_pos_as_xyz
  1  'x, y, z'
loop_
 _atom_site_type_symbol
 _atom_site_label
 _atom_site_symmetry_multiplicity
 _atom_site_fract_x
 _atom_site_fract_y
 _atom_site_fract_z
 _atom_site_occupancy
  Tb  Tb0  1  0.39354184  0.16845010  0.80784994  1
  Tb  Tb1  1  0.60645816  0.83154990  0.19215006  1
  Tb  Tb2  1  0.73414472  0.49838588  0.80758718  1
  Tb  Tb3  1  0.26585528  0.50161412  0.19241282  1
  Al  Al4  1  0.68479645  0.83344221  0.94446335  1
  Al  Al5  1  0.31520355  0.16655779  0.05553665  1
  Al  Al6  1  0.14728683  0.83212246  0.56083470  1
  Al  Al7  1  0.85271317  0.16787754  0.43916530  1
  Al  Al8  1  0.47977603  0.16691098  0.55872070  1
  Al  Al9  1  0.52022397  0.83308902  0.44127930  1
  Al  Al10  1  0.21699310  0.16546510  0.32995130  1
  Al  Al11  1  0.78300690  0.83453490  0.67004870  1
  Al  Al12  1  0.43783780  0.50608806  0.66999516  1
  Al  Al13  1  0.56216220  0.49391194  0.33000484  1
  Al  Al14  1  0.10996565  0.15979869  0.66932148  1
  Al  Al15  1  0.89003435  0.84020131  0.33067852  1
  Al  Al16  1  0.35341517  0.49883238  0.94479945  1
  Al  Al17  1  0.64658483  0.50116762  0.05520055  1
  Al  Al18  1  0.01422101  0.16813721  0.95330603  1
  Al  Al19  1  0.98577899  0.83186279  0.04669397  1
  Al  Al20  1  0.18677541  0.49863602  0.44110766  1
  Al  Al21  1  0.81322459  0.50136398  0.55889234  1
  Al  Al22  1  0.73421734  0.16410268  0.18299613  1
  Al  Al23  1  0.26578266  0.83589732  0.81700387  1
  Al  Al24  1  0.06189377  0.63196143  0.81571359  1
  Al  Al25  1  0.93810623  0.36803857  0.18428641  1
  Al  Al26  1  0.85448170  0.04149287  0.81608650  1
  Al  Al27  1  0.14551830  0.95850713  0.18391350  1
  Pt  Pt28  1  0.12030973  0.49296123  0.63855096  1
  Pt  Pt29  1  0.87969027  0.50703877  0.36144904  1
  Pt  Pt30  1  0.65747054  0.17094107  0.99990494  1
  Pt  Pt31  1  0.34252946  0.82905893  0.00009506  1
  Pt  Pt32  1  0.53877753  0.16671902  0.36136177  1
  Pt  Pt33  1  0.46122247  0.83328098  0.63863823  1
  Pt  Pt34  1  0.77989266  0.17421077  0.63683800  1
  Pt  Pt35  1  0.22010734  0.82578923  0.36316200  1
  Pt  Pt36  1  0.00000000  0.50000000  0.00000000  1
