# generated using pymatgen
data_TbAgS2
_symmetry_space_group_name_H-M   'P 1'
_cell_length_a   7.67973316
_cell_length_b   7.67725942
_cell_length_c   12.65202710
_cell_angle_alpha   90.00000000
_cell_angle_beta   89.93461710
_cell_angle_gamma   90.00000000
_symmetry_Int_Tables_number   1
_chemical_formula_structural   TbAgS2
_chemical_formula_sum   'Tb8 Ag8 S16'
_cell_volume   745.95422309
_cell_formula_units_Z   8
loop_
 _symmetry_equiv_pos_site_id
 _symmetry_equiv_pos_as_xyz
  1  'x, y, z'
loop_
 _atom_site_type_symbol
 _atom_site_label
 _atom_site_symmetry_multiplicity
 _atom_site_fract_x
 _atom_site_fract_y
 _atom_site_fract_z
 _atom_site_occupancy
  Tb  Tb0  1  0.50209385  0.27530804  0.25417424  1
  Tb  Tb1  1  0.49790615  0.77530804  0.74582576  1
  Tb  Tb2  1  0.24615398  0.02786363  0.50265581  1
  Tb  Tb3  1  0.75384602  0.52786363  0.49734419  1
  Tb  Tb4  1  0.99879019  0.28334224  0.75313915  1
  Tb  Tb5  1  0.00120981  0.78334224  0.24686085  1
  Tb  Tb6  1  0.25295736  0.52960052  0.00341199  1
  Tb  Tb7  1  0.74704264  0.02960052  0.99658801  1
  Ag  Ag8  1  0.00029453  0.28113500  0.28645513  1
  Ag  Ag9  1  0.99970547  0.78113500  0.71354487  1
  Ag  Ag10  1  0.25417743  0.52872087  0.52617311  1
  Ag  Ag11  1  0.74582257  0.02872087  0.47382689  1
  Ag  Ag12  1  0.49744173  0.77849275  0.19929351  1
  Ag  Ag13  1  0.50255827  0.27849275  0.80070649  1
  Ag  Ag14  1  0.24467252  0.03060924  0.02302661  1
  Ag  Ag15  1  0.75532748  0.53060924  0.97697339  1
  S  S16  1  0.27197715  0.54967963  0.22287776  1
  S  S17  1  0.72802285  0.04967963  0.77712224  1
  S  S18  1  0.47459519  0.25363620  0.03434084  1
  S  S19  1  0.52540481  0.75363620  0.96565916  1
  S  S20  1  0.02410025  0.30244763  0.53490118  1
  S  S21  1  0.97589975  0.80244763  0.46509882  1
  S  S22  1  0.22781510  0.05239208  0.28487758  1
  S  S23  1  0.77218490  0.55239208  0.71512242  1
  S  S24  1  0.51969993  0.25859407  0.47331643  1
  S  S25  1  0.48030007  0.75859407  0.52668357  1
  S  S26  1  0.22791957  0.00823152  0.72283967  1
  S  S27  1  0.77208043  0.50823152  0.27716033  1
  S  S28  1  0.02149415  0.80118008  0.02690696  1
  S  S29  1  0.97850585  0.30118008  0.97309304  1
  S  S30  1  0.72711704  0.00556651  0.21456964  1
  S  S31  1  0.27288296  0.50556651  0.78543036  1
