# generated using pymatgen
data_TlCu(PO3)3
_symmetry_space_group_name_H-M   'P 1'
_cell_length_a   5.38922456
_cell_length_b   11.55679960
_cell_length_c   13.26354989
_cell_angle_alpha   90.00000000
_cell_angle_beta   99.41018471
_cell_angle_gamma   90.00000000
_symmetry_Int_Tables_number   1
_chemical_formula_structural   TlCu(PO3)3
_chemical_formula_sum   'Tl4 Cu4 P12 O36'
_cell_volume   814.96640705
_cell_formula_units_Z   4
loop_
 _symmetry_equiv_pos_site_id
 _symmetry_equiv_pos_as_xyz
  1  'x, y, z'
loop_
 _atom_site_type_symbol
 _atom_site_label
 _atom_site_symmetry_multiplicity
 _atom_site_fract_x
 _atom_site_fract_y
 _atom_site_fract_z
 _atom_site_occupancy
  Tl  Tl0  1  0.06732993  0.82767014  0.25556516  1
  Tl  Tl1  1  0.93267007  0.17232986  0.74443484  1
  Tl  Tl2  1  0.93267007  0.32767014  0.24443484  1
  Tl  Tl3  1  0.06732993  0.67232986  0.75556516  1
  Cu  Cu4  1  -0.00000000  -0.00000000  0.50000000  1
  Cu  Cu5  1  -0.00000000  0.50000000  0.00000000  1
  Cu  Cu6  1  -0.00000000  -0.00000000  0.00000000  1
  Cu  Cu7  1  -0.00000000  0.50000000  0.50000000  1
  P  P8  1  0.48513197  0.08797158  0.37020926  1
  P  P9  1  0.51486803  0.91202842  0.62979074  1
  P  P10  1  0.51486803  0.58797158  0.12979074  1
  P  P11  1  0.48513197  0.41202842  0.87020926  1
  P  P12  1  0.51132901  0.07542466  0.14738105  1
  P  P13  1  0.48867099  0.92457534  0.85261895  1
  P  P14  1  0.48867099  0.57542466  0.35261895  1
  P  P15  1  0.51132901  0.42457534  0.64738105  1
  P  P16  1  0.24928903  0.24733979  0.50809511  1
  P  P17  1  0.75071097  0.75266021  0.49190489  1
  P  P18  1  0.75071097  0.74733979  0.99190489  1
  P  P19  1  0.24928903  0.25266021  0.00809511  1
  O  O20  1  0.32801336  0.98649989  0.38955531  1
  O  O21  1  0.67198664  0.01350011  0.61044469  1
  O  O22  1  0.67198664  0.48649989  0.11044469  1
  O  O23  1  0.32801336  0.51350011  0.88955531  1
  O  O24  1  0.23227334  0.58930622  0.09957773  1
  O  O25  1  0.76772666  0.41069378  0.90042227  1
  O  O26  1  0.76772666  0.08930622  0.40042227  1
  O  O27  1  0.23227334  0.91069378  0.59957773  1
  O  O28  1  0.21856749  0.54182153  0.33491555  1
  O  O29  1  0.78143251  0.45817847  0.66508445  1
  O  O30  1  0.78143251  0.04182153  0.16508445  1
  O  O31  1  0.21856749  0.95817847  0.83491555  1
  O  O32  1  0.05915883  0.33891523  0.46818934  1
  O  O33  1  0.94084117  0.66108477  0.53181066  1
  O  O34  1  0.94084117  0.83891523  0.03181066  1
  O  O35  1  0.05915883  0.16108477  0.96818934  1
  O  O36  1  0.48242194  0.19617135  0.08286738  1
  O  O37  1  0.51757806  0.80382865  0.91713262  1
  O  O38  1  0.51757806  0.69617135  0.41713262  1
  O  O39  1  0.48242194  0.30382865  0.58286738  1
  O  O40  1  0.15729355  0.35463996  0.06303363  1
  O  O41  1  0.84270645  0.64536004  0.93696637  1
  O  O42  1  0.84270645  0.85463996  0.43696637  1
  O  O43  1  0.15729355  0.14536004  0.56303363  1
  O  O44  1  0.42443899  0.12598867  0.25093329  1
  O  O45  1  0.57556101  0.87401133  0.74906671  1
  O  O46  1  0.57556101  0.62598867  0.24906671  1
  O  O47  1  0.42443899  0.37401133  0.75093329  1
  O  O48  1  0.37632983  0.20719060  0.41321748  1
  O  O49  1  0.62367017  0.79280940  0.58678252  1
  O  O50  1  0.62367017  0.70719060  0.08678252  1
  O  O51  1  0.37632983  0.29280940  0.91321748  1
  O  O52  1  0.31688114  0.51164553  0.59958486  1
  O  O53  1  0.68311886  0.48835447  0.40041514  1
  O  O54  1  0.68311886  0.01164553  0.90041514  1
  O  O55  1  0.31688114  0.98835447  0.09958486  1
