# generated using pymatgen
data_Tb2Si4CN6
_symmetry_space_group_name_H-M   'P 1'
_cell_length_a   5.97331736
_cell_length_b   9.97760001
_cell_length_c   10.40322274
_cell_angle_alpha   90.00000000
_cell_angle_beta   89.63377523
_cell_angle_gamma   90.00000000
_symmetry_Int_Tables_number   1
_chemical_formula_structural   Tb2Si4CN6
_chemical_formula_sum   'Tb8 Si16 C4 N24'
_cell_volume   620.01286943
_cell_formula_units_Z   4
loop_
 _symmetry_equiv_pos_site_id
 _symmetry_equiv_pos_as_xyz
  1  'x, y, z'
loop_
 _atom_site_type_symbol
 _atom_site_label
 _atom_site_symmetry_multiplicity
 _atom_site_fract_x
 _atom_site_fract_y
 _atom_site_fract_z
 _atom_site_occupancy
  Tb  Tb0  1  0.24090683  0.41450125  0.41929229  1
  Tb  Tb1  1  0.75909317  0.58549875  0.58070771  1
  Tb  Tb2  1  0.25909317  0.91450125  0.08070771  1
  Tb  Tb3  1  0.74090683  0.08549875  0.91929229  1
  Tb  Tb4  1  0.23637403  0.56441378  0.09541675  1
  Tb  Tb5  1  0.76362597  0.43558622  0.90458325  1
  Tb  Tb6  1  0.26362597  0.06441378  0.40458325  1
  Tb  Tb7  1  0.73637403  0.93558622  0.59541675  1
  Si  Si8  1  0.74505278  0.21325011  0.42044116  1
  Si  Si9  1  0.25494722  0.78674989  0.57955884  1
  Si  Si10  1  0.75494722  0.71325011  0.07955884  1
  Si  Si11  1  0.24505278  0.28674989  0.92044116  1
  Si  Si12  1  0.51770285  0.22792732  0.15906235  1
  Si  Si13  1  0.48229715  0.77207268  0.84093765  1
  Si  Si14  1  0.98229715  0.72792732  0.34093765  1
  Si  Si15  1  0.01770285  0.27207268  0.65906235  1
  Si  Si16  1  0.75608782  0.48036057  0.24929657  1
  Si  Si17  1  0.24391218  0.51963943  0.75070343  1
  Si  Si18  1  0.74391218  0.98036057  0.25070343  1
  Si  Si19  1  0.25608782  0.01963943  0.74929657  1
  Si  Si20  1  0.02519284  0.20583528  0.17632432  1
  Si  Si21  1  0.97480716  0.79416472  0.82367568  1
  Si  Si22  1  0.47480716  0.70583528  0.32367568  1
  Si  Si23  1  0.52519284  0.29416472  0.67632432  1
  C  C24  1  0.77093181  0.29196983  0.25219450  1
  C  C25  1  0.22906819  0.70803017  0.74780550  1
  C  C26  1  0.72906819  0.79196983  0.24780550  1
  C  C27  1  0.27093181  0.20803017  0.75219450  1
  N  N28  1  0.65997100  0.04581691  0.39912997  1
  N  N29  1  0.34002900  0.95418309  0.60087003  1
  N  N30  1  0.84002900  0.54581691  0.10087003  1
  N  N31  1  0.15997100  0.45418309  0.89912997  1
  N  N32  1  0.56299513  0.05391742  0.13802173  1
  N  N33  1  0.43700487  0.94608258  0.86197827  1
  N  N34  1  0.93700487  0.55391742  0.36197827  1
  N  N35  1  0.06299513  0.44608258  0.63802173  1
  N  N36  1  0.01686487  0.03625194  0.22288762  1
  N  N37  1  0.98313513  0.96374806  0.77711238  1
  N  N38  1  0.48313513  0.53625194  0.27711238  1
  N  N39  1  0.51686487  0.46374806  0.72288762  1
  N  N40  1  0.50417101  0.29058753  0.00147333  1
  N  N41  1  0.49582899  0.70941247  0.99852667  1
  N  N42  1  0.99582899  0.79058753  0.49852667  1
  N  N43  1  0.00417101  0.20941247  0.50147333  1
  N  N44  1  0.27221046  0.26421280  0.24509388  1
  N  N45  1  0.72778954  0.73578720  0.75490612  1
  N  N46  1  0.22778954  0.76421280  0.25490612  1
  N  N47  1  0.77221046  0.23578720  0.74509388  1
  N  N48  1  0.03446482  0.21097849  0.00969808  1
  N  N49  1  0.96553518  0.78902151  0.99030192  1
  N  N50  1  0.46553518  0.71097849  0.49030192  1
  N  N51  1  0.53446482  0.28902151  0.50969808  1
