# generated using pymatgen
data_Ti11CuP8
_symmetry_space_group_name_H-M   'P 1'
_cell_length_a   3.42848461
_cell_length_b   9.42162695
_cell_length_c   18.46981193
_cell_angle_alpha   90.00000000
_cell_angle_beta   90.00000000
_cell_angle_gamma   90.00000000
_symmetry_Int_Tables_number   1
_chemical_formula_structural   Ti11CuP8
_chemical_formula_sum   'Ti22 Cu2 P16'
_cell_volume   596.61007338
_cell_formula_units_Z   2
loop_
 _symmetry_equiv_pos_site_id
 _symmetry_equiv_pos_as_xyz
  1  'x, y, z'
loop_
 _atom_site_type_symbol
 _atom_site_label
 _atom_site_symmetry_multiplicity
 _atom_site_fract_x
 _atom_site_fract_y
 _atom_site_fract_z
 _atom_site_occupancy
  Ti  Ti0  1  0.50000000  0.27072568  0.30258143  1
  Ti  Ti1  1  0.50000000  0.72927432  0.69741857  1
  Ti  Ti2  1  0.50000000  0.22927432  0.80258143  1
  Ti  Ti3  1  0.50000000  0.77072568  0.19741857  1
  Ti  Ti4  1  -0.00000000  0.18803130  0.43146220  1
  Ti  Ti5  1  0.00000000  0.81196870  0.56853780  1
  Ti  Ti6  1  0.00000000  0.31196870  0.93146220  1
  Ti  Ti7  1  -0.00000000  0.68803130  0.06853780  1
  Ti  Ti8  1  -0.00000000  0.35559091  0.08772925  1
  Ti  Ti9  1  0.00000000  0.64440909  0.91227075  1
  Ti  Ti10  1  0.00000000  0.14440909  0.58772925  1
  Ti  Ti11  1  -0.00000000  0.85559091  0.41227075  1
  Ti  Ti12  1  0.50000000  0.10189844  0.14392900  1
  Ti  Ti13  1  0.50000000  0.89810156  0.85607100  1
  Ti  Ti14  1  0.50000000  0.39810156  0.64392900  1
  Ti  Ti15  1  0.50000000  0.60189844  0.35607100  1
  Ti  Ti16  1  -0.00000000  0.00886921  0.27052217  1
  Ti  Ti17  1  -0.00000000  0.99113079  0.72947783  1
  Ti  Ti18  1  0.00000000  0.49113079  0.77052217  1
  Ti  Ti19  1  -0.00000000  0.50886921  0.22947783  1
  Ti  Ti20  1  -0.00000000  -0.00000000  0.00000000  1
  Ti  Ti21  1  0.00000000  0.50000000  0.50000000  1
  Cu  Cu22  1  0.50000000  -0.00000000  0.50000000  1
  Cu  Cu23  1  0.50000000  0.50000000  0.00000000  1
  P  P24  1  -0.00000000  0.24735560  0.20696527  1
  P  P25  1  -0.00000000  0.75264440  0.79303473  1
  P  P26  1  -0.00000000  0.25264440  0.70696527  1
  P  P27  1  -0.00000000  0.74735560  0.29303473  1
  P  P28  1  0.50000000  0.03937286  0.36822282  1
  P  P29  1  0.50000000  0.96062714  0.63177718  1
  P  P30  1  0.50000000  0.46062714  0.86822282  1
  P  P31  1  0.50000000  0.53937286  0.13177718  1
  P  P32  1  0.50000000  0.20711660  0.01925208  1
  P  P33  1  0.50000000  0.79288340  0.98074792  1
  P  P34  1  0.50000000  0.29288340  0.51925208  1
  P  P35  1  0.50000000  0.70711660  0.48074792  1
  P  P36  1  -0.00000000  0.41621180  0.36803867  1
  P  P37  1  -0.00000000  0.58378820  0.63196133  1
  P  P38  1  -0.00000000  0.08378820  0.86803867  1
  P  P39  1  -0.00000000  0.91621180  0.13196133  1
