# generated using pymatgen
data_Tb6Al39Cr8
_symmetry_space_group_name_H-M   'P 1'
_cell_length_a   10.91328277
_cell_length_b   10.91328277
_cell_length_c   17.33582313
_cell_angle_alpha   90.00000000
_cell_angle_beta   90.00000000
_cell_angle_gamma   119.99999921
_symmetry_Int_Tables_number   1
_chemical_formula_structural   Tb6Al39Cr8
_chemical_formula_sum   'Tb12 Al78 Cr16'
_cell_volume   1788.07577326
_cell_formula_units_Z   2
loop_
 _symmetry_equiv_pos_site_id
 _symmetry_equiv_pos_as_xyz
  1  'x, y, z'
loop_
 _atom_site_type_symbol
 _atom_site_label
 _atom_site_symmetry_multiplicity
 _atom_site_fract_x
 _atom_site_fract_y
 _atom_site_fract_z
 _atom_site_occupancy
  Tb  Tb0  1  0.46670206  0.46670206  0.90265207  1
  Tb  Tb1  1  0.53329794  0.53329794  0.09734793  1
  Tb  Tb2  1  1.00000000  0.53329794  0.90265207  1
  Tb  Tb3  1  0.53329794  0.53329794  0.40265207  1
  Tb  Tb4  1  1.00000000  0.53329794  0.59734793  1
  Tb  Tb5  1  0.00000000  0.46670206  0.09734793  1
  Tb  Tb6  1  0.46670206  0.46670206  0.59734793  1
  Tb  Tb7  1  0.00000000  0.46670206  0.40265207  1
  Tb  Tb8  1  0.53329794  1.00000000  0.90265207  1
  Tb  Tb9  1  0.46670206  0.00000000  0.09734793  1
  Tb  Tb10  1  0.46670206  0.00000000  0.40265207  1
  Tb  Tb11  1  0.53329794  1.00000000  0.59734793  1
  Al  Al12  1  0.84764597  0.45253222  0.75000000  1
  Al  Al13  1  0.15235403  0.54746778  0.25000000  1
  Al  Al14  1  0.60488625  0.15235403  0.75000000  1
  Al  Al15  1  0.39511375  0.54746778  0.75000000  1
  Al  Al16  1  0.39511375  0.84764597  0.25000000  1
  Al  Al17  1  0.60488625  0.45253222  0.25000000  1
  Al  Al18  1  0.54746778  0.39511375  0.75000000  1
  Al  Al19  1  0.45253222  0.84764597  0.75000000  1
  Al  Al20  1  0.45253222  0.60488625  0.25000000  1
  Al  Al21  1  0.54746778  0.15235403  0.25000000  1
  Al  Al22  1  0.15235403  0.60488625  0.75000000  1
  Al  Al23  1  0.84764597  0.39511375  0.25000000  1
  Al  Al24  1  0.84542625  0.84542625  0.38482627  1
  Al  Al25  1  0.15457375  0.15457375  0.61517373  1
  Al  Al26  1  0.00000000  0.15457375  0.38482627  1
  Al  Al27  1  0.15457375  0.15457375  0.88482627  1
  Al  Al28  1  0.00000000  0.15457375  0.11517373  1
  Al  Al29  1  1.00000000  0.84542625  0.61517373  1
  Al  Al30  1  0.84542625  0.84542625  0.11517373  1
  Al  Al31  1  1.00000000  0.84542625  0.88482627  1
  Al  Al32  1  0.15457375  0.00000000  0.38482627  1
  Al  Al33  1  0.84542625  1.00000000  0.61517373  1
  Al  Al34  1  0.84542625  1.00000000  0.88482627  1
  Al  Al35  1  0.15457375  0.00000000  0.11517373  1
  Al  Al36  1  0.75048662  0.24951338  0.00000000  1
  Al  Al37  1  0.24951338  0.75048662  -0.00000000  1
  Al  Al38  1  0.49902676  0.24951338  -0.00000000  1
  Al  Al39  1  0.24951338  0.75048662  0.50000000  1
  Al  Al40  1  0.50097324  0.75048662  0.50000000  1
  Al  Al41  1  0.50097324  0.75048662  0.00000000  1
  Al  Al42  1  0.75048662  0.24951338  0.50000000  1
  Al  Al43  1  0.49902676  0.24951338  0.50000000  1
  Al  Al44  1  0.75048662  0.50097324  0.00000000  1
  Al  Al45  1  0.24951338  0.49902676  -0.00000000  1
  Al  Al46  1  0.24951338  0.49902676  0.50000000  1
  Al  Al47  1  0.75048662  0.50097324  0.50000000  1
  Al  Al48  1  0.84894229  0.84894229  0.75000000  1
  Al  Al49  1  0.15105771  0.15105771  0.25000000  1
  Al  Al50  1  1.00000000  0.15105771  0.75000000  1
  Al  Al51  1  0.00000000  0.84894229  0.25000000  1
  Al  Al52  1  0.15105771  1.00000000  0.75000000  1
  Al  Al53  1  0.84894229  0.00000000  0.25000000  1
  Al  Al54  1  0.74933389  0.74933389  0.97097512  1
  Al  Al55  1  0.25066611  0.25066611  0.02902488  1
  Al  Al56  1  0.00000000  0.25066611  0.97097512  1
  Al  Al57  1  0.25066611  0.25066611  0.47097512  1
  Al  Al58  1  0.00000000  0.25066611  0.52902488  1
  Al  Al59  1  1.00000000  0.74933389  0.02902488  1
  Al  Al60  1  0.74933389  0.74933389  0.52902488  1
  Al  Al61  1  1.00000000  0.74933389  0.47097512  1
  Al  Al62  1  0.25066611  0.00000000  0.97097512  1
  Al  Al63  1  0.74933389  1.00000000  0.02902488  1
  Al  Al64  1  0.74933389  1.00000000  0.47097512  1
  Al  Al65  1  0.25066611  0.00000000  0.52902488  1
  Al  Al66  1  0.83495413  0.23199752  0.83857586  1
  Al  Al67  1  0.16504587  0.76800248  0.16142414  1
  Al  Al68  1  0.39704339  0.16504587  0.83857586  1
  Al  Al69  1  0.16504587  0.76800248  0.33857586  1
  Al  Al70  1  0.60295661  0.76800248  0.66142414  1
  Al  Al71  1  0.60295661  0.83495413  0.16142414  1
  Al  Al72  1  0.83495413  0.23199752  0.66142414  1
  Al  Al73  1  0.39704339  0.23199752  0.33857586  1
  Al  Al74  1  0.76800248  0.60295661  0.83857586  1
  Al  Al75  1  0.60295661  0.83495413  0.33857586  1
  Al  Al76  1  0.23199752  0.83495413  0.66142414  1
  Al  Al77  1  0.23199752  0.39704339  0.16142414  1
  Al  Al78  1  0.39704339  0.16504587  0.66142414  1
  Al  Al79  1  0.76800248  0.16504587  0.33857586  1
  Al  Al80  1  0.39704339  0.23199752  0.16142414  1
  Al  Al81  1  0.60295661  0.76800248  0.83857586  1
  Al  Al82  1  0.23199752  0.39704339  0.33857586  1
  Al  Al83  1  0.76800248  0.16504587  0.16142414  1
  Al  Al84  1  0.76800248  0.60295661  0.66142414  1
  Al  Al85  1  0.23199752  0.83495413  0.83857586  1
  Al  Al86  1  0.16504587  0.39704339  0.66142414  1
  Al  Al87  1  0.83495413  0.60295661  0.33857586  1
  Al  Al88  1  0.83495413  0.60295661  0.16142414  1
  Al  Al89  1  0.16504587  0.39704339  0.83857586  1
  Cr  Cr90  1  0.66666700  0.33333300  0.86723798  1
  Cr  Cr91  1  0.33333300  0.66666700  0.13276202  1
  Cr  Cr92  1  0.33333300  0.66666700  0.36723798  1
  Cr  Cr93  1  0.33333300  0.66666700  0.63276202  1
  Cr  Cr94  1  0.66666700  0.33333300  0.63276202  1
  Cr  Cr95  1  0.66666700  0.33333300  0.36723798  1
  Cr  Cr96  1  0.66666700  0.33333300  0.13276202  1
  Cr  Cr97  1  0.33333300  0.66666700  0.86723798  1
  Cr  Cr98  1  0.00000000  -0.00000000  0.00000000  1
  Cr  Cr99  1  0.00000000  -0.00000000  0.50000000  1
  Cr  Cr100  1  0.25796826  0.25796826  0.75000000  1
  Cr  Cr101  1  0.74203174  0.74203174  0.25000000  1
  Cr  Cr102  1  1.00000000  0.74203174  0.75000000  1
  Cr  Cr103  1  0.00000000  0.25796826  0.25000000  1
  Cr  Cr104  1  0.74203174  1.00000000  0.75000000  1
  Cr  Cr105  1  0.25796826  0.00000000  0.25000000  1
