# generated using pymatgen
data_SrZrF6
_symmetry_space_group_name_H-M   'P 1'
_cell_length_a   5.39337045
_cell_length_b   6.75175952
_cell_length_c   6.75175952
_cell_angle_alpha   110.59256664
_cell_angle_beta   90.00000000
_cell_angle_gamma   90.00000000
_symmetry_Int_Tables_number   1
_chemical_formula_structural   SrZrF6
_chemical_formula_sum   'Sr2 Zr2 F12'
_cell_volume   230.15415922
_cell_formula_units_Z   2
loop_
 _symmetry_equiv_pos_site_id
 _symmetry_equiv_pos_as_xyz
  1  'x, y, z'
loop_
 _atom_site_type_symbol
 _atom_site_label
 _atom_site_symmetry_multiplicity
 _atom_site_fract_x
 _atom_site_fract_y
 _atom_site_fract_z
 _atom_site_occupancy
  Sr  Sr0  1  0.54249927  0.75000000  0.25000000  1
  Sr  Sr1  1  0.45750073  0.25000000  0.75000000  1
  Zr  Zr2  1  0.00000000  0.75000000  0.75000000  1
  Zr  Zr3  1  0.00000000  0.25000000  0.25000000  1
  F  F4  1  0.73956503  0.56054884  0.81736189  1
  F  F5  1  0.26043497  0.43945116  0.18263811  1
  F  F6  1  0.73956503  0.93945116  0.68263811  1
  F  F7  1  0.26043497  0.68263811  0.93945116  1
  F  F8  1  0.26043497  0.06054884  0.31736189  1
  F  F9  1  0.73956503  0.31736189  0.06054884  1
  F  F10  1  0.26043497  0.81736189  0.56054884  1
  F  F11  1  0.73956503  0.18263811  0.43945116  1
  F  F12  1  0.84316929  0.92408594  0.07591406  1
  F  F13  1  0.15683071  0.07591406  0.92408594  1
  F  F14  1  0.84316929  0.57591406  0.42408594  1
  F  F15  1  0.15683071  0.42408594  0.57591406  1
