# generated using pymatgen
data_Tl3Mo4(P2O11)2
_symmetry_space_group_name_H-M   'P 1'
_cell_length_a   10.28031250
_cell_length_b   10.28031250
_cell_length_c   19.50785102
_cell_angle_alpha   90.00000000
_cell_angle_beta   90.00000000
_cell_angle_gamma   90.34914775
_symmetry_Int_Tables_number   1
_chemical_formula_structural   Tl3Mo4(P2O11)2
_chemical_formula_sum   'Tl12 Mo16 P16 O88'
_cell_volume   2061.64554424
_cell_formula_units_Z   4
loop_
 _symmetry_equiv_pos_site_id
 _symmetry_equiv_pos_as_xyz
  1  'x, y, z'
loop_
 _atom_site_type_symbol
 _atom_site_label
 _atom_site_symmetry_multiplicity
 _atom_site_fract_x
 _atom_site_fract_y
 _atom_site_fract_z
 _atom_site_occupancy
  Tl  Tl0  1  0.88301821  0.00934297  0.37105943  1
  Tl  Tl1  1  0.11698179  0.99065703  0.87105943  1
  Tl  Tl2  1  0.99065703  0.11698179  0.12894057  1
  Tl  Tl3  1  0.00934297  0.88301821  0.62894057  1
  Tl  Tl4  1  0.49067384  0.38351534  0.62390490  1
  Tl  Tl5  1  0.50932616  0.61648466  0.12390490  1
  Tl  Tl6  1  0.61648466  0.50932616  0.87609510  1
  Tl  Tl7  1  0.38351534  0.49067384  0.37609510  1
  Tl  Tl8  1  0.79072466  0.20927534  0.75000000  1
  Tl  Tl9  1  0.20927534  0.79072466  0.25000000  1
  Tl  Tl10  1  0.29153419  0.29153419  -0.00000000  1
  Tl  Tl11  1  0.70846581  0.70846581  0.50000000  1
  Mo  Mo12  1  0.74511882  0.10748209  0.93466308  1
  Mo  Mo13  1  0.25488118  0.89251791  0.43466308  1
  Mo  Mo14  1  0.89251791  0.25488118  0.56533692  1
  Mo  Mo15  1  0.10748209  0.74511882  0.06533692  1
  Mo  Mo16  1  0.60345270  0.75396166  0.68580396  1
  Mo  Mo17  1  0.39654730  0.24603834  0.18580396  1
  Mo  Mo18  1  0.24603834  0.39654730  0.81419604  1
  Mo  Mo19  1  0.75396166  0.60345270  0.31419604  1
  Mo  Mo20  1  0.48280513  0.86662091  0.93867753  1
  Mo  Mo21  1  0.51719487  0.13337909  0.43867753  1
  Mo  Mo22  1  0.13337909  0.51719487  0.56132247  1
  Mo  Mo23  1  0.86662091  0.48280513  0.06132247  1
  Mo  Mo24  1  0.36173503  0.01532505  0.68947750  1
  Mo  Mo25  1  0.63826497  0.98467495  0.18947750  1
  Mo  Mo26  1  0.98467495  0.63826497  0.81052250  1
  Mo  Mo27  1  0.01532505  0.36173503  0.31052250  1
  P  P28  1  0.64310239  0.04602243  0.59028017  1
  P  P29  1  0.35689761  0.95397757  0.09028017  1
  P  P30  1  0.95397757  0.35689761  0.90971983  1
  P  P31  1  0.04602243  0.64310239  0.40971983  1
  P  P32  1  0.23841946  0.65623388  0.92031530  1
  P  P33  1  0.76158054  0.34376612  0.42031530  1
  P  P34  1  0.34376612  0.76158054  0.57968470  1
  P  P35  1  0.65623388  0.23841946  0.07968470  1
  P  P36  1  0.73704230  0.84380884  0.83032942  1
  P  P37  1  0.26295770  0.15619116  0.33032942  1
  P  P38  1  0.15619116  0.26295770  0.66967058  1
  P  P39  1  0.84380884  0.73704230  0.16967058  1
  P  P40  1  0.45430045  0.14462068  0.84016927  1
  P  P41  1  0.54569955  0.85537932  0.34016927  1
  P  P42  1  0.85537932  0.54569955  0.65983073  1
  P  P43  1  0.14462068  0.45430045  0.15983073  1
  O  O44  1  0.31431443  0.89987049  0.60590265  1
  O  O45  1  0.68568557  0.10012951  0.10590265  1
  O  O46  1  0.10012951  0.68568557  0.89409735  1
  O  O47  1  0.89987049  0.31431443  0.39409735  1
  O  O48  1  0.78761154  0.98044189  0.85380340  1
  O  O49  1  0.21238846  0.01955811  0.35380340  1
  O  O50  1  0.01955811  0.21238846  0.64619660  1
  O  O51  1  0.98044189  0.78761154  0.14619660  1
  O  O52  1  0.51520511  0.09243830  0.62210815  1
  O  O53  1  0.48479489  0.90756170  0.12210815  1
  O  O54  1  0.90756170  0.48479489  0.87789185  1
  O  O55  1  0.09243830  0.51520511  0.37789185  1
  O  O56  1  0.73589932  0.84389767  0.75106239  1
  O  O57  1  0.26410068  0.15610233  0.25106239  1
  O  O58  1  0.15610233  0.26410068  0.74893761  1
  O  O59  1  0.84389767  0.73589932  0.24893761  1
  O  O60  1  0.75117801  0.14473471  0.61364022  1
  O  O61  1  0.24882199  0.85526529  0.11364022  1
  O  O62  1  0.85526529  0.24882199  0.88635978  1
  O  O63  1  0.14473471  0.75117801  0.38635978  1
  O  O64  1  0.22344086  0.97835337  0.73694307  1
  O  O65  1  0.77655914  0.02164663  0.23694307  1
  O  O66  1  0.02164663  0.77655914  0.76305693  1
  O  O67  1  0.97835337  0.22344086  0.26305693  1
  O  O68  1  0.26609639  0.17650660  0.64177823  1
  O  O69  1  0.73390361  0.82349340  0.14177823  1
  O  O70  1  0.82349340  0.73390361  0.85822177  1
  O  O71  1  0.17650660  0.26609639  0.35822177  1
  O  O72  1  0.61402989  0.97663270  0.96362441  1
  O  O73  1  0.38597011  0.02336730  0.46362441  1
  O  O74  1  0.02336730  0.38597011  0.53637559  1
  O  O75  1  0.97663270  0.61402989  0.03637559  1
  O  O76  1  0.56769320  0.62235412  0.73734981  1
  O  O77  1  0.43230680  0.37764588  0.23734981  1
  O  O78  1  0.37764588  0.43230680  0.76265019  1
  O  O79  1  0.62235412  0.56769320  0.26265019  1
  O  O80  1  0.47771982  0.70838711  0.60321762  1
  O  O81  1  0.52228018  0.29161289  0.10321762  1
  O  O82  1  0.29161289  0.52228018  0.89678238  1
  O  O83  1  0.70838711  0.47771982  0.39678238  1
  O  O84  1  0.87234571  0.06535181  0.98721234  1
  O  O85  1  0.12765429  0.93464819  0.48721234  1
  O  O86  1  0.93464819  0.12765429  0.51278766  1
  O  O87  1  0.06535181  0.87234571  0.01278766  1
  O  O88  1  0.45110897  0.13746660  0.76068494  1
  O  O89  1  0.54889103  0.86253340  0.26068494  1
  O  O90  1  0.86253340  0.54889103  0.73931506  1
  O  O91  1  0.13746660  0.45110897  0.23931506  1
  O  O92  1  0.63546231  0.05328396  0.50927547  1
  O  O93  1  0.36453769  0.94671604  0.00927547  1
  O  O94  1  0.94671604  0.36453769  0.99072453  1
  O  O95  1  0.05328396  0.63546231  0.49072453  1
  O  O96  1  0.35589719  0.25018929  0.86470800  1
  O  O97  1  0.64410281  0.74981071  0.36470800  1
  O  O98  1  0.74981071  0.64410281  0.63529200  1
  O  O99  1  0.25018929  0.35589719  0.13529200  1
  O  O100  1  0.52186755  0.73071384  0.98699337  1
  O  O101  1  0.47813245  0.26928616  0.48699337  1
  O  O102  1  0.26928616  0.47813245  0.51300663  1
  O  O103  1  0.73071384  0.52186755  0.01300663  1
  O  O104  1  0.59584753  0.81671637  0.85795017  1
  O  O105  1  0.40415247  0.18328363  0.35795017  1
  O  O106  1  0.18328363  0.40415247  0.64204983  1
  O  O107  1  0.81671637  0.59584753  0.14204983  1
  O  O108  1  0.65682014  0.23800457  0.00005270  1
  O  O109  1  0.34317986  0.76199543  0.50005270  1
  O  O110  1  0.76199543  0.34317986  0.49994730  1
  O  O111  1  0.23800457  0.65682014  0.99994730  1
  O  O112  1  0.68284675  0.90704784  0.61020259  1
  O  O113  1  0.31715325  0.09295216  0.11020259  1
  O  O114  1  0.09295216  0.31715325  0.88979741  1
  O  O115  1  0.90704784  0.68284675  0.38979741  1
  O  O116  1  0.59403955  0.18140251  0.86319400  1
  O  O117  1  0.40596045  0.81859749  0.36319400  1
  O  O118  1  0.81859749  0.40596045  0.63680600  1
  O  O119  1  0.18140251  0.59403955  0.13680600  1
  O  O120  1  0.32896803  0.76915352  0.89425174  1
  O  O121  1  0.67103197  0.23084648  0.39425174  1
  O  O122  1  0.23084648  0.67103197  0.60574826  1
  O  O123  1  0.76915352  0.32896803  0.10574826  1
  O  O124  1  0.40852374  0.01486081  0.87343011  1
  O  O125  1  0.59147626  0.98513919  0.37343011  1
  O  O126  1  0.98513919  0.59147626  0.62656989  1
  O  O127  1  0.01486081  0.40852374  0.12656989  1
  O  O128  1  0.48549375  0.88585288  0.71522137  1
  O  O129  1  0.51450625  0.11414712  0.21522137  1
  O  O130  1  0.11414712  0.51450625  0.78477863  1
  O  O131  1  0.88585288  0.48549375  0.28477863  1
