# generated using pymatgen
data_SrAl2H6C2O11
_symmetry_space_group_name_H-M   'P 1'
_cell_length_a   5.65123956
_cell_length_b   16.18138002
_cell_length_c   9.16582192
_cell_angle_alpha   90.00000000
_cell_angle_beta   90.00000000
_cell_angle_gamma   90.00000000
_symmetry_Int_Tables_number   1
_chemical_formula_structural   SrAl2H6C2O11
_chemical_formula_sum   'Sr4 Al8 H24 C8 O44'
_cell_volume   838.16725555
_cell_formula_units_Z   4
loop_
 _symmetry_equiv_pos_site_id
 _symmetry_equiv_pos_as_xyz
  1  'x, y, z'
loop_
 _atom_site_type_symbol
 _atom_site_label
 _atom_site_symmetry_multiplicity
 _atom_site_fract_x
 _atom_site_fract_y
 _atom_site_fract_z
 _atom_site_occupancy
  Sr  Sr0  1  0.75000000  0.58579459  0.52441475  1
  Sr  Sr1  1  0.25000000  0.41420541  0.47558525  1
  Sr  Sr2  1  0.25000000  0.91420541  0.02441475  1
  Sr  Sr3  1  0.75000000  0.08579459  0.97558525  1
  Al  Al4  1  0.49816974  0.70419013  0.82773649  1
  Al  Al5  1  0.50183026  0.29580987  0.17226351  1
  Al  Al6  1  0.50183026  0.79580987  0.32773649  1
  Al  Al7  1  0.99816974  0.29580987  0.17226351  1
  Al  Al8  1  0.49816974  0.20419013  0.67226351  1
  Al  Al9  1  0.00183026  0.70419013  0.82773649  1
  Al  Al10  1  0.00183026  0.20419013  0.67226351  1
  Al  Al11  1  0.99816974  0.79580987  0.32773649  1
  H  H12  1  0.75000000  0.71931088  0.13033422  1
  H  H13  1  0.25000000  0.28068912  0.86966578  1
  H  H14  1  0.25000000  0.78068912  0.63033422  1
  H  H15  1  0.75000000  0.21931088  0.36966578  1
  H  H16  1  0.88917481  0.97006484  0.65884539  1
  H  H17  1  0.11082519  0.02993516  0.34115461  1
  H  H18  1  0.11082519  0.52993516  0.15884539  1
  H  H19  1  0.38917481  0.02993516  0.34115461  1
  H  H20  1  0.88917481  0.47006484  0.84115461  1
  H  H21  1  0.61082519  0.97006484  0.65884539  1
  H  H22  1  0.61082519  0.47006484  0.84115461  1
  H  H23  1  0.38917481  0.52993516  0.15884539  1
  H  H24  1  0.75000000  0.60555336  0.96607061  1
  H  H25  1  0.25000000  0.39444664  0.03392939  1
  H  H26  1  0.25000000  0.89444664  0.46607061  1
  H  H27  1  0.75000000  0.10555336  0.53392939  1
  H  H28  1  0.75000000  0.75631358  0.61205034  1
  H  H29  1  0.25000000  0.24368642  0.38794966  1
  H  H30  1  0.25000000  0.74368642  0.11205034  1
  H  H31  1  0.75000000  0.25631358  0.88794966  1
  H  H32  1  0.75000000  0.86785975  0.51619163  1
  H  H33  1  0.25000000  0.13214025  0.48380837  1
  H  H34  1  0.25000000  0.63214025  0.01619163  1
  H  H35  1  0.75000000  0.36785975  0.98380837  1
  C  C36  1  0.75000000  0.85403074  0.91848247  1
  C  C37  1  0.25000000  0.14596926  0.08151753  1
  C  C38  1  0.25000000  0.64596926  0.41848247  1
  C  C39  1  0.75000000  0.35403074  0.58151753  1
  C  C40  1  0.75000000  0.94955451  0.25167546  1
  C  C41  1  0.25000000  0.05044549  0.74832454  1
  C  C42  1  0.25000000  0.55044549  0.75167546  1
  C  C43  1  0.75000000  0.44955451  0.24832454  1
  O  O44  1  0.75000000  0.71457025  0.69413753  1
  O  O45  1  0.25000000  0.28542975  0.30586247  1
  O  O46  1  0.25000000  0.78542975  0.19413753  1
  O  O47  1  0.75000000  0.21457025  0.80586247  1
  O  O48  1  0.75000000  0.75827739  0.21326198  1
  O  O49  1  0.25000000  0.24172261  0.78673802  1
  O  O50  1  0.25000000  0.74172261  0.71326198  1
  O  O51  1  0.75000000  0.25827739  0.28673802  1
  O  O52  1  0.75000000  0.93092246  0.95445472  1
  O  O53  1  0.25000000  0.06907754  0.04554528  1
  O  O54  1  0.25000000  0.56907754  0.45445472  1
  O  O55  1  0.75000000  0.43092246  0.54554528  1
  O  O56  1  0.95032620  0.81563027  0.90169704  1
  O  O57  1  0.04967380  0.18436973  0.09830296  1
  O  O58  1  0.04967380  0.68436973  0.40169704  1
  O  O59  1  0.45032620  0.18436973  0.09830296  1
  O  O60  1  0.95032620  0.31563027  0.59830296  1
  O  O61  1  0.54967380  0.81563027  0.90169704  1
  O  O62  1  0.54967380  0.31563027  0.59830296  1
  O  O63  1  0.45032620  0.68436973  0.40169704  1
  O  O64  1  0.45178570  0.59055675  0.75984993  1
  O  O65  1  0.54821430  0.40944325  0.24015007  1
  O  O66  1  0.54821430  0.90944325  0.25984993  1
  O  O67  1  0.95178570  0.40944325  0.24015007  1
  O  O68  1  0.45178570  0.09055675  0.74015007  1
  O  O69  1  0.04821430  0.59055675  0.75984993  1
  O  O70  1  0.04821430  0.09055675  0.74015007  1
  O  O71  1  0.95178570  0.90944325  0.25984993  1
  O  O72  1  0.75000000  0.95913165  0.59734552  1
  O  O73  1  0.25000000  0.04086835  0.40265448  1
  O  O74  1  0.25000000  0.54086835  0.09734552  1
  O  O75  1  0.75000000  0.45913165  0.90265448  1
  O  O76  1  0.75000000  0.81229803  0.46648849  1
  O  O77  1  0.25000000  0.18770197  0.53351151  1
  O  O78  1  0.25000000  0.68770197  0.96648849  1
  O  O79  1  0.75000000  0.31229803  0.03351151  1
  O  O80  1  0.75000000  0.52777036  0.26469168  1
  O  O81  1  0.25000000  0.47222964  0.73530832  1
  O  O82  1  0.25000000  0.97222964  0.76469168  1
  O  O83  1  0.75000000  0.02777036  0.23530832  1
  O  O84  1  0.75000000  0.66565808  0.95366159  1
  O  O85  1  0.25000000  0.33434192  0.04633841  1
  O  O86  1  0.25000000  0.83434192  0.45366159  1
  O  O87  1  0.75000000  0.16565808  0.54633841  1
