# generated using pymatgen
data_Li9Mn2Co5O16
_symmetry_space_group_name_H-M   'P 1'
_cell_length_a   2.91023741
_cell_length_b   8.35269241
_cell_length_c   11.88019730
_cell_angle_alpha   89.27144114
_cell_angle_beta   90.00000000
_cell_angle_gamma   90.00000000
_symmetry_Int_Tables_number   1
_chemical_formula_structural   Li9Mn2Co5O16
_chemical_formula_sum   'Li9 Mn2 Co5 O16'
_cell_volume   288.76426606
_cell_formula_units_Z   1
loop_
 _symmetry_equiv_pos_site_id
 _symmetry_equiv_pos_as_xyz
  1  'x, y, z'
loop_
 _atom_site_type_symbol
 _atom_site_label
 _atom_site_symmetry_multiplicity
 _atom_site_fract_x
 _atom_site_fract_y
 _atom_site_fract_z
 _atom_site_occupancy
  Li  Li0  1  0.50000000  0.25469630  0.12341948  1
  Li  Li1  1  0.50000000  0.74530370  0.37658052  1
  Li  Li2  1  0.50000000  0.26413480  0.63085665  1
  Li  Li3  1  0.00000000  0.49933496  0.99599735  1
  Li  Li4  1  -0.00000000  0.00000000  0.25000000  1
  Li  Li5  1  -0.00000000  0.50066504  0.50400265  1
  Li  Li6  1  0.50000000  0.73586520  0.86914335  1
  Li  Li7  1  0.00000000  0.00000000  0.75000000  1
  Li  Li8  1  0.00000000  0.50000000  0.75000000  1
  Mn  Mn9  1  -0.00000000  0.00110481  0.99790051  1
  Mn  Mn10  1  0.00000000  0.99889519  0.50209949  1
  Co  Co11  1  0.00000000  0.50000000  0.25000000  1
  Co  Co12  1  0.50000000  0.27492525  0.86817108  1
  Co  Co13  1  0.50000000  0.74396367  0.12667297  1
  Co  Co14  1  0.50000000  0.25603633  0.37332703  1
  Co  Co15  1  0.50000000  0.72507475  0.63182892  1
  O  O16  1  0.50000000  0.99907069  0.11031165  1
  O  O17  1  0.50000000  0.49601483  0.36884923  1
  O  O18  1  0.50000000  0.00268311  0.60920661  1
  O  O19  1  -0.00000000  0.22939225  0.99214828  1
  O  O20  1  -0.00000000  0.75190325  0.24181777  1
  O  O21  1  0.00000000  0.23513956  0.49082627  1
  O  O22  1  0.50000000  0.48841664  0.87908778  1
  O  O23  1  0.00000000  0.75657443  0.74044986  1
  O  O24  1  0.50000000  0.50398517  0.13115077  1
  O  O25  1  0.50000000  0.00092931  0.38968835  1
  O  O26  1  0.50000000  0.51158336  0.62091222  1
  O  O27  1  -0.00000000  0.76486044  0.00917373  1
  O  O28  1  0.00000000  0.24809675  0.25818223  1
  O  O29  1  0.00000000  0.77060775  0.50785172  1
  O  O30  1  0.50000000  0.99731689  0.89079339  1
  O  O31  1  0.00000000  0.24342557  0.75955014  1
