# generated using pymatgen
data_Sr3CaCN4
_symmetry_space_group_name_H-M   'P 1'
_cell_length_a   3.77426895
_cell_length_b   12.08147409
_cell_length_c   14.53799114
_cell_angle_alpha   90.00000000
_cell_angle_beta   90.00000000
_cell_angle_gamma   90.00000000
_symmetry_Int_Tables_number   1
_chemical_formula_structural   Sr3CaCN4
_chemical_formula_sum   'Sr12 Ca4 C4 N16'
_cell_volume   662.91396949
_cell_formula_units_Z   4
loop_
 _symmetry_equiv_pos_site_id
 _symmetry_equiv_pos_as_xyz
  1  'x, y, z'
loop_
 _atom_site_type_symbol
 _atom_site_label
 _atom_site_symmetry_multiplicity
 _atom_site_fract_x
 _atom_site_fract_y
 _atom_site_fract_z
 _atom_site_occupancy
  Sr  Sr0  1  0.75000000  0.88539974  0.39128030  1
  Sr  Sr1  1  0.25000000  0.11460026  0.60871970  1
  Sr  Sr2  1  0.25000000  0.61460026  0.89128030  1
  Sr  Sr3  1  0.75000000  0.38539974  0.10871970  1
  Sr  Sr4  1  0.75000000  0.64799007  0.25728901  1
  Sr  Sr5  1  0.25000000  0.35200993  0.74271099  1
  Sr  Sr6  1  0.25000000  0.85200993  0.75728901  1
  Sr  Sr7  1  0.75000000  0.14799007  0.24271099  1
  Sr  Sr8  1  0.75000000  0.87790630  0.96383796  1
  Sr  Sr9  1  0.25000000  0.12209370  0.03616204  1
  Sr  Sr10  1  0.25000000  0.62209370  0.46383796  1
  Sr  Sr11  1  0.75000000  0.37790630  0.53616204  1
  Ca  Ca12  1  0.75000000  0.60679212  0.67520498  1
  Ca  Ca13  1  0.25000000  0.39320788  0.32479502  1
  Ca  Ca14  1  0.25000000  0.89320788  0.17520498  1
  Ca  Ca15  1  0.75000000  0.10679212  0.82479502  1
  C  C16  1  0.75000000  0.85089879  0.58950146  1
  C  C17  1  0.25000000  0.14910121  0.41049854  1
  C  C18  1  0.25000000  0.64910121  0.08950146  1
  C  C19  1  0.75000000  0.35089879  0.91049854  1
  N  N20  1  0.75000000  0.75960612  0.55029463  1
  N  N21  1  0.25000000  0.24039388  0.44970537  1
  N  N22  1  0.25000000  0.74039388  0.05029463  1
  N  N23  1  0.75000000  0.25960612  0.94970537  1
  N  N24  1  0.75000000  0.94337188  0.62744669  1
  N  N25  1  0.25000000  0.05662812  0.37255331  1
  N  N26  1  0.25000000  0.55662812  0.12744669  1
  N  N27  1  0.75000000  0.44337188  0.87255331  1
  N  N28  1  0.75000000  0.49882332  0.37928841  1
  N  N29  1  0.25000000  0.50117668  0.62071159  1
  N  N30  1  0.25000000  0.00117668  0.87928841  1
  N  N31  1  0.75000000  0.99882332  0.12071159  1
  N  N32  1  0.75000000  0.72314584  0.81624622  1
  N  N33  1  0.25000000  0.27685416  0.18375378  1
  N  N34  1  0.25000000  0.77685416  0.31624622  1
  N  N35  1  0.75000000  0.22314584  0.68375378  1
