# generated using pymatgen
data_Tb2Hf2(MoO4)7
_symmetry_space_group_name_H-M   'P 1'
_cell_length_a   9.96176964
_cell_length_b   11.65399966
_cell_length_c   14.01673107
_cell_angle_alpha   110.88903205
_cell_angle_beta   90.00000000
_cell_angle_gamma   115.30248206
_symmetry_Int_Tables_number   1
_chemical_formula_structural   Tb2Hf2(MoO4)7
_chemical_formula_sum   'Tb4 Hf4 Mo14 O56'
_cell_volume   1351.90096844
_cell_formula_units_Z   2
loop_
 _symmetry_equiv_pos_site_id
 _symmetry_equiv_pos_as_xyz
  1  'x, y, z'
loop_
 _atom_site_type_symbol
 _atom_site_label
 _atom_site_symmetry_multiplicity
 _atom_site_fract_x
 _atom_site_fract_y
 _atom_site_fract_z
 _atom_site_occupancy
  Tb  Tb0  1  0.14926377  0.27369413  0.93695180  1
  Tb  Tb1  1  0.85073623  0.72630587  0.06304820  1
  Tb  Tb2  1  0.87556964  0.72630587  0.56304820  1
  Tb  Tb3  1  0.12443036  0.27369413  0.43695180  1
  Hf  Hf4  1  0.42032791  0.76886286  0.81270655  1
  Hf  Hf5  1  0.57967209  0.23113714  0.18729345  1
  Hf  Hf6  1  0.65146505  0.23113714  0.68729345  1
  Hf  Hf7  1  0.34853495  0.76886286  0.31270655  1
  Mo  Mo8  1  0.49936323  0.48724675  0.82652543  1
  Mo  Mo9  1  0.50063677  0.51275325  0.17347457  1
  Mo  Mo10  1  0.01211648  0.51275325  0.67347457  1
  Mo  Mo11  1  0.98788352  0.48724675  0.32652543  1
  Mo  Mo12  1  0.45615000  0.68379776  0.52290800  1
  Mo  Mo13  1  0.54385000  0.31620224  0.47709200  1
  Mo  Mo14  1  0.77235224  0.31620224  0.97709200  1
  Mo  Mo15  1  0.22764776  0.68379776  0.02290800  1
  Mo  Mo16  1  0.81186206  0.87850657  0.85305274  1
  Mo  Mo17  1  0.18813794  0.12149343  0.14694726  1
  Mo  Mo18  1  0.93335548  0.12149343  0.64694726  1
  Mo  Mo19  1  0.06664452  0.87850657  0.35305274  1
  Mo  Mo20  1  0.29659464  0.00000000  0.75000000  1
  Mo  Mo21  1  0.70340536  0.00000000  0.25000000  1
  O  O22  1  0.48731286  0.61317365  0.78198777  1
  O  O23  1  0.51268714  0.38682635  0.21801223  1
  O  O24  1  0.87413921  0.38682635  0.71801223  1
  O  O25  1  0.12586079  0.61317365  0.28198777  1
  O  O26  1  0.64227974  0.71316760  0.50449381  1
  O  O27  1  0.35772026  0.28683240  0.49550619  1
  O  O28  1  0.92911214  0.28683240  0.99550619  1
  O  O29  1  0.07088786  0.71316760  0.00449381  1
  O  O30  1  0.31648313  0.37647482  0.83423802  1
  O  O31  1  0.68351687  0.62352518  0.16576198  1
  O  O32  1  0.94000831  0.62352518  0.66576198  1
  O  O33  1  0.05999169  0.37647482  0.33423802  1
  O  O34  1  0.93488600  0.96007637  0.60176161  1
  O  O35  1  0.06511400  0.03992363  0.39823839  1
  O  O36  1  0.97480964  0.03992363  0.89823839  1
  O  O37  1  0.02519036  0.96007637  0.10176161  1
  O  O38  1  0.79710535  0.79377268  0.71711658  1
  O  O39  1  0.20289465  0.20622732  0.28288342  1
  O  O40  1  0.00333267  0.20622732  0.78288342  1
  O  O41  1  0.99666733  0.79377268  0.21711658  1
  O  O42  1  0.57597493  0.38171932  0.73887630  1
  O  O43  1  0.42402507  0.61828068  0.26112370  1
  O  O44  1  0.19425560  0.61828068  0.76112370  1
  O  O45  1  0.80574440  0.38171932  0.23887630  1
  O  O46  1  0.66585974  0.49531210  0.52938703  1
  O  O47  1  0.33414026  0.50468790  0.47061297  1
  O  O48  1  0.17054765  0.50468790  0.97061297  1
  O  O49  1  0.82945235  0.49531210  0.02938703  1
  O  O50  1  0.82956688  0.77632997  0.91669484  1
  O  O51  1  0.17043312  0.22367003  0.08330516  1
  O  O52  1  0.05323692  0.22367003  0.58330516  1
  O  O53  1  0.94676308  0.77632997  0.41669484  1
  O  O54  1  0.61121522  0.57174006  0.95161452  1
  O  O55  1  0.38878478  0.42825994  0.04838548  1
  O  O56  1  0.03947516  0.42825994  0.54838548  1
  O  O57  1  0.96052484  0.57174006  0.45161452  1
  O  O58  1  0.37544076  0.76559931  0.95662040  1
  O  O59  1  0.62455924  0.23440069  0.04337960  1
  O  O60  1  0.60984145  0.23440069  0.54337960  1
  O  O61  1  0.39015855  0.76559931  0.45662040  1
  O  O62  1  0.25965917  0.12752246  0.84258150  1
  O  O63  1  0.74034083  0.87247754  0.15741850  1
  O  O64  1  0.13213670  0.87247754  0.65741850  1
  O  O65  1  0.86786330  0.12752246  0.34258150  1
  O  O66  1  0.43973436  0.07862357  0.68039234  1
  O  O67  1  0.56026564  0.92137643  0.31960766  1
  O  O68  1  0.36111079  0.92137643  0.81960766  1
  O  O69  1  0.63888921  0.07862357  0.18039234  1
  O  O70  1  0.64258370  0.90643086  0.87512096  1
  O  O71  1  0.35741630  0.09356914  0.12487904  1
  O  O72  1  0.73615284  0.09356914  0.62487904  1
  O  O73  1  0.26384716  0.90643086  0.37512096  1
  O  O74  1  0.44859949  0.75184876  0.66061662  1
  O  O75  1  0.55140051  0.24815124  0.33938338  1
  O  O76  1  0.69675074  0.24815124  0.83938338  1
  O  O77  1  0.30324926  0.75184876  0.16061662  1
