# generated using pymatgen
data_Tb12(MnC3)5
_symmetry_space_group_name_H-M   'P 1'
_cell_length_a   5.08913104
_cell_length_b   10.49711729
_cell_length_c   10.49711729
_cell_angle_alpha   120.00000220
_cell_angle_beta   90.00000000
_cell_angle_gamma   90.00000000
_symmetry_Int_Tables_number   1
_chemical_formula_structural   Tb12(MnC3)5
_chemical_formula_sum   'Tb12 Mn5 C15'
_cell_volume   485.63989367
_cell_formula_units_Z   1
loop_
 _symmetry_equiv_pos_site_id
 _symmetry_equiv_pos_as_xyz
  1  'x, y, z'
loop_
 _atom_site_type_symbol
 _atom_site_label
 _atom_site_symmetry_multiplicity
 _atom_site_fract_x
 _atom_site_fract_y
 _atom_site_fract_z
 _atom_site_occupancy
  Tb  Tb0  1  0.50000000  0.20645124  0.20645124  1
  Tb  Tb1  1  0.50000000  1.00000000  0.79354876  1
  Tb  Tb2  1  0.50000000  0.79354876  1.00000000  1
  Tb  Tb3  1  -0.00000000  0.73006622  0.18553235  1
  Tb  Tb4  1  -0.00000000  0.45546613  0.26993378  1
  Tb  Tb5  1  -0.00000000  0.54453387  0.81446765  1
  Tb  Tb6  1  0.00000000  0.81446765  0.54453387  1
  Tb  Tb7  1  0.00000000  0.18553235  0.73006622  1
  Tb  Tb8  1  0.00000000  0.26993378  0.45546613  1
  Tb  Tb9  1  0.50000000  0.57289004  0.57289004  1
  Tb  Tb10  1  0.50000000  0.00000000  0.42710996  1
  Tb  Tb11  1  0.50000000  0.42710996  0.00000000  1
  Mn  Mn12  1  0.00000000  0.84724524  0.84724524  1
  Mn  Mn13  1  0.00000000  0.00000000  0.15275476  1
  Mn  Mn14  1  -0.00000000  0.15275476  0.00000000  1
  Mn  Mn15  1  0.50000000  0.66666700  0.33333300  1
  Mn  Mn16  1  0.50000000  0.33333300  0.66666700  1
  C  C17  1  -0.00000000  0.67665167  0.67665167  1
  C  C18  1  0.00000000  1.00000000  0.32334833  1
  C  C19  1  -0.00000000  0.32334833  1.00000000  1
  C  C20  1  -0.00000000  0.20019283  0.20019283  1
  C  C21  1  0.00000000  1.00000000  0.79980717  1
  C  C22  1  -0.00000000  0.79980717  1.00000000  1
  C  C23  1  -0.00000000  0.54799027  0.54799027  1
  C  C24  1  0.00000000  0.00000000  0.45200973  1
  C  C25  1  -0.00000000  0.45200973  0.00000000  1
  C  C26  1  0.50000000  0.71400119  0.19226928  1
  C  C27  1  0.50000000  0.47826809  0.28599881  1
  C  C28  1  0.50000000  0.52173191  0.80773072  1
  C  C29  1  0.50000000  0.80773072  0.52173191  1
  C  C30  1  0.50000000  0.19226928  0.71400119  1
  C  C31  1  0.50000000  0.28599881  0.47826809  1
