# generated using pymatgen
data_SmHfF7
_symmetry_space_group_name_H-M   'P 1'
_cell_length_a   5.77505621
_cell_length_b   6.20454087
_cell_length_c   8.37789278
_cell_angle_alpha   101.74137387
_cell_angle_beta   90.00000000
_cell_angle_gamma   90.00000000
_symmetry_Int_Tables_number   1
_chemical_formula_structural   SmHfF7
_chemical_formula_sum   'Sm2 Hf2 F14'
_cell_volume   293.91186720
_cell_formula_units_Z   2
loop_
 _symmetry_equiv_pos_site_id
 _symmetry_equiv_pos_as_xyz
  1  'x, y, z'
loop_
 _atom_site_type_symbol
 _atom_site_label
 _atom_site_symmetry_multiplicity
 _atom_site_fract_x
 _atom_site_fract_y
 _atom_site_fract_z
 _atom_site_occupancy
  Sm  Sm0  1  0.69860412  0.65734440  0.68718685  1
  Sm  Sm1  1  0.19860412  0.34265560  0.31281315  1
  Hf  Hf2  1  0.70841580  0.81122802  0.22396857  1
  Hf  Hf3  1  0.20841580  0.18877198  0.77603143  1
  F  F4  1  0.88588876  0.44990029  0.47507739  1
  F  F5  1  0.38588876  0.55009971  0.52492261  1
  F  F6  1  0.42246965  0.93155357  0.76929876  1
  F  F7  1  0.92246965  0.06844643  0.23070124  1
  F  F8  1  0.94782133  0.96830682  0.76072966  1
  F  F9  1  0.44782133  0.03169318  0.23927034  1
  F  F10  1  0.99876270  0.44989177  0.78666029  1
  F  F11  1  0.49876270  0.55010823  0.21333971  1
  F  F12  1  0.70528974  0.75669365  0.98048413  1
  F  F13  1  0.20528974  0.24330635  0.01951587  1
  F  F14  1  0.71272825  0.85927184  0.46866662  1
  F  F15  1  0.21272825  0.14072816  0.53133338  1
  F  F16  1  0.49637966  0.37563153  0.78324471  1
  F  F17  1  0.99637966  0.62436847  0.21675529  1
