# generated using pymatgen
data_Sc2CoB2Ir5
_symmetry_space_group_name_H-M   'P 1'
_cell_length_a   3.05305914
_cell_length_b   9.36915292
_cell_length_c   9.36915292
_cell_angle_alpha   90.00000000
_cell_angle_beta   90.00000000
_cell_angle_gamma   90.00000000
_symmetry_Int_Tables_number   1
_chemical_formula_structural   Sc2CoB2Ir5
_chemical_formula_sum   'Sc4 Co2 B4 Ir10'
_cell_volume   268.00066509
_cell_formula_units_Z   2
loop_
 _symmetry_equiv_pos_site_id
 _symmetry_equiv_pos_as_xyz
  1  'x, y, z'
loop_
 _atom_site_type_symbol
 _atom_site_label
 _atom_site_symmetry_multiplicity
 _atom_site_fract_x
 _atom_site_fract_y
 _atom_site_fract_z
 _atom_site_occupancy
  Sc  Sc0  1  0.00000000  0.17585292  0.67585292  1
  Sc  Sc1  1  -0.00000000  0.82414708  0.32414708  1
  Sc  Sc2  1  -0.00000000  0.32414708  0.17585292  1
  Sc  Sc3  1  0.00000000  0.67585292  0.82414708  1
  Co  Co4  1  0.00000000  -0.00000000  -0.00000000  1
  Co  Co5  1  0.00000000  0.50000000  0.50000000  1
  B  B6  1  0.00000000  0.62592153  0.12592153  1
  B  B7  1  -0.00000000  0.37407847  0.87407847  1
  B  B8  1  -0.00000000  0.87407847  0.62592153  1
  B  B9  1  0.00000000  0.12592153  0.37407847  1
  Ir  Ir10  1  0.50000000  0.07103990  0.21502185  1
  Ir  Ir11  1  0.50000000  0.92896010  0.78497815  1
  Ir  Ir12  1  0.50000000  0.78497815  0.07103990  1
  Ir  Ir13  1  0.50000000  0.42896010  0.71502185  1
  Ir  Ir14  1  0.50000000  0.21502185  0.92896010  1
  Ir  Ir15  1  0.50000000  0.57103990  0.28497815  1
  Ir  Ir16  1  0.50000000  0.71502185  0.57103990  1
  Ir  Ir17  1  0.50000000  0.28497815  0.42896010  1
  Ir  Ir18  1  0.50000000  -0.00000000  0.50000000  1
  Ir  Ir19  1  0.50000000  0.50000000  0.00000000  1
