# generated using pymatgen
data_Li9Mn2Co5O16
_symmetry_space_group_name_H-M   'P 1'
_cell_length_a   2.92818767
_cell_length_b   10.19900663
_cell_length_c   10.33047289
_cell_angle_alpha   70.80801682
_cell_angle_beta   90.00000000
_cell_angle_gamma   90.00000000
_symmetry_Int_Tables_number   1
_chemical_formula_structural   Li9Mn2Co5O16
_chemical_formula_sum   'Li9 Mn2 Co5 O16'
_cell_volume   291.36893879
_cell_formula_units_Z   1
loop_
 _symmetry_equiv_pos_site_id
 _symmetry_equiv_pos_as_xyz
  1  'x, y, z'
loop_
 _atom_site_type_symbol
 _atom_site_label
 _atom_site_symmetry_multiplicity
 _atom_site_fract_x
 _atom_site_fract_y
 _atom_site_fract_z
 _atom_site_occupancy
  Li  Li0  1  0.50000000  0.00739428  0.24422682  1
  Li  Li1  1  0.50000000  0.99260572  0.75577318  1
  Li  Li2  1  -0.00000000  0.25286093  0.24206012  1
  Li  Li3  1  -0.00000000  0.24834890  0.75856817  1
  Li  Li4  1  0.50000000  0.49929920  0.22927892  1
  Li  Li5  1  0.50000000  0.50070080  0.77072108  1
  Li  Li6  1  0.00000000  0.75165110  0.24143183  1
  Li  Li7  1  0.00000000  0.74713907  0.75793988  1
  Li  Li8  1  -0.00000000  0.50000000  0.00000000  1
  Mn  Mn9  1  0.00000000  -0.00000000  0.00000000  1
  Mn  Mn10  1  0.00000000  0.50000000  0.50000000  1
  Co  Co11  1  0.00000000  -0.00000000  0.50000000  1
  Co  Co12  1  0.50000000  0.26805193  0.00560518  1
  Co  Co13  1  0.50000000  0.24478150  0.49855617  1
  Co  Co14  1  0.50000000  0.73194807  0.99439482  1
  Co  Co15  1  0.50000000  0.75521850  0.50144383  1
  O  O16  1  0.50000000  0.89042148  0.10999313  1
  O  O17  1  0.50000000  0.88161241  0.61514999  1
  O  O18  1  -0.00000000  0.12270048  0.10775221  1
  O  O19  1  -0.00000000  0.13551111  0.61456007  1
  O  O20  1  0.50000000  0.36397416  0.12269658  1
  O  O21  1  0.50000000  0.38980584  0.60838605  1
  O  O22  1  -0.00000000  0.63654883  0.11944977  1
  O  O23  1  0.00000000  0.62548406  0.60783304  1
  O  O24  1  0.50000000  0.11838759  0.38485001  1
  O  O25  1  0.50000000  0.10957852  0.89000687  1
  O  O26  1  -0.00000000  0.37451594  0.39216696  1
  O  O27  1  0.00000000  0.36345117  0.88055023  1
  O  O28  1  0.50000000  0.61019416  0.39161395  1
  O  O29  1  0.50000000  0.63602584  0.87730342  1
  O  O30  1  -0.00000000  0.86448889  0.38543993  1
  O  O31  1  0.00000000  0.87729952  0.89224779  1
