# generated using pymatgen
data_SrMgV2O7
_symmetry_space_group_name_H-M   'P 1'
_cell_length_a   6.92407763
_cell_length_b   11.49948650
_cell_length_c   15.04380036
_cell_angle_alpha   90.00000000
_cell_angle_beta   90.00000000
_cell_angle_gamma   99.12538647
_symmetry_Int_Tables_number   1
_chemical_formula_structural   SrMgV2O7
_chemical_formula_sum   'Sr8 Mg8 V16 O56'
_cell_volume   1182.67731708
_cell_formula_units_Z   8
loop_
 _symmetry_equiv_pos_site_id
 _symmetry_equiv_pos_as_xyz
  1  'x, y, z'
loop_
 _atom_site_type_symbol
 _atom_site_label
 _atom_site_symmetry_multiplicity
 _atom_site_fract_x
 _atom_site_fract_y
 _atom_site_fract_z
 _atom_site_occupancy
  Sr  Sr0  1  0.91738125  0.75462747  0.50481685  1
  Sr  Sr1  1  0.08261875  0.24537253  0.49518315  1
  Sr  Sr2  1  0.08261875  0.74537253  0.00481685  1
  Sr  Sr3  1  0.91738125  0.25462747  0.99518315  1
  Sr  Sr4  1  0.65842476  0.52081087  0.87573286  1
  Sr  Sr5  1  0.34157524  0.47918913  0.12426714  1
  Sr  Sr6  1  0.34157524  0.97918913  0.37573286  1
  Sr  Sr7  1  0.65842476  0.02081087  0.62426714  1
  Mg  Mg8  1  0.36135173  0.92292419  0.82446989  1
  Mg  Mg9  1  0.63864827  0.07707581  0.17553011  1
  Mg  Mg10  1  0.63864827  0.57707581  0.32446989  1
  Mg  Mg11  1  0.36135173  0.42292419  0.67553011  1
  Mg  Mg12  1  0.99595257  0.74989935  0.74601171  1
  Mg  Mg13  1  0.00404743  0.25010065  0.25398829  1
  Mg  Mg14  1  0.00404743  0.75010065  0.24601171  1
  Mg  Mg15  1  0.99595257  0.24989935  0.75398829  1
  V  V16  1  0.87349896  0.97902636  0.86291033  1
  V  V17  1  0.12650104  0.02097364  0.13708967  1
  V  V18  1  0.12650104  0.52097364  0.36291033  1
  V  V19  1  0.87349896  0.47902636  0.63708967  1
  V  V20  1  0.40890058  0.67715684  0.51240116  1
  V  V21  1  0.59109942  0.32284316  0.48759884  1
  V  V22  1  0.59109942  0.82284316  0.01240116  1
  V  V23  1  0.40890058  0.17715684  0.98759884  1
  V  V24  1  0.84433071  0.98175561  0.36413240  1
  V  V25  1  0.15566929  0.01824439  0.63586760  1
  V  V26  1  0.15566929  0.51824439  0.86413240  1
  V  V27  1  0.84433071  0.48175561  0.13586760  1
  V  V28  1  0.48617744  0.70137084  0.69999767  1
  V  V29  1  0.51382256  0.29862916  0.30000233  1
  V  V30  1  0.51382256  0.79862916  0.19999767  1
  V  V31  1  0.48617744  0.20137084  0.80000233  1
  O  O32  1  0.68023585  0.95031425  0.79162799  1
  O  O33  1  0.31976415  0.04968575  0.20837201  1
  O  O34  1  0.31976415  0.54968575  0.29162799  1
  O  O35  1  0.68023585  0.45031425  0.70837201  1
  O  O36  1  0.71641145  0.71378798  0.98234741  1
  O  O37  1  0.28358855  0.28621202  0.01765259  1
  O  O38  1  0.28358855  0.78621202  0.48234741  1
  O  O39  1  0.71641145  0.21378798  0.51765259  1
  O  O40  1  0.96887191  0.62704800  0.64242683  1
  O  O41  1  0.03112809  0.37295200  0.35757317  1
  O  O42  1  0.03112809  0.87295200  0.14242683  1
  O  O43  1  0.96887191  0.12704800  0.85757317  1
  O  O44  1  0.57182700  0.78434941  0.60191356  1
  O  O45  1  0.42817300  0.21565059  0.39808644  1
  O  O46  1  0.42817300  0.71565059  0.10191356  1
  O  O47  1  0.57182700  0.28434941  0.89808644  1
  O  O48  1  0.65207466  0.96626963  0.28549224  1
  O  O49  1  0.34792534  0.03373037  0.71450776  1
  O  O50  1  0.34792534  0.53373037  0.78549224  1
  O  O51  1  0.65207466  0.46626963  0.21450776  1
  O  O52  1  0.99043258  0.87119300  0.35362050  1
  O  O53  1  0.00956742  0.12880700  0.64637950  1
  O  O54  1  0.00956742  0.62880700  0.85362050  1
  O  O55  1  0.99043258  0.37119300  0.14637950  1
  O  O56  1  0.31186768  0.77621969  0.74542422  1
  O  O57  1  0.68813232  0.22378031  0.25457578  1
  O  O58  1  0.68813232  0.72378031  0.24542422  1
  O  O59  1  0.31186768  0.27621969  0.75457578  1
  O  O60  1  0.40577429  0.83271135  0.93989537  1
  O  O61  1  0.59422571  0.16728865  0.06010463  1
  O  O62  1  0.59422571  0.66728865  0.43989537  1
  O  O63  1  0.40577429  0.33271135  0.56010463  1
  O  O64  1  0.77906130  0.94961351  0.97216518  1
  O  O65  1  0.22093870  0.05038649  0.02783482  1
  O  O66  1  0.22093870  0.55038649  0.47216518  1
  O  O67  1  0.77906130  0.44961351  0.52783482  1
  O  O68  1  0.73873555  0.96263562  0.46710090  1
  O  O69  1  0.26126445  0.03736438  0.53289910  1
  O  O70  1  0.26126445  0.53736438  0.96710090  1
  O  O71  1  0.73873555  0.46263562  0.03289910  1
  O  O72  1  0.39874026  0.58495289  0.61908523  1
  O  O73  1  0.60125974  0.41504711  0.38091477  1
  O  O74  1  0.60125974  0.91504711  0.11908523  1
  O  O75  1  0.39874026  0.08495289  0.88091477  1
  O  O76  1  0.00008493  0.88374540  0.64308533  1
  O  O77  1  -0.00008493  0.11625460  0.35691467  1
  O  O78  1  -0.00008493  0.61625460  0.14308533  1
  O  O79  1  0.00008493  0.38374540  0.85691467  1
  O  O80  1  0.68887980  0.70191708  0.76374299  1
  O  O81  1  0.31112020  0.29808292  0.23625701  1
  O  O82  1  0.31112020  0.79808292  0.26374299  1
  O  O83  1  0.68887980  0.20191708  0.73625701  1
  O  O84  1  0.95039620  0.61430284  0.34215336  1
  O  O85  1  0.04960380  0.38569716  0.65784664  1
  O  O86  1  0.04960380  0.88569716  0.84215336  1
  O  O87  1  0.95039620  0.11430284  0.15784664  1
