# generated using pymatgen
data_Sm2Si5Pt3
_symmetry_space_group_name_H-M   'P 1'
_cell_length_a   6.09256010
_cell_length_b   8.21935950
_cell_length_c   8.21935950
_cell_angle_alpha   74.88702347
_cell_angle_beta   68.24598278
_cell_angle_gamma   68.24598278
_symmetry_Int_Tables_number   1
_chemical_formula_structural   Sm2Si5Pt3
_chemical_formula_sum   'Sm4 Si10 Pt6'
_cell_volume   351.41314375
_cell_formula_units_Z   2
loop_
 _symmetry_equiv_pos_site_id
 _symmetry_equiv_pos_as_xyz
  1  'x, y, z'
loop_
 _atom_site_type_symbol
 _atom_site_label
 _atom_site_symmetry_multiplicity
 _atom_site_fract_x
 _atom_site_fract_y
 _atom_site_fract_z
 _atom_site_occupancy
  Sm  Sm0  1  0.63062587  0.09978606  0.63896221  1
  Sm  Sm1  1  0.36937413  0.90021394  0.36103779  1
  Sm  Sm2  1  0.13062587  0.63896221  0.09978606  1
  Sm  Sm3  1  0.86937413  0.36103779  0.90021394  1
  Si  Si4  1  0.47768164  0.27231836  0.27231836  1
  Si  Si5  1  0.52231836  0.72768164  0.72768164  1
  Si  Si6  1  0.02231836  0.72768164  0.72768164  1
  Si  Si7  1  0.97768164  0.27231836  0.27231836  1
  Si  Si8  1  0.88853489  0.76248301  0.46044722  1
  Si  Si9  1  0.11146511  0.23751699  0.53955278  1
  Si  Si10  1  0.38853489  0.46044722  0.76248301  1
  Si  Si11  1  0.61146511  0.53955278  0.23751699  1
  Si  Si12  1  0.75000000  -0.00000000  -0.00000000  1
  Si  Si13  1  0.25000000  -0.00000000  -0.00000000  1
  Pt  Pt14  1  0.86324480  0.02614528  0.24736512  1
  Pt  Pt15  1  0.13675520  0.97385472  0.75263488  1
  Pt  Pt16  1  0.36324480  0.24736512  0.02614528  1
  Pt  Pt17  1  0.63675520  0.75263488  0.97385472  1
  Pt  Pt18  1  0.75000000  0.50000000  0.50000000  1
  Pt  Pt19  1  0.25000000  0.50000000  0.50000000  1
