# generated using pymatgen
data_RbAgTeS3
_symmetry_space_group_name_H-M   'P 1'
_cell_length_a   7.76294994
_cell_length_b   8.74913631
_cell_length_c   11.00699227
_cell_angle_alpha   90.00000000
_cell_angle_beta   90.00000000
_cell_angle_gamma   106.07739768
_symmetry_Int_Tables_number   1
_chemical_formula_structural   RbAgTeS3
_chemical_formula_sum   'Rb4 Ag4 Te4 S12'
_cell_volume   718.34589580
_cell_formula_units_Z   4
loop_
 _symmetry_equiv_pos_site_id
 _symmetry_equiv_pos_as_xyz
  1  'x, y, z'
loop_
 _atom_site_type_symbol
 _atom_site_label
 _atom_site_symmetry_multiplicity
 _atom_site_fract_x
 _atom_site_fract_y
 _atom_site_fract_z
 _atom_site_occupancy
  Rb  Rb0  1  0.47464302  0.61567890  0.74021988  1
  Rb  Rb1  1  0.52535698  0.38432110  0.25978012  1
  Rb  Rb2  1  0.52535698  0.88432110  0.24021988  1
  Rb  Rb3  1  0.47464302  0.11567890  0.75978012  1
  Ag  Ag4  1  0.91904741  0.98011398  0.74993965  1
  Ag  Ag5  1  0.08095259  0.01988602  0.25006035  1
  Ag  Ag6  1  0.08095259  0.51988602  0.24993965  1
  Ag  Ag7  1  0.91904741  0.48011398  0.75006035  1
  Te  Te8  1  0.91977060  0.72843555  0.00174982  1
  Te  Te9  1  0.08022940  0.27156445  0.99825018  1
  Te  Te10  1  0.08022940  0.77156445  0.50174982  1
  Te  Te11  1  0.91977060  0.22843555  0.49825018  1
  S  S12  1  0.74066953  0.96952586  0.55216155  1
  S  S13  1  0.25933047  0.03047414  0.44783845  1
  S  S14  1  0.25933047  0.53047414  0.05216155  1
  S  S15  1  0.74066953  0.46952586  0.94783845  1
  S  S16  1  0.87412153  0.71941382  0.21900500  1
  S  S17  1  0.12587847  0.28058618  0.78099500  1
  S  S18  1  0.12587847  0.78058618  0.71900500  1
  S  S19  1  0.87412153  0.21941382  0.28099500  1
  S  S20  1  0.73590480  0.89665162  0.94600185  1
  S  S21  1  0.26409520  0.10334838  0.05399815  1
  S  S22  1  0.26409520  0.60334838  0.44600185  1
  S  S23  1  0.73590480  0.39665162  0.55399815  1
