# generated using pymatgen
data_Li9Mn2Co5O16
_symmetry_space_group_name_H-M   'P 1'
_cell_length_a   2.92584149
_cell_length_b   10.13201951
_cell_length_c   9.93953046
_cell_angle_alpha   100.14978331
_cell_angle_beta   90.00000000
_cell_angle_gamma   90.00000000
_symmetry_Int_Tables_number   1
_chemical_formula_structural   Li9Mn2Co5O16
_chemical_formula_sum   'Li9 Mn2 Co5 O16'
_cell_volume   290.04301996
_cell_formula_units_Z   1
loop_
 _symmetry_equiv_pos_site_id
 _symmetry_equiv_pos_as_xyz
  1  'x, y, z'
loop_
 _atom_site_type_symbol
 _atom_site_label
 _atom_site_symmetry_multiplicity
 _atom_site_fract_x
 _atom_site_fract_y
 _atom_site_fract_z
 _atom_site_occupancy
  Li  Li0  1  0.50000000  0.12308703  0.24629160  1
  Li  Li1  1  0.50000000  0.38166936  0.77454921  1
  Li  Li2  1  0.50000000  0.61833064  0.22545079  1
  Li  Li3  1  0.00000000  0.37475165  0.24292340  1
  Li  Li4  1  0.00000000  0.62524835  0.75707660  1
  Li  Li5  1  0.00000000  0.86888929  0.24656984  1
  Li  Li6  1  0.50000000  0.87691297  0.75370840  1
  Li  Li7  1  0.00000000  0.13111071  0.75343016  1
  Li  Li8  1  0.00000000  0.50000000  -0.00000000  1
  Mn  Mn9  1  0.00000000  -0.00000000  -0.00000000  1
  Mn  Mn10  1  0.50000000  0.50000000  0.50000000  1
  Co  Co11  1  0.00000000  0.24377696  0.50157137  1
  Co  Co12  1  0.00000000  0.75622304  0.49842863  1
  Co  Co13  1  0.50000000  0.73066715  0.99326974  1
  Co  Co14  1  0.50000000  -0.00000000  0.50000000  1
  Co  Co15  1  0.50000000  0.26933285  0.00673026  1
  O  O16  1  0.50000000  0.94326465  0.10760665  1
  O  O17  1  0.50000000  0.18773821  0.61568631  1
  O  O18  1  0.50000000  0.42647100  0.12446195  1
  O  O19  1  0.00000000  0.17758967  0.11012076  1
  O  O20  1  0.00000000  0.44576164  0.60950384  1
  O  O21  1  0.00000000  0.69474947  0.11602745  1
  O  O22  1  0.50000000  0.68057062  0.60599773  1
  O  O23  1  -0.00000000  0.93700577  0.61880541  1
  O  O24  1  0.50000000  0.31942938  0.39400227  1
  O  O25  1  0.50000000  0.57352900  0.87553805  1
  O  O26  1  0.50000000  0.81226179  0.38431369  1
  O  O27  1  0.00000000  0.55423836  0.39049616  1
  O  O28  1  -0.00000000  0.82241033  0.88987924  1
  O  O29  1  0.00000000  0.06299423  0.38119459  1
  O  O30  1  0.50000000  0.05673535  0.89239335  1
  O  O31  1  0.00000000  0.30525053  0.88397255  1
