# generated using pymatgen
data_RbBePO4
_symmetry_space_group_name_H-M   'P 1'
_cell_length_a   5.06247002
_cell_length_b   8.64997225
_cell_length_c   8.73907241
_cell_angle_alpha   90.00000000
_cell_angle_beta   90.00000000
_cell_angle_gamma   90.00000000
_symmetry_Int_Tables_number   1
_chemical_formula_structural   RbBePO4
_chemical_formula_sum   'Rb4 Be4 P4 O16'
_cell_volume   382.68594878
_cell_formula_units_Z   4
loop_
 _symmetry_equiv_pos_site_id
 _symmetry_equiv_pos_as_xyz
  1  'x, y, z'
loop_
 _atom_site_type_symbol
 _atom_site_label
 _atom_site_symmetry_multiplicity
 _atom_site_fract_x
 _atom_site_fract_y
 _atom_site_fract_z
 _atom_site_occupancy
  Rb  Rb0  1  0.50524148  0.99949631  0.29212685  1
  Rb  Rb1  1  0.00524148  0.00050369  0.70787315  1
  Rb  Rb2  1  0.50524148  0.49949631  0.20787315  1
  Rb  Rb3  1  0.00524148  0.50050369  0.79212685  1
  Be  Be4  1  0.00083107  0.32231933  0.40710930  1
  Be  Be5  1  0.50083107  0.67768067  0.59289070  1
  Be  Be6  1  0.00083107  0.82231933  0.09289070  1
  Be  Be7  1  0.50083107  0.17768067  0.90710930  1
  P  P8  1  0.99984656  0.18632266  0.08025193  1
  P  P9  1  0.49984656  0.81367734  0.91974807  1
  P  P10  1  0.99984656  0.68632266  0.41974807  1
  P  P11  1  0.49984656  0.31367734  0.58025193  1
  O  O12  1  0.29390396  0.26092242  0.45883613  1
  O  O13  1  0.79390396  0.73907758  0.54116387  1
  O  O14  1  0.29390396  0.76092242  0.04116387  1
  O  O15  1  0.79390396  0.23907758  0.95883613  1
  O  O16  1  0.99607668  0.01011018  0.09772960  1
  O  O17  1  0.49607668  0.98988982  0.90227040  1
  O  O18  1  0.99607668  0.51011018  0.40227040  1
  O  O19  1  0.49607668  0.48988982  0.59772960  1
  O  O20  1  0.27685643  0.24292533  0.02825060  1
  O  O21  1  0.77685643  0.75707467  0.97174940  1
  O  O22  1  0.27685643  0.74292533  0.47174940  1
  O  O23  1  0.77685643  0.25707467  0.52825060  1
  O  O24  1  0.42874381  0.23909350  0.73528102  1
  O  O25  1  0.92874381  0.76090650  0.26471898  1
  O  O26  1  0.42874381  0.73909350  0.76471898  1
  O  O27  1  0.92874381  0.26090650  0.23528102  1
