# generated using pymatgen
data_RbSm(WO4)2
_symmetry_space_group_name_H-M   'P 1'
_cell_length_a   7.69556926
_cell_length_b   7.69556926
_cell_length_c   7.54894396
_cell_angle_alpha   62.77064791
_cell_angle_beta   62.77064791
_cell_angle_gamma   89.17745485
_symmetry_Int_Tables_number   1
_chemical_formula_structural   RbSm(WO4)2
_chemical_formula_sum   'Rb2 Sm2 W4 O16'
_cell_volume   342.54816996
_cell_formula_units_Z   2
loop_
 _symmetry_equiv_pos_site_id
 _symmetry_equiv_pos_as_xyz
  1  'x, y, z'
loop_
 _atom_site_type_symbol
 _atom_site_label
 _atom_site_symmetry_multiplicity
 _atom_site_fract_x
 _atom_site_fract_y
 _atom_site_fract_z
 _atom_site_occupancy
  Rb  Rb0  1  0.80055225  0.19944775  0.75000000  1
  Rb  Rb1  1  0.19944775  0.80055225  0.25000000  1
  Sm  Sm2  1  0.22470943  0.77529057  0.75000000  1
  Sm  Sm3  1  0.77529057  0.22470943  0.25000000  1
  W  W4  1  0.30204534  0.31228281  0.72108003  1
  W  W5  1  0.69795466  0.68771719  0.27891997  1
  W  W6  1  0.68771719  0.69795466  0.77891997  1
  W  W7  1  0.31228281  0.30204534  0.22108003  1
  O  O8  1  0.37951746  0.24788990  0.94086722  1
  O  O9  1  0.62048254  0.75211010  0.05913278  1
  O  O10  1  0.75211010  0.62048254  0.55913278  1
  O  O11  1  0.24788990  0.37951746  0.44086722  1
  O  O12  1  0.61999307  0.93278420  0.62982174  1
  O  O13  1  0.38000693  0.06721580  0.37017826  1
  O  O14  1  0.06721580  0.38000693  0.87017826  1
  O  O15  1  0.93278420  0.61999307  0.12982174  1
  O  O16  1  0.41347007  0.62976535  0.52948398  1
  O  O17  1  0.58652993  0.37023465  0.47051602  1
  O  O18  1  0.37023465  0.58652993  0.97051602  1
  O  O19  1  0.62976535  0.41347007  0.02948398  1
  O  O20  1  0.21374347  0.05104603  0.80804819  1
  O  O21  1  0.78625653  0.94895397  0.19195181  1
  O  O22  1  0.94895397  0.78625653  0.69195181  1
  O  O23  1  0.05104603  0.21374347  0.30804819  1
