# generated using pymatgen
data_RbP15
_symmetry_space_group_name_H-M   'P 1'
_cell_length_a   7.60928656
_cell_length_b   9.50323696
_cell_length_c   12.88839911
_cell_angle_alpha   88.41813925
_cell_angle_beta   78.45601347
_cell_angle_gamma   68.32989798
_symmetry_Int_Tables_number   1
_chemical_formula_structural   RbP15
_chemical_formula_sum   'Rb2 P30'
_cell_volume   847.51036125
_cell_formula_units_Z   2
loop_
 _symmetry_equiv_pos_site_id
 _symmetry_equiv_pos_as_xyz
  1  'x, y, z'
loop_
 _atom_site_type_symbol
 _atom_site_label
 _atom_site_symmetry_multiplicity
 _atom_site_fract_x
 _atom_site_fract_y
 _atom_site_fract_z
 _atom_site_occupancy
  Rb  Rb0  1  0.21539743  0.78997858  0.99807475  1
  Rb  Rb1  1  0.78460257  0.21002142  0.00192525  1
  P  P2  1  0.01060724  0.56758292  0.18872633  1
  P  P3  1  0.98939276  0.43241708  0.81127367  1
  P  P4  1  0.29742042  0.12147441  0.81073329  1
  P  P5  1  0.70257958  0.87852559  0.18926671  1
  P  P6  1  0.12072114  0.23753804  0.69514488  1
  P  P7  1  0.87927886  0.76246196  0.30485512  1
  P  P8  1  0.33407419  0.30947209  0.57089022  1
  P  P9  1  0.66592581  0.69052791  0.42910978  1
  P  P10  1  0.19945048  0.40996822  0.28401535  1
  P  P11  1  0.80054952  0.59003178  0.71598465  1
  P  P12  1  0.00720729  0.66099498  0.59478665  1
  P  P13  1  0.99279271  0.33900502  0.40521335  1
  P  P14  1  0.52126179  0.73707705  0.19417840  1
  P  P15  1  0.47873821  0.26292295  0.80582160  1
  P  P16  1  0.31275678  0.01666663  0.40580305  1
  P  P17  1  0.68724322  0.98333337  0.59419695  1
  P  P18  1  0.29381983  0.53661042  0.63117629  1
  P  P19  1  0.70618017  0.46338958  0.36882371  1
  P  P20  1  0.03948267  0.10754891  0.34440598  1
  P  P21  1  0.96051733  0.89245109  0.65559402  1
  P  P22  1  0.75777139  0.49822726  0.19492277  1
  P  P23  1  0.24222861  0.50177274  0.80507723  1
  P  P24  1  0.60347456  0.22671450  0.63226249  1
  P  P25  1  0.39652544  0.77328550  0.36773751  1
  P  P26  1  0.51988499  0.08810573  0.28540115  1
  P  P27  1  0.48011501  0.91189427  0.71459885  1
  P  P28  1  0.12594367  0.10602758  0.17448126  1
  P  P29  1  0.87405633  0.89397242  0.82551874  1
  P  P30  1  0.33727366  0.20798168  0.17022105  1
  P  P31  1  0.66272634  0.79201832  0.82977895  1
