# generated using pymatgen
data_Rb3MnBr5
_symmetry_space_group_name_H-M   'P 1'
_cell_length_a   9.43997026
_cell_length_b   9.43997026
_cell_length_c   10.19834051
_cell_angle_alpha   117.56915858
_cell_angle_beta   117.56915858
_cell_angle_gamma   90.00000000
_symmetry_Int_Tables_number   1
_chemical_formula_structural   Rb3MnBr5
_chemical_formula_sum   'Rb6 Mn2 Br10'
_cell_volume   687.09348374
_cell_formula_units_Z   2
loop_
 _symmetry_equiv_pos_site_id
 _symmetry_equiv_pos_as_xyz
  1  'x, y, z'
loop_
 _atom_site_type_symbol
 _atom_site_label
 _atom_site_symmetry_multiplicity
 _atom_site_fract_x
 _atom_site_fract_y
 _atom_site_fract_z
 _atom_site_occupancy
  Rb  Rb0  1  0.25000000  0.25000000  0.50000000  1
  Rb  Rb1  1  0.75000000  0.75000000  0.50000000  1
  Rb  Rb2  1  0.66712658  0.16712658  0.00000000  1
  Rb  Rb3  1  0.33287342  0.83287342  -0.00000000  1
  Rb  Rb4  1  0.83287342  0.66712658  -0.00000000  1
  Rb  Rb5  1  0.16712658  0.33287342  0.00000000  1
  Mn  Mn6  1  0.25000000  0.75000000  0.50000000  1
  Mn  Mn7  1  0.75000000  0.25000000  0.50000000  1
  Br  Br8  1  0.29770530  0.79770530  0.30280772  1
  Br  Br9  1  0.70229470  0.20229470  0.69719228  1
  Br  Br10  1  0.00510242  0.50510242  0.30280772  1
  Br  Br11  1  0.50510242  0.29770530  0.30280772  1
  Br  Br12  1  0.20229470  0.99489758  0.69719228  1
  Br  Br13  1  0.99489758  0.49489758  0.69719228  1
  Br  Br14  1  0.49489758  0.70229470  0.69719228  1
  Br  Br15  1  0.79770530  0.00510242  0.30280772  1
  Br  Br16  1  -0.00000000  -0.00000000  0.00000000  1
  Br  Br17  1  0.50000000  0.50000000  -0.00000000  1
