# generated using pymatgen
data_Rb3Ta2AsS11
_symmetry_space_group_name_H-M   'P 1'
_cell_length_a   9.79468773
_cell_length_b   9.93659145
_cell_length_c   9.93659145
_cell_angle_alpha   83.70510336
_cell_angle_beta   83.60112938
_cell_angle_gamma   83.60112938
_symmetry_Int_Tables_number   1
_chemical_formula_structural   Rb3Ta2AsS11
_chemical_formula_sum   'Rb6 Ta4 As2 S22'
_cell_volume   950.43514242
_cell_formula_units_Z   2
loop_
 _symmetry_equiv_pos_site_id
 _symmetry_equiv_pos_as_xyz
  1  'x, y, z'
loop_
 _atom_site_type_symbol
 _atom_site_label
 _atom_site_symmetry_multiplicity
 _atom_site_fract_x
 _atom_site_fract_y
 _atom_site_fract_z
 _atom_site_occupancy
  Rb  Rb0  1  0.66023592  0.69368992  0.53916719  1
  Rb  Rb1  1  0.16023592  0.53916719  0.69368992  1
  Rb  Rb2  1  0.33030783  0.43266084  0.30025285  1
  Rb  Rb3  1  0.83030783  0.30025285  0.43266084  1
  Rb  Rb4  1  0.07325293  0.06680831  0.90480045  1
  Rb  Rb5  1  0.57325293  0.90480045  0.06680831  1
  Ta  Ta6  1  0.05352748  0.79790197  0.33777681  1
  Ta  Ta7  1  0.55352748  0.33777681  0.79790197  1
  Ta  Ta8  1  0.23865000  0.04475968  0.46189905  1
  Ta  Ta9  1  0.73865000  0.46189905  0.04475968  1
  As  As10  1  0.49681591  0.99353433  0.67649363  1
  As  As11  1  0.99681591  0.67649363  0.99353433  1
  S  S12  1  0.30395128  0.78072962  0.36355754  1
  S  S13  1  0.80395128  0.36355754  0.78072962  1
  S  S14  1  0.25323556  0.76925222  0.16611152  1
  S  S15  1  0.75323556  0.16611152  0.76925222  1
  S  S16  1  0.00143942  0.58776869  0.41635244  1
  S  S17  1  0.50143942  0.41635244  0.58776869  1
  S  S18  1  0.30721531  0.87867196  0.66351124  1
  S  S19  1  0.80721531  0.66351124  0.87867196  1
  S  S20  1  0.36224195  0.44685380  0.94713028  1
  S  S21  1  0.86224195  0.94713028  0.44685380  1
  S  S22  1  0.15105393  0.22905785  0.56442869  1
  S  S23  1  0.65105393  0.56442869  0.22905785  1
  S  S24  1  0.48705166  0.08091689  0.45747517  1
  S  S25  1  0.98705166  0.45747517  0.08091689  1
  S  S26  1  0.29328493  0.11832941  0.21839411  1
  S  S27  1  0.79328493  0.21839411  0.11832941  1
  S  S28  1  0.40419000  0.14580778  0.82673548  1
  S  S29  1  0.90419000  0.82673548  0.14580778  1
  S  S30  1  0.03068247  0.90156603  0.56102250  1
  S  S31  1  0.53068247  0.56102250  0.90156603  1
  S  S32  1  0.09151342  0.07371392  0.27236786  1
  S  S33  1  0.59151342  0.27236786  0.07371392  1
