# generated using pymatgen
data_Rb2BiF5
_symmetry_space_group_name_H-M   'P 1'
_cell_length_a   6.53284424
_cell_length_b   8.41980866
_cell_length_c   12.65569262
_cell_angle_alpha   90.00000000
_cell_angle_beta   90.00000000
_cell_angle_gamma   90.00000000
_symmetry_Int_Tables_number   1
_chemical_formula_structural   Rb2BiF5
_chemical_formula_sum   'Rb8 Bi4 F20'
_cell_volume   696.13015037
_cell_formula_units_Z   4
loop_
 _symmetry_equiv_pos_site_id
 _symmetry_equiv_pos_as_xyz
  1  'x, y, z'
loop_
 _atom_site_type_symbol
 _atom_site_label
 _atom_site_symmetry_multiplicity
 _atom_site_fract_x
 _atom_site_fract_y
 _atom_site_fract_z
 _atom_site_occupancy
  Rb  Rb0  1  0.75000000  0.49292384  0.26759285  1
  Rb  Rb1  1  0.25000000  0.50707616  0.73240715  1
  Rb  Rb2  1  0.25000000  0.00707616  0.76759285  1
  Rb  Rb3  1  0.75000000  0.99292384  0.23240715  1
  Rb  Rb4  1  0.75000000  0.84823036  0.57901977  1
  Rb  Rb5  1  0.25000000  0.15176964  0.42098023  1
  Rb  Rb6  1  0.25000000  0.65176964  0.07901977  1
  Rb  Rb7  1  0.75000000  0.34823036  0.92098023  1
  Bi  Bi8  1  0.75000000  0.82529938  0.93288653  1
  Bi  Bi9  1  0.25000000  0.17470062  0.06711347  1
  Bi  Bi10  1  0.25000000  0.67470062  0.43288653  1
  Bi  Bi11  1  0.75000000  0.32529938  0.56711347  1
  F  F12  1  0.75000000  0.71294827  0.09793339  1
  F  F13  1  0.25000000  0.28705173  0.90206661  1
  F  F14  1  0.25000000  0.78705173  0.59793339  1
  F  F15  1  0.75000000  0.21294827  0.40206661  1
  F  F16  1  0.00690783  0.66542371  0.88466449  1
  F  F17  1  0.99309217  0.33457629  0.11533551  1
  F  F18  1  0.99309217  0.83457629  0.38466449  1
  F  F19  1  0.50690783  0.33457629  0.11533551  1
  F  F20  1  0.00690783  0.16542371  0.61533551  1
  F  F21  1  0.49309217  0.66542371  0.88466449  1
  F  F22  1  0.49309217  0.16542371  0.61533551  1
  F  F23  1  0.50690783  0.83457629  0.38466449  1
  F  F24  1  -0.00000000  0.00000000  0.00000000  1
  F  F25  1  -0.00000000  0.50000000  0.50000000  1
  F  F26  1  0.50000000  0.00000000  0.00000000  1
  F  F27  1  0.50000000  0.50000000  0.50000000  1
  F  F28  1  0.75000000  0.97682771  0.78649209  1
  F  F29  1  0.25000000  0.02317229  0.21350791  1
  F  F30  1  0.25000000  0.52317229  0.28649209  1
  F  F31  1  0.75000000  0.47682771  0.71350791  1
