# generated using pymatgen
data_Sm12InCo6
_symmetry_space_group_name_H-M   'P 1'
_cell_length_a   8.57067164
_cell_length_b   8.57067164
_cell_length_c   8.57067164
_cell_angle_alpha   109.47122063
_cell_angle_beta   109.47122063
_cell_angle_gamma   109.47122063
_symmetry_Int_Tables_number   1
_chemical_formula_structural   Sm12InCo6
_chemical_formula_sum   'Sm12 In1 Co6'
_cell_volume   484.64382070
_cell_formula_units_Z   1
loop_
 _symmetry_equiv_pos_site_id
 _symmetry_equiv_pos_as_xyz
  1  'x, y, z'
loop_
 _atom_site_type_symbol
 _atom_site_label
 _atom_site_symmetry_multiplicity
 _atom_site_fract_x
 _atom_site_fract_y
 _atom_site_fract_z
 _atom_site_occupancy
  Sm  Sm0  1  0.80882614  0.69416553  0.50299167  1
  Sm  Sm1  1  0.19117386  0.30583447  0.49700833  1
  Sm  Sm2  1  0.19117386  0.69416553  0.88533939  1
  Sm  Sm3  1  0.80882614  0.30583447  0.11466061  1
  Sm  Sm4  1  0.69416553  0.50299167  0.80882614  1
  Sm  Sm5  1  0.30583447  0.49700833  0.19117386  1
  Sm  Sm6  1  0.69416553  0.88533939  0.19117386  1
  Sm  Sm7  1  0.30583447  0.11466061  0.80882614  1
  Sm  Sm8  1  0.50299167  0.80882614  0.69416553  1
  Sm  Sm9  1  0.49700833  0.19117386  0.30583447  1
  Sm  Sm10  1  0.11466061  0.80882614  0.30583447  1
  Sm  Sm11  1  0.88533939  0.19117386  0.69416553  1
  In  In12  1  -0.00000000  -0.00000000  0.00000000  1
  Co  Co13  1  0.88831848  0.38831848  0.50000000  1
  Co  Co14  1  0.11168152  0.61168152  0.50000000  1
  Co  Co15  1  0.38831848  0.50000000  0.88831848  1
  Co  Co16  1  0.61168152  0.50000000  0.11168152  1
  Co  Co17  1  0.50000000  0.88831848  0.38831848  1
  Co  Co18  1  0.50000000  0.11168152  0.61168152  1
