# generated using pymatgen
data_RbHo2Cl7
_symmetry_space_group_name_H-M   'P 1'
_cell_length_a   6.98844926
_cell_length_b   13.42490933
_cell_length_c   12.65622109
_cell_angle_alpha   90.00000000
_cell_angle_beta   90.00000000
_cell_angle_gamma   90.00000000
_symmetry_Int_Tables_number   1
_chemical_formula_structural   RbHo2Cl7
_chemical_formula_sum   'Rb4 Ho8 Cl28'
_cell_volume   1187.39777386
_cell_formula_units_Z   4
loop_
 _symmetry_equiv_pos_site_id
 _symmetry_equiv_pos_as_xyz
  1  'x, y, z'
loop_
 _atom_site_type_symbol
 _atom_site_label
 _atom_site_symmetry_multiplicity
 _atom_site_fract_x
 _atom_site_fract_y
 _atom_site_fract_z
 _atom_site_occupancy
  Rb  Rb0  1  0.75000000  0.95845537  0.19570471  1
  Rb  Rb1  1  0.25000000  0.04154463  0.80429529  1
  Rb  Rb2  1  0.25000000  0.54154463  0.69570471  1
  Rb  Rb3  1  0.75000000  0.45845537  0.30429529  1
  Ho  Ho4  1  0.75000000  0.76292067  0.53983430  1
  Ho  Ho5  1  0.25000000  0.23707933  0.46016570  1
  Ho  Ho6  1  0.25000000  0.73707933  0.03983430  1
  Ho  Ho7  1  0.75000000  0.26292067  0.96016570  1
  Ho  Ho8  1  0.75000000  0.75009760  0.84274653  1
  Ho  Ho9  1  0.25000000  0.24990240  0.15725347  1
  Ho  Ho10  1  0.25000000  0.74990240  0.34274653  1
  Ho  Ho11  1  0.75000000  0.25009760  0.65725347  1
  Cl  Cl12  1  0.98907246  0.82459375  0.69319460  1
  Cl  Cl13  1  0.01092754  0.17540625  0.30680540  1
  Cl  Cl14  1  0.01092754  0.67540625  0.19319460  1
  Cl  Cl15  1  0.48907246  0.17540625  0.30680540  1
  Cl  Cl16  1  0.98907246  0.32459375  0.80680540  1
  Cl  Cl17  1  0.51092754  0.82459375  0.69319460  1
  Cl  Cl18  1  0.51092754  0.32459375  0.80680540  1
  Cl  Cl19  1  0.48907246  0.67540625  0.19319460  1
  Cl  Cl20  1  0.98954612  0.87745111  0.42238783  1
  Cl  Cl21  1  0.01045388  0.12254889  0.57761217  1
  Cl  Cl22  1  0.01045388  0.62254889  0.92238783  1
  Cl  Cl23  1  0.48954612  0.12254889  0.57761217  1
  Cl  Cl24  1  0.98954612  0.37745111  0.07761217  1
  Cl  Cl25  1  0.51045388  0.87745111  0.42238783  1
  Cl  Cl26  1  0.51045388  0.37745111  0.07761217  1
  Cl  Cl27  1  0.48954612  0.62254889  0.92238783  1
  Cl  Cl28  1  0.99046145  0.86610385  0.96025104  1
  Cl  Cl29  1  0.00953855  0.13389615  0.03974896  1
  Cl  Cl30  1  0.00953855  0.63389615  0.46025104  1
  Cl  Cl31  1  0.49046145  0.13389615  0.03974896  1
  Cl  Cl32  1  0.99046145  0.36610385  0.53974896  1
  Cl  Cl33  1  0.50953855  0.86610385  0.96025104  1
  Cl  Cl34  1  0.50953855  0.36610385  0.53974896  1
  Cl  Cl35  1  0.49046145  0.63389615  0.46025104  1
  Cl  Cl36  1  0.75000000  0.60939940  0.68818759  1
  Cl  Cl37  1  0.25000000  0.39060060  0.31181241  1
  Cl  Cl38  1  0.25000000  0.89060060  0.18818759  1
  Cl  Cl39  1  0.75000000  0.10939940  0.81181241  1
