# generated using pymatgen
data_Rb3Ho(PO4)2
_symmetry_space_group_name_H-M   'P 1'
_cell_length_a   5.76177993
_cell_length_b   5.76177993
_cell_length_c   8.07339371
_cell_angle_alpha   90.00000000
_cell_angle_beta   90.00000000
_cell_angle_gamma   120.00000373
_symmetry_Int_Tables_number   1
_chemical_formula_structural   Rb3Ho(PO4)2
_chemical_formula_sum   'Rb3 Ho1 P2 O8'
_cell_volume   232.11332857
_cell_formula_units_Z   1
loop_
 _symmetry_equiv_pos_site_id
 _symmetry_equiv_pos_as_xyz
  1  'x, y, z'
loop_
 _atom_site_type_symbol
 _atom_site_label
 _atom_site_symmetry_multiplicity
 _atom_site_fract_x
 _atom_site_fract_y
 _atom_site_fract_z
 _atom_site_occupancy
  Rb  Rb0  1  0.66666700  0.33333300  0.25823501  1
  Rb  Rb1  1  0.33333300  0.66666700  0.74176499  1
  Rb  Rb2  1  -0.00000000  0.00000000  -0.00000000  1
  Ho  Ho3  1  -0.00000000  0.00000000  0.50000000  1
  P  P4  1  0.66666700  0.33333300  0.72659119  1
  P  P5  1  0.33333300  0.66666700  0.27340881  1
  O  O6  1  0.66666700  0.33333300  0.91473552  1
  O  O7  1  0.33333300  0.66666700  0.08526448  1
  O  O8  1  0.81394051  0.62788102  0.65824189  1
  O  O9  1  0.18605949  0.37211898  0.34175811  1
  O  O10  1  0.81394051  0.18605949  0.65824189  1
  O  O11  1  0.18605949  0.81394051  0.34175811  1
  O  O12  1  0.37211898  0.18605949  0.65824189  1
  O  O13  1  0.62788102  0.81394051  0.34175811  1
