# generated using pymatgen
data_Li9Mn2Co5O16
_symmetry_space_group_name_H-M   'P 1'
_cell_length_a   5.79625494
_cell_length_b   5.94107994
_cell_length_c   9.76159242
_cell_angle_alpha   98.04771865
_cell_angle_beta   90.00000059
_cell_angle_gamma   60.80315128
_symmetry_Int_Tables_number   1
_chemical_formula_structural   Li9Mn2Co5O16
_chemical_formula_sum   'Li9 Mn2 Co5 O16'
_cell_volume   289.64387434
_cell_formula_units_Z   1
loop_
 _symmetry_equiv_pos_site_id
 _symmetry_equiv_pos_as_xyz
  1  'x, y, z'
loop_
 _atom_site_type_symbol
 _atom_site_label
 _atom_site_symmetry_multiplicity
 _atom_site_fract_x
 _atom_site_fract_y
 _atom_site_fract_z
 _atom_site_occupancy
  Li  Li0  1  0.49848441  0.50000000  0.00000000  1
  Li  Li1  1  0.00151559  0.50000000  1.00000000  1
  Li  Li2  1  0.12642438  0.74715123  0.25759144  1
  Li  Li3  1  0.62307984  0.75384033  0.25673546  1
  Li  Li4  1  0.75000000  -0.00000000  0.50000000  1
  Li  Li5  1  0.25000000  -0.00000000  0.50000000  1
  Li  Li6  1  0.37357562  0.25284877  0.74240856  1
  Li  Li7  1  0.87692016  0.24615967  0.74326454  1
  Li  Li8  1  0.25000000  0.50000000  0.50000000  1
  Mn  Mn9  1  0.00303060  0.99393881  0.99880839  1
  Mn  Mn10  1  0.49696940  0.00606119  0.00119161  1
  Co  Co11  1  0.61490406  0.26163325  0.25856998  1
  Co  Co12  1  0.12346269  0.26163325  0.25856998  1
  Co  Co13  1  0.75000000  0.50000000  0.50000000  1
  Co  Co14  1  0.88509594  0.73836675  0.74143002  1
  Co  Co15  1  0.37653731  0.73836675  0.74143002  1
  O  O16  1  0.69471227  0.11100886  0.88555750  1
  O  O17  1  0.19427886  0.11100886  0.88555750  1
  O  O18  1  0.31722602  0.36554796  0.12714165  1
  O  O19  1  0.82526069  0.34947862  0.13288048  1
  O  O20  1  0.92978550  0.60364142  0.38020523  1
  O  O21  1  0.46657308  0.60364142  0.38020523  1
  O  O22  1  0.57712176  0.84575649  0.61624558  1
  O  O23  1  0.06440727  0.87118546  0.64169677  1
  O  O24  1  0.30572114  0.88899114  0.11444250  1
  O  O25  1  0.80528773  0.88899114  0.11444250  1
  O  O26  1  0.92287824  0.15424351  0.38375442  1
  O  O27  1  0.43559273  0.12881454  0.35830323  1
  O  O28  1  0.57021450  0.39635858  0.61979477  1
  O  O29  1  0.03342692  0.39635858  0.61979477  1
  O  O30  1  0.18277398  0.63445204  0.87285835  1
  O  O31  1  0.67473931  0.65052138  0.86711952  1
