# generated using pymatgen
data_Rb8Ta6O19
_symmetry_space_group_name_H-M   'P 1'
_cell_length_a   9.81215438
_cell_length_b   9.81215438
_cell_length_c   9.76275185
_cell_angle_alpha   120.16753794
_cell_angle_beta   120.16753794
_cell_angle_gamma   90.00000000
_symmetry_Int_Tables_number   1
_chemical_formula_structural   Rb8Ta6O19
_chemical_formula_sum   'Rb8 Ta6 O19'
_cell_volume   661.25883079
_cell_formula_units_Z   1
loop_
 _symmetry_equiv_pos_site_id
 _symmetry_equiv_pos_as_xyz
  1  'x, y, z'
loop_
 _atom_site_type_symbol
 _atom_site_label
 _atom_site_symmetry_multiplicity
 _atom_site_fract_x
 _atom_site_fract_y
 _atom_site_fract_z
 _atom_site_occupancy
  Rb  Rb0  1  0.44110277  0.63413757  0.71071321  1
  Rb  Rb1  1  0.55889723  0.36586243  0.28928679  1
  Rb  Rb2  1  0.26961044  0.07657564  0.71071321  1
  Rb  Rb3  1  0.07657564  0.44110277  0.71071321  1
  Rb  Rb4  1  0.73038956  0.92342436  0.28928679  1
  Rb  Rb5  1  0.92342436  0.55889723  0.28928679  1
  Rb  Rb6  1  0.63413757  0.26961044  0.71071321  1
  Rb  Rb7  1  0.36586243  0.73038956  0.28928679  1
  Ta  Ta8  1  0.17100426  0.17100426  0.34200852  1
  Ta  Ta9  1  0.82899574  0.82899574  0.65799148  1
  Ta  Ta10  1  0.10614677  0.22008623  1.00000000  1
  Ta  Ta11  1  0.89385323  0.77991377  0.00000000  1
  Ta  Ta12  1  0.77991377  0.10614677  0.00000000  1
  Ta  Ta13  1  0.22008623  0.89385323  1.00000000  1
  O  O14  1  0.26678636  0.09042109  1.00000000  1
  O  O15  1  0.73321364  0.90957891  0.00000000  1
  O  O16  1  0.90957891  0.26678636  1.00000000  1
  O  O17  1  0.09042109  0.73321364  0.00000000  1
  O  O18  1  0.23404009  0.32520368  0.28757982  1
  O  O19  1  0.76595991  0.67479632  0.71242018  1
  O  O20  1  0.05353973  0.96237614  0.28757982  1
  O  O21  1  0.96237614  0.23404009  0.28757982  1
  O  O22  1  0.94646027  0.03762386  0.71242018  1
  O  O23  1  0.03762386  0.76595991  0.71242018  1
  O  O24  1  0.32520368  0.05353973  0.28757982  1
  O  O25  1  0.67479632  0.94646027  0.71242018  1
  O  O26  1  0.20031530  0.38117146  1.00000000  1
  O  O27  1  0.79968470  0.61882854  0.00000000  1
  O  O28  1  0.61882854  0.20031530  0.00000000  1
  O  O29  1  0.38117146  0.79968470  1.00000000  1
  O  O30  1  0.30482086  0.30482086  0.60964173  1
  O  O31  1  0.69517914  0.69517914  0.39035827  1
  O  O32  1  -0.00000000  -0.00000000  0.00000000  1
