# generated using pymatgen
data_RbGaSnSe4
_symmetry_space_group_name_H-M   'P 1'
_cell_length_a   7.71238811
_cell_length_b   13.19065013
_cell_length_c   18.69758836
_cell_angle_alpha   90.00000000
_cell_angle_beta   95.71848848
_cell_angle_gamma   90.00000000
_symmetry_Int_Tables_number   1
_chemical_formula_structural   RbGaSnSe4
_chemical_formula_sum   'Rb8 Ga8 Sn8 Se32'
_cell_volume   1892.66606973
_cell_formula_units_Z   8
loop_
 _symmetry_equiv_pos_site_id
 _symmetry_equiv_pos_as_xyz
  1  'x, y, z'
loop_
 _atom_site_type_symbol
 _atom_site_label
 _atom_site_symmetry_multiplicity
 _atom_site_fract_x
 _atom_site_fract_y
 _atom_site_fract_z
 _atom_site_occupancy
  Rb  Rb0  1  0.23037815  0.56713466  0.33297527  1
  Rb  Rb1  1  0.76962185  0.43286534  0.66702473  1
  Rb  Rb2  1  0.76962185  0.06713466  0.16702473  1
  Rb  Rb3  1  0.23037815  0.93286534  0.83297527  1
  Rb  Rb4  1  0.75190387  0.39291097  0.04919144  1
  Rb  Rb5  1  0.24809613  0.60708903  0.95080856  1
  Rb  Rb6  1  0.24809613  0.89291097  0.45080856  1
  Rb  Rb7  1  0.75190387  0.10708903  0.54919144  1
  Ga  Ga8  1  0.01476839  0.24630490  0.34345886  1
  Ga  Ga9  1  0.98523161  0.75369510  0.65654114  1
  Ga  Ga10  1  0.98523161  0.74630490  0.15654114  1
  Ga  Ga11  1  0.01476839  0.25369510  0.84345886  1
  Ga  Ga12  1  0.52653449  0.24839720  0.35536255  1
  Ga  Ga13  1  0.47346551  0.75160280  0.64463745  1
  Ga  Ga14  1  0.47346551  0.74839720  0.14463745  1
  Ga  Ga15  1  0.52653449  0.25160280  0.85536255  1
  Sn  Sn16  1  0.25881203  0.29704752  0.18264575  1
  Sn  Sn17  1  0.74118797  0.70295248  0.81735425  1
  Sn  Sn18  1  0.74118797  0.79704752  0.31735425  1
  Sn  Sn19  1  0.25881203  0.20295248  0.68264575  1
  Sn  Sn20  1  0.27845166  0.18369179  0.01393111  1
  Sn  Sn21  1  0.72154834  0.81630821  0.98606889  1
  Sn  Sn22  1  0.72154834  0.68369179  0.48606889  1
  Sn  Sn23  1  0.27845166  0.31630821  0.51393111  1
  Se  Se24  1  0.03557634  0.83806996  0.27355839  1
  Se  Se25  1  0.96442366  0.16193004  0.72644161  1
  Se  Se26  1  0.96442366  0.33806996  0.22644161  1
  Se  Se27  1  0.03557634  0.66193004  0.77355839  1
  Se  Se28  1  0.27134882  0.13899042  0.34684810  1
  Se  Se29  1  0.72865118  0.86100958  0.65315190  1
  Se  Se30  1  0.72865118  0.63899042  0.15315190  1
  Se  Se31  1  0.27134882  0.36100958  0.84684810  1
  Se  Se32  1  0.24962455  0.37312063  0.05243379  1
  Se  Se33  1  0.75037545  0.62687937  0.94756621  1
  Se  Se34  1  0.75037545  0.87312063  0.44756621  1
  Se  Se35  1  0.24962455  0.12687937  0.55243379  1
  Se  Se36  1  0.51647893  0.37561343  0.25838786  1
  Se  Se37  1  0.48352107  0.62438657  0.74161214  1
  Se  Se38  1  0.48352107  0.87561343  0.24161214  1
  Se  Se39  1  0.51647893  0.12438657  0.75838786  1
  Se  Se40  1  0.01761677  0.38292659  0.43351032  1
  Se  Se41  1  0.98238323  0.61707341  0.56648968  1
  Se  Se42  1  0.98238323  0.88292659  0.06648968  1
  Se  Se43  1  0.01761677  0.11707341  0.93351032  1
  Se  Se44  1  0.28465768  0.10875510  0.14316453  1
  Se  Se45  1  0.71534232  0.89124490  0.85683547  1
  Se  Se46  1  0.71534232  0.60875510  0.35683547  1
  Se  Se47  1  0.28465768  0.39124490  0.64316453  1
  Se  Se48  1  0.22852985  0.63193501  0.14629838  1
  Se  Se49  1  0.77147015  0.36806499  0.85370162  1
  Se  Se50  1  0.77147015  0.13193501  0.35370162  1
  Se  Se51  1  0.22852985  0.86806499  0.64629838  1
  Se  Se52  1  0.57433354  0.34885848  0.46853069  1
  Se  Se53  1  0.42566646  0.65114152  0.53146931  1
  Se  Se54  1  0.42566646  0.84885848  0.03146931  1
  Se  Se55  1  0.57433354  0.15114152  0.96853069  1
