# generated using pymatgen
data_Rb2CdI4
_symmetry_space_group_name_H-M   'P 1'
_cell_length_a   8.42428235
_cell_length_b   8.58474557
_cell_length_c   10.30557358
_cell_angle_alpha   90.00000000
_cell_angle_beta   108.15888523
_cell_angle_gamma   90.00000000
_symmetry_Int_Tables_number   1
_chemical_formula_structural   Rb2CdI4
_chemical_formula_sum   'Rb4 Cd2 I8'
_cell_volume   708.18329683
_cell_formula_units_Z   2
loop_
 _symmetry_equiv_pos_site_id
 _symmetry_equiv_pos_as_xyz
  1  'x, y, z'
loop_
 _atom_site_type_symbol
 _atom_site_label
 _atom_site_symmetry_multiplicity
 _atom_site_fract_x
 _atom_site_fract_y
 _atom_site_fract_z
 _atom_site_occupancy
  Rb  Rb0  1  0.21801608  0.25000000  0.55142377  1
  Rb  Rb1  1  0.78198392  0.75000000  0.44857623  1
  Rb  Rb2  1  0.26113768  0.25000000  0.06703094  1
  Rb  Rb3  1  0.73886232  0.75000000  0.93296906  1
  Cd  Cd4  1  0.77453595  0.25000000  0.70053344  1
  Cd  Cd5  1  0.22546405  0.75000000  0.29946656  1
  I  I6  1  0.59149105  0.25000000  0.41992494  1
  I  I7  1  0.40850895  0.75000000  0.58007506  1
  I  I8  1  0.99965266  0.00531343  0.23837709  1
  I  I9  1  0.00034734  0.99468657  0.76162291  1
  I  I10  1  0.00034734  0.50531343  0.76162291  1
  I  I11  1  0.99965266  0.49468657  0.23837709  1
  I  I12  1  0.57216167  0.25000000  0.87334231  1
  I  I13  1  0.42783833  0.75000000  0.12665769  1
