# generated using pymatgen
data_Pr3Se3N
_symmetry_space_group_name_H-M   'P 1'
_cell_length_a   4.18709375
_cell_length_b   12.88112102
_cell_length_c   13.59026894
_cell_angle_alpha   90.00000000
_cell_angle_beta   90.00000000
_cell_angle_gamma   90.00000000
_symmetry_Int_Tables_number   1
_chemical_formula_structural   Pr3Se3N
_chemical_formula_sum   'Pr12 Se12 N4'
_cell_volume   732.98383442
_cell_formula_units_Z   4
loop_
 _symmetry_equiv_pos_site_id
 _symmetry_equiv_pos_as_xyz
  1  'x, y, z'
loop_
 _atom_site_type_symbol
 _atom_site_label
 _atom_site_symmetry_multiplicity
 _atom_site_fract_x
 _atom_site_fract_y
 _atom_site_fract_z
 _atom_site_occupancy
  Pr  Pr0  1  0.75000000  0.78356503  0.63423325  1
  Pr  Pr1  1  0.25000000  0.21643497  0.36576675  1
  Pr  Pr2  1  0.25000000  0.71643497  0.13423325  1
  Pr  Pr3  1  0.75000000  0.28356503  0.86576675  1
  Pr  Pr4  1  0.75000000  0.91946625  0.86939766  1
  Pr  Pr5  1  0.25000000  0.08053375  0.13060234  1
  Pr  Pr6  1  0.25000000  0.58053375  0.36939766  1
  Pr  Pr7  1  0.75000000  0.41946625  0.63060234  1
  Pr  Pr8  1  0.75000000  0.96602303  0.34604494  1
  Pr  Pr9  1  0.25000000  0.03397697  0.65395506  1
  Pr  Pr10  1  0.25000000  0.53397697  0.84604494  1
  Pr  Pr11  1  0.75000000  0.46602303  0.15395506  1
  Se  Se12  1  0.75000000  0.73269507  0.30456464  1
  Se  Se13  1  0.25000000  0.26730493  0.69543536  1
  Se  Se14  1  0.25000000  0.76730493  0.80456464  1
  Se  Se15  1  0.75000000  0.23269507  0.19543536  1
  Se  Se16  1  0.75000000  0.41589139  0.39188276  1
  Se  Se17  1  0.25000000  0.58410861  0.60811724  1
  Se  Se18  1  0.25000000  0.08410861  0.89188276  1
  Se  Se19  1  0.75000000  0.91589139  0.10811724  1
  Se  Se20  1  0.75000000  0.63617276  0.99957036  1
  Se  Se21  1  0.25000000  0.36382724  0.00042964  1
  Se  Se22  1  0.25000000  0.86382724  0.49957036  1
  Se  Se23  1  0.75000000  0.13617276  0.50042964  1
  N  N24  1  0.75000000  0.95074480  0.70313273  1
  N  N25  1  0.25000000  0.04925520  0.29686727  1
  N  N26  1  0.25000000  0.54925520  0.20313273  1
  N  N27  1  0.75000000  0.45074480  0.79686727  1
