# generated using pymatgen
data_Li9Mn2Co5O16
_symmetry_space_group_name_H-M   'P 1'
_cell_length_a   2.92757095
_cell_length_b   12.95961283
_cell_length_c   7.83568576
_cell_angle_alpha   88.28777615
_cell_angle_beta   79.23331597
_cell_angle_gamma   89.99999849
_symmetry_Int_Tables_number   1
_chemical_formula_structural   Li9Mn2Co5O16
_chemical_formula_sum   'Li9 Mn2 Co5 O16'
_cell_volume   291.91882557
_cell_formula_units_Z   1
loop_
 _symmetry_equiv_pos_site_id
 _symmetry_equiv_pos_as_xyz
  1  'x, y, z'
loop_
 _atom_site_type_symbol
 _atom_site_label
 _atom_site_symmetry_multiplicity
 _atom_site_fract_x
 _atom_site_fract_y
 _atom_site_fract_z
 _atom_site_occupancy
  Li  Li0  1  0.56412509  0.18736854  0.87174981  1
  Li  Li1  1  0.69450364  0.57645178  0.61099271  1
  Li  Li2  1  0.80549636  0.92354822  0.38900729  1
  Li  Li3  1  0.93587491  0.31263146  0.12825019  1
  Li  Li4  1  0.06387904  0.68844778  0.87224191  1
  Li  Li5  1  0.19010527  0.05810989  0.61978946  1
  Li  Li6  1  0.30989473  0.44189011  0.38021054  1
  Li  Li7  1  0.43612096  0.81155222  0.12775809  1
  Li  Li8  1  0.25000000  0.75000000  0.50000000  1
  Mn  Mn9  1  0.00200484  0.99851018  0.99599032  1
  Mn  Mn10  1  0.49799516  0.50148982  0.00400968  1
  Co  Co11  1  0.12593027  0.37379176  0.74813945  1
  Co  Co12  1  0.37406973  0.12620824  0.25186055  1
  Co  Co13  1  0.63396343  0.86044793  0.73207315  1
  Co  Co14  1  0.75000000  0.25000000  0.50000000  1
  Co  Co15  1  0.86603657  0.63955207  0.26792685  1
  O  O16  1  0.58237485  0.02970210  0.83525030  1
  O  O17  1  0.71219002  0.39877433  0.57561996  1
  O  O18  1  0.84879632  0.77505624  0.30240736  1
  O  O19  1  0.96347895  0.14685423  0.07304210  1
  O  O20  1  0.08214978  0.52491271  0.83570045  1
  O  O21  1  0.21299587  0.90825979  0.57400826  1
  O  O22  1  0.33998607  0.27681520  0.32002785  1
  O  O23  1  0.46492317  0.64081586  0.07015366  1
  O  O24  1  0.53652105  0.35314577  0.92695790  1
  O  O25  1  0.65120368  0.72494376  0.69759264  1
  O  O26  1  0.78780998  0.10122567  0.42438004  1
  O  O27  1  0.91762515  0.47029790  0.16474970  1
  O  O28  1  0.03507683  0.85918414  0.92984634  1
  O  O29  1  0.16001393  0.22318480  0.67997215  1
  O  O30  1  0.28700413  0.59174021  0.42599174  1
  O  O31  1  0.41785022  0.97508729  0.16429955  1
