# generated using pymatgen
data_Nd3Cu4(P2O)2
_symmetry_space_group_name_H-M   'P 1'
_cell_length_a   3.99071700
_cell_length_b   3.99071700
_cell_length_c   13.56748447
_cell_angle_alpha   98.45711790
_cell_angle_beta   98.45711790
_cell_angle_gamma   90.00000000
_symmetry_Int_Tables_number   1
_chemical_formula_structural   Nd3Cu4(P2O)2
_chemical_formula_sum   'Nd3 Cu4 P4 O2'
_cell_volume   211.34815549
_cell_formula_units_Z   1
loop_
 _symmetry_equiv_pos_site_id
 _symmetry_equiv_pos_as_xyz
  1  'x, y, z'
loop_
 _atom_site_type_symbol
 _atom_site_label
 _atom_site_symmetry_multiplicity
 _atom_site_fract_x
 _atom_site_fract_y
 _atom_site_fract_z
 _atom_site_occupancy
  Nd  Nd0  1  0.29521154  0.29521154  0.59042308  1
  Nd  Nd1  1  0.70478846  0.70478846  0.40957692  1
  Nd  Nd2  1  0.00000000  0.00000000  -0.00000000  1
  Cu  Cu3  1  0.09405647  0.59405647  0.18811294  1
  Cu  Cu4  1  0.90594353  0.40594353  0.81188706  1
  Cu  Cu5  1  0.59405647  0.09405647  0.18811294  1
  Cu  Cu6  1  0.40594353  0.90594353  0.81188706  1
  P  P7  1  0.45802676  0.45802676  0.91605352  1
  P  P8  1  0.54197324  0.54197324  0.08394648  1
  P  P9  1  0.14072052  0.14072052  0.28144104  1
  P  P10  1  0.85927948  0.85927948  0.71855896  1
  O  O11  1  0.25000000  0.75000000  0.50000000  1
  O  O12  1  0.75000000  0.25000000  0.50000000  1
