# generated using pymatgen
data_Nd3Si6N11
_symmetry_space_group_name_H-M   'P 1'
_cell_length_a   4.89261889
_cell_length_b   10.13602408
_cell_length_c   10.13602408
_cell_angle_alpha   90.00000000
_cell_angle_beta   90.00000000
_cell_angle_gamma   90.00000000
_symmetry_Int_Tables_number   1
_chemical_formula_structural   Nd3Si6N11
_chemical_formula_sum   'Nd6 Si12 N22'
_cell_volume   502.66269459
_cell_formula_units_Z   2
loop_
 _symmetry_equiv_pos_site_id
 _symmetry_equiv_pos_as_xyz
  1  'x, y, z'
loop_
 _atom_site_type_symbol
 _atom_site_label
 _atom_site_symmetry_multiplicity
 _atom_site_fract_x
 _atom_site_fract_y
 _atom_site_fract_z
 _atom_site_occupancy
  Nd  Nd0  1  0.00393293  0.68258543  0.18258543  1
  Nd  Nd1  1  0.00393293  0.31741457  0.81741457  1
  Nd  Nd2  1  0.00393293  0.81741457  0.68258543  1
  Nd  Nd3  1  0.00393293  0.18258543  0.31741457  1
  Nd  Nd4  1  0.98494653  0.00000000  0.00000000  1
  Nd  Nd5  1  0.98494653  0.50000000  0.50000000  1
  Si  Si6  1  0.04158017  0.11726711  0.61726711  1
  Si  Si7  1  0.04158017  0.88273289  0.38273289  1
  Si  Si8  1  0.04158017  0.38273289  0.11726711  1
  Si  Si9  1  0.04158017  0.61726711  0.88273289  1
  Si  Si10  1  0.53194278  0.20901882  0.07886563  1
  Si  Si11  1  0.53194278  0.79098118  0.92113437  1
  Si  Si12  1  0.53194278  0.92113437  0.20901882  1
  Si  Si13  1  0.53194278  0.70901882  0.42113437  1
  Si  Si14  1  0.53194278  0.07886563  0.79098118  1
  Si  Si15  1  0.53194278  0.29098118  0.57886563  1
  Si  Si16  1  0.53194278  0.42113437  0.29098118  1
  Si  Si17  1  0.53194278  0.57886563  0.70901882  1
  N  N18  1  0.64476131  0.07993341  0.17960496  1
  N  N19  1  0.64476131  0.92006659  0.82039504  1
  N  N20  1  0.64476131  0.82039504  0.07993341  1
  N  N21  1  0.64476131  0.57993341  0.32039504  1
  N  N22  1  0.64476131  0.17960496  0.92006659  1
  N  N23  1  0.64476131  0.42006659  0.67960496  1
  N  N24  1  0.64476131  0.32039504  0.42006659  1
  N  N25  1  0.64476131  0.67960496  0.57993341  1
  N  N26  1  0.06960366  0.50000000  -0.00000000  1
  N  N27  1  0.06960366  0.00000000  0.50000000  1
  N  N28  1  0.17840560  0.22938312  0.07562354  1
  N  N29  1  0.17840560  0.77061688  0.92437646  1
  N  N30  1  0.17840560  0.92437646  0.22938312  1
  N  N31  1  0.17840560  0.72938312  0.42437646  1
  N  N32  1  0.17840560  0.07562354  0.77061688  1
  N  N33  1  0.17840560  0.27061688  0.57562354  1
  N  N34  1  0.17840560  0.42437646  0.27061688  1
  N  N35  1  0.17840560  0.57562354  0.72938312  1
  N  N36  1  0.69599240  0.15327032  0.65327032  1
  N  N37  1  0.69599240  0.84672968  0.34672968  1
  N  N38  1  0.69599240  0.34672968  0.15327032  1
  N  N39  1  0.69599240  0.65327032  0.84672968  1
