# generated using pymatgen
data_Np2S5
_symmetry_space_group_name_H-M   'P 1'
_cell_length_a   7.32674704
_cell_length_b   7.34035434
_cell_length_c   9.91659879
_cell_angle_alpha   90.00000000
_cell_angle_beta   90.00000000
_cell_angle_gamma   90.00000000
_symmetry_Int_Tables_number   1
_chemical_formula_structural   Np2S5
_chemical_formula_sum   'Np8 S20'
_cell_volume   533.32380058
_cell_formula_units_Z   4
loop_
 _symmetry_equiv_pos_site_id
 _symmetry_equiv_pos_as_xyz
  1  'x, y, z'
loop_
 _atom_site_type_symbol
 _atom_site_label
 _atom_site_symmetry_multiplicity
 _atom_site_fract_x
 _atom_site_fract_y
 _atom_site_fract_z
 _atom_site_occupancy
  Np  Np0  1  0.73837848  0.99251483  0.85067122  1
  Np  Np1  1  0.26162152  0.00748517  0.14932878  1
  Np  Np2  1  0.76162152  0.49251483  0.64932878  1
  Np  Np3  1  0.26162152  0.50748517  0.85067122  1
  Np  Np4  1  0.23837848  0.50748517  0.35067122  1
  Np  Np5  1  0.73837848  0.49251483  0.14932878  1
  Np  Np6  1  0.23837848  0.00748517  0.64932878  1
  Np  Np7  1  0.76162152  0.99251483  0.35067122  1
  S  S8  1  0.60704978  0.85776917  0.60083432  1
  S  S9  1  0.39295022  0.14223083  0.39916568  1
  S  S10  1  0.89295022  0.35776917  0.89916568  1
  S  S11  1  0.39295022  0.64223083  0.60083432  1
  S  S12  1  0.10704978  0.64223083  0.10083432  1
  S  S13  1  0.60704978  0.35776917  0.39916568  1
  S  S14  1  0.10704978  0.14223083  0.89916568  1
  S  S15  1  0.89295022  0.85776917  0.10083432  1
  S  S16  1  0.63129504  0.61888321  0.89435641  1
  S  S17  1  0.36870496  0.38111679  0.10564359  1
  S  S18  1  0.86870496  0.11888321  0.60564359  1
  S  S19  1  0.36870496  0.88111679  0.89435641  1
  S  S20  1  0.13129504  0.88111679  0.39435641  1
  S  S21  1  0.63129504  0.11888321  0.10564359  1
  S  S22  1  0.13129504  0.38111679  0.60564359  1
  S  S23  1  0.86870496  0.61888321  0.39435641  1
  S  S24  1  -0.00000000  0.75000000  0.75175766  1
  S  S25  1  -0.00000000  0.25000000  0.24824234  1
  S  S26  1  0.50000000  0.25000000  0.74824234  1
  S  S27  1  0.50000000  0.75000000  0.25175766  1
