# generated using pymatgen
data_Pr3NiGe2
_symmetry_space_group_name_H-M   'P 1'
_cell_length_a   4.31859742
_cell_length_b   11.91355920
_cell_length_c   11.76330468
_cell_angle_alpha   90.00000000
_cell_angle_beta   90.00000000
_cell_angle_gamma   90.00000000
_symmetry_Int_Tables_number   1
_chemical_formula_structural   Pr3NiGe2
_chemical_formula_sum   'Pr12 Ni4 Ge8'
_cell_volume   605.22044979
_cell_formula_units_Z   4
loop_
 _symmetry_equiv_pos_site_id
 _symmetry_equiv_pos_as_xyz
  1  'x, y, z'
loop_
 _atom_site_type_symbol
 _atom_site_label
 _atom_site_symmetry_multiplicity
 _atom_site_fract_x
 _atom_site_fract_y
 _atom_site_fract_z
 _atom_site_occupancy
  Pr  Pr0  1  0.75000000  0.94158766  0.62560892  1
  Pr  Pr1  1  0.25000000  0.05841234  0.37439108  1
  Pr  Pr2  1  0.25000000  0.55841234  0.12560892  1
  Pr  Pr3  1  0.75000000  0.44158766  0.87439108  1
  Pr  Pr4  1  0.75000000  0.78423826  0.30341699  1
  Pr  Pr5  1  0.25000000  0.21576174  0.69658301  1
  Pr  Pr6  1  0.25000000  0.71576174  0.80341699  1
  Pr  Pr7  1  0.75000000  0.28423826  0.19658301  1
  Pr  Pr8  1  0.75000000  0.61659098  0.55759636  1
  Pr  Pr9  1  0.25000000  0.38340902  0.44240364  1
  Pr  Pr10  1  0.25000000  0.88340902  0.05759636  1
  Pr  Pr11  1  0.75000000  0.11659098  0.94240364  1
  Ni  Ni12  1  0.75000000  0.87022278  0.86626220  1
  Ni  Ni13  1  0.25000000  0.12977722  0.13373780  1
  Ni  Ni14  1  0.25000000  0.62977722  0.36626220  1
  Ni  Ni15  1  0.75000000  0.37022278  0.63373780  1
  Ge  Ge16  1  0.75000000  0.52473873  0.31279497  1
  Ge  Ge17  1  0.25000000  0.47526127  0.68720503  1
  Ge  Ge18  1  0.25000000  0.97526127  0.81279497  1
  Ge  Ge19  1  0.75000000  0.02473873  0.18720503  1
  Ge  Ge20  1  0.75000000  0.69668937  0.99451573  1
  Ge  Ge21  1  0.25000000  0.30331063  0.00548427  1
  Ge  Ge22  1  0.25000000  0.80331063  0.49451573  1
  Ge  Ge23  1  0.75000000  0.19668937  0.50548427  1
