# generated using pymatgen
data_NdSbIr
_symmetry_space_group_name_H-M   'P 1'
_cell_length_a   4.58802616
_cell_length_b   7.44978819
_cell_length_c   8.03472662
_cell_angle_alpha   90.00000000
_cell_angle_beta   90.00000000
_cell_angle_gamma   90.00000000
_symmetry_Int_Tables_number   1
_chemical_formula_structural   NdSbIr
_chemical_formula_sum   'Nd4 Sb4 Ir4'
_cell_volume   274.62553455
_cell_formula_units_Z   4
loop_
 _symmetry_equiv_pos_site_id
 _symmetry_equiv_pos_as_xyz
  1  'x, y, z'
loop_
 _atom_site_type_symbol
 _atom_site_label
 _atom_site_symmetry_multiplicity
 _atom_site_fract_x
 _atom_site_fract_y
 _atom_site_fract_z
 _atom_site_occupancy
  Nd  Nd0  1  0.75000000  0.98290096  0.31014199  1
  Nd  Nd1  1  0.25000000  0.01709904  0.68985801  1
  Nd  Nd2  1  0.25000000  0.51709904  0.81014199  1
  Nd  Nd3  1  0.75000000  0.48290096  0.18985801  1
  Sb  Sb4  1  0.75000000  0.82675683  0.91335921  1
  Sb  Sb5  1  0.25000000  0.17324317  0.08664079  1
  Sb  Sb6  1  0.25000000  0.67324317  0.41335921  1
  Sb  Sb7  1  0.75000000  0.32675683  0.58664079  1
  Ir  Ir8  1  0.75000000  0.70242826  0.59290079  1
  Ir  Ir9  1  0.25000000  0.29757174  0.40709921  1
  Ir  Ir10  1  0.25000000  0.79757174  0.09290079  1
  Ir  Ir11  1  0.75000000  0.20242826  0.90709921  1
