# generated using pymatgen
data_NaSmCu2F8
_symmetry_space_group_name_H-M   'P 1'
_cell_length_a   5.49558474
_cell_length_b   5.49558474
_cell_length_c   6.52087410
_cell_angle_alpha   114.92200412
_cell_angle_beta   114.92200412
_cell_angle_gamma   90.00000000
_symmetry_Int_Tables_number   1
_chemical_formula_structural   NaSmCu2F8
_chemical_formula_sum   'Na1 Sm1 Cu2 F8'
_cell_volume   158.15029289
_cell_formula_units_Z   1
loop_
 _symmetry_equiv_pos_site_id
 _symmetry_equiv_pos_as_xyz
  1  'x, y, z'
loop_
 _atom_site_type_symbol
 _atom_site_label
 _atom_site_symmetry_multiplicity
 _atom_site_fract_x
 _atom_site_fract_y
 _atom_site_fract_z
 _atom_site_occupancy
  Na  Na0  1  0.50000000  0.50000000  0.00000000  1
  Sm  Sm1  1  -0.00000000  -0.00000000  0.00000000  1
  Cu  Cu2  1  0.25000000  0.75000000  0.50000000  1
  Cu  Cu3  1  0.75000000  0.25000000  0.50000000  1
  F  F4  1  0.29155682  0.43659855  0.24598010  1
  F  F5  1  0.95442328  0.80938154  0.24598010  1
  F  F6  1  0.80938154  0.29155682  0.24598010  1
  F  F7  1  0.70844318  0.19061846  0.75401990  1
  F  F8  1  0.43659855  0.95442328  0.24598010  1
  F  F9  1  0.04557672  0.56340145  0.75401990  1
  F  F10  1  0.19061846  0.04557672  0.75401990  1
  F  F11  1  0.56340145  0.70844318  0.75401990  1
