# generated using pymatgen
data_Rb3La3(BO3)4
_symmetry_space_group_name_H-M   'P 1'
_cell_length_a   9.40910962
_cell_length_b   11.13964330
_cell_length_c   14.66001120
_cell_angle_alpha   110.63346620
_cell_angle_beta   90.00000000
_cell_angle_gamma   90.00000000
_symmetry_Int_Tables_number   1
_chemical_formula_structural   Rb3La3(BO3)4
_chemical_formula_sum   'Rb12 La12 B16 O48'
_cell_volume   1438.01082208
_cell_formula_units_Z   4
loop_
 _symmetry_equiv_pos_site_id
 _symmetry_equiv_pos_as_xyz
  1  'x, y, z'
loop_
 _atom_site_type_symbol
 _atom_site_label
 _atom_site_symmetry_multiplicity
 _atom_site_fract_x
 _atom_site_fract_y
 _atom_site_fract_z
 _atom_site_occupancy
  Rb  Rb0  1  0.56407018  0.69951847  0.59632738  1
  Rb  Rb1  1  0.43592982  0.30048153  0.40367262  1
  Rb  Rb2  1  0.56407018  0.30048153  0.90367262  1
  Rb  Rb3  1  0.43592982  0.69951847  0.09632738  1
  Rb  Rb4  1  0.92260833  0.61001612  0.45806474  1
  Rb  Rb5  1  0.07739167  0.38998388  0.54193526  1
  Rb  Rb6  1  0.92260833  0.38998388  0.04193526  1
  Rb  Rb7  1  0.07739167  0.61001612  0.95806474  1
  Rb  Rb8  1  0.85491367  0.91833483  0.08510493  1
  Rb  Rb9  1  0.14508633  0.08166517  0.91489507  1
  Rb  Rb10  1  0.85491367  0.08166517  0.41489507  1
  Rb  Rb11  1  0.14508633  0.91833483  0.58510493  1
  La  La12  1  0.53035121  0.83338531  0.88048716  1
  La  La13  1  0.46964879  0.16661469  0.11951284  1
  La  La14  1  0.53035121  0.16661469  0.61951284  1
  La  La15  1  0.46964879  0.83338531  0.38048716  1
  La  La16  1  0.80669515  0.00000000  0.75000000  1
  La  La17  1  0.19330485  0.00000000  0.25000000  1
  La  La18  1  0.80149640  0.71010485  0.24583103  1
  La  La19  1  0.19850360  0.28989515  0.75416897  1
  La  La20  1  0.80149640  0.28989515  0.25416897  1
  La  La21  1  0.19850360  0.71010485  0.74583103  1
  La  La22  1  0.73765052  0.50000000  0.75000000  1
  La  La23  1  0.26234948  0.50000000  0.25000000  1
  B  B24  1  0.41466363  0.00000000  0.75000000  1
  B  B25  1  0.58533637  0.00000000  0.25000000  1
  B  B26  1  0.73727416  0.87457997  0.50682209  1
  B  B27  1  0.26272584  0.12542003  0.49317791  1
  B  B28  1  0.73727416  0.12542003  0.99317791  1
  B  B29  1  0.26272584  0.87457997  0.00682209  1
  B  B30  1  0.89374188  0.76141256  0.77766037  1
  B  B31  1  0.10625812  0.23858744  0.22233963  1
  B  B32  1  0.89374188  0.23858744  0.72233963  1
  B  B33  1  0.10625812  0.76141256  0.27766037  1
  B  B34  1  0.73456296  0.61725881  0.97968446  1
  B  B35  1  0.26543704  0.38274119  0.02031554  1
  B  B36  1  0.73456296  0.38274119  0.52031554  1
  B  B37  1  0.26543704  0.61725881  0.47968446  1
  B  B38  1  0.40408981  0.50000000  0.75000000  1
  B  B39  1  0.59591019  0.50000000  0.25000000  1
  O  O40  1  0.94770781  0.64851098  0.78255469  1
  O  O41  1  0.05229219  0.35148902  0.21744531  1
  O  O42  1  0.94770781  0.35148902  0.71744531  1
  O  O43  1  0.05229219  0.64851098  0.28255469  1
  O  O44  1  0.77001013  0.49791309  0.91329986  1
  O  O45  1  0.22998987  0.50208691  0.08670014  1
  O  O46  1  0.77001013  0.50208691  0.58670014  1
  O  O47  1  0.22998987  0.49791309  0.41329986  1
  O  O48  1  0.72564972  0.77565590  0.41575190  1
  O  O49  1  0.27435028  0.22434410  0.58424810  1
  O  O50  1  0.72564972  0.22434410  0.08424810  1
  O  O51  1  0.27435028  0.77565590  0.91575190  1
  O  O52  1  0.47619875  0.60941147  0.75030678  1
  O  O53  1  0.52380125  0.39058853  0.24969322  1
  O  O54  1  0.47619875  0.39058853  0.74969322  1
  O  O55  1  0.52380125  0.60941147  0.25030678  1
  O  O56  1  0.83922779  0.87680974  0.57383326  1
  O  O57  1  0.16077221  0.12319026  0.42616674  1
  O  O58  1  0.83922779  0.12319026  0.92616674  1
  O  O59  1  0.16077221  0.87680974  0.07383326  1
  O  O60  1  0.78281548  0.34539404  0.42402553  1
  O  O61  1  0.21718452  0.65460596  0.57597447  1
  O  O62  1  0.78281548  0.65460596  0.07597447  1
  O  O63  1  0.21718452  0.34539404  0.92402553  1
  O  O64  1  0.25489225  0.50000000  0.75000000  1
  O  O65  1  0.74510775  0.50000000  0.25000000  1
  O  O66  1  0.99141929  0.85360499  0.77029314  1
  O  O67  1  0.00858071  0.14639501  0.22970686  1
  O  O68  1  0.99141929  0.14639501  0.72970686  1
  O  O69  1  0.00858071  0.85360499  0.27029314  1
  O  O70  1  0.63082147  0.96706094  0.52518823  1
  O  O71  1  0.36917853  0.03293906  0.47481177  1
  O  O72  1  0.63082147  0.03293906  0.97481177  1
  O  O73  1  0.36917853  0.96706094  0.02518823  1
  O  O74  1  0.56123829  0.00000000  0.75000000  1
  O  O75  1  0.43876171  0.00000000  0.25000000  1
  O  O76  1  0.34471102  0.90001780  0.76746702  1
  O  O77  1  0.65528898  0.09998220  0.23253298  1
  O  O78  1  0.34471102  0.09998220  0.73253298  1
  O  O79  1  0.65528898  0.90001780  0.26746702  1
  O  O80  1  0.65285377  0.70218238  0.95010201  1
  O  O81  1  0.34714623  0.29781762  0.04989799  1
  O  O82  1  0.65285377  0.29781762  0.54989799  1
  O  O83  1  0.34714623  0.70218238  0.45010201  1
  O  O84  1  0.74882600  0.78506327  0.77681703  1
  O  O85  1  0.25117400  0.21493673  0.22318297  1
  O  O86  1  0.74882600  0.21493673  0.72318297  1
  O  O87  1  0.25117400  0.78506327  0.27681703  1
