# generated using pymatgen
data_Pr4MgIr
_symmetry_space_group_name_H-M   'P 1'
_cell_length_a   10.11205686
_cell_length_b   10.11205686
_cell_length_c   10.11205686
_cell_angle_alpha   60.00000000
_cell_angle_beta   60.00000000
_cell_angle_gamma   60.00000000
_symmetry_Int_Tables_number   1
_chemical_formula_structural   Pr4MgIr
_chemical_formula_sum   'Pr16 Mg4 Ir4'
_cell_volume   731.14499527
_cell_formula_units_Z   4
loop_
 _symmetry_equiv_pos_site_id
 _symmetry_equiv_pos_as_xyz
  1  'x, y, z'
loop_
 _atom_site_type_symbol
 _atom_site_label
 _atom_site_symmetry_multiplicity
 _atom_site_fract_x
 _atom_site_fract_y
 _atom_site_fract_z
 _atom_site_occupancy
  Pr  Pr0  1  0.65465529  0.65465529  0.65465529  1
  Pr  Pr1  1  0.03603413  0.65465529  0.65465529  1
  Pr  Pr2  1  0.65465529  0.03603413  0.65465529  1
  Pr  Pr3  1  0.65465529  0.65465529  0.03603413  1
  Pr  Pr4  1  0.81228285  0.81228285  0.18771715  1
  Pr  Pr5  1  0.18771715  0.18771715  0.81228285  1
  Pr  Pr6  1  0.81228285  0.18771715  0.81228285  1
  Pr  Pr7  1  0.18771715  0.81228285  0.18771715  1
  Pr  Pr8  1  0.18771715  0.81228285  0.81228285  1
  Pr  Pr9  1  0.81228285  0.18771715  0.18771715  1
  Pr  Pr10  1  0.43773354  0.43773354  0.06226646  1
  Pr  Pr11  1  0.06226646  0.06226646  0.43773354  1
  Pr  Pr12  1  0.43773354  0.06226646  0.43773354  1
  Pr  Pr13  1  0.06226646  0.43773354  0.06226646  1
  Pr  Pr14  1  0.06226646  0.43773354  0.43773354  1
  Pr  Pr15  1  0.43773354  0.06226646  0.06226646  1
  Mg  Mg16  1  0.42116995  0.42116995  0.42116995  1
  Mg  Mg17  1  0.73649016  0.42116995  0.42116995  1
  Mg  Mg18  1  0.42116995  0.73649016  0.42116995  1
  Mg  Mg19  1  0.42116995  0.42116995  0.73649016  1
  Ir  Ir20  1  0.85884203  0.85884203  0.85884203  1
  Ir  Ir21  1  0.42347392  0.85884203  0.85884203  1
  Ir  Ir22  1  0.85884203  0.42347392  0.85884203  1
  Ir  Ir23  1  0.85884203  0.85884203  0.42347392  1
