# generated using pymatgen
data_NaPr(CO3)2
_symmetry_space_group_name_H-M   'P 1'
_cell_length_a   5.18763665
_cell_length_b   6.43406601
_cell_length_c   7.20147083
_cell_angle_alpha   90.00000000
_cell_angle_beta   90.00000000
_cell_angle_gamma   90.00000000
_symmetry_Int_Tables_number   1
_chemical_formula_structural   NaPr(CO3)2
_chemical_formula_sum   'Na2 Pr2 C4 O12'
_cell_volume   240.36778859
_cell_formula_units_Z   2
loop_
 _symmetry_equiv_pos_site_id
 _symmetry_equiv_pos_as_xyz
  1  'x, y, z'
loop_
 _atom_site_type_symbol
 _atom_site_label
 _atom_site_symmetry_multiplicity
 _atom_site_fract_x
 _atom_site_fract_y
 _atom_site_fract_z
 _atom_site_occupancy
  Na  Na0  1  -0.00000000  0.48221290  0.02772908  1
  Na  Na1  1  -0.00000000  0.51778710  0.52772908  1
  Pr  Pr2  1  0.50000000  0.12912948  0.32777857  1
  Pr  Pr3  1  0.50000000  0.87087052  0.82777857  1
  C  C4  1  0.50000000  0.58088434  0.24304315  1
  C  C5  1  0.50000000  0.41911566  0.74304315  1
  C  C6  1  -0.00000000  0.03694659  0.99851871  1
  C  C7  1  -0.00000000  0.96305341  0.49851871  1
  O  O8  1  -0.00000000  0.14148998  0.41526059  1
  O  O9  1  0.00000000  0.85851002  0.91526059  1
  O  O10  1  0.28736787  0.48421977  0.28025170  1
  O  O11  1  0.71263213  0.51578023  0.78025170  1
  O  O12  1  0.28736787  0.51578023  0.78025170  1
  O  O13  1  0.71263213  0.48421977  0.28025170  1
  O  O14  1  0.21981264  0.12567635  0.03392374  1
  O  O15  1  0.78018736  0.87432365  0.53392374  1
  O  O16  1  0.21981264  0.87432365  0.53392374  1
  O  O17  1  0.78018736  0.12567635  0.03392374  1
  O  O18  1  0.50000000  0.23588899  0.66531903  1
  O  O19  1  0.50000000  0.76411101  0.16531903  1
