# generated using pymatgen
data_Nd2Si3Pd
_symmetry_space_group_name_H-M   'P 1'
_cell_length_a   8.24718353
_cell_length_b   8.24718353
_cell_length_c   8.52146449
_cell_angle_alpha   90.00000000
_cell_angle_beta   90.00000000
_cell_angle_gamma   119.99999834
_symmetry_Int_Tables_number   1
_chemical_formula_structural   Nd2Si3Pd
_chemical_formula_sum   'Nd8 Si12 Pd4'
_cell_volume   501.94507401
_cell_formula_units_Z   4
loop_
 _symmetry_equiv_pos_site_id
 _symmetry_equiv_pos_as_xyz
  1  'x, y, z'
loop_
 _atom_site_type_symbol
 _atom_site_label
 _atom_site_symmetry_multiplicity
 _atom_site_fract_x
 _atom_site_fract_y
 _atom_site_fract_z
 _atom_site_occupancy
  Nd  Nd0  1  0.49671782  0.50328218  0.75000000  1
  Nd  Nd1  1  0.50328218  0.49671782  0.25000000  1
  Nd  Nd2  1  0.00656436  0.50328218  0.75000000  1
  Nd  Nd3  1  0.99343564  0.49671782  0.25000000  1
  Nd  Nd4  1  0.49671782  0.99343564  0.75000000  1
  Nd  Nd5  1  0.50328218  0.00656436  0.25000000  1
  Nd  Nd6  1  -0.00000000  -0.00000000  0.75000000  1
  Nd  Nd7  1  -0.00000000  -0.00000000  0.25000000  1
  Si  Si8  1  0.83413890  0.16586110  0.99945656  1
  Si  Si9  1  0.16586110  0.83413890  0.00054344  1
  Si  Si10  1  0.33172220  0.16586110  0.99945656  1
  Si  Si11  1  0.16586110  0.83413890  0.49945656  1
  Si  Si12  1  0.66827780  0.83413890  0.00054344  1
  Si  Si13  1  0.83413890  0.16586110  0.50054344  1
  Si  Si14  1  0.83413890  0.66827780  0.99945656  1
  Si  Si15  1  0.66827780  0.83413890  0.49945656  1
  Si  Si16  1  0.16586110  0.33172220  0.00054344  1
  Si  Si17  1  0.33172220  0.16586110  0.50054344  1
  Si  Si18  1  0.16586110  0.33172220  0.49945656  1
  Si  Si19  1  0.83413890  0.66827780  0.50054344  1
  Pd  Pd20  1  0.66666700  0.33333300  0.98823515  1
  Pd  Pd21  1  0.33333300  0.66666700  0.01176485  1
  Pd  Pd22  1  0.33333300  0.66666700  0.48823515  1
  Pd  Pd23  1  0.66666700  0.33333300  0.51176485  1
