# generated using pymatgen
data_Pr(InPt)2
_symmetry_space_group_name_H-M   'P 1'
_cell_length_a   4.53606998
_cell_length_b   10.37298152
_cell_length_c   10.39315926
_cell_angle_alpha   116.79383356
_cell_angle_beta   90.00000000
_cell_angle_gamma   90.00000000
_symmetry_Int_Tables_number   1
_chemical_formula_structural   Pr(InPt)2
_chemical_formula_sum   'Pr4 In8 Pt8'
_cell_volume   436.52037797
_cell_formula_units_Z   4
loop_
 _symmetry_equiv_pos_site_id
 _symmetry_equiv_pos_as_xyz
  1  'x, y, z'
loop_
 _atom_site_type_symbol
 _atom_site_label
 _atom_site_symmetry_multiplicity
 _atom_site_fract_x
 _atom_site_fract_y
 _atom_site_fract_z
 _atom_site_occupancy
  Pr  Pr0  1  0.75000000  0.95221743  0.21015681  1
  Pr  Pr1  1  0.25000000  0.04778257  0.78984319  1
  Pr  Pr2  1  0.75000000  0.59869715  0.29001397  1
  Pr  Pr3  1  0.25000000  0.40130285  0.70998603  1
  In  In4  1  0.75000000  0.35484834  0.44746757  1
  In  In5  1  0.25000000  0.64515166  0.55253243  1
  In  In6  1  0.75000000  0.11887157  0.57531497  1
  In  In7  1  0.25000000  0.88112843  0.42468503  1
  In  In8  1  0.75000000  0.22652255  0.10373979  1
  In  In9  1  0.25000000  0.77347745  0.89626021  1
  In  In10  1  0.75000000  0.59433918  0.95912745  1
  In  In11  1  0.25000000  0.40566082  0.04087255  1
  Pt  Pt12  1  0.75000000  0.62624218  0.70332649  1
  Pt  Pt13  1  0.25000000  0.37375782  0.29667351  1
  Pt  Pt14  1  0.75000000  0.84278401  0.58142736  1
  Pt  Pt15  1  0.25000000  0.15721599  0.41857264  1
  Pt  Pt16  1  0.75000000  0.29457593  0.86834060  1
  Pt  Pt17  1  0.25000000  0.70542407  0.13165940  1
  Pt  Pt18  1  0.75000000  0.93017089  0.90043575  1
  Pt  Pt19  1  0.25000000  0.06982911  0.09956425  1
