# generated using pymatgen
data_Nd2Ni12P5
_symmetry_space_group_name_H-M   'P 1'
_cell_length_a   3.67112468
_cell_length_b   10.85760384
_cell_length_c   13.15189430
_cell_angle_alpha   107.96527021
_cell_angle_beta   90.00000000
_cell_angle_gamma   90.00000000
_symmetry_Int_Tables_number   1
_chemical_formula_structural   Nd2Ni12P5
_chemical_formula_sum   'Nd4 Ni24 P10'
_cell_volume   498.66996060
_cell_formula_units_Z   2
loop_
 _symmetry_equiv_pos_site_id
 _symmetry_equiv_pos_as_xyz
  1  'x, y, z'
loop_
 _atom_site_type_symbol
 _atom_site_label
 _atom_site_symmetry_multiplicity
 _atom_site_fract_x
 _atom_site_fract_y
 _atom_site_fract_z
 _atom_site_occupancy
  Nd  Nd0  1  0.75000000  0.28004989  0.31704615  1
  Nd  Nd1  1  0.25000000  0.71995011  0.68295385  1
  Nd  Nd2  1  0.75000000  0.24750865  0.81297233  1
  Nd  Nd3  1  0.25000000  0.75249135  0.18702767  1
  Ni  Ni4  1  0.75000000  0.84259978  0.86433168  1
  Ni  Ni5  1  0.25000000  0.15740022  0.13566832  1
  Ni  Ni6  1  0.75000000  0.28802594  0.56185743  1
  Ni  Ni7  1  0.25000000  0.71197406  0.43814257  1
  Ni  Ni8  1  0.75000000  0.07154729  0.98527004  1
  Ni  Ni9  1  0.25000000  0.92845271  0.01472996  1
  Ni  Ni10  1  0.75000000  0.06586019  0.55222499  1
  Ni  Ni11  1  0.25000000  0.93413981  0.44777501  1
  Ni  Ni12  1  0.75000000  0.59609632  0.30439451  1
  Ni  Ni13  1  0.25000000  0.40390368  0.69560549  1
  Ni  Ni14  1  0.75000000  0.58193162  0.99180156  1
  Ni  Ni15  1  0.25000000  0.41806838  0.00819844  1
  Ni  Ni16  1  0.75000000  0.57925190  0.49039546  1
  Ni  Ni17  1  0.25000000  0.42074810  0.50960454  1
  Ni  Ni18  1  0.75000000  0.29853476  0.08160115  1
  Ni  Ni19  1  0.25000000  0.70146524  0.91839885  1
  Ni  Ni20  1  0.75000000  0.99257560  0.34030712  1
  Ni  Ni21  1  0.25000000  0.00742440  0.65969288  1
  Ni  Ni22  1  0.75000000  0.84187544  0.56189464  1
  Ni  Ni23  1  0.25000000  0.15812456  0.43810536  1
  Ni  Ni24  1  0.75000000  0.98846352  0.15073648  1
  Ni  Ni25  1  0.25000000  0.01153648  0.84926352  1
  Ni  Ni26  1  0.75000000  0.56256147  0.79643910  1
  Ni  Ni27  1  0.25000000  0.43743853  0.20356090  1
  P  P28  1  0.75000000  0.50822907  0.12907058  1
  P  P29  1  0.25000000  0.49177093  0.87092942  1
  P  P30  1  0.75000000  0.79877080  0.01655545  1
  P  P31  1  0.25000000  0.20122920  0.98344455  1
  P  P32  1  0.75000000  0.49415322  0.62163477  1
  P  P33  1  0.25000000  0.50584678  0.37836523  1
  P  P34  1  0.75000000  0.81067792  0.38801290  1
  P  P35  1  0.25000000  0.18932208  0.61198710  1
  P  P36  1  0.75000000  0.95002836  0.74013299  1
  P  P37  1  0.25000000  0.04997164  0.25986701  1
