# generated using pymatgen
data_Rb2CeI5
_symmetry_space_group_name_H-M   'P 1'
_cell_length_a   9.44799531
_cell_length_b   10.13265489
_cell_length_c   15.11808555
_cell_angle_alpha   90.00000000
_cell_angle_beta   90.00000000
_cell_angle_gamma   90.00000000
_symmetry_Int_Tables_number   1
_chemical_formula_structural   Rb2CeI5
_chemical_formula_sum   'Rb8 Ce4 I20'
_cell_volume   1447.30385471
_cell_formula_units_Z   4
loop_
 _symmetry_equiv_pos_site_id
 _symmetry_equiv_pos_as_xyz
  1  'x, y, z'
loop_
 _atom_site_type_symbol
 _atom_site_label
 _atom_site_symmetry_multiplicity
 _atom_site_fract_x
 _atom_site_fract_y
 _atom_site_fract_z
 _atom_site_occupancy
  Rb  Rb0  1  0.55433456  0.49589099  0.67253089  1
  Rb  Rb1  1  0.44566544  0.50410901  0.32746911  1
  Rb  Rb2  1  0.05433456  0.50410901  0.82746911  1
  Rb  Rb3  1  0.44566544  0.99589099  0.32746911  1
  Rb  Rb4  1  0.94566544  0.49589099  0.17253089  1
  Rb  Rb5  1  0.55433456  0.00410901  0.67253089  1
  Rb  Rb6  1  0.94566544  0.00410901  0.17253089  1
  Rb  Rb7  1  0.05433456  0.99589099  0.82746911  1
  Ce  Ce8  1  0.57617700  0.75000000  0.99583161  1
  Ce  Ce9  1  0.42382300  0.25000000  0.00416839  1
  Ce  Ce10  1  0.07617700  0.25000000  0.50416839  1
  Ce  Ce11  1  0.92382300  0.75000000  0.49583161  1
  I  I12  1  0.37718945  0.75000000  0.82377831  1
  I  I13  1  0.62281055  0.25000000  0.17622169  1
  I  I14  1  0.87718945  0.25000000  0.67622169  1
  I  I15  1  0.12281055  0.75000000  0.32377831  1
  I  I16  1  0.66328849  0.45548406  0.92528927  1
  I  I17  1  0.33671151  0.54451594  0.07471073  1
  I  I18  1  0.16328849  0.54451594  0.57471073  1
  I  I19  1  0.33671151  0.95548406  0.07471073  1
  I  I20  1  0.83671151  0.45548406  0.42528927  1
  I  I21  1  0.66328849  0.04451594  0.92528927  1
  I  I22  1  0.83671151  0.04451594  0.42528927  1
  I  I23  1  0.16328849  0.95548406  0.57471073  1
  I  I24  1  0.91975041  0.75000000  0.99080051  1
  I  I25  1  0.08024959  0.25000000  0.00919949  1
  I  I26  1  0.41975041  0.25000000  0.50919949  1
  I  I27  1  0.58024959  0.75000000  0.49080051  1
  I  I28  1  0.83963151  0.75000000  0.70074190  1
  I  I29  1  0.16036849  0.25000000  0.29925810  1
  I  I30  1  0.33963151  0.25000000  0.79925810  1
  I  I31  1  0.66036849  0.75000000  0.20074190  1
