# generated using pymatgen
data_NaGa(SO4)2
_symmetry_space_group_name_H-M   'P 1'
_cell_length_a   4.75958154
_cell_length_b   4.75958154
_cell_length_c   7.29764597
_cell_angle_alpha   87.61814705
_cell_angle_beta   87.61814705
_cell_angle_gamma   65.72755763
_symmetry_Int_Tables_number   1
_chemical_formula_structural   NaGa(SO4)2
_chemical_formula_sum   'Na1 Ga1 S2 O8'
_cell_volume   150.51956045
_cell_formula_units_Z   1
loop_
 _symmetry_equiv_pos_site_id
 _symmetry_equiv_pos_as_xyz
  1  'x, y, z'
loop_
 _atom_site_type_symbol
 _atom_site_label
 _atom_site_symmetry_multiplicity
 _atom_site_fract_x
 _atom_site_fract_y
 _atom_site_fract_z
 _atom_site_occupancy
  Na  Na0  1  0.00000000  -0.00000000  0.50000000  1
  Ga  Ga1  1  0.00000000  -0.00000000  -0.00000000  1
  S  S2  1  0.36455000  0.36455000  0.78523029  1
  S  S3  1  0.63545000  0.63545000  0.21476971  1
  O  O4  1  0.29134443  0.29134443  0.60789852  1
  O  O5  1  0.70865557  0.70865557  0.39210148  1
  O  O6  1  0.71085783  0.23852371  0.80098697  1
  O  O7  1  0.28914217  0.76147629  0.19901303  1
  O  O8  1  0.76147629  0.28914217  0.19901303  1
  O  O9  1  0.23852371  0.71085783  0.80098697  1
  O  O10  1  0.24205331  0.24205331  0.94580554  1
  O  O11  1  0.75794669  0.75794669  0.05419446  1
