# generated using pymatgen
data_NaNdMgWO6
_symmetry_space_group_name_H-M   'P 1'
_cell_length_a   5.54172211
_cell_length_b   5.58947854
_cell_length_c   7.94904370
_cell_angle_alpha   90.00000000
_cell_angle_beta   90.06796748
_cell_angle_gamma   90.00000000
_symmetry_Int_Tables_number   1
_chemical_formula_structural   NaNdMgWO6
_chemical_formula_sum   'Na2 Nd2 Mg2 W2 O12'
_cell_volume   246.22413287
_cell_formula_units_Z   2
loop_
 _symmetry_equiv_pos_site_id
 _symmetry_equiv_pos_as_xyz
  1  'x, y, z'
loop_
 _atom_site_type_symbol
 _atom_site_label
 _atom_site_symmetry_multiplicity
 _atom_site_fract_x
 _atom_site_fract_y
 _atom_site_fract_z
 _atom_site_occupancy
  Na  Na0  1  0.25291734  0.50060795  0.50083436  1
  Na  Na1  1  0.74708266  0.00060795  0.49916564  1
  Nd  Nd2  1  0.24205372  0.55667231  0.00091280  1
  Nd  Nd3  1  0.75794628  0.05667231  0.99908720  1
  Mg  Mg4  1  0.25051831  0.01879681  0.74287735  1
  Mg  Mg5  1  0.74948169  0.51879681  0.25712265  1
  W  W6  1  0.25379260  0.01499279  0.26255684  1
  W  W7  1  0.74620740  0.51499279  0.73744316  1
  O  O8  1  0.44074877  0.72702609  0.27956015  1
  O  O9  1  0.55925123  0.22702609  0.72043985  1
  O  O10  1  0.33391912  0.99504713  0.00605591  1
  O  O11  1  0.66608088  0.49504713  0.99394409  1
  O  O12  1  0.17130729  0.03552832  0.48871137  1
  O  O13  1  0.82869271  0.53552832  0.51128863  1
  O  O14  1  0.02301429  0.30242118  0.80608760  1
  O  O15  1  0.97698571  0.80242118  0.19391240  1
  O  O16  1  0.03611595  0.28201808  0.19381286  1
  O  O17  1  0.96388405  0.78201808  0.80618714  1
  O  O18  1  0.52932363  0.21528933  0.27627503  1
  O  O19  1  0.47067637  0.71528933  0.72372497  1
