# generated using pymatgen
data_Li9Mn2Co5O16
_symmetry_space_group_name_H-M   'P 1'
_cell_length_a   2.87998742
_cell_length_b   9.77942528
_cell_length_c   10.36919807
_cell_angle_alpha   99.12018610
_cell_angle_beta   90.00000000
_cell_angle_gamma   90.00000000
_symmetry_Int_Tables_number   1
_chemical_formula_structural   Li9Mn2Co5O16
_chemical_formula_sum   'Li9 Mn2 Co5 O16'
_cell_volume   288.35252179
_cell_formula_units_Z   1
loop_
 _symmetry_equiv_pos_site_id
 _symmetry_equiv_pos_as_xyz
  1  'x, y, z'
loop_
 _atom_site_type_symbol
 _atom_site_label
 _atom_site_symmetry_multiplicity
 _atom_site_fract_x
 _atom_site_fract_y
 _atom_site_fract_z
 _atom_site_occupancy
  Li  Li0  1  0.50000000  0.00316938  0.26981411  1
  Li  Li1  1  0.50000000  0.99763325  0.72979084  1
  Li  Li2  1  -0.00000000  0.25131627  0.38705584  1
  Li  Li3  1  -0.00000000  0.24593812  0.85860279  1
  Li  Li4  1  0.50000000  0.50142131  0.50291334  1
  Li  Li5  1  0.50000000  0.49730008  0.99455544  1
  Li  Li6  1  0.00000000  0.75650225  0.13429903  1
  Li  Li7  1  -0.00000000  0.74681247  0.62345629  1
  Li  Li8  1  0.00000000  0.00207846  0.50121021  1
  Mn  Mn9  1  0.00000000  0.00034198  0.00196639  1
  Mn  Mn10  1  -0.00000000  0.50546033  0.24983029  1
  Co  Co11  1  0.50000000  0.25195738  0.12718329  1
  Co  Co12  1  0.50000000  0.23261293  0.60816378  1
  Co  Co13  1  -0.00000000  0.49178349  0.74631373  1
  Co  Co14  1  0.50000000  0.77149261  0.39385168  1
  Co  Co15  1  0.50000000  0.74525989  0.87246931  1
  O  O16  1  0.50000000  0.89041115  0.05837175  1
  O  O17  1  0.50000000  0.86357836  0.55721370  1
  O  O18  1  -0.00000000  0.12396124  0.16851477  1
  O  O19  1  -0.00000000  0.13159072  0.68283936  1
  O  O20  1  0.50000000  0.39553689  0.30871968  1
  O  O21  1  0.50000000  0.37957909  0.81222396  1
  O  O22  1  -0.00000000  0.63508467  0.92567551  1
  O  O23  1  -0.00000000  0.62691843  0.41501643  1
  O  O24  1  0.50000000  0.13544332  0.44368877  1
  O  O25  1  0.50000000  0.10751380  0.94195561  1
  O  O26  1  0.00000000  0.36806955  0.57318232  1
  O  O27  1  0.00000000  0.37924885  0.08292995  1
  O  O28  1  0.50000000  0.61695138  0.69151190  1
  O  O29  1  0.50000000  0.61075106  0.18811889  1
  O  O30  1  0.00000000  0.86627186  0.31474322  1
  O  O31  1  -0.00000000  0.86800944  0.83381784  1
