# generated using pymatgen
data_Nd6Ni20P13
_symmetry_space_group_name_H-M   'P 1'
_cell_length_a   3.83241664
_cell_length_b   12.79450138
_cell_length_c   12.79450138
_cell_angle_alpha   120.00000279
_cell_angle_beta   90.00000000
_cell_angle_gamma   90.00000000
_symmetry_Int_Tables_number   1
_chemical_formula_structural   Nd6Ni20P13
_chemical_formula_sum   'Nd6 Ni20 P13'
_cell_volume   543.31296367
_cell_formula_units_Z   1
loop_
 _symmetry_equiv_pos_site_id
 _symmetry_equiv_pos_as_xyz
  1  'x, y, z'
loop_
 _atom_site_type_symbol
 _atom_site_label
 _atom_site_symmetry_multiplicity
 _atom_site_fract_x
 _atom_site_fract_y
 _atom_site_fract_z
 _atom_site_occupancy
  Nd  Nd0  1  0.00000000  0.53131294  0.81267113  1
  Nd  Nd1  1  -0.00000000  0.28135818  0.46868706  1
  Nd  Nd2  1  0.00000000  0.18732887  0.71864182  1
  Nd  Nd3  1  0.50000000  0.81351694  0.28127077  1
  Nd  Nd4  1  0.50000000  0.46775382  0.18648306  1
  Nd  Nd5  1  0.50000000  0.71872923  0.53224618  1
  Ni  Ni6  1  0.00000000  0.80708928  0.91064080  1
  Ni  Ni7  1  -0.00000000  0.10355152  0.19291072  1
  Ni  Ni8  1  -0.00000000  0.08935920  0.89644848  1
  Ni  Ni9  1  0.50000000  0.33333300  0.66666700  1
  Ni  Ni10  1  0.50000000  0.92760972  0.08029852  1
  Ni  Ni11  1  0.50000000  0.15268880  0.07239028  1
  Ni  Ni12  1  0.50000000  0.91970148  0.84731120  1
  Ni  Ni13  1  -0.00000000  0.66666700  0.33333300  1
  Ni  Ni14  1  0.00000000  0.56205206  0.58452215  1
  Ni  Ni15  1  -0.00000000  0.02247009  0.43794794  1
  Ni  Ni16  1  0.00000000  0.41547785  0.97752991  1
  Ni  Ni17  1  0.50000000  0.68624288  0.75575447  1
  Ni  Ni18  1  0.50000000  0.06951159  0.31375712  1
  Ni  Ni19  1  0.50000000  0.24424553  0.93048841  1
  Ni  Ni20  1  0.50000000  0.97696696  0.56636620  1
  Ni  Ni21  1  0.50000000  0.58939924  0.02303304  1
  Ni  Ni22  1  0.50000000  0.43363380  0.41060076  1
  Ni  Ni23  1  -0.00000000  0.75916250  0.07639474  1
  Ni  Ni24  1  -0.00000000  0.31723224  0.24083750  1
  Ni  Ni25  1  0.00000000  0.92360526  0.68276776  1
  P  P26  1  0.50000000  0.47949813  0.61234243  1
  P  P27  1  0.50000000  0.13284430  0.52050187  1
  P  P28  1  0.50000000  0.38765757  0.86715570  1
  P  P29  1  0.50000000  0.72555713  0.95634738  1
  P  P30  1  0.50000000  0.23079025  0.27444287  1
  P  P31  1  0.50000000  0.04365262  0.76920975  1
  P  P32  1  -0.00000000  0.86622822  0.48036623  1
  P  P33  1  0.00000000  0.61413801  0.13377178  1
  P  P34  1  -0.00000000  0.51963377  0.38586199  1
  P  P35  1  -0.00000000  0.95511744  0.23425801  1
  P  P36  1  -0.00000000  0.27914057  0.04488256  1
  P  P37  1  0.00000000  0.76574199  0.72085943  1
  P  P38  1  -0.00000000  0.00000000  -0.00000000  1
