# generated using pymatgen
data_Na2MgVF7
_symmetry_space_group_name_H-M   'P 1'
_cell_length_a   7.32101222
_cell_length_b   7.41530279
_cell_length_c   7.41530279
_cell_angle_alpha   61.27794977
_cell_angle_beta   60.41974717
_cell_angle_gamma   60.41974717
_symmetry_Int_Tables_number   1
_chemical_formula_structural   Na2MgVF7
_chemical_formula_sum   'Na4 Mg2 V2 F14'
_cell_volume   289.14362724
_cell_formula_units_Z   2
loop_
 _symmetry_equiv_pos_site_id
 _symmetry_equiv_pos_as_xyz
  1  'x, y, z'
loop_
 _atom_site_type_symbol
 _atom_site_label
 _atom_site_symmetry_multiplicity
 _atom_site_fract_x
 _atom_site_fract_y
 _atom_site_fract_z
 _atom_site_occupancy
  Na  Na0  1  0.24775298  0.61546998  0.88902406  1
  Na  Na1  1  0.75224702  0.11097594  0.38453002  1
  Na  Na2  1  0.25086657  0.61162499  0.38837501  1
  Na  Na3  1  0.74913343  0.61162499  0.38837501  1
  Mg  Mg4  1  0.25031038  0.11233000  0.88767000  1
  Mg  Mg5  1  0.74968962  0.11233000  0.88767000  1
  V  V6  1  0.25021146  0.11233561  0.38724147  1
  V  V7  1  0.74978854  0.61275853  0.88766439  1
  F  F8  1  0.34335166  0.78852143  0.52477525  1
  F  F9  1  0.65664834  0.47522475  0.21147857  1
  F  F10  1  0.56596965  0.06149765  0.20546256  1
  F  F11  1  0.43403035  0.79453744  0.93850235  1
  F  F12  1  0.83292986  0.79453744  0.93850235  1
  F  F13  1  0.16707014  0.06149765  0.20546256  1
  F  F14  1  0.33338069  0.16276833  0.57035466  1
  F  F15  1  0.66661931  0.42964534  0.83723167  1
  F  F16  1  0.06650369  0.42964534  0.83723167  1
  F  F17  1  0.93349631  0.16276833  0.57035466  1
  F  F18  1  -0.00000000  0.02206301  0.97793699  1
  F  F19  1  0.15573027  0.43666672  0.25187273  1
  F  F20  1  0.84426973  0.74812727  0.56333328  1
  F  F21  1  0.50000000  0.20254924  0.79745076  1
