# generated using pymatgen
data_Nd3(Ge3Pt2)2
_symmetry_space_group_name_H-M   'P 1'
_cell_length_a   4.46641474
_cell_length_b   26.27278563
_cell_length_c   8.94568449
_cell_angle_alpha   90.00000000
_cell_angle_beta   90.00000000
_cell_angle_gamma   90.00000000
_symmetry_Int_Tables_number   1
_chemical_formula_structural   Nd3(Ge3Pt2)2
_chemical_formula_sum   'Nd12 Ge24 Pt16'
_cell_volume   1049.73275094
_cell_formula_units_Z   4
loop_
 _symmetry_equiv_pos_site_id
 _symmetry_equiv_pos_as_xyz
  1  'x, y, z'
loop_
 _atom_site_type_symbol
 _atom_site_label
 _atom_site_symmetry_multiplicity
 _atom_site_fract_x
 _atom_site_fract_y
 _atom_site_fract_z
 _atom_site_occupancy
  Nd  Nd0  1  0.75000000  0.72077478  0.62497301  1
  Nd  Nd1  1  0.25000000  0.27922522  0.37502699  1
  Nd  Nd2  1  0.25000000  0.77922522  0.12497301  1
  Nd  Nd3  1  0.75000000  0.22077478  0.87502699  1
  Nd  Nd4  1  0.75000000  0.59231000  0.86746511  1
  Nd  Nd5  1  0.25000000  0.40769000  0.13253489  1
  Nd  Nd6  1  0.25000000  0.90769000  0.36746511  1
  Nd  Nd7  1  0.75000000  0.09231000  0.63253489  1
  Nd  Nd8  1  0.75000000  0.59194180  0.38366519  1
  Nd  Nd9  1  0.25000000  0.40805820  0.61633481  1
  Nd  Nd10  1  0.25000000  0.90805820  0.88366519  1
  Nd  Nd11  1  0.75000000  0.09194180  0.11633481  1
  Ge  Ge12  1  0.75000000  0.71418318  0.27329057  1
  Ge  Ge13  1  0.25000000  0.28581682  0.72670943  1
  Ge  Ge14  1  0.25000000  0.78581682  0.77329057  1
  Ge  Ge15  1  0.75000000  0.21418318  0.22670943  1
  Ge  Ge16  1  0.75000000  0.85853996  0.62689656  1
  Ge  Ge17  1  0.25000000  0.14146004  0.37310344  1
  Ge  Ge18  1  0.25000000  0.64146004  0.12689656  1
  Ge  Ge19  1  0.75000000  0.35853996  0.87310344  1
  Ge  Ge20  1  0.75000000  0.71453813  0.97626731  1
  Ge  Ge21  1  0.25000000  0.28546187  0.02373269  1
  Ge  Ge22  1  0.25000000  0.78546187  0.47626731  1
  Ge  Ge23  1  0.75000000  0.21453813  0.52373269  1
  Ge  Ge24  1  0.75000000  0.86176665  0.12660156  1
  Ge  Ge25  1  0.25000000  0.13823335  0.87339844  1
  Ge  Ge26  1  0.25000000  0.63823335  0.62660156  1
  Ge  Ge27  1  0.75000000  0.36176665  0.37339844  1
  Ge  Ge28  1  0.75000000  0.99765897  0.87190922  1
  Ge  Ge29  1  0.25000000  0.00234103  0.12809078  1
  Ge  Ge30  1  0.25000000  0.50234103  0.37190922  1
  Ge  Ge31  1  0.75000000  0.49765897  0.62809078  1
  Ge  Ge32  1  0.75000000  0.50124051  0.12338672  1
  Ge  Ge33  1  0.25000000  0.49875949  0.87661328  1
  Ge  Ge34  1  0.25000000  0.99875949  0.62338672  1
  Ge  Ge35  1  0.75000000  0.00124051  0.37661328  1
  Pt  Pt36  1  0.75000000  0.81280729  0.37593714  1
  Pt  Pt37  1  0.25000000  0.18719271  0.62406286  1
  Pt  Pt38  1  0.25000000  0.68719271  0.87593714  1
  Pt  Pt39  1  0.75000000  0.31280729  0.12406286  1
  Pt  Pt40  1  0.75000000  0.45629776  0.37251081  1
  Pt  Pt41  1  0.25000000  0.54370224  0.62748919  1
  Pt  Pt42  1  0.25000000  0.04370224  0.87251081  1
  Pt  Pt43  1  0.75000000  0.95629776  0.12748919  1
  Pt  Pt44  1  0.75000000  0.81267063  0.87588122  1
  Pt  Pt45  1  0.25000000  0.18732937  0.12411878  1
  Pt  Pt46  1  0.25000000  0.68732937  0.37588122  1
  Pt  Pt47  1  0.75000000  0.31267063  0.62411878  1
  Pt  Pt48  1  0.75000000  0.95182068  0.62158876  1
  Pt  Pt49  1  0.25000000  0.04817932  0.37841124  1
  Pt  Pt50  1  0.25000000  0.54817932  0.12158876  1
  Pt  Pt51  1  0.75000000  0.45182068  0.87841124  1
