# generated using pymatgen
data_Na3LuCl6
_symmetry_space_group_name_H-M   'P 1'
_cell_length_a   6.96032733
_cell_length_b   7.26362076
_cell_length_c   10.20192328
_cell_angle_alpha   90.00000000
_cell_angle_beta   90.51860264
_cell_angle_gamma   90.00000000
_symmetry_Int_Tables_number   1
_chemical_formula_structural   Na3LuCl6
_chemical_formula_sum   'Na6 Lu2 Cl12'
_cell_volume   515.75932438
_cell_formula_units_Z   2
loop_
 _symmetry_equiv_pos_site_id
 _symmetry_equiv_pos_as_xyz
  1  'x, y, z'
loop_
 _atom_site_type_symbol
 _atom_site_label
 _atom_site_symmetry_multiplicity
 _atom_site_fract_x
 _atom_site_fract_y
 _atom_site_fract_z
 _atom_site_occupancy
  Na  Na0  1  -0.00000000  -0.00000000  0.50000000  1
  Na  Na1  1  0.50000000  0.50000000  -0.00000000  1
  Na  Na2  1  0.98567794  0.55819849  0.25832213  1
  Na  Na3  1  0.01432206  0.44180151  0.74167787  1
  Na  Na4  1  0.51432206  0.05819849  0.24167787  1
  Na  Na5  1  0.48567794  0.94180151  0.75832213  1
  Lu  Lu6  1  -0.00000000  -0.00000000  -0.00000000  1
  Lu  Lu7  1  0.50000000  0.50000000  0.50000000  1
  Cl  Cl8  1  0.83080681  0.29873392  0.07625824  1
  Cl  Cl9  1  0.16919319  0.70126608  0.92374176  1
  Cl  Cl10  1  0.66919319  0.79873392  0.42374176  1
  Cl  Cl11  1  0.33080681  0.20126608  0.57625824  1
  Cl  Cl12  1  0.13010588  0.93583957  0.23593370  1
  Cl  Cl13  1  0.86989412  0.06416043  0.76406630  1
  Cl  Cl14  1  0.36989412  0.43583957  0.26406630  1
  Cl  Cl15  1  0.63010588  0.56416043  0.73593370  1
  Cl  Cl16  1  0.69360137  0.82111613  0.06056157  1
  Cl  Cl17  1  0.30639863  0.17888387  0.93943843  1
  Cl  Cl18  1  0.80639863  0.32111613  0.43943843  1
  Cl  Cl19  1  0.19360137  0.67888387  0.56056157  1
