# generated using pymatgen
data_Lu5(ReO6)2
_symmetry_space_group_name_H-M   'P 1'
_cell_length_a   5.60344317
_cell_length_b   6.71099238
_cell_length_c   7.39491544
_cell_angle_alpha   106.17140422
_cell_angle_beta   90.00000000
_cell_angle_gamma   114.67574151
_symmetry_Int_Tables_number   1
_chemical_formula_structural   Lu5(ReO6)2
_chemical_formula_sum   'Lu5 Re2 O12'
_cell_volume   240.52834478
_cell_formula_units_Z   1
loop_
 _symmetry_equiv_pos_site_id
 _symmetry_equiv_pos_as_xyz
  1  'x, y, z'
loop_
 _atom_site_type_symbol
 _atom_site_label
 _atom_site_symmetry_multiplicity
 _atom_site_fract_x
 _atom_site_fract_y
 _atom_site_fract_z
 _atom_site_occupancy
  Lu  Lu0  1  0.69811093  0.39622187  0.36170020  1
  Lu  Lu1  1  0.30188907  0.60377813  0.63829980  1
  Lu  Lu2  1  0.68620032  0.37240065  0.82320920  1
  Lu  Lu3  1  0.31379968  0.62759935  0.17679080  1
  Lu  Lu4  1  -0.00000000  -0.00000000  0.50000000  1
  Re  Re5  1  0.78488117  0.00000000  0.00000000  1
  Re  Re6  1  0.21511883  1.00000000  1.00000000  1
  O  O7  1  0.00056271  0.00112542  0.78917647  1
  O  O8  1  0.99943729  0.99887458  0.21082353  1
  O  O9  1  0.57588639  0.66332448  0.91170836  1
  O  O10  1  0.42411361  0.33667552  0.08829164  1
  O  O11  1  0.91256191  0.33667552  0.08829164  1
  O  O12  1  0.08743809  0.66332448  0.91170836  1
  O  O13  1  0.49945866  0.99891733  0.81655524  1
  O  O14  1  0.50054134  0.00108267  0.18344476  1
  O  O15  1  0.40574109  0.30715714  0.57362876  1
  O  O16  1  0.59425891  0.69284286  0.42637124  1
  O  O17  1  0.09858395  0.69284286  0.42637124  1
  O  O18  1  0.90141605  0.30715714  0.57362876  1
