# generated using pymatgen
data_Pr(Cu2P)2
_symmetry_space_group_name_H-M   'P 1'
_cell_length_a   3.90487554
_cell_length_b   11.06252433
_cell_length_c   14.69019850
_cell_angle_alpha   90.00000000
_cell_angle_beta   90.00000000
_cell_angle_gamma   90.00000000
_symmetry_Int_Tables_number   1
_chemical_formula_structural   Pr(Cu2P)2
_chemical_formula_sum   'Pr6 Cu24 P12'
_cell_volume   634.58397276
_cell_formula_units_Z   6
loop_
 _symmetry_equiv_pos_site_id
 _symmetry_equiv_pos_as_xyz
  1  'x, y, z'
loop_
 _atom_site_type_symbol
 _atom_site_label
 _atom_site_symmetry_multiplicity
 _atom_site_fract_x
 _atom_site_fract_y
 _atom_site_fract_z
 _atom_site_occupancy
  Pr  Pr0  1  -0.00000000  0.12047041  0.72572113  1
  Pr  Pr1  1  -0.00000000  0.87952959  0.27427887  1
  Pr  Pr2  1  0.50000000  0.37952959  0.22572113  1
  Pr  Pr3  1  0.50000000  0.62047041  0.77427887  1
  Pr  Pr4  1  0.00000000  -0.00000000  -0.00000000  1
  Pr  Pr5  1  0.50000000  0.50000000  0.50000000  1
  Cu  Cu6  1  0.00000000  0.07230671  0.43851074  1
  Cu  Cu7  1  -0.00000000  0.92769329  0.56148926  1
  Cu  Cu8  1  0.50000000  0.42769329  0.93851074  1
  Cu  Cu9  1  0.50000000  0.57230671  0.06148926  1
  Cu  Cu10  1  0.00000000  0.39907516  0.05183752  1
  Cu  Cu11  1  -0.00000000  0.60092484  0.94816248  1
  Cu  Cu12  1  0.50000000  0.10092484  0.55183752  1
  Cu  Cu13  1  0.50000000  0.89907516  0.44816248  1
  Cu  Cu14  1  -0.00000000  0.57519153  0.33091991  1
  Cu  Cu15  1  -0.00000000  0.42480847  0.66908009  1
  Cu  Cu16  1  0.50000000  0.92480847  0.83091991  1
  Cu  Cu17  1  0.50000000  0.07519153  0.16908009  1
  Cu  Cu18  1  -0.00000000  0.26717787  0.53653461  1
  Cu  Cu19  1  0.00000000  0.73282213  0.46346539  1
  Cu  Cu20  1  0.50000000  0.23282213  0.03653461  1
  Cu  Cu21  1  0.50000000  0.76717787  0.96346539  1
  Cu  Cu22  1  0.00000000  0.74462391  0.08833375  1
  Cu  Cu23  1  -0.00000000  0.25537609  0.91166625  1
  Cu  Cu24  1  0.50000000  0.75537609  0.58833375  1
  Cu  Cu25  1  0.50000000  0.24462391  0.41166625  1
  Cu  Cu26  1  0.00000000  0.17254081  0.28641668  1
  Cu  Cu27  1  0.00000000  0.82745919  0.71358332  1
  Cu  Cu28  1  0.50000000  0.32745919  0.78641668  1
  Cu  Cu29  1  0.50000000  0.67254081  0.21358332  1
  P  P30  1  0.00000000  0.36722294  0.38524550  1
  P  P31  1  0.00000000  0.63277706  0.61475450  1
  P  P32  1  0.50000000  0.13277706  0.88524550  1
  P  P33  1  0.50000000  0.86722294  0.11475450  1
  P  P34  1  -0.00000000  0.56086138  0.16313737  1
  P  P35  1  -0.00000000  0.43913862  0.83686263  1
  P  P36  1  0.50000000  0.93913862  0.66313737  1
  P  P37  1  0.50000000  0.06086138  0.33686263  1
  P  P38  1  0.00000000  0.20626496  0.12942089  1
  P  P39  1  0.00000000  0.79373504  0.87057911  1
  P  P40  1  0.50000000  0.29373504  0.62942089  1
  P  P41  1  0.50000000  0.70626496  0.37057911  1
