# generated using pymatgen
data_Li9Mn2Co5O16
_symmetry_space_group_name_H-M   'P 1'
_cell_length_a   2.89000776
_cell_length_b   13.11651421
_cell_length_c   7.78163902
_cell_angle_alpha   87.21083583
_cell_angle_beta   79.29840290
_cell_angle_gamma   89.99999849
_symmetry_Int_Tables_number   1
_chemical_formula_structural   Li9Mn2Co5O16
_chemical_formula_sum   'Li9 Mn2 Co5 O16'
_cell_volume   289.49125895
_cell_formula_units_Z   1
loop_
 _symmetry_equiv_pos_site_id
 _symmetry_equiv_pos_as_xyz
  1  'x, y, z'
loop_
 _atom_site_type_symbol
 _atom_site_label
 _atom_site_symmetry_multiplicity
 _atom_site_fract_x
 _atom_site_fract_y
 _atom_site_fract_z
 _atom_site_occupancy
  Li  Li0  1  0.56458385  0.18811329  0.87083230  1
  Li  Li1  1  0.68833131  0.57532918  0.62333739  1
  Li  Li2  1  0.80924810  0.92151147  0.38150381  1
  Li  Li3  1  0.93113587  0.31601754  0.13772827  1
  Li  Li4  1  0.06101576  0.68703103  0.87796848  1
  Li  Li5  1  0.19238779  0.05263087  0.61522442  1
  Li  Li6  1  0.31451136  0.44688237  0.37097728  1
  Li  Li7  1  0.43746775  0.80921463  0.12506450  1
  Li  Li8  1  0.25081986  0.74962642  0.49836028  1
  Mn  Mn9  1  0.00285591  0.99880995  0.99428817  1
  Mn  Mn10  1  0.12447958  0.37578131  0.75104084  1
  Co  Co11  1  0.37337400  0.12334835  0.25325201  1
  Co  Co12  1  0.49311026  0.50386744  0.01377949  1
  Co  Co13  1  0.63440324  0.85860088  0.73119352  1
  Co  Co14  1  0.75292488  0.25165291  0.49415023  1
  Co  Co15  1  0.86667069  0.64107913  0.26665862  1
  O  O16  1  0.58401666  0.03439868  0.83196668  1
  O  O17  1  0.70609227  0.40643193  0.58781546  1
  O  O18  1  0.84769321  0.77567122  0.30461358  1
  O  O19  1  0.96008420  0.14135302  0.07983159  1
  O  O20  1  0.08757270  0.51661116  0.82485459  1
  O  O21  1  0.21334617  0.90558120  0.57330767  1
  O  O22  1  0.33989919  0.27637318  0.32020163  1
  O  O23  1  0.46354334  0.64821567  0.07291333  1
  O  O24  1  0.54099515  0.34482515  0.91800970  1
  O  O25  1  0.65028594  0.72450110  0.69942812  1
  O  O26  1  0.79110766  0.09676631  0.41778467  1
  O  O27  1  0.91246039  0.46901740  0.17507922  1
  O  O28  1  0.03847531  0.86112377  0.92304937  1
  O  O29  1  0.15935786  0.23458299  0.68128427  1
  O  O30  1  0.28732490  0.59536799  0.42535019  1
  O  O31  1  0.42042484  0.96968243  0.15915031  1
