# generated using pymatgen
data_Na4Y2(IrO4)3
_symmetry_space_group_name_H-M   'P 1'
_cell_length_a   3.20892544
_cell_length_b   9.48034079
_cell_length_c   9.48034079
_cell_angle_alpha   119.99999675
_cell_angle_beta   90.00000000
_cell_angle_gamma   90.00000000
_symmetry_Int_Tables_number   1
_chemical_formula_structural   Na4Y2(IrO4)3
_chemical_formula_sum   'Na4 Y2 Ir3 O12'
_cell_volume   249.76879064
_cell_formula_units_Z   1
loop_
 _symmetry_equiv_pos_site_id
 _symmetry_equiv_pos_as_xyz
  1  'x, y, z'
loop_
 _atom_site_type_symbol
 _atom_site_label
 _atom_site_symmetry_multiplicity
 _atom_site_fract_x
 _atom_site_fract_y
 _atom_site_fract_z
 _atom_site_occupancy
  Na  Na0  1  0.00000000  0.00000000  -0.00000000  1
  Na  Na1  1  0.50000000  0.30144426  0.30144426  1
  Na  Na2  1  0.50000000  1.00000000  0.69855574  1
  Na  Na3  1  0.50000000  0.69855574  1.00000000  1
  Y  Y4  1  0.50000000  0.66666700  0.33333300  1
  Y  Y5  1  0.50000000  0.33333300  0.66666700  1
  Ir  Ir6  1  -0.00000000  0.66980196  0.66980196  1
  Ir  Ir7  1  0.00000000  0.00000000  0.33019804  1
  Ir  Ir8  1  -0.00000000  0.33019804  0.00000000  1
  O  O9  1  0.50000000  0.80312176  0.80312176  1
  O  O10  1  0.50000000  1.00000000  0.19687824  1
  O  O11  1  0.50000000  0.19687824  1.00000000  1
  O  O12  1  0.50000000  0.54354743  0.54354743  1
  O  O13  1  0.50000000  0.00000000  0.45645257  1
  O  O14  1  0.50000000  0.45645257  0.00000000  1
  O  O15  1  -0.00000000  0.75700359  0.21690474  1
  O  O16  1  -0.00000000  0.45990115  0.24299641  1
  O  O17  1  -0.00000000  0.54009885  0.78309526  1
  O  O18  1  0.00000000  0.78309526  0.54009885  1
  O  O19  1  0.00000000  0.21690474  0.75700359  1
  O  O20  1  0.00000000  0.24299641  0.45990115  1
