# generated using pymatgen
data_Na3DyBr6
_symmetry_space_group_name_H-M   'P 1'
_cell_length_a   7.36264495
_cell_length_b   7.73826525
_cell_length_c   10.95617059
_cell_angle_alpha   90.00000000
_cell_angle_beta   90.37832966
_cell_angle_gamma   90.00000000
_symmetry_Int_Tables_number   1
_chemical_formula_structural   Na3DyBr6
_chemical_formula_sum   'Na6 Dy2 Br12'
_cell_volume   624.20434591
_cell_formula_units_Z   2
loop_
 _symmetry_equiv_pos_site_id
 _symmetry_equiv_pos_as_xyz
  1  'x, y, z'
loop_
 _atom_site_type_symbol
 _atom_site_label
 _atom_site_symmetry_multiplicity
 _atom_site_fract_x
 _atom_site_fract_y
 _atom_site_fract_z
 _atom_site_occupancy
  Na  Na0  1  -0.00000000  0.00000000  0.50000000  1
  Na  Na1  1  0.50000000  0.50000000  0.00000000  1
  Na  Na2  1  0.98422401  0.56880991  0.26086396  1
  Na  Na3  1  0.01577599  0.43119009  0.73913604  1
  Na  Na4  1  0.51577599  0.06880991  0.23913604  1
  Na  Na5  1  0.48422401  0.93119009  0.76086396  1
  Dy  Dy6  1  -0.00000000  0.00000000  0.00000000  1
  Dy  Dy7  1  0.50000000  0.50000000  0.50000000  1
  Br  Br8  1  0.83560004  0.30712000  0.07937390  1
  Br  Br9  1  0.16439996  0.69288000  0.92062610  1
  Br  Br10  1  0.66439996  0.80712000  0.42062610  1
  Br  Br11  1  0.33560004  0.19288000  0.57937390  1
  Br  Br12  1  0.13615273  0.92995082  0.23851236  1
  Br  Br13  1  0.86384727  0.07004918  0.76148764  1
  Br  Br14  1  0.36384727  0.42995082  0.26148764  1
  Br  Br15  1  0.63615273  0.57004918  0.73851236  1
  Br  Br16  1  0.68421440  0.82336506  0.06325843  1
  Br  Br17  1  0.31578560  0.17663494  0.93674157  1
  Br  Br18  1  0.81578560  0.32336506  0.43674157  1
  Br  Br19  1  0.18421440  0.67663494  0.56325843  1
