# generated using pymatgen
data_KAu(Br2O)2
_symmetry_space_group_name_H-M   'P 1'
_cell_length_a   8.77107944
_cell_length_b   9.71997144
_cell_length_c   13.10086592
_cell_angle_alpha   90.00000000
_cell_angle_beta   90.00000000
_cell_angle_gamma   111.53969624
_symmetry_Int_Tables_number   1
_chemical_formula_structural   KAu(Br2O)2
_chemical_formula_sum   'K4 Au4 Br16 O8'
_cell_volume   1038.90848220
_cell_formula_units_Z   4
loop_
 _symmetry_equiv_pos_site_id
 _symmetry_equiv_pos_as_xyz
  1  'x, y, z'
loop_
 _atom_site_type_symbol
 _atom_site_label
 _atom_site_symmetry_multiplicity
 _atom_site_fract_x
 _atom_site_fract_y
 _atom_site_fract_z
 _atom_site_occupancy
  K  K0  1  0.24560592  0.98109942  0.47613985  1
  K  K1  1  0.74560592  0.48109942  0.02386015  1
  K  K2  1  0.75439408  0.01890058  0.52386015  1
  K  K3  1  0.25439408  0.51890058  0.97613985  1
  Au  Au4  1  0.25852846  0.01384419  0.00223002  1
  Au  Au5  1  0.75852846  0.51384419  0.49776998  1
  Au  Au6  1  0.74147154  0.98615581  0.99776998  1
  Au  Au7  1  0.24147154  0.48615581  0.50223002  1
  Br  Br8  1  0.24999949  0.84376029  0.86080938  1
  Br  Br9  1  0.74999949  0.34376029  0.63919062  1
  Br  Br10  1  0.75000051  0.15623971  0.13919062  1
  Br  Br11  1  0.25000051  0.65623971  0.36080938  1
  Br  Br12  1  0.27012213  0.18901008  0.14072092  1
  Br  Br13  1  0.77012213  0.68901008  0.35927908  1
  Br  Br14  1  0.72987787  0.81098992  0.85927908  1
  Br  Br15  1  0.22987787  0.31098992  0.64072092  1
  Br  Br16  1  0.40298584  0.20592199  0.86354592  1
  Br  Br17  1  0.90298584  0.70592199  0.63645408  1
  Br  Br18  1  0.59701416  0.79407801  0.13645408  1
  Br  Br19  1  0.09701416  0.29407801  0.36354592  1
  Br  Br20  1  0.11137429  0.81608280  0.13636162  1
  Br  Br21  1  0.61137429  0.31608280  0.36363838  1
  Br  Br22  1  0.88862571  0.18391720  0.86363838  1
  Br  Br23  1  0.38862571  0.68391720  0.63636162  1
  O  O24  1  0.05900688  0.63815693  0.08563186  1
  O  O25  1  0.55900688  0.13815693  0.41436814  1
  O  O26  1  0.94099312  0.36184307  0.91436814  1
  O  O27  1  0.44099312  0.86184307  0.58563186  1
  O  O28  1  0.03721302  0.11426378  0.40995585  1
  O  O29  1  0.53721302  0.61426378  0.09004415  1
  O  O30  1  0.96278698  0.88573622  0.59004415  1
  O  O31  1  0.46278698  0.38573622  0.90995585  1
