# generated using pymatgen
data_Mn(SbSe2)2
_symmetry_space_group_name_H-M   'P 1'
_cell_length_a   4.01519637
_cell_length_b   6.95085644
_cell_length_c   14.37672169
_cell_angle_alpha   87.12873487
_cell_angle_beta   81.97285051
_cell_angle_gamma   73.21222475
_symmetry_Int_Tables_number   1
_chemical_formula_structural   Mn(SbSe2)2
_chemical_formula_sum   'Mn2 Sb4 Se8'
_cell_volume   380.35631614
_cell_formula_units_Z   2
loop_
 _symmetry_equiv_pos_site_id
 _symmetry_equiv_pos_as_xyz
  1  'x, y, z'
loop_
 _atom_site_type_symbol
 _atom_site_label
 _atom_site_symmetry_multiplicity
 _atom_site_fract_x
 _atom_site_fract_y
 _atom_site_fract_z
 _atom_site_occupancy
  Mn  Mn0  1  0.00000000  0.00000000  -0.00000000  1
  Mn  Mn1  1  0.00000000  0.50000000  0.50000000  1
  Sb  Sb2  1  0.64537359  0.07961085  0.62964198  1
  Sb  Sb3  1  0.35462641  0.92038915  0.37035802  1
  Sb  Sb4  1  0.23072322  0.41466659  0.12388697  1
  Sb  Sb5  1  0.76927678  0.58533341  0.87611303  1
  Se  Se6  1  0.01050160  0.64983269  0.32916412  1
  Se  Se7  1  0.98949840  0.35016731  0.67083588  1
  Se  Se8  1  0.65668395  0.22888740  0.45774469  1
  Se  Se9  1  0.34331605  0.77111260  0.54225531  1
  Se  Se10  1  0.60540554  0.73987867  0.04931025  1
  Se  Se11  1  0.39459446  0.26012133  0.95068975  1
  Se  Se12  1  0.83705586  0.15201401  0.17387427  1
  Se  Se13  1  0.16294414  0.84798599  0.82612573  1
