# generated using pymatgen
data_MgFeBO4
_symmetry_space_group_name_H-M   'P 1'
_cell_length_a   3.12958071
_cell_length_b   9.35180641
_cell_length_c   9.49204578
_cell_angle_alpha   90.00000000
_cell_angle_beta   90.00000000
_cell_angle_gamma   90.00000000
_symmetry_Int_Tables_number   1
_chemical_formula_structural   MgFeBO4
_chemical_formula_sum   'Mg4 Fe4 B4 O16'
_cell_volume   277.80591496
_cell_formula_units_Z   4
loop_
 _symmetry_equiv_pos_site_id
 _symmetry_equiv_pos_as_xyz
  1  'x, y, z'
loop_
 _atom_site_type_symbol
 _atom_site_label
 _atom_site_symmetry_multiplicity
 _atom_site_fract_x
 _atom_site_fract_y
 _atom_site_fract_z
 _atom_site_occupancy
  Mg  Mg0  1  0.75000000  0.89659223  0.31084694  1
  Mg  Mg1  1  0.25000000  0.10340777  0.68915306  1
  Mg  Mg2  1  0.25000000  0.60340777  0.81084694  1
  Mg  Mg3  1  0.75000000  0.39659223  0.18915306  1
  Fe  Fe4  1  0.75000000  0.88209180  0.92922041  1
  Fe  Fe5  1  0.25000000  0.11790820  0.07077959  1
  Fe  Fe6  1  0.25000000  0.61790820  0.42922041  1
  Fe  Fe7  1  0.75000000  0.38209180  0.57077959  1
  B  B8  1  0.75000000  0.83479693  0.62560587  1
  B  B9  1  0.25000000  0.16520307  0.37439413  1
  B  B10  1  0.25000000  0.66520307  0.12560587  1
  B  B11  1  0.75000000  0.33479693  0.87439413  1
  O  O12  1  0.75000000  0.76196372  0.49439353  1
  O  O13  1  0.25000000  0.23803628  0.50560647  1
  O  O14  1  0.25000000  0.73803628  0.99439353  1
  O  O15  1  0.75000000  0.26196372  0.00560647  1
  O  O16  1  0.75000000  0.75401877  0.75074289  1
  O  O17  1  0.25000000  0.24598123  0.24925711  1
  O  O18  1  0.25000000  0.74598123  0.25074289  1
  O  O19  1  0.75000000  0.25401877  0.74925711  1
  O  O20  1  0.75000000  0.49031219  0.38579482  1
  O  O21  1  0.25000000  0.50968781  0.61420518  1
  O  O22  1  0.25000000  0.00968781  0.88579482  1
  O  O23  1  0.75000000  0.99031219  0.11420518  1
  O  O24  1  0.75000000  0.97885661  0.63198237  1
  O  O25  1  0.25000000  0.02114339  0.36801763  1
  O  O26  1  0.25000000  0.52114339  0.13198237  1
  O  O27  1  0.75000000  0.47885661  0.86801763  1
