# generated using pymatgen
data_LuTl(WO4)2
_symmetry_space_group_name_H-M   'P 1'
_cell_length_a   7.53262605
_cell_length_b   7.53262605
_cell_length_c   7.45502728
_cell_angle_alpha   62.35698760
_cell_angle_beta   62.35698760
_cell_angle_gamma   88.07934736
_symmetry_Int_Tables_number   1
_chemical_formula_structural   LuTl(WO4)2
_chemical_formula_sum   'Lu2 Tl2 W4 O16'
_cell_volume   322.92118663
_cell_formula_units_Z   2
loop_
 _symmetry_equiv_pos_site_id
 _symmetry_equiv_pos_as_xyz
  1  'x, y, z'
loop_
 _atom_site_type_symbol
 _atom_site_label
 _atom_site_symmetry_multiplicity
 _atom_site_fract_x
 _atom_site_fract_y
 _atom_site_fract_z
 _atom_site_occupancy
  Lu  Lu0  1  0.22358607  0.77641393  0.75000000  1
  Lu  Lu1  1  0.77641393  0.22358607  0.25000000  1
  Tl  Tl2  1  0.79705097  0.20294903  0.75000000  1
  Tl  Tl3  1  0.20294903  0.79705097  0.25000000  1
  W  W4  1  0.29836263  0.30839390  0.72132106  1
  W  W5  1  0.70163737  0.69160610  0.27867894  1
  W  W6  1  0.69160610  0.70163737  0.77867894  1
  W  W7  1  0.30839390  0.29836263  0.22132106  1
  O  O8  1  0.38196295  0.23943057  0.94305581  1
  O  O9  1  0.61803705  0.76056943  0.05694419  1
  O  O10  1  0.76056943  0.61803705  0.55694419  1
  O  O11  1  0.23943057  0.38196295  0.44305581  1
  O  O12  1  0.62745258  0.94190373  0.61558289  1
  O  O13  1  0.37254742  0.05809627  0.38441711  1
  O  O14  1  0.05809627  0.37254742  0.88441711  1
  O  O15  1  0.94190373  0.62745258  0.11558289  1
  O  O16  1  0.40890715  0.63088702  0.53727835  1
  O  O17  1  0.59109285  0.36911298  0.46272165  1
  O  O18  1  0.36911298  0.59109285  0.96272165  1
  O  O19  1  0.63088702  0.40890715  0.03727835  1
  O  O20  1  0.21482604  0.04044789  0.80852358  1
  O  O21  1  0.78517396  0.95955211  0.19147642  1
  O  O22  1  0.95955211  0.78517396  0.69147642  1
  O  O23  1  0.04044789  0.21482604  0.30852358  1
