# generated using pymatgen
data_LuPPd
_symmetry_space_group_name_H-M   'P 1'
_cell_length_a   3.95764377
_cell_length_b   6.78868597
_cell_length_c   7.69686023
_cell_angle_alpha   90.00000000
_cell_angle_beta   90.00000000
_cell_angle_gamma   90.00000000
_symmetry_Int_Tables_number   1
_chemical_formula_structural   LuPPd
_chemical_formula_sum   'Lu4 P4 Pd4'
_cell_volume   206.79308883
_cell_formula_units_Z   4
loop_
 _symmetry_equiv_pos_site_id
 _symmetry_equiv_pos_as_xyz
  1  'x, y, z'
loop_
 _atom_site_type_symbol
 _atom_site_label
 _atom_site_symmetry_multiplicity
 _atom_site_fract_x
 _atom_site_fract_y
 _atom_site_fract_z
 _atom_site_occupancy
  Lu  Lu0  1  0.75000000  0.96970514  0.31507253  1
  Lu  Lu1  1  0.25000000  0.03029486  0.68492747  1
  Lu  Lu2  1  0.25000000  0.53029486  0.81507253  1
  Lu  Lu3  1  0.75000000  0.46970514  0.18492747  1
  P  P4  1  0.75000000  0.74961301  0.62435580  1
  P  P5  1  0.25000000  0.25038699  0.37564420  1
  P  P6  1  0.25000000  0.75038699  0.12435580  1
  P  P7  1  0.75000000  0.24961301  0.87564420  1
  Pd  Pd8  1  0.75000000  0.85400513  0.93778065  1
  Pd  Pd9  1  0.25000000  0.14599487  0.06221935  1
  Pd  Pd10  1  0.25000000  0.64599487  0.43778065  1
  Pd  Pd11  1  0.75000000  0.35400513  0.56221935  1
