# generated using pymatgen
data_Li5IO6
_symmetry_space_group_name_H-M   'P 1'
_cell_length_a   5.17521882
_cell_length_b   5.17521882
_cell_length_c   14.50230803
_cell_angle_alpha   90.00000000
_cell_angle_beta   90.00000000
_cell_angle_gamma   120.00001202
_symmetry_Int_Tables_number   1
_chemical_formula_structural   Li5IO6
_chemical_formula_sum   'Li15 I3 O18'
_cell_volume   336.37610654
_cell_formula_units_Z   3
loop_
 _symmetry_equiv_pos_site_id
 _symmetry_equiv_pos_as_xyz
  1  'x, y, z'
loop_
 _atom_site_type_symbol
 _atom_site_label
 _atom_site_symmetry_multiplicity
 _atom_site_fract_x
 _atom_site_fract_y
 _atom_site_fract_z
 _atom_site_occupancy
  Li  Li0  1  0.22190707  0.44381415  0.66666700  1
  Li  Li1  1  0.22190707  0.77809293  0.33333300  1
  Li  Li2  1  0.55618585  0.77809293  -0.00000000  1
  Li  Li3  1  0.55545006  0.11090011  0.16666700  1
  Li  Li4  1  0.55545006  0.44454994  0.83333300  1
  Li  Li5  1  0.88909989  0.44454994  0.50000000  1
  Li  Li6  1  0.22511680  0.45023361  0.16666700  1
  Li  Li7  1  0.22511680  0.77488320  0.83333300  1
  Li  Li8  1  0.54976639  0.77488320  0.50000000  1
  Li  Li9  1  0.55555533  0.11111066  0.66666700  1
  Li  Li10  1  0.55555533  0.44444467  0.33333300  1
  Li  Li11  1  0.88888934  0.44444467  -0.00000000  1
  Li  Li12  1  0.88615194  0.77230388  0.16666700  1
  Li  Li13  1  0.88615194  0.11384806  0.83333300  1
  Li  Li14  1  0.22769612  0.11384806  0.50000000  1
  I  I15  1  0.88907602  0.77815204  0.66666700  1
  I  I16  1  0.88907602  0.11092398  0.33333300  1
  I  I17  1  0.22184796  0.11092398  -0.00000000  1
  O  O18  1  0.58811287  0.77658767  0.74398097  1
  O  O19  1  0.18847480  0.41188713  0.41064797  1
  O  O20  1  0.18847480  0.77658767  0.58935203  1
  O  O21  1  0.22341233  0.81152520  0.07731397  1
  O  O22  1  0.22341233  0.41188713  0.92268603  1
  O  O23  1  0.58811287  0.81152520  0.25601903  1
  O  O24  1  0.88755151  0.07764337  0.59167913  1
  O  O25  1  0.19009186  0.11244849  0.25834613  1
  O  O26  1  0.19009186  0.07764337  0.74165387  1
  O  O27  1  0.92235663  0.80990814  0.92501213  1
  O  O28  1  0.92235663  0.11244849  0.07498787  1
  O  O29  1  0.88755151  0.80990814  0.40832087  1
  O  O30  1  0.88880077  0.47805931  0.74348949  1
  O  O31  1  0.58925854  0.11119923  0.41015649  1
  O  O32  1  0.58925854  0.47805931  0.58984351  1
  O  O33  1  0.52194069  0.41074146  0.07682249  1
  O  O34  1  0.52194069  0.11119923  0.92317751  1
  O  O35  1  0.88880077  0.41074146  0.25651051  1
