# generated using pymatgen
data_LiEuP
_symmetry_space_group_name_H-M   'P 1'
_cell_length_a   4.28538830
_cell_length_b   7.27762235
_cell_length_c   8.12447693
_cell_angle_alpha   90.00000000
_cell_angle_beta   90.00000000
_cell_angle_gamma   90.00000000
_symmetry_Int_Tables_number   1
_chemical_formula_structural   LiEuP
_chemical_formula_sum   'Li4 Eu4 P4'
_cell_volume   253.38161786
_cell_formula_units_Z   4
loop_
 _symmetry_equiv_pos_site_id
 _symmetry_equiv_pos_as_xyz
  1  'x, y, z'
loop_
 _atom_site_type_symbol
 _atom_site_label
 _atom_site_symmetry_multiplicity
 _atom_site_fract_x
 _atom_site_fract_y
 _atom_site_fract_z
 _atom_site_occupancy
  Li  Li0  1  0.75000000  0.86051168  0.94067912  1
  Li  Li1  1  0.25000000  0.13948832  0.05932088  1
  Li  Li2  1  0.25000000  0.63948832  0.44067912  1
  Li  Li3  1  0.75000000  0.36051168  0.55932088  1
  Eu  Eu4  1  0.75000000  0.97599139  0.31013883  1
  Eu  Eu5  1  0.25000000  0.02400861  0.68986117  1
  Eu  Eu6  1  0.25000000  0.52400861  0.81013883  1
  Eu  Eu7  1  0.75000000  0.47599139  0.18986117  1
  P  P8  1  0.75000000  0.72817029  0.60813277  1
  P  P9  1  0.25000000  0.27182971  0.39186723  1
  P  P10  1  0.25000000  0.77182971  0.10813277  1
  P  P11  1  0.75000000  0.22817029  0.89186723  1
