# generated using pymatgen
data_V2Bi8O17
_symmetry_space_group_name_H-M   'P 1'
_cell_length_a   6.33931961
_cell_length_b   6.17639467
_cell_length_c   14.27849055
_cell_angle_alpha   106.10413000
_cell_angle_beta   95.07218840
_cell_angle_gamma   96.77445469
_symmetry_Int_Tables_number   1
_chemical_formula_structural   V2Bi8O17
_chemical_formula_sum   'V2 Bi8 O17'
_cell_volume   529.05735630
_cell_formula_units_Z   1
loop_
 _symmetry_equiv_pos_site_id
 _symmetry_equiv_pos_as_xyz
  1  'x, y, z'
loop_
 _atom_site_type_symbol
 _atom_site_label
 _atom_site_symmetry_multiplicity
 _atom_site_fract_x
 _atom_site_fract_y
 _atom_site_fract_z
 _atom_site_occupancy
  V  V0  1  0.69327959  0.34856032  0.50269927  1
  V  V1  1  0.67708622  0.31117505  0.01103750  1
  Bi  Bi2  1  0.33458382  0.98400149  0.32814256  1
  Bi  Bi3  1  0.28592051  0.97168314  0.82286631  1
  Bi  Bi4  1  0.19487005  0.38150747  0.60536691  1
  Bi  Bi5  1  0.26026351  0.34607910  0.17281914  1
  Bi  Bi6  1  0.88934252  0.78912786  0.43580932  1
  Bi  Bi7  1  0.73028018  0.92703996  0.15875731  1
  Bi  Bi8  1  0.60642355  0.56060856  0.81547341  1
  Bi  Bi9  1  0.76195891  0.95630680  0.67376336  1
  O  O10  1  0.37994178  0.73166382  0.89680050  1
  O  O11  1  0.41074461  0.26503964  0.03806362  1
  O  O12  1  0.40019102  0.32073727  0.48404806  1
  O  O13  1  0.48952285  0.19362108  0.24680343  1
  O  O14  1  0.37586340  0.28463922  0.72281751  1
  O  O15  1  0.45004273  0.68720563  0.23038874  1
  O  O16  1  0.47733650  0.76314419  0.71547694  1
  O  O17  1  0.66884587  0.70022298  0.52987856  1
  O  O18  1  0.67489592  0.05415714  0.41975761  1
  O  O19  1  0.77324775  0.33740130  0.61704025  1
  O  O20  1  0.83627572  0.15888202  0.06837327  1
  O  O21  1  0.66258874  0.21990621  0.88447584  1
  O  O22  1  0.06380418  0.01284554  0.56546282  1
  O  O23  1  0.04694809  0.03044805  0.23194463  1
  O  O24  1  0.97454030  0.78595557  0.74327560  1
  O  O25  1  0.93945398  0.44461183  0.46114704  1
  O  O26  1  0.78174769  0.59742877  0.04951049  1
