# generated using pymatgen
data_Li2Lu5B3O13
_symmetry_space_group_name_H-M   'P 1'
_cell_length_a   3.49826012
_cell_length_b   10.07261186
_cell_length_c   15.66553647
_cell_angle_alpha   105.51209232
_cell_angle_beta   90.00000000
_cell_angle_gamma   90.00000000
_symmetry_Int_Tables_number   1
_chemical_formula_structural   Li2Lu5B3O13
_chemical_formula_sum   'Li4 Lu10 B6 O26'
_cell_volume   531.89334589
_cell_formula_units_Z   2
loop_
 _symmetry_equiv_pos_site_id
 _symmetry_equiv_pos_as_xyz
  1  'x, y, z'
loop_
 _atom_site_type_symbol
 _atom_site_label
 _atom_site_symmetry_multiplicity
 _atom_site_fract_x
 _atom_site_fract_y
 _atom_site_fract_z
 _atom_site_occupancy
  Li  Li0  1  0.75000000  0.38651435  0.94683405  1
  Li  Li1  1  0.25000000  0.61348565  0.05316595  1
  Li  Li2  1  0.75000000  0.75348182  0.24791709  1
  Li  Li3  1  0.25000000  0.24651818  0.75208291  1
  Lu  Lu4  1  0.75000000  0.85588010  0.99927286  1
  Lu  Lu5  1  0.25000000  0.14411990  0.00072714  1
  Lu  Lu6  1  0.75000000  0.36142798  0.43672323  1
  Lu  Lu7  1  0.25000000  0.63857202  0.56327677  1
  Lu  Lu8  1  0.75000000  0.48152124  0.69757905  1
  Lu  Lu9  1  0.25000000  0.51847876  0.30242095  1
  Lu  Lu10  1  0.75000000  0.18643360  0.20573978  1
  Lu  Lu11  1  0.25000000  0.81356640  0.79426022  1
  Lu  Lu12  1  0.75000000  0.96324012  0.62751464  1
  Lu  Lu13  1  0.25000000  0.03675988  0.37248536  1
  B  B14  1  0.75000000  0.78635910  0.42380339  1
  B  B15  1  0.25000000  0.21364090  0.57619661  1
  B  B16  1  0.75000000  0.09303664  0.81726503  1
  B  B17  1  0.25000000  0.90696336  0.18273497  1
  B  B18  1  0.75000000  0.59003232  0.88873949  1
  B  B19  1  0.25000000  0.40996768  0.11126051  1
  O  O20  1  0.75000000  0.45828433  0.83575030  1
  O  O21  1  0.25000000  0.54171567  0.16424970  1
  O  O22  1  0.75000000  0.15171618  0.74747838  1
  O  O23  1  0.25000000  0.84828382  0.25252162  1
  O  O24  1  0.75000000  0.51373861  0.56787068  1
  O  O25  1  0.25000000  0.48626139  0.43212932  1
  O  O26  1  0.75000000  0.70517309  0.85188296  1
  O  O27  1  0.25000000  0.29482691  0.14811704  1
  O  O28  1  0.75000000  0.76370725  0.50764335  1
  O  O29  1  0.25000000  0.23629275  0.49235665  1
  O  O30  1  0.75000000  0.62207726  0.98035419  1
  O  O31  1  0.25000000  0.37792274  0.01964581  1
  O  O32  1  0.75000000  0.14848784  0.34563510  1
  O  O33  1  0.25000000  0.85151216  0.65436490  1
  O  O34  1  0.75000000  0.08130137  0.06196662  1
  O  O35  1  0.25000000  0.91869863  0.93803338  1
  O  O36  1  0.75000000  0.16915709  0.90447045  1
  O  O37  1  0.25000000  0.83084291  0.09552955  1
  O  O38  1  0.75000000  0.94872363  0.79326148  1
  O  O39  1  0.25000000  0.05127637  0.20673852  1
  O  O40  1  0.75000000  0.38898496  0.29572887  1
  O  O41  1  0.25000000  0.61101504  0.70427113  1
  O  O42  1  0.75000000  0.92009024  0.41589659  1
  O  O43  1  0.25000000  0.07990976  0.58410341  1
  O  O44  1  0.75000000  0.67572286  0.34755649  1
  O  O45  1  0.25000000  0.32427714  0.65244351  1
