# generated using pymatgen
data_LiH2CN5
_symmetry_space_group_name_H-M   'P 1'
_cell_length_a   4.96638390
_cell_length_b   7.73637275
_cell_length_c   10.64850271
_cell_angle_alpha   90.00000000
_cell_angle_beta   90.00000000
_cell_angle_gamma   108.64465543
_symmetry_Int_Tables_number   1
_chemical_formula_structural   LiH2CN5
_chemical_formula_sum   'Li4 H8 C4 N20'
_cell_volume   387.66303342
_cell_formula_units_Z   4
loop_
 _symmetry_equiv_pos_site_id
 _symmetry_equiv_pos_as_xyz
  1  'x, y, z'
loop_
 _atom_site_type_symbol
 _atom_site_label
 _atom_site_symmetry_multiplicity
 _atom_site_fract_x
 _atom_site_fract_y
 _atom_site_fract_z
 _atom_site_occupancy
  Li  Li0  1  0.79440949  0.86830896  0.38326163  1
  Li  Li1  1  0.20559051  0.13169104  0.61673837  1
  Li  Li2  1  0.20559051  0.63169104  0.88326163  1
  Li  Li3  1  0.79440949  0.36830896  0.11673837  1
  H  H4  1  0.81714149  0.81979572  0.95112317  1
  H  H5  1  0.18285851  0.18020428  0.04887683  1
  H  H6  1  0.18285851  0.68020428  0.45112317  1
  H  H7  1  0.81714149  0.31979572  0.54887683  1
  H  H8  1  0.90079772  0.53436472  0.37619786  1
  H  H9  1  0.09920228  0.46563528  0.62380214  1
  H  H10  1  0.09920228  0.96563528  0.87619786  1
  H  H11  1  0.90079772  0.03436472  0.12380214  1
  C  C12  1  0.78296149  0.81975437  0.76132019  1
  C  C13  1  0.21703851  0.18024563  0.23867981  1
  C  C14  1  0.21703851  0.68024563  0.26132019  1
  C  C15  1  0.78296149  0.31975437  0.73867981  1
  N  N16  1  0.94008563  0.84280574  0.87146656  1
  N  N17  1  0.05991437  0.15719426  0.12853344  1
  N  N18  1  0.05991437  0.65719426  0.37146656  1
  N  N19  1  0.94008563  0.34280574  0.62853344  1
  N  N20  1  0.45472702  0.71641272  0.62450476  1
  N  N21  1  0.54527298  0.28358728  0.37549524  1
  N  N22  1  0.54527298  0.78358728  0.12450476  1
  N  N23  1  0.45472702  0.21641272  0.87549524  1
  N  N24  1  0.89064868  0.89484204  0.65091612  1
  N  N25  1  0.10935132  0.10515796  0.34908388  1
  N  N26  1  0.10935132  0.60515796  0.15091612  1
  N  N27  1  0.89064868  0.39484204  0.84908388  1
  N  N28  1  0.51245961  0.71018745  0.74838935  1
  N  N29  1  0.48754039  0.28981255  0.25161065  1
  N  N30  1  0.48754039  0.78981255  0.24838935  1
  N  N31  1  0.51245961  0.21018745  0.75161065  1
  N  N32  1  0.67807478  0.82558728  0.56724042  1
  N  N33  1  0.32192522  0.17441272  0.43275958  1
  N  N34  1  0.32192522  0.67441272  0.06724042  1
  N  N35  1  0.67807478  0.32558728  0.93275958  1
