# generated using pymatgen
data_KMg3V3CuO12
_symmetry_space_group_name_H-M   'P 1'
_cell_length_a   6.96251265
_cell_length_b   8.90868030
_cell_length_c   8.90868030
_cell_angle_alpha   92.54162832
_cell_angle_beta   104.77709617
_cell_angle_gamma   104.77709617
_symmetry_Int_Tables_number   1
_chemical_formula_structural   KMg3V3CuO12
_chemical_formula_sum   'K2 Mg6 V6 Cu2 O24'
_cell_volume   513.07988279
_cell_formula_units_Z   2
loop_
 _symmetry_equiv_pos_site_id
 _symmetry_equiv_pos_as_xyz
  1  'x, y, z'
loop_
 _atom_site_type_symbol
 _atom_site_label
 _atom_site_symmetry_multiplicity
 _atom_site_fract_x
 _atom_site_fract_y
 _atom_site_fract_z
 _atom_site_occupancy
  K  K0  1  0.75000000  0.51497864  0.48502136  1
  K  K1  1  0.25000000  0.48502136  0.51497864  1
  Mg  Mg2  1  0.62516980  0.55331704  0.87609889  1
  Mg  Mg3  1  0.37483020  0.44668296  0.12390111  1
  Mg  Mg4  1  0.87483020  0.12390111  0.44668296  1
  Mg  Mg5  1  0.12516980  0.87609889  0.55331704  1
  Mg  Mg6  1  0.75000000  0.24061138  0.75938862  1
  Mg  Mg7  1  0.25000000  0.75938862  0.24061138  1
  V  V8  1  0.87804147  0.38058183  0.14757750  1
  V  V9  1  0.12195853  0.61941817  0.85242250  1
  V  V10  1  0.62195853  0.85242250  0.61941817  1
  V  V11  1  0.37804147  0.14757750  0.38058183  1
  V  V12  1  0.75000000  0.78814626  0.21185374  1
  V  V13  1  0.25000000  0.21185374  0.78814626  1
  Cu  Cu14  1  0.75000000  0.99721469  0.00278531  1
  Cu  Cu15  1  0.25000000  0.00278531  0.99721469  1
  O  O16  1  0.61275923  0.67329258  0.68384098  1
  O  O17  1  0.38724077  0.32670742  0.31615902  1
  O  O18  1  0.88724077  0.31615902  0.32670742  1
  O  O19  1  0.11275923  0.68384098  0.67329258  1
  O  O20  1  0.73218939  0.77270499  0.01064866  1
  O  O21  1  0.26781061  0.22729501  0.98935134  1
  O  O22  1  0.76781061  0.98935134  0.22729501  1
  O  O23  1  0.23218939  0.01064866  0.77270499  1
  O  O24  1  0.52177119  0.67892026  0.24763362  1
  O  O25  1  0.47822881  0.32107974  0.75236638  1
  O  O26  1  0.97822881  0.75236638  0.32107974  1
  O  O27  1  0.02177119  0.24763362  0.67892026  1
  O  O28  1  0.82281884  0.22093258  0.00360643  1
  O  O29  1  0.17718116  0.77906742  0.99639357  1
  O  O30  1  0.67718116  0.99639357  0.77906742  1
  O  O31  1  0.32281884  0.00360643  0.22093258  1
  O  O32  1  0.67848964  0.47182158  0.09891680  1
  O  O33  1  0.32151036  0.52817842  0.90108320  1
  O  O34  1  0.82151036  0.90108320  0.52817842  1
  O  O35  1  0.17848964  0.09891680  0.47182158  1
  O  O36  1  0.87834081  0.48678971  0.83094646  1
  O  O37  1  0.12165919  0.51321029  0.16905354  1
  O  O38  1  0.62165919  0.16905354  0.51321029  1
  O  O39  1  0.37834081  0.83094646  0.48678971  1
