# generated using pymatgen
data_Li4Be3P3IO12
_symmetry_space_group_name_H-M   'P 1'
_cell_length_a   8.24692556
_cell_length_b   8.24692556
_cell_length_c   8.24692556
_cell_angle_alpha   90.00000000
_cell_angle_beta   90.00000000
_cell_angle_gamma   90.00000000
_symmetry_Int_Tables_number   1
_chemical_formula_structural   Li4Be3P3IO12
_chemical_formula_sum   'Li8 Be6 P6 I2 O24'
_cell_volume   560.88809669
_cell_formula_units_Z   2
loop_
 _symmetry_equiv_pos_site_id
 _symmetry_equiv_pos_as_xyz
  1  'x, y, z'
loop_
 _atom_site_type_symbol
 _atom_site_label
 _atom_site_symmetry_multiplicity
 _atom_site_fract_x
 _atom_site_fract_y
 _atom_site_fract_z
 _atom_site_occupancy
  Li  Li0  1  0.19450109  0.19450109  0.19450109  1
  Li  Li1  1  0.80549891  0.80549891  0.19450109  1
  Li  Li2  1  0.80549891  0.19450109  0.80549891  1
  Li  Li3  1  0.69450109  0.69450109  0.69450109  1
  Li  Li4  1  0.19450109  0.80549891  0.80549891  1
  Li  Li5  1  0.30549891  0.30549891  0.69450109  1
  Li  Li6  1  0.69450109  0.30549891  0.30549891  1
  Li  Li7  1  0.30549891  0.69450109  0.30549891  1
  Be  Be8  1  0.25000000  0.00000000  0.50000000  1
  Be  Be9  1  0.75000000  0.00000000  0.50000000  1
  Be  Be10  1  0.50000000  0.25000000  0.00000000  1
  Be  Be11  1  0.50000000  0.75000000  0.00000000  1
  Be  Be12  1  -0.00000000  0.50000000  0.25000000  1
  Be  Be13  1  -0.00000000  0.50000000  0.75000000  1
  P  P14  1  0.25000000  0.50000000  0.00000000  1
  P  P15  1  0.75000000  0.50000000  0.00000000  1
  P  P16  1  -0.00000000  0.25000000  0.50000000  1
  P  P17  1  -0.00000000  0.75000000  0.50000000  1
  P  P18  1  0.50000000  -0.00000000  0.25000000  1
  P  P19  1  0.50000000  -0.00000000  0.75000000  1
  I  I20  1  -0.00000000  0.00000000  0.00000000  1
  I  I21  1  0.50000000  0.50000000  0.50000000  1
  O  O22  1  0.13839836  0.14665990  0.42604658  1
  O  O23  1  0.86160164  0.85334010  0.42604658  1
  O  O24  1  0.86160164  0.14665990  0.57395342  1
  O  O25  1  0.42604658  0.13839836  0.14665990  1
  O  O26  1  0.64665990  0.63839836  0.92604658  1
  O  O27  1  0.13839836  0.85334010  0.57395342  1
  O  O28  1  0.42604658  0.86160164  0.85334010  1
  O  O29  1  0.35334010  0.36160164  0.92604658  1
  O  O30  1  0.57395342  0.86160164  0.14665990  1
  O  O31  1  0.64665990  0.36160164  0.07395342  1
  O  O32  1  0.57395342  0.13839836  0.85334010  1
  O  O33  1  0.35334010  0.63839836  0.07395342  1
  O  O34  1  0.14665990  0.42604658  0.13839836  1
  O  O35  1  0.63839836  0.92604658  0.64665990  1
  O  O36  1  0.14665990  0.57395342  0.86160164  1
  O  O37  1  0.36160164  0.07395342  0.64665990  1
  O  O38  1  0.85334010  0.57395342  0.13839836  1
  O  O39  1  0.63839836  0.07395342  0.35334010  1
  O  O40  1  0.85334010  0.42604658  0.86160164  1
  O  O41  1  0.36160164  0.92604658  0.35334010  1
  O  O42  1  0.92604658  0.64665990  0.63839836  1
  O  O43  1  0.92604658  0.35334010  0.36160164  1
  O  O44  1  0.07395342  0.35334010  0.63839836  1
  O  O45  1  0.07395342  0.64665990  0.36160164  1
