# generated using pymatgen
data_KSm2Cl7
_symmetry_space_group_name_H-M   'P 1'
_cell_length_a   7.10105568
_cell_length_b   12.94343057
_cell_length_c   13.59006575
_cell_angle_alpha   90.00000000
_cell_angle_beta   90.53056284
_cell_angle_gamma   90.00000000
_symmetry_Int_Tables_number   1
_chemical_formula_structural   KSm2Cl7
_chemical_formula_sum   'K4 Sm8 Cl28'
_cell_volume   1249.03685654
_cell_formula_units_Z   4
loop_
 _symmetry_equiv_pos_site_id
 _symmetry_equiv_pos_as_xyz
  1  'x, y, z'
loop_
 _atom_site_type_symbol
 _atom_site_label
 _atom_site_symmetry_multiplicity
 _atom_site_fract_x
 _atom_site_fract_y
 _atom_site_fract_z
 _atom_site_occupancy
  K  K0  1  0.26063652  0.79843276  0.03660701  1
  K  K1  1  0.73936348  0.20156724  0.96339299  1
  K  K2  1  0.73936348  0.29843276  0.46339299  1
  K  K3  1  0.26063652  0.70156724  0.53660701  1
  Sm  Sm4  1  0.22150001  0.46260316  0.23668895  1
  Sm  Sm5  1  0.77849999  0.53739684  0.76331105  1
  Sm  Sm6  1  0.77849999  0.96260316  0.26331105  1
  Sm  Sm7  1  0.22150001  0.03739684  0.73668895  1
  Sm  Sm8  1  0.27322288  0.15915584  0.24745372  1
  Sm  Sm9  1  0.72677712  0.84084416  0.75254628  1
  Sm  Sm10  1  0.72677712  0.65915584  0.25254628  1
  Sm  Sm11  1  0.27322288  0.34084416  0.74745372  1
  Cl  Cl12  1  0.05625888  0.02477061  0.13368908  1
  Cl  Cl13  1  0.94374112  0.97522939  0.86631092  1
  Cl  Cl14  1  0.94374112  0.52477061  0.36631092  1
  Cl  Cl15  1  0.05625888  0.47522939  0.63368908  1
  Cl  Cl16  1  0.25657397  0.31486240  0.38942185  1
  Cl  Cl17  1  0.74342603  0.68513760  0.61057815  1
  Cl  Cl18  1  0.74342603  0.81486240  0.11057815  1
  Cl  Cl19  1  0.25657397  0.18513760  0.88942185  1
  Cl  Cl20  1  0.48377856  0.32170908  0.17237042  1
  Cl  Cl21  1  0.51622144  0.67829092  0.82762958  1
  Cl  Cl22  1  0.51622144  0.82170908  0.32762958  1
  Cl  Cl23  1  0.48377856  0.17829092  0.67237042  1
  Cl  Cl24  1  0.02412311  0.07580709  0.37976839  1
  Cl  Cl25  1  0.97587689  0.92419291  0.62023161  1
  Cl  Cl26  1  0.97587689  0.57580709  0.12023161  1
  Cl  Cl27  1  0.02412311  0.42419291  0.87976839  1
  Cl  Cl28  1  0.53751563  0.05794997  0.12968178  1
  Cl  Cl29  1  0.46248437  0.94205003  0.87031822  1
  Cl  Cl30  1  0.46248437  0.55794997  0.37031822  1
  Cl  Cl31  1  0.53751563  0.44205003  0.62968178  1
  Cl  Cl32  1  0.00083490  0.29621611  0.17475808  1
  Cl  Cl33  1  0.99916510  0.70378389  0.82524192  1
  Cl  Cl34  1  0.99916510  0.79621611  0.32524192  1
  Cl  Cl35  1  0.00083490  0.20378389  0.67475808  1
  Cl  Cl36  1  0.54606340  0.08816549  0.37722082  1
  Cl  Cl37  1  0.45393660  0.91183451  0.62277918  1
  Cl  Cl38  1  0.45393660  0.58816549  0.12277918  1
  Cl  Cl39  1  0.54606340  0.41183451  0.87722082  1
