# generated using pymatgen
data_La3PtI3
_symmetry_space_group_name_H-M   'P 1'
_cell_length_a   11.04512259
_cell_length_b   11.04512259
_cell_length_c   11.04512259
_cell_angle_alpha   109.47122063
_cell_angle_beta   109.47122063
_cell_angle_gamma   109.47122063
_symmetry_Int_Tables_number   1
_chemical_formula_structural   La3PtI3
_chemical_formula_sum   'La12 Pt4 I12'
_cell_volume   1037.26501585
_cell_formula_units_Z   4
loop_
 _symmetry_equiv_pos_site_id
 _symmetry_equiv_pos_as_xyz
  1  'x, y, z'
loop_
 _atom_site_type_symbol
 _atom_site_label
 _atom_site_symmetry_multiplicity
 _atom_site_fract_x
 _atom_site_fract_y
 _atom_site_fract_z
 _atom_site_occupancy
  La  La0  1  0.76891831  0.51891831  0.53783661  1
  La  La1  1  0.73108169  0.76891831  0.25000000  1
  La  La2  1  0.51891831  0.98108169  0.25000000  1
  La  La3  1  0.51891831  0.53783661  0.76891831  1
  La  La4  1  0.76891831  0.25000000  0.73108169  1
  La  La5  1  0.98108169  0.73108169  0.96216339  1
  La  La6  1  0.73108169  0.96216339  0.98108169  1
  La  La7  1  0.98108169  0.25000000  0.51891831  1
  La  La8  1  0.53783661  0.76891831  0.51891831  1
  La  La9  1  0.25000000  0.51891831  0.98108169  1
  La  La10  1  0.96216339  0.98108169  0.73108169  1
  La  La11  1  0.25000000  0.73108169  0.76891831  1
  Pt  Pt12  1  0.75000000  0.75000000  0.75000000  1
  Pt  Pt13  1  0.75000000  0.00000000  0.50000000  1
  Pt  Pt14  1  0.50000000  0.75000000  0.00000000  1
  Pt  Pt15  1  0.00000000  0.50000000  0.75000000  1
  I  I16  1  0.25870807  0.24129193  0.75000000  1
  I  I17  1  0.24129193  0.49129193  0.48258386  1
  I  I18  1  0.00870807  0.25870807  0.01741614  1
  I  I19  1  0.24129193  0.75000000  0.25870807  1
  I  I20  1  0.25870807  0.01741614  0.00870807  1
  I  I21  1  0.49129193  0.00870807  0.75000000  1
  I  I22  1  0.49129193  0.48258386  0.24129193  1
  I  I23  1  0.00870807  0.75000000  0.49129193  1
  I  I24  1  0.75000000  0.25870807  0.24129193  1
  I  I25  1  0.01741614  0.00870807  0.25870807  1
  I  I26  1  0.75000000  0.49129193  0.00870807  1
  I  I27  1  0.48258386  0.24129193  0.49129193  1
