# generated using pymatgen
data_KTaCl6
_symmetry_space_group_name_H-M   'P 1'
_cell_length_a   6.51422859
_cell_length_b   6.95662513
_cell_length_c   12.54217961
_cell_angle_alpha   100.60143553
_cell_angle_beta   90.00000000
_cell_angle_gamma   117.91772238
_symmetry_Int_Tables_number   1
_chemical_formula_structural   KTaCl6
_chemical_formula_sum   'K2 Ta2 Cl12'
_cell_volume   491.22117157
_cell_formula_units_Z   2
loop_
 _symmetry_equiv_pos_site_id
 _symmetry_equiv_pos_as_xyz
  1  'x, y, z'
loop_
 _atom_site_type_symbol
 _atom_site_label
 _atom_site_symmetry_multiplicity
 _atom_site_fract_x
 _atom_site_fract_y
 _atom_site_fract_z
 _atom_site_occupancy
  K  K0  1  0.88235309  0.00000000  0.75000000  1
  K  K1  1  0.11764691  -0.00000000  0.25000000  1
  Ta  Ta2  1  0.50000000  0.50000000  0.00000000  1
  Ta  Ta3  1  0.00000000  0.50000000  0.50000000  1
  Cl  Cl4  1  0.46206189  0.16310497  0.89543539  1
  Cl  Cl5  1  0.53793811  0.83689503  0.10456461  1
  Cl  Cl6  1  0.29895693  0.83689503  0.60456461  1
  Cl  Cl7  1  0.70104307  0.16310497  0.39543539  1
  Cl  Cl8  1  0.37204767  0.56994081  0.84101021  1
  Cl  Cl9  1  0.62795233  0.43005919  0.15898979  1
  Cl  Cl10  1  0.80210686  0.43005919  0.65898979  1
  Cl  Cl11  1  0.19789314  0.56994081  0.34101021  1
  Cl  Cl12  1  0.79871327  0.69206435  0.46046548  1
  Cl  Cl13  1  0.20128673  0.30793565  0.53953452  1
  Cl  Cl14  1  0.10664892  0.30793565  0.03953452  1
  Cl  Cl15  1  0.89335108  0.69206435  0.96046548  1
