# generated using pymatgen
data_SnGeO3
_symmetry_space_group_name_H-M   'P 1'
_cell_length_a   7.07687444
_cell_length_b   7.07687361
_cell_length_c   7.07687376
_cell_angle_alpha   44.31413952
_cell_angle_beta   44.31414156
_cell_angle_gamma   44.31414058
_symmetry_Int_Tables_number   1
_chemical_formula_structural   SnGeO3
_chemical_formula_sum   'Sn2 Ge2 O6'
_cell_volume   157.20693724
_cell_formula_units_Z   2
loop_
 _symmetry_equiv_pos_site_id
 _symmetry_equiv_pos_as_xyz
  1  'x, y, z'
loop_
 _atom_site_type_symbol
 _atom_site_label
 _atom_site_symmetry_multiplicity
 _atom_site_fract_x
 _atom_site_fract_y
 _atom_site_fract_z
 _atom_site_occupancy
  Sn  Sn0  1  0.16672019  0.16672019  0.16672019  1
  Sn  Sn1  1  0.83327981  0.83327981  0.83327981  1
  Ge  Ge2  1  0.39192173  0.39192173  0.39192173  1
  Ge  Ge3  1  0.60807827  0.60807827  0.60807827  1
  O  O4  1  0.10480597  0.77669827  0.44002753  1
  O  O5  1  0.44002753  0.10480597  0.77669827  1
  O  O6  1  0.22330173  0.55997247  0.89519403  1
  O  O7  1  0.77669827  0.44002753  0.10480597  1
  O  O8  1  0.55997247  0.89519403  0.22330173  1
  O  O9  1  0.89519403  0.22330173  0.55997247  1
