# generated using pymatgen
data_KLaCuTe4
_symmetry_space_group_name_H-M   'P 1'
_cell_length_a   4.49010009
_cell_length_b   4.49432632
_cell_length_c   21.26251102
_cell_angle_alpha   90.00000000
_cell_angle_beta   90.00000000
_cell_angle_gamma   90.00000000
_symmetry_Int_Tables_number   1
_chemical_formula_structural   KLaCuTe4
_chemical_formula_sum   'K2 La2 Cu2 Te8'
_cell_volume   429.07694112
_cell_formula_units_Z   2
loop_
 _symmetry_equiv_pos_site_id
 _symmetry_equiv_pos_as_xyz
  1  'x, y, z'
loop_
 _atom_site_type_symbol
 _atom_site_label
 _atom_site_symmetry_multiplicity
 _atom_site_fract_x
 _atom_site_fract_y
 _atom_site_fract_z
 _atom_site_occupancy
  K  K0  1  0.50000000  -0.00000000  0.86201739  1
  K  K1  1  -0.00000000  0.50000000  0.13798261  1
  La  La2  1  0.50000000  -0.00000000  0.39769136  1
  La  La3  1  0.00000000  0.50000000  0.60230864  1
  Cu  Cu4  1  -0.00000000  -0.00000000  0.00039257  1
  Cu  Cu5  1  0.50000000  0.50000000  0.99960743  1
  Te  Te6  1  -0.00000000  -0.00000000  0.27790666  1
  Te  Te7  1  0.50000000  0.50000000  0.72209334  1
  Te  Te8  1  0.50000000  -0.00000000  0.55818127  1
  Te  Te9  1  0.00000000  0.50000000  0.44181873  1
  Te  Te10  1  0.50000000  -0.00000000  0.06998843  1
  Te  Te11  1  -0.00000000  0.50000000  0.93001157  1
  Te  Te12  1  0.00000000  -0.00000000  0.72197092  1
  Te  Te13  1  0.50000000  0.50000000  0.27802908  1
