# generated using pymatgen
data_Li(BH)6
_symmetry_space_group_name_H-M   'P 1'
_cell_length_a   6.80257371
_cell_length_b   7.41249000
_cell_length_c   9.62346393
_cell_angle_alpha   90.00000000
_cell_angle_beta   90.00000000
_cell_angle_gamma   92.21551298
_symmetry_Int_Tables_number   1
_chemical_formula_structural   Li(BH)6
_chemical_formula_sum   'Li4 B24 H24'
_cell_volume   484.89090418
_cell_formula_units_Z   4
loop_
 _symmetry_equiv_pos_site_id
 _symmetry_equiv_pos_as_xyz
  1  'x, y, z'
loop_
 _atom_site_type_symbol
 _atom_site_label
 _atom_site_symmetry_multiplicity
 _atom_site_fract_x
 _atom_site_fract_y
 _atom_site_fract_z
 _atom_site_occupancy
  Li  Li0  1  0.03249733  0.67419971  0.12517265  1
  Li  Li1  1  0.96750267  0.32580029  0.87482735  1
  Li  Li2  1  0.46750267  0.82580029  0.62517265  1
  Li  Li3  1  0.53249733  0.17419971  0.37482735  1
  B  B4  1  0.00409152  0.81744890  0.39423667  1
  B  B5  1  0.99590848  0.18255110  0.60576333  1
  B  B6  1  0.49590848  0.68255110  0.89423667  1
  B  B7  1  0.50409152  0.31744890  0.10576333  1
  B  B8  1  0.54356169  0.54133105  0.17237214  1
  B  B9  1  0.45643831  0.45866895  0.82762786  1
  B  B10  1  0.95643831  0.95866895  0.67237214  1
  B  B11  1  0.04356169  0.04133105  0.32762786  1
  B  B12  1  0.09620241  0.81217128  0.56782675  1
  B  B13  1  0.90379759  0.18782872  0.43217325  1
  B  B14  1  0.40379759  0.68782872  0.06782675  1
  B  B15  1  0.59620241  0.31217128  0.93217325  1
  B  B16  1  0.80976884  0.96787323  0.39073250  1
  B  B17  1  0.19023116  0.03212677  0.60926750  1
  B  B18  1  0.69023116  0.53212677  0.89073250  1
  B  B19  1  0.30976884  0.46787323  0.10926750  1
  B  B20  1  0.22013807  0.94538473  0.43852350  1
  B  B21  1  0.77986193  0.05461527  0.56147650  1
  B  B22  1  0.27986193  0.55461527  0.93852350  1
  B  B23  1  0.72013807  0.44538473  0.06147650  1
  B  B24  1  0.83946720  0.82627076  0.53835498  1
  B  B25  1  0.16053280  0.17372924  0.46164502  1
  B  B26  1  0.66053280  0.67372924  0.03835498  1
  B  B27  1  0.33946720  0.32627076  0.96164502  1
  H  H28  1  0.72544884  0.70153123  0.56332224  1
  H  H29  1  0.27455116  0.29846877  0.43667776  1
  H  H30  1  0.77455116  0.79846877  0.06332224  1
  H  H31  1  0.22544884  0.20153123  0.93667776  1
  H  H32  1  0.37860358  0.90241902  0.39651136  1
  H  H33  1  0.62139642  0.09758098  0.60348864  1
  H  H34  1  0.12139642  0.59758098  0.89651136  1
  H  H35  1  0.87860358  0.40241902  0.10348864  1
  H  H36  1  0.57319104  0.56957030  0.29351893  1
  H  H37  1  0.42680896  0.43042970  0.70648107  1
  H  H38  1  0.92680896  0.93042970  0.79351893  1
  H  H39  1  0.07319104  0.06957030  0.20648107  1
  H  H40  1  0.00589263  0.68218661  0.32561903  1
  H  H41  1  0.99410737  0.31781339  0.67438097  1
  H  H42  1  0.49410737  0.81781339  0.82561903  1
  H  H43  1  0.50589263  0.18218661  0.17438097  1
  H  H44  1  0.32985326  0.82042163  0.11355748  1
  H  H45  1  0.67014674  0.17957837  0.88644252  1
  H  H46  1  0.17014674  0.67957837  0.61355748  1
  H  H47  1  0.82985326  0.32042163  0.38644252  1
  H  H48  1  0.67366892  0.94503772  0.31245410  1
  H  H49  1  0.32633108  0.05496228  0.68754590  1
  H  H50  1  0.82633108  0.55496228  0.81245410  1
  H  H51  1  0.17366892  0.44503772  0.18754590  1
