# generated using pymatgen
data_KSm(MoO4)2
_symmetry_space_group_name_H-M   'P 1'
_cell_length_a   5.21420841
_cell_length_b   8.27916808
_cell_length_c   18.58038083
_cell_angle_alpha   90.00000000
_cell_angle_beta   90.00000000
_cell_angle_gamma   90.00000000
_symmetry_Int_Tables_number   1
_chemical_formula_structural   KSm(MoO4)2
_chemical_formula_sum   'K4 Sm4 Mo8 O32'
_cell_volume   802.10217966
_cell_formula_units_Z   4
loop_
 _symmetry_equiv_pos_site_id
 _symmetry_equiv_pos_as_xyz
  1  'x, y, z'
loop_
 _atom_site_type_symbol
 _atom_site_label
 _atom_site_symmetry_multiplicity
 _atom_site_fract_x
 _atom_site_fract_y
 _atom_site_fract_z
 _atom_site_occupancy
  K  K0  1  0.00000000  0.75000000  0.23006772  1
  K  K1  1  0.00000000  0.25000000  0.76993228  1
  K  K2  1  0.50000000  0.25000000  0.26993228  1
  K  K3  1  0.50000000  0.75000000  0.73006772  1
  Sm  Sm4  1  0.00000000  0.75000000  0.99350308  1
  Sm  Sm5  1  0.00000000  0.25000000  0.00649692  1
  Sm  Sm6  1  0.50000000  0.25000000  0.50649692  1
  Sm  Sm7  1  0.50000000  0.75000000  0.49350308  1
  Mo  Mo8  1  0.97684695  0.98379171  0.60144401  1
  Mo  Mo9  1  0.02315305  0.01620829  0.39855599  1
  Mo  Mo10  1  0.52315305  0.48379171  0.89855599  1
  Mo  Mo11  1  0.02315305  0.51620829  0.60144401  1
  Mo  Mo12  1  0.47684695  0.51620829  0.10144401  1
  Mo  Mo13  1  0.97684695  0.48379171  0.39855599  1
  Mo  Mo14  1  0.47684695  0.01620829  0.89855599  1
  Mo  Mo15  1  0.52315305  0.98379171  0.10144401  1
  O  O16  1  0.89769916  0.52461983  0.68905561  1
  O  O17  1  0.10230084  0.47538017  0.31094439  1
  O  O18  1  0.60230084  0.02461983  0.81094439  1
  O  O19  1  0.10230084  0.97538017  0.68905561  1
  O  O20  1  0.39769916  0.97538017  0.18905561  1
  O  O21  1  0.89769916  0.02461983  0.31094439  1
  O  O22  1  0.39769916  0.47538017  0.81094439  1
  O  O23  1  0.60230084  0.52461983  0.18905561  1
  O  O24  1  0.72633525  0.65906084  0.90004119  1
  O  O25  1  0.27366475  0.34093916  0.09995881  1
  O  O26  1  0.77366475  0.15906084  0.59995881  1
  O  O27  1  0.27366475  0.84093916  0.90004119  1
  O  O28  1  0.22633525  0.84093916  0.40004119  1
  O  O29  1  0.72633525  0.15906084  0.09995881  1
  O  O30  1  0.22633525  0.34093916  0.59995881  1
  O  O31  1  0.77366475  0.65906084  0.40004119  1
  O  O32  1  0.74654954  0.99702299  0.96428298  1
  O  O33  1  0.25345046  0.00297701  0.03571702  1
  O  O34  1  0.75345046  0.49702299  0.53571702  1
  O  O35  1  0.25345046  0.50297701  0.96428298  1
  O  O36  1  0.24654954  0.50297701  0.46428298  1
  O  O37  1  0.74654954  0.49702299  0.03571702  1
  O  O38  1  0.24654954  0.00297701  0.53571702  1
  O  O39  1  0.75345046  0.99702299  0.46428298  1
  O  O40  1  0.75853473  0.81320323  0.59318284  1
  O  O41  1  0.24146527  0.18679677  0.40681716  1
  O  O42  1  0.74146527  0.31320323  0.90681716  1
  O  O43  1  0.24146527  0.68679677  0.59318284  1
  O  O44  1  0.25853473  0.68679677  0.09318284  1
  O  O45  1  0.75853473  0.31320323  0.40681716  1
  O  O46  1  0.25853473  0.18679677  0.90681716  1
  O  O47  1  0.74146527  0.81320323  0.09318284  1
