# generated using pymatgen
data_La(Cu2P)2
_symmetry_space_group_name_H-M   'P 1'
_cell_length_a   3.90380606
_cell_length_b   11.02134257
_cell_length_c   14.66882127
_cell_angle_alpha   90.00000000
_cell_angle_beta   90.00000000
_cell_angle_gamma   90.00000000
_symmetry_Int_Tables_number   1
_chemical_formula_structural   La(Cu2P)2
_chemical_formula_sum   'La6 Cu24 P12'
_cell_volume   631.12873294
_cell_formula_units_Z   6
loop_
 _symmetry_equiv_pos_site_id
 _symmetry_equiv_pos_as_xyz
  1  'x, y, z'
loop_
 _atom_site_type_symbol
 _atom_site_label
 _atom_site_symmetry_multiplicity
 _atom_site_fract_x
 _atom_site_fract_y
 _atom_site_fract_z
 _atom_site_occupancy
  La  La0  1  -0.00000000  -0.00000000  0.00000000  1
  La  La1  1  0.50000000  0.50000000  0.50000000  1
  La  La2  1  -0.00000000  0.12197308  0.72708237  1
  La  La3  1  -0.00000000  0.87802692  0.27291763  1
  La  La4  1  0.50000000  0.37802692  0.22708237  1
  La  La5  1  0.50000000  0.62197308  0.77291763  1
  Cu  Cu6  1  -0.00000000  0.40191388  0.05261592  1
  Cu  Cu7  1  -0.00000000  0.59808612  0.94738408  1
  Cu  Cu8  1  0.50000000  0.09808612  0.55261592  1
  Cu  Cu9  1  0.50000000  0.90191388  0.44738408  1
  Cu  Cu10  1  0.00000000  0.26395014  0.53602208  1
  Cu  Cu11  1  0.00000000  0.73604986  0.46397792  1
  Cu  Cu12  1  0.50000000  0.23604986  0.03602208  1
  Cu  Cu13  1  0.50000000  0.76395014  0.96397792  1
  Cu  Cu14  1  0.00000000  0.07017545  0.43728131  1
  Cu  Cu15  1  -0.00000000  0.92982455  0.56271869  1
  Cu  Cu16  1  0.50000000  0.42982455  0.93728131  1
  Cu  Cu17  1  0.50000000  0.57017545  0.06271869  1
  Cu  Cu18  1  0.00000000  0.57658948  0.33152026  1
  Cu  Cu19  1  0.00000000  0.42341052  0.66847974  1
  Cu  Cu20  1  0.50000000  0.92341052  0.83152026  1
  Cu  Cu21  1  0.50000000  0.07658948  0.16847974  1
  Cu  Cu22  1  -0.00000000  0.16961780  0.28473644  1
  Cu  Cu23  1  0.00000000  0.83038220  0.71526356  1
  Cu  Cu24  1  0.50000000  0.33038220  0.78473644  1
  Cu  Cu25  1  0.50000000  0.66961780  0.21526356  1
  Cu  Cu26  1  -0.00000000  0.74234057  0.08719631  1
  Cu  Cu27  1  0.00000000  0.25765943  0.91280369  1
  Cu  Cu28  1  0.50000000  0.75765943  0.58719631  1
  Cu  Cu29  1  0.50000000  0.24234057  0.41280369  1
  P  P30  1  -0.00000000  0.36425484  0.38572237  1
  P  P31  1  0.00000000  0.63574516  0.61427763  1
  P  P32  1  0.50000000  0.13574516  0.88572237  1
  P  P33  1  0.50000000  0.86425484  0.11427763  1
  P  P34  1  -0.00000000  0.20827733  0.12858343  1
  P  P35  1  -0.00000000  0.79172267  0.87141657  1
  P  P36  1  0.50000000  0.29172267  0.62858343  1
  P  P37  1  0.50000000  0.70827733  0.37141657  1
  P  P38  1  -0.00000000  0.56132153  0.16540075  1
  P  P39  1  0.00000000  0.43867847  0.83459925  1
  P  P40  1  0.50000000  0.93867847  0.66540075  1
  P  P41  1  0.50000000  0.06132153  0.33459925  1
