# generated using pymatgen
data_K3Lu(BO3)2
_symmetry_space_group_name_H-M   'P 1'
_cell_length_a   5.51416353
_cell_length_b   6.78379245
_cell_length_c   9.33034400
_cell_angle_alpha   90.00000000
_cell_angle_beta   90.00000000
_cell_angle_gamma   90.00000000
_symmetry_Int_Tables_number   1
_chemical_formula_structural   K3Lu(BO3)2
_chemical_formula_sum   'K6 Lu2 B4 O12'
_cell_volume   349.01962680
_cell_formula_units_Z   2
loop_
 _symmetry_equiv_pos_site_id
 _symmetry_equiv_pos_as_xyz
  1  'x, y, z'
loop_
 _atom_site_type_symbol
 _atom_site_label
 _atom_site_symmetry_multiplicity
 _atom_site_fract_x
 _atom_site_fract_y
 _atom_site_fract_z
 _atom_site_occupancy
  K  K0  1  0.00000000  0.26736422  0.66769924  1
  K  K1  1  0.00000000  0.73263578  0.33230076  1
  K  K2  1  0.50000000  0.23263578  0.16769924  1
  K  K3  1  0.50000000  0.76736422  0.83230076  1
  K  K4  1  0.50000000  -0.00000000  0.50000000  1
  K  K5  1  0.00000000  0.50000000  -0.00000000  1
  Lu  Lu6  1  0.00000000  -0.00000000  -0.00000000  1
  Lu  Lu7  1  0.50000000  0.50000000  0.50000000  1
  B  B8  1  0.00000000  0.26397998  0.33402134  1
  B  B9  1  0.00000000  0.73602002  0.66597866  1
  B  B10  1  0.50000000  0.23602002  0.83402134  1
  B  B11  1  0.50000000  0.76397998  0.16597866  1
  O  O12  1  0.21880307  0.30253401  0.40399602  1
  O  O13  1  0.78119693  0.69746599  0.59600398  1
  O  O14  1  0.21880307  0.69746599  0.59600398  1
  O  O15  1  0.28119693  0.19746599  0.90399602  1
  O  O16  1  0.78119693  0.30253401  0.40399602  1
  O  O17  1  0.71880307  0.80253401  0.09600398  1
  O  O18  1  0.28119693  0.80253401  0.09600398  1
  O  O19  1  0.71880307  0.19746599  0.90399602  1
  O  O20  1  0.00000000  0.18952649  0.19440670  1
  O  O21  1  0.00000000  0.81047351  0.80559330  1
  O  O22  1  0.50000000  0.31047351  0.69440670  1
  O  O23  1  0.50000000  0.68952649  0.30559330  1
