# generated using pymatgen
data_K2RbLaV2O8
_symmetry_space_group_name_H-M   'P 1'
_cell_length_a   6.19075480
_cell_length_b   6.19075480
_cell_length_c   7.97053256
_cell_angle_alpha   90.00000000
_cell_angle_beta   90.00000000
_cell_angle_gamma   119.99999547
_symmetry_Int_Tables_number   1
_chemical_formula_structural   K2RbLaV2O8
_chemical_formula_sum   'K2 Rb1 La1 V2 O8'
_cell_volume   264.54843540
_cell_formula_units_Z   1
loop_
 _symmetry_equiv_pos_site_id
 _symmetry_equiv_pos_as_xyz
  1  'x, y, z'
loop_
 _atom_site_type_symbol
 _atom_site_label
 _atom_site_symmetry_multiplicity
 _atom_site_fract_x
 _atom_site_fract_y
 _atom_site_fract_z
 _atom_site_occupancy
  K  K0  1  0.66666700  0.33333300  0.29221094  1
  K  K1  1  0.33333300  0.66666700  0.70778906  1
  Rb  Rb2  1  0.00000000  0.00000000  -0.00000000  1
  La  La3  1  0.00000000  0.00000000  0.50000000  1
  V  V4  1  0.66666700  0.33333300  0.75628139  1
  V  V5  1  0.33333300  0.66666700  0.24371861  1
  O  O6  1  0.66666700  0.33333300  0.96845906  1
  O  O7  1  0.33333300  0.66666700  0.03154094  1
  O  O8  1  0.82118211  0.64236422  0.67933861  1
  O  O9  1  0.17881789  0.35763578  0.32066139  1
  O  O10  1  0.82118211  0.17881789  0.67933861  1
  O  O11  1  0.17881789  0.82118211  0.32066139  1
  O  O12  1  0.35763578  0.17881789  0.67933861  1
  O  O13  1  0.64236422  0.82118211  0.32066139  1
