# generated using pymatgen
data_KSm(SeO4)2
_symmetry_space_group_name_H-M   'P 1'
_cell_length_a   7.43718466
_cell_length_b   8.92670674
_cell_length_c   11.08882097
_cell_angle_alpha   91.51227611
_cell_angle_beta   90.00000000
_cell_angle_gamma   90.00000000
_symmetry_Int_Tables_number   1
_chemical_formula_structural   KSm(SeO4)2
_chemical_formula_sum   'K4 Sm4 Se8 O32'
_cell_volume   735.92559883
_cell_formula_units_Z   4
loop_
 _symmetry_equiv_pos_site_id
 _symmetry_equiv_pos_as_xyz
  1  'x, y, z'
loop_
 _atom_site_type_symbol
 _atom_site_label
 _atom_site_symmetry_multiplicity
 _atom_site_fract_x
 _atom_site_fract_y
 _atom_site_fract_z
 _atom_site_occupancy
  K  K0  1  0.85227415  0.43582308  0.65999963  1
  K  K1  1  0.14772585  0.56417692  0.34000037  1
  K  K2  1  0.35227415  0.56417692  0.84000037  1
  K  K3  1  0.64772585  0.43582308  0.15999963  1
  Sm  Sm4  1  0.66650492  0.94571433  0.65182671  1
  Sm  Sm5  1  0.33349508  0.05428567  0.34817329  1
  Sm  Sm6  1  0.16650492  0.05428567  0.84817329  1
  Sm  Sm7  1  0.83349508  0.94571433  0.15182671  1
  Se  Se8  1  0.66550292  0.18789202  0.89266341  1
  Se  Se9  1  0.33449708  0.81210798  0.10733659  1
  Se  Se10  1  0.16550292  0.81210798  0.60733659  1
  Se  Se11  1  0.83449708  0.18789202  0.39266341  1
  Se  Se12  1  0.84115442  0.72514833  0.91077073  1
  Se  Se13  1  0.15884558  0.27485167  0.08922927  1
  Se  Se14  1  0.34115442  0.27485167  0.58922927  1
  Se  Se15  1  0.65884558  0.72514833  0.41077073  1
  O  O16  1  0.32676611  0.87458727  0.96708509  1
  O  O17  1  0.67323389  0.12541273  0.03291491  1
  O  O18  1  0.82676611  0.12541273  0.53291491  1
  O  O19  1  0.17323389  0.87458727  0.46708509  1
  O  O20  1  0.00178048  0.90747339  0.68497969  1
  O  O21  1  0.99821952  0.09252661  0.31502031  1
  O  O22  1  0.50178048  0.09252661  0.81502031  1
  O  O23  1  0.49821952  0.90747339  0.18497969  1
  O  O24  1  0.64390496  0.37080624  0.89601858  1
  O  O25  1  0.35609504  0.62919376  0.10398142  1
  O  O26  1  0.14390496  0.62919376  0.60398142  1
  O  O27  1  0.85609504  0.37080624  0.39601858  1
  O  O28  1  0.75381461  0.70513288  0.54729650  1
  O  O29  1  0.24618539  0.29486712  0.45270350  1
  O  O30  1  0.25381461  0.29486712  0.95270350  1
  O  O31  1  0.74618539  0.70513288  0.04729650  1
  O  O32  1  0.94831611  0.88977028  0.94380623  1
  O  O33  1  0.05168389  0.11022972  0.05619377  1
  O  O34  1  0.44831611  0.11022972  0.55619377  1
  O  O35  1  0.55168389  0.88977028  0.44380623  1
  O  O36  1  0.98002411  0.59214385  0.86746721  1
  O  O37  1  0.01997589  0.40785615  0.13253279  1
  O  O38  1  0.48002411  0.40785615  0.63253279  1
  O  O39  1  0.51997589  0.59214385  0.36746721  1
  O  O40  1  0.34290931  0.86324564  0.69671285  1
  O  O41  1  0.65709069  0.13675436  0.30328715  1
  O  O42  1  0.84290931  0.13675436  0.80328715  1
  O  O43  1  0.15709069  0.86324564  0.19671285  1
  O  O44  1  0.68226769  0.75465651  0.80622279  1
  O  O45  1  0.31773231  0.24534349  0.19377721  1
  O  O46  1  0.18226769  0.24534349  0.69377721  1
  O  O47  1  0.81773231  0.75465651  0.30622279  1
