# generated using pymatgen
data_KHo(MoO4)2
_symmetry_space_group_name_H-M   'P 1'
_cell_length_a   5.13431635
_cell_length_b   8.09256473
_cell_length_c   18.44612014
_cell_angle_alpha   90.00000000
_cell_angle_beta   90.00000000
_cell_angle_gamma   90.00000000
_symmetry_Int_Tables_number   1
_chemical_formula_structural   KHo(MoO4)2
_chemical_formula_sum   'K4 Ho4 Mo8 O32'
_cell_volume   766.43237029
_cell_formula_units_Z   4
loop_
 _symmetry_equiv_pos_site_id
 _symmetry_equiv_pos_as_xyz
  1  'x, y, z'
loop_
 _atom_site_type_symbol
 _atom_site_label
 _atom_site_symmetry_multiplicity
 _atom_site_fract_x
 _atom_site_fract_y
 _atom_site_fract_z
 _atom_site_occupancy
  K  K0  1  0.00000000  0.75000000  0.23005376  1
  K  K1  1  -0.00000000  0.25000000  0.76994624  1
  K  K2  1  0.50000000  0.25000000  0.26994624  1
  K  K3  1  0.50000000  0.75000000  0.73005376  1
  Ho  Ho4  1  0.00000000  0.75000000  0.99411249  1
  Ho  Ho5  1  0.00000000  0.25000000  0.00588751  1
  Ho  Ho6  1  0.50000000  0.25000000  0.50588751  1
  Ho  Ho7  1  0.50000000  0.75000000  0.49411249  1
  Mo  Mo8  1  0.97744871  0.98381595  0.60082496  1
  Mo  Mo9  1  0.02255129  0.01618405  0.39917504  1
  Mo  Mo10  1  0.52255129  0.48381595  0.89917504  1
  Mo  Mo11  1  0.02255129  0.51618405  0.60082496  1
  Mo  Mo12  1  0.47744871  0.51618405  0.10082496  1
  Mo  Mo13  1  0.97744871  0.48381595  0.39917504  1
  Mo  Mo14  1  0.47744871  0.01618405  0.89917504  1
  Mo  Mo15  1  0.52255129  0.98381595  0.10082496  1
  O  O16  1  0.89776584  0.52560359  0.68932292  1
  O  O17  1  0.10223416  0.47439641  0.31067708  1
  O  O18  1  0.60223416  0.02560359  0.81067708  1
  O  O19  1  0.10223416  0.97439641  0.68932292  1
  O  O20  1  0.39776584  0.97439641  0.18932292  1
  O  O21  1  0.89776584  0.02560359  0.31067708  1
  O  O22  1  0.39776584  0.47439641  0.81067708  1
  O  O23  1  0.60223416  0.52560359  0.18932292  1
  O  O24  1  0.73138007  0.66217757  0.90127363  1
  O  O25  1  0.26861993  0.33782243  0.09872637  1
  O  O26  1  0.76861993  0.16217757  0.59872637  1
  O  O27  1  0.26861993  0.83782243  0.90127363  1
  O  O28  1  0.23138007  0.83782243  0.40127363  1
  O  O29  1  0.73138007  0.16217757  0.09872637  1
  O  O30  1  0.23138007  0.33782243  0.59872637  1
  O  O31  1  0.76861993  0.66217757  0.40127363  1
  O  O32  1  0.75210653  0.99539854  0.96523749  1
  O  O33  1  0.24789347  0.00460146  0.03476251  1
  O  O34  1  0.74789347  0.49539854  0.53476251  1
  O  O35  1  0.24789347  0.50460146  0.96523749  1
  O  O36  1  0.25210653  0.50460146  0.46523749  1
  O  O37  1  0.75210653  0.49539854  0.03476251  1
  O  O38  1  0.25210653  0.00460146  0.53476251  1
  O  O39  1  0.74789347  0.99539854  0.46523749  1
  O  O40  1  0.75349938  0.81001077  0.59237384  1
  O  O41  1  0.24650062  0.18998923  0.40762616  1
  O  O42  1  0.74650062  0.31001077  0.90762616  1
  O  O43  1  0.24650062  0.68998923  0.59237384  1
  O  O44  1  0.25349938  0.68998923  0.09237384  1
  O  O45  1  0.75349938  0.31001077  0.40762616  1
  O  O46  1  0.25349938  0.18998923  0.90762616  1
  O  O47  1  0.74650062  0.81001077  0.09237384  1
