# generated using pymatgen
data_K2SmBr5
_symmetry_space_group_name_H-M   'P 1'
_cell_length_a   8.55824611
_cell_length_b   9.17566128
_cell_length_c   13.60986225
_cell_angle_alpha   90.00000000
_cell_angle_beta   90.00000000
_cell_angle_gamma   90.00000000
_symmetry_Int_Tables_number   1
_chemical_formula_structural   K2SmBr5
_chemical_formula_sum   'K8 Sm4 Br20'
_cell_volume   1068.74937591
_cell_formula_units_Z   4
loop_
 _symmetry_equiv_pos_site_id
 _symmetry_equiv_pos_as_xyz
  1  'x, y, z'
loop_
 _atom_site_type_symbol
 _atom_site_label
 _atom_site_symmetry_multiplicity
 _atom_site_fract_x
 _atom_site_fract_y
 _atom_site_fract_z
 _atom_site_occupancy
  K  K0  1  0.55130134  0.49523301  0.67170378  1
  K  K1  1  0.44869866  0.50476699  0.32829622  1
  K  K2  1  0.05130134  0.50476699  0.82829622  1
  K  K3  1  0.44869866  0.99523301  0.32829622  1
  K  K4  1  0.94869866  0.49523301  0.17170378  1
  K  K5  1  0.55130134  0.00476699  0.67170378  1
  K  K6  1  0.94869866  0.00476699  0.17170378  1
  K  K7  1  0.05130134  0.99523301  0.82829622  1
  Sm  Sm8  1  0.57711021  0.75000000  0.99498926  1
  Sm  Sm9  1  0.42288979  0.25000000  0.00501074  1
  Sm  Sm10  1  0.07711021  0.25000000  0.50501074  1
  Sm  Sm11  1  0.92288979  0.75000000  0.49498926  1
  Br  Br12  1  0.37491897  0.75000000  0.82187188  1
  Br  Br13  1  0.62508103  0.25000000  0.17812812  1
  Br  Br14  1  0.87491897  0.25000000  0.67812812  1
  Br  Br15  1  0.12508103  0.75000000  0.32187188  1
  Br  Br16  1  0.66377464  0.45661023  0.92370435  1
  Br  Br17  1  0.33622536  0.54338977  0.07629565  1
  Br  Br18  1  0.16377464  0.54338977  0.57629565  1
  Br  Br19  1  0.33622536  0.95661023  0.07629565  1
  Br  Br20  1  0.83622536  0.45661023  0.42370435  1
  Br  Br21  1  0.66377464  0.04338977  0.92370435  1
  Br  Br22  1  0.83622536  0.04338977  0.42370435  1
  Br  Br23  1  0.16377464  0.95661023  0.57629565  1
  Br  Br24  1  0.92211520  0.75000000  0.99188638  1
  Br  Br25  1  0.07788480  0.25000000  0.00811362  1
  Br  Br26  1  0.42211520  0.25000000  0.50811362  1
  Br  Br27  1  0.57788480  0.75000000  0.49188638  1
  Br  Br28  1  0.83747679  0.75000000  0.70266684  1
  Br  Br29  1  0.16252321  0.25000000  0.29733316  1
  Br  Br30  1  0.33747679  0.25000000  0.79733316  1
  Br  Br31  1  0.66252321  0.75000000  0.20266684  1
