# generated using pymatgen
data_K2LaBr5
_symmetry_space_group_name_H-M   'P 1'
_cell_length_a   8.65473737
_cell_length_b   9.36693819
_cell_length_c   13.72529417
_cell_angle_alpha   90.00000000
_cell_angle_beta   90.00000000
_cell_angle_gamma   90.00000000
_symmetry_Int_Tables_number   1
_chemical_formula_structural   K2LaBr5
_chemical_formula_sum   'K8 La4 Br20'
_cell_volume   1112.68750058
_cell_formula_units_Z   4
loop_
 _symmetry_equiv_pos_site_id
 _symmetry_equiv_pos_as_xyz
  1  'x, y, z'
loop_
 _atom_site_type_symbol
 _atom_site_label
 _atom_site_symmetry_multiplicity
 _atom_site_fract_x
 _atom_site_fract_y
 _atom_site_fract_z
 _atom_site_occupancy
  K  K0  1  0.54965932  0.49465354  0.67112571  1
  K  K1  1  0.45034068  0.50534646  0.32887429  1
  K  K2  1  0.04965932  0.50534646  0.82887429  1
  K  K3  1  0.45034068  0.99465354  0.32887429  1
  K  K4  1  0.95034068  0.49465354  0.17112571  1
  K  K5  1  0.54965932  0.00534646  0.67112571  1
  K  K6  1  0.95034068  0.00534646  0.17112571  1
  K  K7  1  0.04965932  0.99465354  0.82887429  1
  La  La8  1  0.57643079  0.75000000  0.99438354  1
  La  La9  1  0.42356921  0.25000000  0.00561646  1
  La  La10  1  0.07643079  0.25000000  0.50561646  1
  La  La11  1  0.92356921  0.75000000  0.49438354  1
  Br  Br12  1  0.37283189  0.75000000  0.81902867  1
  Br  Br13  1  0.62716811  0.25000000  0.18097133  1
  Br  Br14  1  0.87283189  0.25000000  0.68097133  1
  Br  Br15  1  0.12716811  0.75000000  0.31902867  1
  Br  Br16  1  0.66516382  0.45654474  0.92206715  1
  Br  Br17  1  0.33483618  0.54345526  0.07793285  1
  Br  Br18  1  0.16516382  0.54345526  0.57793285  1
  Br  Br19  1  0.33483618  0.95654474  0.07793285  1
  Br  Br20  1  0.83483618  0.45654474  0.42206715  1
  Br  Br21  1  0.66516382  0.04345526  0.92206715  1
  Br  Br22  1  0.83483618  0.04345526  0.42206715  1
  Br  Br23  1  0.16516382  0.95654474  0.57793285  1
  Br  Br24  1  0.92556868  0.75000000  0.99277333  1
  Br  Br25  1  0.07443132  0.25000000  0.00722667  1
  Br  Br26  1  0.42556868  0.25000000  0.50722667  1
  Br  Br27  1  0.57443132  0.75000000  0.49277333  1
  Br  Br28  1  0.83526476  0.75000000  0.70529174  1
  Br  Br29  1  0.16473524  0.25000000  0.29470826  1
  Br  Br30  1  0.33526476  0.25000000  0.79470826  1
  Br  Br31  1  0.66473524  0.75000000  0.20529174  1
