# generated using pymatgen
data_K2NdCl5
_symmetry_space_group_name_H-M   'P 1'
_cell_length_a   8.16333391
_cell_length_b   8.77103101
_cell_length_c   13.14014930
_cell_angle_alpha   90.00000000
_cell_angle_beta   90.00000000
_cell_angle_gamma   90.00000000
_symmetry_Int_Tables_number   1
_chemical_formula_structural   K2NdCl5
_chemical_formula_sum   'K8 Nd4 Cl20'
_cell_volume   940.84592299
_cell_formula_units_Z   4
loop_
 _symmetry_equiv_pos_site_id
 _symmetry_equiv_pos_as_xyz
  1  'x, y, z'
loop_
 _atom_site_type_symbol
 _atom_site_label
 _atom_site_symmetry_multiplicity
 _atom_site_fract_x
 _atom_site_fract_y
 _atom_site_fract_z
 _atom_site_occupancy
  K  K0  1  0.96757646  0.00003547  0.67446848  1
  K  K1  1  0.03242354  0.99996453  0.32553152  1
  K  K2  1  0.46757646  0.99996453  0.82553152  1
  K  K3  1  0.03242354  0.50003547  0.32553152  1
  K  K4  1  0.53242354  0.00003547  0.17446848  1
  K  K5  1  0.96757646  0.49996453  0.67446848  1
  K  K6  1  0.53242354  0.49996453  0.17446848  1
  K  K7  1  0.46757646  0.50003547  0.82553152  1
  Nd  Nd8  1  0.92445956  0.75000000  0.99621236  1
  Nd  Nd9  1  0.07554044  0.25000000  0.00378764  1
  Nd  Nd10  1  0.42445956  0.25000000  0.50378764  1
  Nd  Nd11  1  0.57554044  0.75000000  0.49621236  1
  Cl  Cl12  1  0.67352220  0.75000000  0.70018775  1
  Cl  Cl13  1  0.32647780  0.25000000  0.29981225  1
  Cl  Cl14  1  0.17352220  0.25000000  0.79981225  1
  Cl  Cl15  1  0.82647780  0.75000000  0.20018775  1
  Cl  Cl16  1  0.13930461  0.75000000  0.83155265  1
  Cl  Cl17  1  0.86069539  0.25000000  0.16844735  1
  Cl  Cl18  1  0.63930461  0.25000000  0.66844735  1
  Cl  Cl19  1  0.36069539  0.75000000  0.33155265  1
  Cl  Cl20  1  0.58142052  0.75000000  0.98924879  1
  Cl  Cl21  1  0.41857948  0.25000000  0.01075121  1
  Cl  Cl22  1  0.08142052  0.25000000  0.51075121  1
  Cl  Cl23  1  0.91857948  0.75000000  0.48924879  1
  Cl  Cl24  1  0.84520247  0.45909562  0.91630799  1
  Cl  Cl25  1  0.15479753  0.54090438  0.08369201  1
  Cl  Cl26  1  0.34520247  0.54090438  0.58369201  1
  Cl  Cl27  1  0.15479753  0.95909562  0.08369201  1
  Cl  Cl28  1  0.65479753  0.45909562  0.41630799  1
  Cl  Cl29  1  0.84520247  0.04090438  0.91630799  1
  Cl  Cl30  1  0.65479753  0.04090438  0.41630799  1
  Cl  Cl31  1  0.34520247  0.95909562  0.58369201  1
