# generated using pymatgen
data_Ho(Al5Fe)2
_symmetry_space_group_name_H-M   'P 1'
_cell_length_a   6.75251522
_cell_length_b   6.75251522
_cell_length_c   8.96308499
_cell_angle_alpha   90.00000000
_cell_angle_beta   90.00000000
_cell_angle_gamma   97.21720172
_symmetry_Int_Tables_number   1
_chemical_formula_structural   Ho(Al5Fe)2
_chemical_formula_sum   'Ho2 Al20 Fe4'
_cell_volume   405.44696272
_cell_formula_units_Z   2
loop_
 _symmetry_equiv_pos_site_id
 _symmetry_equiv_pos_as_xyz
  1  'x, y, z'
loop_
 _atom_site_type_symbol
 _atom_site_label
 _atom_site_symmetry_multiplicity
 _atom_site_fract_x
 _atom_site_fract_y
 _atom_site_fract_z
 _atom_site_occupancy
  Ho  Ho0  1  0.87467008  0.12532992  0.75000000  1
  Ho  Ho1  1  0.12532992  0.87467008  0.25000000  1
  Al  Al2  1  0.62560428  0.37439572  0.95235886  1
  Al  Al3  1  0.37439572  0.62560428  0.04764114  1
  Al  Al4  1  0.37439572  0.62560428  0.45235886  1
  Al  Al5  1  0.62560428  0.37439572  0.54764114  1
  Al  Al6  1  0.77271204  0.77271204  -0.00000000  1
  Al  Al7  1  0.22728796  0.22728796  0.00000000  1
  Al  Al8  1  0.22728796  0.22728796  0.50000000  1
  Al  Al9  1  0.77271204  0.77271204  0.50000000  1
  Al  Al10  1  0.84298628  0.15701372  0.40328287  1
  Al  Al11  1  0.15701372  0.84298628  0.59671713  1
  Al  Al12  1  0.15701372  0.84298628  0.90328287  1
  Al  Al13  1  0.84298628  0.15701372  0.09671713  1
  Al  Al14  1  0.41520332  0.13428212  0.75000000  1
  Al  Al15  1  0.58479668  0.86571788  0.25000000  1
  Al  Al16  1  0.86571788  0.58479668  0.75000000  1
  Al  Al17  1  0.13428212  0.41520332  0.25000000  1
  Al  Al18  1  0.52278240  0.77946720  0.75000000  1
  Al  Al19  1  0.47721760  0.22053280  0.25000000  1
  Al  Al20  1  0.22053280  0.47721760  0.75000000  1
  Al  Al21  1  0.77946720  0.52278240  0.25000000  1
  Fe  Fe22  1  0.50000000  0.00000000  0.00000000  1
  Fe  Fe23  1  0.50000000  0.00000000  0.50000000  1
  Fe  Fe24  1  -0.00000000  0.50000000  0.50000000  1
  Fe  Fe25  1  -0.00000000  0.50000000  0.00000000  1
