# generated using pymatgen
data_Cu9S5
_symmetry_space_group_name_H-M   'P 1'
_cell_length_a   19.67006999
_cell_length_b   10.56497203
_cell_length_c   6.56856326
_cell_angle_alpha   29.72660505
_cell_angle_beta   29.93319697
_cell_angle_gamma   18.07352459
_symmetry_Int_Tables_number   1
_chemical_formula_structural   Cu9S5
_chemical_formula_sum   'Cu9 S5'
_cell_volume   202.37444744
_cell_formula_units_Z   1
loop_
 _symmetry_equiv_pos_site_id
 _symmetry_equiv_pos_as_xyz
  1  'x, y, z'
loop_
 _atom_site_type_symbol
 _atom_site_label
 _atom_site_symmetry_multiplicity
 _atom_site_fract_x
 _atom_site_fract_y
 _atom_site_fract_z
 _atom_site_occupancy
  Cu  Cu0  1  0.01963641  0.30490081  0.32376187  1
  Cu  Cu1  1  0.97227732  0.52214762  0.51668657  1
  Cu  Cu2  1  0.30000000  0.25000000  0.25000000  1
  Cu  Cu3  1  0.18338883  0.53879741  0.52214762  1
  Cu  Cu4  1  0.58036359  0.03174556  0.33959176  1
  Cu  Cu5  1  0.41661117  0.51668657  0.42236840  1
  Cu  Cu6  1  0.73206449  0.32376187  0.03174556  1
  Cu  Cu7  1  0.62772268  0.42236840  0.53879741  1
  Cu  Cu8  1  0.86793551  0.33959176  0.30490081  1
  S  S9  1  0.99842402  0.00052079  0.04236569  1
  S  S10  1  0.23973453  0.92158612  0.00052079  1
  S  S11  1  0.36026547  0.04236569  0.03552739  1
  S  S12  1  0.60157598  0.03552739  0.92158612  1
  S  S13  1  0.80000000  -0.00000000  -0.00000000  1
