# generated using pymatgen
data_K3TaSe4
_symmetry_space_group_name_H-M   'P 1'
_cell_length_a   9.75875288
_cell_length_b   9.98187485
_cell_length_c   11.28386457
_cell_angle_alpha   90.00000000
_cell_angle_beta   90.00000000
_cell_angle_gamma   90.00000000
_symmetry_Int_Tables_number   1
_chemical_formula_structural   K3TaSe4
_chemical_formula_sum   'K12 Ta4 Se16'
_cell_volume   1099.16858160
_cell_formula_units_Z   4
loop_
 _symmetry_equiv_pos_site_id
 _symmetry_equiv_pos_as_xyz
  1  'x, y, z'
loop_
 _atom_site_type_symbol
 _atom_site_label
 _atom_site_symmetry_multiplicity
 _atom_site_fract_x
 _atom_site_fract_y
 _atom_site_fract_z
 _atom_site_occupancy
  K  K0  1  0.63156656  0.42217212  0.75000000  1
  K  K1  1  0.36843344  0.57782788  0.25000000  1
  K  K2  1  0.86843344  0.92217212  0.25000000  1
  K  K3  1  0.13156656  0.07782788  0.75000000  1
  K  K4  1  0.94635323  0.70933300  0.95476665  1
  K  K5  1  0.05364677  0.29066700  0.04523335  1
  K  K6  1  0.55364677  0.20933300  0.04523335  1
  K  K7  1  0.05364677  0.29066700  0.45476665  1
  K  K8  1  0.44635323  0.79066700  0.95476665  1
  K  K9  1  0.94635323  0.70933300  0.54523335  1
  K  K10  1  0.44635323  0.79066700  0.54523335  1
  K  K11  1  0.55364677  0.20933300  0.45476665  1
  Ta  Ta12  1  0.71489989  0.98608749  0.75000000  1
  Ta  Ta13  1  0.28510011  0.01391251  0.25000000  1
  Ta  Ta14  1  0.78510011  0.48608749  0.25000000  1
  Ta  Ta15  1  0.21489989  0.51391251  0.75000000  1
  Se  Se16  1  0.98837709  0.41475998  0.75000000  1
  Se  Se17  1  0.01162291  0.58524002  0.25000000  1
  Se  Se18  1  0.51162291  0.91475998  0.25000000  1
  Se  Se19  1  0.48837709  0.08524002  0.75000000  1
  Se  Se20  1  0.66434649  0.55109820  0.42727685  1
  Se  Se21  1  0.33565351  0.44890180  0.57272315  1
  Se  Se22  1  0.83565351  0.05109820  0.57272315  1
  Se  Se23  1  0.33565351  0.44890180  0.92727685  1
  Se  Se24  1  0.16434649  0.94890180  0.42727685  1
  Se  Se25  1  0.66434649  0.55109820  0.07272315  1
  Se  Se26  1  0.16434649  0.94890180  0.07272315  1
  Se  Se27  1  0.83565351  0.05109820  0.92727685  1
  Se  Se28  1  0.69412677  0.74468398  0.75000000  1
  Se  Se29  1  0.30587323  0.25531602  0.25000000  1
  Se  Se30  1  0.80587323  0.24468398  0.25000000  1
  Se  Se31  1  0.19412677  0.75531602  0.75000000  1
