# generated using pymatgen
data_K2HoCl5
_symmetry_space_group_name_H-M   'P 1'
_cell_length_a   8.05782023
_cell_length_b   8.52604455
_cell_length_c   13.06325794
_cell_angle_alpha   90.00000000
_cell_angle_beta   90.00000000
_cell_angle_gamma   90.00000000
_symmetry_Int_Tables_number   1
_chemical_formula_structural   K2HoCl5
_chemical_formula_sum   'K8 Ho4 Cl20'
_cell_volume   897.46325022
_cell_formula_units_Z   4
loop_
 _symmetry_equiv_pos_site_id
 _symmetry_equiv_pos_as_xyz
  1  'x, y, z'
loop_
 _atom_site_type_symbol
 _atom_site_label
 _atom_site_symmetry_multiplicity
 _atom_site_fract_x
 _atom_site_fract_y
 _atom_site_fract_z
 _atom_site_occupancy
  K  K0  1  0.96622920  0.99908109  0.67429227  1
  K  K1  1  0.03377080  0.00091891  0.32570773  1
  K  K2  1  0.46622920  0.00091891  0.82570773  1
  K  K3  1  0.03377080  0.49908109  0.32570773  1
  K  K4  1  0.53377080  0.99908109  0.17429227  1
  K  K5  1  0.96622920  0.50091891  0.67429227  1
  K  K6  1  0.53377080  0.50091891  0.17429227  1
  K  K7  1  0.46622920  0.49908109  0.82570773  1
  Ho  Ho8  1  0.92764195  0.75000000  0.99763777  1
  Ho  Ho9  1  0.07235805  0.25000000  0.00236223  1
  Ho  Ho10  1  0.42764195  0.25000000  0.50236223  1
  Ho  Ho11  1  0.57235805  0.75000000  0.49763777  1
  Cl  Cl12  1  0.66778256  0.75000000  0.69518943  1
  Cl  Cl13  1  0.33221744  0.25000000  0.30481057  1
  Cl  Cl14  1  0.16778256  0.25000000  0.80481057  1
  Cl  Cl15  1  0.83221744  0.75000000  0.19518943  1
  Cl  Cl16  1  0.13168272  0.75000000  0.83644417  1
  Cl  Cl17  1  0.86831728  0.25000000  0.16355583  1
  Cl  Cl18  1  0.63168272  0.25000000  0.66355583  1
  Cl  Cl19  1  0.36831728  0.75000000  0.33644417  1
  Cl  Cl20  1  0.59222707  0.75000000  0.98630747  1
  Cl  Cl21  1  0.40777293  0.25000000  0.01369253  1
  Cl  Cl22  1  0.09222707  0.25000000  0.51369253  1
  Cl  Cl23  1  0.90777293  0.75000000  0.48630747  1
  Cl  Cl24  1  0.84672785  0.45927815  0.92069852  1
  Cl  Cl25  1  0.15327215  0.54072185  0.07930148  1
  Cl  Cl26  1  0.34672785  0.54072185  0.57930148  1
  Cl  Cl27  1  0.15327215  0.95927815  0.07930148  1
  Cl  Cl28  1  0.65327215  0.45927815  0.42069852  1
  Cl  Cl29  1  0.84672785  0.04072185  0.92069852  1
  Cl  Cl30  1  0.65327215  0.04072185  0.42069852  1
  Cl  Cl31  1  0.34672785  0.95927815  0.57930148  1
