# generated using pymatgen
data_KH8W(NF3)2
_symmetry_space_group_name_H-M   'P 1'
_cell_length_a   6.44720944
_cell_length_b   6.48684943
_cell_length_c   9.51620822
_cell_angle_alpha   89.42559371
_cell_angle_beta   90.00000000
_cell_angle_gamma   90.00000000
_symmetry_Int_Tables_number   1
_chemical_formula_structural   KH8W(NF3)2
_chemical_formula_sum   'K2 H16 W2 N4 F12'
_cell_volume   397.96759205
_cell_formula_units_Z   2
loop_
 _symmetry_equiv_pos_site_id
 _symmetry_equiv_pos_as_xyz
  1  'x, y, z'
loop_
 _atom_site_type_symbol
 _atom_site_label
 _atom_site_symmetry_multiplicity
 _atom_site_fract_x
 _atom_site_fract_y
 _atom_site_fract_z
 _atom_site_occupancy
  K  K0  1  0.00000000  -0.00000000  0.50000000  1
  K  K1  1  0.50000000  0.50000000  0.00000000  1
  H  H2  1  0.52910631  0.84671970  0.73098068  1
  H  H3  1  0.47089369  0.15328030  0.26901932  1
  H  H4  1  0.02910631  0.65328030  0.76901932  1
  H  H5  1  0.97089369  0.34671970  0.23098068  1
  H  H6  1  0.53903529  0.08320972  0.65296068  1
  H  H7  1  0.46096471  0.91679028  0.34703932  1
  H  H8  1  0.03903529  0.41679028  0.84703932  1
  H  H9  1  0.96096471  0.58320972  0.15296068  1
  H  H10  1  0.57095663  0.05984128  0.83096150  1
  H  H11  1  0.42904337  0.94015872  0.16903850  1
  H  H12  1  0.07095663  0.44015872  0.66903850  1
  H  H13  1  0.92904337  0.55984128  0.33096150  1
  H  H14  1  0.33333249  0.00946611  0.75686334  1
  H  H15  1  0.66666751  0.99053389  0.24313666  1
  H  H16  1  0.83333249  0.49053389  0.74313666  1
  H  H17  1  0.16666751  0.50946611  0.25686334  1
  W  W18  1  0.00000000  -0.00000000  0.00000000  1
  W  W19  1  0.50000000  0.50000000  0.50000000  1
  N  N20  1  0.49235242  0.00101150  0.74295562  1
  N  N21  1  0.50764758  0.99898850  0.25704438  1
  N  N22  1  -0.00764758  0.49898850  0.75704438  1
  N  N23  1  0.00764758  0.50101150  0.24295562  1
  F  F24  1  0.05827319  -0.05587145  0.78265728  1
  F  F25  1  0.94172681  0.05587145  0.21734272  1
  F  F26  1  0.55827319  0.55587145  0.71734272  1
  F  F27  1  0.44172681  0.44412855  0.28265728  1
  F  F28  1  0.84783919  0.71181011  0.02065531  1
  F  F29  1  0.15216081  0.28818989  -0.02065531  1
  F  F30  1  0.34783919  0.78818989  0.47934469  1
  F  F31  1  0.65216081  0.21181011  0.52065531  1
  F  F32  1  0.28361194  0.84513430  0.04263623  1
  F  F33  1  0.71638806  0.15486570  0.95736377  1
  F  F34  1  0.78361194  0.65486570  0.45736377  1
  F  F35  1  0.21638806  0.34513430  0.54263623  1
