# generated using pymatgen
data_KZr6NCl15
_symmetry_space_group_name_H-M   'P 1'
_cell_length_a   9.75028074
_cell_length_b   14.01689069
_cell_length_c   18.60394402
_cell_angle_alpha   90.00000000
_cell_angle_beta   90.00000000
_cell_angle_gamma   90.00000000
_symmetry_Int_Tables_number   1
_chemical_formula_structural   KZr6NCl15
_chemical_formula_sum   'K4 Zr24 N4 Cl60'
_cell_volume   2542.57534329
_cell_formula_units_Z   4
loop_
 _symmetry_equiv_pos_site_id
 _symmetry_equiv_pos_as_xyz
  1  'x, y, z'
loop_
 _atom_site_type_symbol
 _atom_site_label
 _atom_site_symmetry_multiplicity
 _atom_site_fract_x
 _atom_site_fract_y
 _atom_site_fract_z
 _atom_site_occupancy
  K  K0  1  0.16923938  0.75282441  0.75000000  1
  K  K1  1  0.83076062  0.24717559  0.25000000  1
  K  K2  1  0.16923938  0.24717559  0.75000000  1
  K  K3  1  0.83076062  0.75282441  0.25000000  1
  Zr  Zr4  1  0.88446166  0.50000000  0.75000000  1
  Zr  Zr5  1  0.11553834  0.50000000  0.25000000  1
  Zr  Zr6  1  0.91921969  -0.00000000  0.38728122  1
  Zr  Zr7  1  0.08078031  -0.00000000  0.61271878  1
  Zr  Zr8  1  0.91921969  -0.00000000  0.11271878  1
  Zr  Zr9  1  0.08078031  -0.00000000  0.88728122  1
  Zr  Zr10  1  0.65752486  0.61536403  0.83696351  1
  Zr  Zr11  1  0.34247514  0.38463597  0.16303649  1
  Zr  Zr12  1  0.65752486  0.38463597  0.66303649  1
  Zr  Zr13  1  0.34247514  0.61536403  0.16303649  1
  Zr  Zr14  1  0.34247514  0.61536403  0.33696351  1
  Zr  Zr15  1  0.65752486  0.38463597  0.83696351  1
  Zr  Zr16  1  0.34247514  0.38463597  0.33696351  1
  Zr  Zr17  1  0.65752486  0.61536403  0.66303649  1
  Zr  Zr18  1  0.42846886  0.50000000  0.75000000  1
  Zr  Zr19  1  0.57153114  0.50000000  0.25000000  1
  Zr  Zr20  1  0.84394614  0.88505168  0.97048126  1
  Zr  Zr21  1  0.15605386  0.11494832  0.02951874  1
  Zr  Zr22  1  0.84394614  0.11494832  0.52951874  1
  Zr  Zr23  1  0.15605386  0.88505168  0.02951874  1
  Zr  Zr24  1  0.15605386  0.88505168  0.47048126  1
  Zr  Zr25  1  0.84394614  0.11494832  0.97048126  1
  Zr  Zr26  1  0.15605386  0.11494832  0.47048126  1
  Zr  Zr27  1  0.84394614  0.88505168  0.52951874  1
  N  N28  1  0.00000000  -0.00000000  0.00000000  1
  N  N29  1  0.00000000  -0.00000000  0.50000000  1
  N  N30  1  0.65615196  0.50000000  0.75000000  1
  N  N31  1  0.34384804  0.50000000  0.25000000  1
  Cl  Cl32  1  0.18393728  -0.00000000  0.75000000  1
  Cl  Cl33  1  0.81606272  -0.00000000  0.25000000  1
  Cl  Cl34  1  0.15723427  0.50000000  0.75000000  1
  Cl  Cl35  1  0.84276573  0.50000000  0.25000000  1
  Cl  Cl36  1  0.65765118  0.50000000  0.94279824  1
  Cl  Cl37  1  0.34234882  0.50000000  0.05720176  1
  Cl  Cl38  1  0.65765118  0.50000000  0.55720176  1
  Cl  Cl39  1  0.34234882  0.50000000  0.44279824  1
  Cl  Cl40  1  0.00000000  0.74484906  0.00000000  1
  Cl  Cl41  1  0.00000000  0.25515094  -0.00000000  1
  Cl  Cl42  1  0.00000000  0.25515094  0.50000000  1
  Cl  Cl43  1  0.00000000  0.74484906  0.50000000  1
  Cl  Cl44  1  0.65005517  0.75593955  0.75000000  1
  Cl  Cl45  1  0.34994483  0.24406045  0.25000000  1
  Cl  Cl46  1  0.65005517  0.24406045  0.75000000  1
  Cl  Cl47  1  0.34994483  0.75593955  0.25000000  1
  Cl  Cl48  1  0.65859188  0.75075448  0.93799557  1
  Cl  Cl49  1  0.34140812  0.24924552  0.06200443  1
  Cl  Cl50  1  0.65859188  0.24924552  0.56200443  1
  Cl  Cl51  1  0.34140812  0.75075448  0.06200443  1
  Cl  Cl52  1  0.34140812  0.75075448  0.43799557  1
  Cl  Cl53  1  0.65859188  0.24924552  0.93799557  1
  Cl  Cl54  1  0.34140812  0.24924552  0.43799557  1
  Cl  Cl55  1  0.65859188  0.75075448  0.56200443  1
  Cl  Cl56  1  0.91794449  0.87383903  0.83936877  1
  Cl  Cl57  1  0.08205551  0.12616097  0.16063123  1
  Cl  Cl58  1  0.91794449  0.12616097  0.66063123  1
  Cl  Cl59  1  0.08205551  0.87383903  0.16063123  1
  Cl  Cl60  1  0.08205551  0.87383903  0.33936877  1
  Cl  Cl61  1  0.91794449  0.12616097  0.83936877  1
  Cl  Cl62  1  0.08205551  0.12616097  0.33936877  1
  Cl  Cl63  1  0.91794449  0.87383903  0.66063123  1
  Cl  Cl64  1  0.91847505  0.62690227  0.84573738  1
  Cl  Cl65  1  0.08152495  0.37309773  0.15426262  1
  Cl  Cl66  1  0.91847505  0.37309773  0.65426262  1
  Cl  Cl67  1  0.08152495  0.62690227  0.15426262  1
  Cl  Cl68  1  0.08152495  0.62690227  0.34573738  1
  Cl  Cl69  1  0.91847505  0.37309773  0.84573738  1
  Cl  Cl70  1  0.08152495  0.37309773  0.34573738  1
  Cl  Cl71  1  0.91847505  0.62690227  0.65426262  1
  Cl  Cl72  1  0.65429098  -0.00000000  0.93373177  1
  Cl  Cl73  1  0.34570902  -0.00000000  0.06626823  1
  Cl  Cl74  1  0.65429098  -0.00000000  0.56626823  1
  Cl  Cl75  1  0.34570902  -0.00000000  0.43373177  1
  Cl  Cl76  1  0.39560518  0.62789969  0.84731115  1
  Cl  Cl77  1  0.60439482  0.37210031  0.15268885  1
  Cl  Cl78  1  0.39560518  0.37210031  0.65268885  1
  Cl  Cl79  1  0.60439482  0.62789969  0.15268885  1
  Cl  Cl80  1  0.60439482  0.62789969  0.34731115  1
  Cl  Cl81  1  0.39560518  0.37210031  0.84731115  1
  Cl  Cl82  1  0.60439482  0.37210031  0.34731115  1
  Cl  Cl83  1  0.39560518  0.62789969  0.65268885  1
  Cl  Cl84  1  0.73580340  0.87128809  0.40390118  1
  Cl  Cl85  1  0.26419660  0.12871191  0.59609882  1
  Cl  Cl86  1  0.73580340  0.12871191  0.09609882  1
  Cl  Cl87  1  0.26419660  0.87128809  0.59609882  1
  Cl  Cl88  1  0.26419660  0.87128809  0.90390118  1
  Cl  Cl89  1  0.73580340  0.12871191  0.40390118  1
  Cl  Cl90  1  0.26419660  0.12871191  0.90390118  1
  Cl  Cl91  1  0.73580340  0.87128809  0.09609882  1
