# generated using pymatgen
data_K2CoBr4
_symmetry_space_group_name_H-M   'P 1'
_cell_length_a   7.66752322
_cell_length_b   9.79134970
_cell_length_c   13.29910564
_cell_angle_alpha   90.00000000
_cell_angle_beta   90.00000000
_cell_angle_gamma   90.00000000
_symmetry_Int_Tables_number   1
_chemical_formula_structural   K2CoBr4
_chemical_formula_sum   'K8 Co4 Br16'
_cell_volume   998.43569126
_cell_formula_units_Z   4
loop_
 _symmetry_equiv_pos_site_id
 _symmetry_equiv_pos_as_xyz
  1  'x, y, z'
loop_
 _atom_site_type_symbol
 _atom_site_label
 _atom_site_symmetry_multiplicity
 _atom_site_fract_x
 _atom_site_fract_y
 _atom_site_fract_z
 _atom_site_occupancy
  K  K0  1  0.75000000  0.51502278  0.32129793  1
  K  K1  1  0.25000000  0.48497722  0.67870207  1
  K  K2  1  0.25000000  0.98497722  0.82129793  1
  K  K3  1  0.75000000  0.01502278  0.17870207  1
  K  K4  1  0.75000000  0.84569587  0.58250505  1
  K  K5  1  0.25000000  0.15430413  0.41749495  1
  K  K6  1  0.25000000  0.65430413  0.08250505  1
  K  K7  1  0.75000000  0.34569587  0.91749495  1
  Co  Co8  1  0.75000000  0.76991907  0.92359906  1
  Co  Co9  1  0.25000000  0.23008093  0.07640094  1
  Co  Co10  1  0.25000000  0.73008093  0.42359906  1
  Co  Co11  1  0.75000000  0.26991907  0.57640094  1
  Br  Br12  1  0.00556762  0.68499860  0.84251490  1
  Br  Br13  1  0.99443238  0.31500140  0.15748510  1
  Br  Br14  1  0.99443238  0.81500140  0.34251490  1
  Br  Br15  1  0.50556762  0.31500140  0.15748510  1
  Br  Br16  1  0.00556762  0.18499860  0.65748510  1
  Br  Br17  1  0.49443238  0.68499860  0.84251490  1
  Br  Br18  1  0.49443238  0.18499860  0.65748510  1
  Br  Br19  1  0.50556762  0.81500140  0.34251490  1
  Br  Br20  1  0.75000000  0.01433095  0.91891026  1
  Br  Br21  1  0.25000000  0.98566905  0.08108974  1
  Br  Br22  1  0.25000000  0.48566905  0.41891026  1
  Br  Br23  1  0.75000000  0.51433095  0.58108974  1
  Br  Br24  1  0.75000000  0.18628368  0.40684439  1
  Br  Br25  1  0.25000000  0.81371632  0.59315561  1
  Br  Br26  1  0.25000000  0.31371632  0.90684439  1
  Br  Br27  1  0.75000000  0.68628368  0.09315561  1
