# generated using pymatgen
data_Ho2Hf2(MoO4)7
_symmetry_space_group_name_H-M   'P 1'
_cell_length_a   9.93820659
_cell_length_b   11.62102091
_cell_length_c   13.98076772
_cell_angle_alpha   110.93950775
_cell_angle_beta   90.00000000
_cell_angle_gamma   115.31510201
_symmetry_Int_Tables_number   1
_chemical_formula_structural   Ho2Hf2(MoO4)7
_chemical_formula_sum   'Ho4 Hf4 Mo14 O56'
_cell_volume   1340.69944412
_cell_formula_units_Z   2
loop_
 _symmetry_equiv_pos_site_id
 _symmetry_equiv_pos_as_xyz
  1  'x, y, z'
loop_
 _atom_site_type_symbol
 _atom_site_label
 _atom_site_symmetry_multiplicity
 _atom_site_fract_x
 _atom_site_fract_y
 _atom_site_fract_z
 _atom_site_occupancy
  Ho  Ho0  1  0.14896949  0.27322183  0.93649687  1
  Ho  Ho1  1  0.85103051  0.72677817  0.06350313  1
  Ho  Ho2  1  0.87574766  0.72677817  0.56350313  1
  Ho  Ho3  1  0.12425234  0.27322183  0.43649687  1
  Hf  Hf4  1  0.42051272  0.76906927  0.81280664  1
  Hf  Hf5  1  0.57948728  0.23093073  0.18719336  1
  Hf  Hf6  1  0.65144344  0.23093073  0.68719336  1
  Hf  Hf7  1  0.34855656  0.76906927  0.31280664  1
  Mo  Mo8  1  0.49928694  0.48730717  0.82725181  1
  Mo  Mo9  1  0.50071306  0.51269283  0.17274819  1
  Mo  Mo10  1  0.01197976  0.51269283  0.67274819  1
  Mo  Mo11  1  0.98802024  0.48730717  0.32725181  1
  Mo  Mo12  1  0.45655221  0.68318710  0.52263980  1
  Mo  Mo13  1  0.54344779  0.31681290  0.47736020  1
  Mo  Mo14  1  0.77336510  0.31681290  0.97736020  1
  Mo  Mo15  1  0.22663490  0.68318710  0.02263980  1
  Mo  Mo16  1  0.81261100  0.87834966  0.85290650  1
  Mo  Mo17  1  0.18738900  0.12165034  0.14709350  1
  Mo  Mo18  1  0.93426134  0.12165034  0.64709350  1
  Mo  Mo19  1  0.06573866  0.87834966  0.35290650  1
  Mo  Mo20  1  0.29544577  0.00000000  0.75000000  1
  Mo  Mo21  1  0.70455423  1.00000000  0.25000000  1
  O  O22  1  0.48762020  0.61295204  0.78169322  1
  O  O23  1  0.51237980  0.38704796  0.21830678  1
  O  O24  1  0.87466816  0.38704796  0.71830678  1
  O  O25  1  0.12533184  0.61295204  0.28169322  1
  O  O26  1  0.64354934  0.71314919  0.50471775  1
  O  O27  1  0.35645066  0.28685081  0.49528225  1
  O  O28  1  0.93040015  0.28685081  0.99528225  1
  O  O29  1  0.06959985  0.71314919  0.00471775  1
  O  O30  1  0.31581346  0.37599467  0.83481121  1
  O  O31  1  0.68418654  0.62400533  0.16518879  1
  O  O32  1  0.93981879  0.62400533  0.66518879  1
  O  O33  1  0.06018121  0.37599467  0.33481121  1
  O  O34  1  0.93491775  0.95927174  0.60166594  1
  O  O35  1  0.06508225  0.04072826  0.39833406  1
  O  O36  1  0.97564601  0.04072826  0.89833406  1
  O  O37  1  0.02435399  0.95927174  0.10166594  1
  O  O38  1  0.79781614  0.79334958  0.71636867  1
  O  O39  1  0.20218386  0.20665042  0.28363133  1
  O  O40  1  0.00446656  0.20665042  0.78363133  1
  O  O41  1  0.99553344  0.79334958  0.21636867  1
  O  O42  1  0.57559825  0.38168809  0.73866982  1
  O  O43  1  0.42440175  0.61831191  0.26133018  1
  O  O44  1  0.19391016  0.61831191  0.76133018  1
  O  O45  1  0.80608984  0.38168809  0.23866982  1
  O  O46  1  0.66677698  0.49647368  0.52970580  1
  O  O47  1  0.33322302  0.50352632  0.47029420  1
  O  O48  1  0.17030330  0.50352632  0.97029420  1
  O  O49  1  0.82969670  0.49647368  0.02970580  1
  O  O50  1  0.82992668  0.77633549  0.91738282  1
  O  O51  1  0.17007332  0.22366451  0.08261718  1
  O  O52  1  0.05359119  0.22366451  0.58261718  1
  O  O53  1  0.94640881  0.77633549  0.41738282  1
  O  O54  1  0.61260716  0.57269665  0.95248790  1
  O  O55  1  0.38739284  0.42730335  0.04751210  1
  O  O56  1  0.03991052  0.42730335  0.54751210  1
  O  O57  1  0.96008948  0.57269665  0.45248790  1
  O  O58  1  0.37548779  0.76569332  0.95685921  1
  O  O59  1  0.62451221  0.23430668  0.04314079  1
  O  O60  1  0.60979447  0.23430668  0.54314079  1
  O  O61  1  0.39020553  0.76569332  0.45685921  1
  O  O62  1  0.25907942  0.12839797  0.84314303  1
  O  O63  1  0.74092058  0.87160203  0.15685697  1
  O  O64  1  0.13068145  0.87160203  0.65685697  1
  O  O65  1  0.86931855  0.12839797  0.34314303  1
  O  O66  1  0.43896279  0.07815167  0.68005990  1
  O  O67  1  0.56103721  0.92184833  0.31994010  1
  O  O68  1  0.36081112  0.92184833  0.81994010  1
  O  O69  1  0.63918888  0.07815167  0.18005990  1
  O  O70  1  0.64337826  0.90694578  0.87519119  1
  O  O71  1  0.35662174  0.09305422  0.12480881  1
  O  O72  1  0.73643249  0.09305422  0.62480881  1
  O  O73  1  0.26356751  0.90694578  0.37519119  1
  O  O74  1  0.44886650  0.75203838  0.66059119  1
  O  O75  1  0.55113350  0.24796162  0.33940881  1
  O  O76  1  0.69682811  0.24796162  0.83940881  1
  O  O77  1  0.30317189  0.75203838  0.16059119  1
