# generated using pymatgen
data_Ho2(Ga3Rh)3
_symmetry_space_group_name_H-M   'P 1'
_cell_length_a   7.56737455
_cell_length_b   7.56737455
_cell_length_c   9.52741567
_cell_angle_alpha   90.00000000
_cell_angle_beta   90.00000000
_cell_angle_gamma   119.85412322
_symmetry_Int_Tables_number   1
_chemical_formula_structural   Ho2(Ga3Rh)3
_chemical_formula_sum   'Ho4 Ga18 Rh6'
_cell_volume   473.18690984
_cell_formula_units_Z   2
loop_
 _symmetry_equiv_pos_site_id
 _symmetry_equiv_pos_as_xyz
  1  'x, y, z'
loop_
 _atom_site_type_symbol
 _atom_site_label
 _atom_site_symmetry_multiplicity
 _atom_site_fract_x
 _atom_site_fract_y
 _atom_site_fract_z
 _atom_site_occupancy
  Ho  Ho0  1  0.66759309  0.99684914  0.25000000  1
  Ho  Ho1  1  0.33240691  0.00315086  0.75000000  1
  Ho  Ho2  1  0.99684914  0.66759309  0.25000000  1
  Ho  Ho3  1  0.00315086  0.33240691  0.75000000  1
  Ga  Ga4  1  0.12475096  0.12475096  0.25000000  1
  Ga  Ga5  1  0.87524904  0.87524904  0.75000000  1
  Ga  Ga6  1  0.33393611  0.00005491  0.07875215  1
  Ga  Ga7  1  0.66606389  0.99994509  0.92124785  1
  Ga  Ga8  1  0.66606389  0.99994509  0.57875215  1
  Ga  Ga9  1  0.00005491  0.33393611  0.42124785  1
  Ga  Ga10  1  0.33393611  0.00005491  0.42124785  1
  Ga  Ga11  1  0.99994509  0.66606389  0.57875215  1
  Ga  Ga12  1  0.99994509  0.66606389  0.92124785  1
  Ga  Ga13  1  0.00005491  0.33393611  0.07875215  1
  Ga  Ga14  1  0.33334600  0.33334600  0.56311055  1
  Ga  Ga15  1  0.66665400  0.66665400  0.43688945  1
  Ga  Ga16  1  0.66665400  0.66665400  0.06311055  1
  Ga  Ga17  1  0.33334600  0.33334600  0.93688945  1
  Ga  Ga18  1  0.54725740  0.33796205  0.25000000  1
  Ga  Ga19  1  0.45274260  0.66203795  0.75000000  1
  Ga  Ga20  1  0.33796205  0.54725740  0.25000000  1
  Ga  Ga21  1  0.66203795  0.45274260  0.75000000  1
  Rh  Rh22  1  0.32834602  0.67165398  -0.00000000  1
  Rh  Rh23  1  0.67165398  0.32834602  -0.00000000  1
  Rh  Rh24  1  0.67165398  0.32834602  0.50000000  1
  Rh  Rh25  1  0.32834602  0.67165398  0.50000000  1
  Rh  Rh26  1  -0.00000000  -0.00000000  -0.00000000  1
  Rh  Rh27  1  -0.00000000  -0.00000000  0.50000000  1
