# generated using pymatgen
data_GdTiClO3
_symmetry_space_group_name_H-M   'P 1'
_cell_length_a   3.94500498
_cell_length_b   5.28953039
_cell_length_c   10.07670311
_cell_angle_alpha   75.05686275
_cell_angle_beta   78.71153058
_cell_angle_gamma   68.10499330
_symmetry_Int_Tables_number   1
_chemical_formula_structural   GdTiClO3
_chemical_formula_sum   'Gd2 Ti2 Cl2 O6'
_cell_volume   187.34074849
_cell_formula_units_Z   2
loop_
 _symmetry_equiv_pos_site_id
 _symmetry_equiv_pos_as_xyz
  1  'x, y, z'
loop_
 _atom_site_type_symbol
 _atom_site_label
 _atom_site_symmetry_multiplicity
 _atom_site_fract_x
 _atom_site_fract_y
 _atom_site_fract_z
 _atom_site_occupancy
  Gd  Gd0  1  0.28010253  0.23391446  0.20588048  1
  Gd  Gd1  1  0.71989747  0.76608554  0.79411952  1
  Ti  Ti2  1  0.88000681  0.80624196  0.43374442  1
  Ti  Ti3  1  0.11999319  0.19375804  0.56625558  1
  Cl  Cl4  1  0.61328990  0.67745700  0.09596320  1
  Cl  Cl5  1  0.38671010  0.32254300  0.90403680  1
  O  O6  1  0.84979460  0.04201370  0.25839709  1
  O  O7  1  0.15020540  0.95798630  0.74160291  1
  O  O8  1  0.66738760  0.10420381  0.56102098  1
  O  O9  1  0.33261240  0.89579619  0.43897902  1
  O  O10  1  0.92249103  0.53289362  0.62212431  1
  O  O11  1  0.07750897  0.46710638  0.37787569  1
