# generated using pymatgen
data_Hf2Cr4Si5
_symmetry_space_group_name_H-M   'P 1'
_cell_length_a   4.92975197
_cell_length_b   7.56093791
_cell_length_c   9.20521825
_cell_angle_alpha   114.24803266
_cell_angle_beta   105.53158053
_cell_angle_gamma   90.00000000
_symmetry_Int_Tables_number   1
_chemical_formula_structural   Hf2Cr4Si5
_chemical_formula_sum   'Hf4 Cr8 Si10'
_cell_volume   299.04557831
_cell_formula_units_Z   2
loop_
 _symmetry_equiv_pos_site_id
 _symmetry_equiv_pos_as_xyz
  1  'x, y, z'
loop_
 _atom_site_type_symbol
 _atom_site_label
 _atom_site_symmetry_multiplicity
 _atom_site_fract_x
 _atom_site_fract_y
 _atom_site_fract_z
 _atom_site_occupancy
  Hf  Hf0  1  0.35851033  0.73778553  0.71702067  1
  Hf  Hf1  1  0.64148967  0.26221447  0.28297933  1
  Hf  Hf2  1  0.85851033  0.97923513  0.71702067  1
  Hf  Hf3  1  0.14148967  0.02076487  0.28297933  1
  Cr  Cr4  1  0.55818936  0.30818936  0.61637873  1
  Cr  Cr5  1  0.44181064  0.69181064  0.38362127  1
  Cr  Cr6  1  0.94181064  0.69181064  0.38362127  1
  Cr  Cr7  1  0.05818936  0.30818936  0.61637873  1
  Cr  Cr8  1  0.06228678  0.31410427  0.12457356  1
  Cr  Cr9  1  0.93771322  0.68589573  0.87542644  1
  Cr  Cr10  1  0.56228678  0.81046929  0.12457356  1
  Cr  Cr11  1  0.43771322  0.18953071  0.87542644  1
  Si  Si12  1  0.21110848  0.41943856  0.42221697  1
  Si  Si13  1  0.78889152  0.58056144  0.57778303  1
  Si  Si14  1  0.71110848  0.00277841  0.42221697  1
  Si  Si15  1  0.28889152  0.99722159  0.57778303  1
  Si  Si16  1  0.25000000  -0.00000000  -0.00000000  1
  Si  Si17  1  0.75000000  -0.00000000  -0.00000000  1
  Si  Si18  1  0.43580397  0.50954303  0.87160795  1
  Si  Si19  1  0.56419603  0.49045697  0.12839205  1
  Si  Si20  1  0.93580397  0.36206492  0.87160795  1
  Si  Si21  1  0.06419603  0.63793508  0.12839205  1
