# generated using pymatgen
data_NaV5O8
_symmetry_space_group_name_H-M   'P 1'
_cell_length_a   3.00101510
_cell_length_b   5.55829075
_cell_length_c   10.61507174
_cell_angle_alpha   76.98511475
_cell_angle_beta   91.03691734
_cell_angle_gamma   106.18029636
_symmetry_Int_Tables_number   1
_chemical_formula_structural   NaV5O8
_chemical_formula_sum   'Na1 V5 O8'
_cell_volume   165.49408828
_cell_formula_units_Z   1
loop_
 _symmetry_equiv_pos_site_id
 _symmetry_equiv_pos_as_xyz
  1  'x, y, z'
loop_
 _atom_site_type_symbol
 _atom_site_label
 _atom_site_symmetry_multiplicity
 _atom_site_fract_x
 _atom_site_fract_y
 _atom_site_fract_z
 _atom_site_occupancy
  Na  Na0  1  0.48874872  0.99652301  0.75042359  1
  V  V1  1  0.72053129  0.47176304  0.87736452  1
  V  V2  1  0.73278135  0.46651565  0.38156047  1
  V  V3  1  0.49422284  0.99686456  0.25004571  1
  V  V4  1  0.26878986  0.52404338  0.62238768  1
  V  V5  1  0.25771333  0.52520019  0.11717112  1
  O  O6  1  0.83719025  0.70765282  0.68613228  1
  O  O7  1  0.67461162  0.32050092  0.56652535  1
  O  O8  1  0.85952638  0.73710813  0.20034617  1
  O  O9  1  0.64129624  0.30105287  0.08081447  1
  O  O10  1  0.32614433  0.67579043  0.93424916  1
  O  O11  1  0.34852551  0.68876959  0.42352948  1
  O  O12  1  0.13200675  0.29523162  0.80268371  1
  O  O13  1  0.13002753  0.25626577  0.30221129  1
