# generated using pymatgen
data_Dy3CrS6
_symmetry_space_group_name_H-M   'P 1'
_cell_length_a   3.78190303
_cell_length_b   13.27130095
_cell_length_c   15.97520957
_cell_angle_alpha   90.00000000
_cell_angle_beta   90.00000000
_cell_angle_gamma   90.00000000
_symmetry_Int_Tables_number   1
_chemical_formula_structural   Dy3CrS6
_chemical_formula_sum   'Dy12 Cr4 S24'
_cell_volume   801.80812155
_cell_formula_units_Z   4
loop_
 _symmetry_equiv_pos_site_id
 _symmetry_equiv_pos_as_xyz
  1  'x, y, z'
loop_
 _atom_site_type_symbol
 _atom_site_label
 _atom_site_symmetry_multiplicity
 _atom_site_fract_x
 _atom_site_fract_y
 _atom_site_fract_z
 _atom_site_occupancy
  Dy  Dy0  1  -0.00000000  0.55002919  0.28059062  1
  Dy  Dy1  1  -0.00000000  0.44997081  0.71940938  1
  Dy  Dy2  1  0.50000000  0.94997081  0.78059062  1
  Dy  Dy3  1  0.50000000  0.05002919  0.21940938  1
  Dy  Dy4  1  -0.00000000  0.75443035  0.09745873  1
  Dy  Dy5  1  -0.00000000  0.24556965  0.90254127  1
  Dy  Dy6  1  0.50000000  0.74556965  0.59745873  1
  Dy  Dy7  1  0.50000000  0.25443035  0.40254127  1
  Dy  Dy8  1  -0.00000000  0.31960709  0.14842224  1
  Dy  Dy9  1  -0.00000000  0.68039291  0.85157776  1
  Dy  Dy10  1  0.50000000  0.18039291  0.64842224  1
  Dy  Dy11  1  0.50000000  0.81960709  0.35157776  1
  Cr  Cr12  1  0.00000000  -0.00000000  0.50000000  1
  Cr  Cr13  1  0.50000000  0.50000000  0.00000000  1
  Cr  Cr14  1  0.00000000  -0.00000000  0.00000000  1
  Cr  Cr15  1  0.50000000  0.50000000  0.50000000  1
  S  S16  1  -0.00000000  0.12076544  0.10743618  1
  S  S17  1  -0.00000000  0.87923456  0.89256382  1
  S  S18  1  0.50000000  0.37923456  0.60743618  1
  S  S19  1  0.50000000  0.62076544  0.39256382  1
  S  S20  1  0.00000000  0.18748630  0.28943723  1
  S  S21  1  -0.00000000  0.81251370  0.71056277  1
  S  S22  1  0.50000000  0.31251370  0.78943723  1
  S  S23  1  0.50000000  0.68748630  0.21056277  1
  S  S24  1  -0.00000000  0.17993141  0.52140312  1
  S  S25  1  0.00000000  0.82006859  0.47859688  1
  S  S26  1  0.50000000  0.32006859  0.02140312  1
  S  S27  1  0.50000000  0.67993141  0.97859688  1
  S  S28  1  0.00000000  0.52388930  0.09716927  1
  S  S29  1  -0.00000000  0.47611070  0.90283073  1
  S  S30  1  0.50000000  0.97611070  0.59716927  1
  S  S31  1  0.50000000  0.02388930  0.40283073  1
  S  S32  1  0.00000000  0.10361135  0.75453569  1
  S  S33  1  0.00000000  0.89638865  0.24546431  1
  S  S34  1  0.50000000  0.39638865  0.25453569  1
  S  S35  1  0.50000000  0.60361135  0.74546431  1
  S  S36  1  -0.00000000  0.41731958  0.42536590  1
  S  S37  1  0.00000000  0.58268042  0.57463410  1
  S  S38  1  0.50000000  0.08268042  0.92536590  1
  S  S39  1  0.50000000  0.91731958  0.07463410  1
