# generated using pymatgen
data_GdIn2Cl5
_symmetry_space_group_name_H-M   'P 1'
_cell_length_a   8.18158692
_cell_length_b   8.55555520
_cell_length_c   13.01152401
_cell_angle_alpha   90.00000000
_cell_angle_beta   90.00000000
_cell_angle_gamma   90.00000000
_symmetry_Int_Tables_number   1
_chemical_formula_structural   GdIn2Cl5
_chemical_formula_sum   'Gd4 In8 Cl20'
_cell_volume   910.78089859
_cell_formula_units_Z   4
loop_
 _symmetry_equiv_pos_site_id
 _symmetry_equiv_pos_as_xyz
  1  'x, y, z'
loop_
 _atom_site_type_symbol
 _atom_site_label
 _atom_site_symmetry_multiplicity
 _atom_site_fract_x
 _atom_site_fract_y
 _atom_site_fract_z
 _atom_site_occupancy
  Gd  Gd0  1  0.57202494  0.75000000  0.99652630  1
  Gd  Gd1  1  0.42797506  0.25000000  0.00347370  1
  Gd  Gd2  1  0.07202494  0.25000000  0.50347370  1
  Gd  Gd3  1  0.92797506  0.75000000  0.49652630  1
  In  In4  1  0.54974601  0.49497538  0.67240258  1
  In  In5  1  0.45025399  0.50502462  0.32759742  1
  In  In6  1  0.04974601  0.50502462  0.82759742  1
  In  In7  1  0.45025399  0.99497538  0.32759742  1
  In  In8  1  0.95025399  0.49497538  0.17240258  1
  In  In9  1  0.54974601  0.00502462  0.67240258  1
  In  In10  1  0.95025399  0.00502462  0.17240258  1
  In  In11  1  0.04974601  0.99497538  0.82759742  1
  Cl  Cl12  1  0.38749616  0.75000000  0.82482737  1
  Cl  Cl13  1  0.61250384  0.25000000  0.17517263  1
  Cl  Cl14  1  0.88749616  0.25000000  0.67517263  1
  Cl  Cl15  1  0.11250384  0.75000000  0.32482737  1
  Cl  Cl16  1  0.65996618  0.45747184  0.92640199  1
  Cl  Cl17  1  0.34003382  0.54252816  0.07359801  1
  Cl  Cl18  1  0.15996618  0.54252816  0.57359801  1
  Cl  Cl19  1  0.34003382  0.95747184  0.07359801  1
  Cl  Cl20  1  0.84003382  0.45747184  0.42640199  1
  Cl  Cl21  1  0.65996618  0.04252816  0.92640199  1
  Cl  Cl22  1  0.84003382  0.04252816  0.42640199  1
  Cl  Cl23  1  0.15996618  0.95747184  0.57359801  1
  Cl  Cl24  1  0.90905349  0.75000000  0.99078506  1
  Cl  Cl25  1  0.09094651  0.25000000  0.00921494  1
  Cl  Cl26  1  0.40905349  0.25000000  0.50921494  1
  Cl  Cl27  1  0.59094651  0.75000000  0.49078506  1
  Cl  Cl28  1  0.84286198  0.75000000  0.69738373  1
  Cl  Cl29  1  0.15713802  0.25000000  0.30261627  1
  Cl  Cl30  1  0.34286198  0.25000000  0.80261627  1
  Cl  Cl31  1  0.65713802  0.75000000  0.19738373  1
