# generated using pymatgen
data_Hf2InCu2
_symmetry_space_group_name_H-M   'P 1'
_cell_length_a   6.89251757
_cell_length_b   7.16650599
_cell_length_c   7.16650599
_cell_angle_alpha   90.00000000
_cell_angle_beta   90.00000000
_cell_angle_gamma   90.00000000
_symmetry_Int_Tables_number   1
_chemical_formula_structural   Hf2InCu2
_chemical_formula_sum   'Hf8 In4 Cu8'
_cell_volume   353.99148724
_cell_formula_units_Z   4
loop_
 _symmetry_equiv_pos_site_id
 _symmetry_equiv_pos_as_xyz
  1  'x, y, z'
loop_
 _atom_site_type_symbol
 _atom_site_label
 _atom_site_symmetry_multiplicity
 _atom_site_fract_x
 _atom_site_fract_y
 _atom_site_fract_z
 _atom_site_occupancy
  Hf  Hf0  1  0.00000000  0.15664735  0.15664735  1
  Hf  Hf1  1  0.00000000  0.84335265  0.84335265  1
  Hf  Hf2  1  0.50000000  0.34335265  0.65664735  1
  Hf  Hf3  1  0.50000000  0.65664735  0.34335265  1
  Hf  Hf4  1  0.00000000  0.31430860  0.68569140  1
  Hf  Hf5  1  0.00000000  0.68569140  0.31430860  1
  Hf  Hf6  1  0.50000000  0.81430860  0.81430860  1
  Hf  Hf7  1  0.50000000  0.18569140  0.18569140  1
  In  In8  1  0.25000000  -0.00000000  0.50000000  1
  In  In9  1  0.75000000  0.00000000  0.50000000  1
  In  In10  1  0.25000000  0.50000000  0.00000000  1
  In  In11  1  0.75000000  0.50000000  0.00000000  1
  Cu  Cu12  1  0.21971501  0.37625490  0.37625490  1
  Cu  Cu13  1  0.78028499  0.62374510  0.62374510  1
  Cu  Cu14  1  0.21971501  0.62374510  0.62374510  1
  Cu  Cu15  1  0.71971501  0.12374510  0.87625490  1
  Cu  Cu16  1  0.28028499  0.12374510  0.87625490  1
  Cu  Cu17  1  0.78028499  0.37625490  0.37625490  1
  Cu  Cu18  1  0.28028499  0.87625490  0.12374510  1
  Cu  Cu19  1  0.71971501  0.87625490  0.12374510  1
