# generated using pymatgen
data_Er4MgCo
_symmetry_space_group_name_H-M   'P 1'
_cell_length_a   9.45721206
_cell_length_b   9.45721206
_cell_length_c   9.45721206
_cell_angle_alpha   60.00000000
_cell_angle_beta   60.00000000
_cell_angle_gamma   60.00000000
_symmetry_Int_Tables_number   1
_chemical_formula_structural   Er4MgCo
_chemical_formula_sum   'Er16 Mg4 Co4'
_cell_volume   598.10080168
_cell_formula_units_Z   4
loop_
 _symmetry_equiv_pos_site_id
 _symmetry_equiv_pos_as_xyz
  1  'x, y, z'
loop_
 _atom_site_type_symbol
 _atom_site_label
 _atom_site_symmetry_multiplicity
 _atom_site_fract_x
 _atom_site_fract_y
 _atom_site_fract_z
 _atom_site_occupancy
  Er  Er0  1  0.65554587  0.65554587  0.65554587  1
  Er  Er1  1  0.03336240  0.65554587  0.65554587  1
  Er  Er2  1  0.65554587  0.03336240  0.65554587  1
  Er  Er3  1  0.65554587  0.65554587  0.03336240  1
  Er  Er4  1  0.81304383  0.81304383  0.18695617  1
  Er  Er5  1  0.18695617  0.18695617  0.81304383  1
  Er  Er6  1  0.81304383  0.18695617  0.81304383  1
  Er  Er7  1  0.18695617  0.81304383  0.18695617  1
  Er  Er8  1  0.18695617  0.81304383  0.81304383  1
  Er  Er9  1  0.81304383  0.18695617  0.18695617  1
  Er  Er10  1  0.43763750  0.43763750  0.06236250  1
  Er  Er11  1  0.06236250  0.06236250  0.43763750  1
  Er  Er12  1  0.43763750  0.06236250  0.43763750  1
  Er  Er13  1  0.06236250  0.43763750  0.06236250  1
  Er  Er14  1  0.06236250  0.43763750  0.43763750  1
  Er  Er15  1  0.43763750  0.06236250  0.06236250  1
  Mg  Mg16  1  0.42040798  0.42040798  0.42040798  1
  Mg  Mg17  1  0.73877605  0.42040798  0.42040798  1
  Mg  Mg18  1  0.42040798  0.73877605  0.42040798  1
  Mg  Mg19  1  0.42040798  0.42040798  0.73877605  1
  Co  Co20  1  0.85962023  0.85962023  0.85962023  1
  Co  Co21  1  0.42113932  0.85962023  0.85962023  1
  Co  Co22  1  0.85962023  0.42113932  0.85962023  1
  Co  Co23  1  0.85962023  0.85962023  0.42113932  1
