# generated using pymatgen
data_Dy5SbPd2
_symmetry_space_group_name_H-M   'P 1'
_cell_length_a   7.78129572
_cell_length_b   7.78129572
_cell_length_c   8.76032374
_cell_angle_alpha   116.36714439
_cell_angle_beta   116.36714439
_cell_angle_gamma   90.00000000
_symmetry_Int_Tables_number   1
_chemical_formula_structural   Dy5SbPd2
_chemical_formula_sum   'Dy10 Sb2 Pd4'
_cell_volume   412.74845840
_cell_formula_units_Z   2
loop_
 _symmetry_equiv_pos_site_id
 _symmetry_equiv_pos_as_xyz
  1  'x, y, z'
loop_
 _atom_site_type_symbol
 _atom_site_label
 _atom_site_symmetry_multiplicity
 _atom_site_fract_x
 _atom_site_fract_y
 _atom_site_fract_z
 _atom_site_occupancy
  Dy  Dy0  1  0.00000000  -0.00000000  0.00000000  1
  Dy  Dy1  1  0.50000000  0.50000000  0.00000000  1
  Dy  Dy2  1  0.29919081  0.79919081  0.28451636  1
  Dy  Dy3  1  0.70080919  0.20080919  0.71548364  1
  Dy  Dy4  1  0.98532555  0.48532555  0.28451636  1
  Dy  Dy5  1  0.48532555  0.29919081  0.28451636  1
  Dy  Dy6  1  0.20080919  0.01467445  0.71548364  1
  Dy  Dy7  1  0.01467445  0.51467445  0.71548364  1
  Dy  Dy8  1  0.51467445  0.70080919  0.71548364  1
  Dy  Dy9  1  0.79919081  0.98532555  0.28451636  1
  Sb  Sb10  1  0.25000000  0.25000000  0.50000000  1
  Sb  Sb11  1  0.75000000  0.75000000  0.50000000  1
  Pd  Pd12  1  0.63663231  0.13663231  0.00000000  1
  Pd  Pd13  1  0.36336769  0.86336769  0.00000000  1
  Pd  Pd14  1  0.86336769  0.63663231  0.00000000  1
  Pd  Pd15  1  0.13663231  0.36336769  0.00000000  1
