# generated using pymatgen
data_SrGd2Sc2O7
_symmetry_space_group_name_H-M   'P 1'
_cell_length_a   4.04561755
_cell_length_b   4.04561755
_cell_length_c   10.57302464
_cell_angle_alpha   101.04552310
_cell_angle_beta   101.04552310
_cell_angle_gamma   89.91884870
_symmetry_Int_Tables_number   1
_chemical_formula_structural   SrGd2Sc2O7
_chemical_formula_sum   'Sr1 Gd2 Sc2 O7'
_cell_volume   166.58503611
_cell_formula_units_Z   1
loop_
 _symmetry_equiv_pos_site_id
 _symmetry_equiv_pos_as_xyz
  1  'x, y, z'
loop_
 _atom_site_type_symbol
 _atom_site_label
 _atom_site_symmetry_multiplicity
 _atom_site_fract_x
 _atom_site_fract_y
 _atom_site_fract_z
 _atom_site_occupancy
  Sr  Sr0  1  0.50000000  0.50000000  -0.00000000  1
  Gd  Gd1  1  0.68340821  0.68340821  0.36681641  1
  Gd  Gd2  1  0.31659179  0.31659179  0.63318359  1
  Sc  Sc3  1  0.89809518  0.89809518  0.79619035  1
  Sc  Sc4  1  0.10190482  0.10190482  0.20380965  1
  O  O5  1  -0.00000000  -0.00000000  -0.00000000  1
  O  O6  1  0.78884612  0.78884612  0.57769224  1
  O  O7  1  0.21115388  0.21115388  0.42230776  1
  O  O8  1  0.38701005  0.88701005  0.77402010  1
  O  O9  1  0.11298995  0.61298995  0.22597990  1
  O  O10  1  0.61298995  0.11298995  0.22597990  1
  O  O11  1  0.88701005  0.38701005  0.77402010  1
