# generated using pymatgen
data_Er2OsC2
_symmetry_space_group_name_H-M   'P 1'
_cell_length_a   5.07605730
_cell_length_b   6.41518241
_cell_length_c   9.74209669
_cell_angle_alpha   90.00000000
_cell_angle_beta   90.00000000
_cell_angle_gamma   90.00000000
_symmetry_Int_Tables_number   1
_chemical_formula_structural   Er2OsC2
_chemical_formula_sum   'Er8 Os4 C8'
_cell_volume   317.24001458
_cell_formula_units_Z   4
loop_
 _symmetry_equiv_pos_site_id
 _symmetry_equiv_pos_as_xyz
  1  'x, y, z'
loop_
 _atom_site_type_symbol
 _atom_site_label
 _atom_site_symmetry_multiplicity
 _atom_site_fract_x
 _atom_site_fract_y
 _atom_site_fract_z
 _atom_site_occupancy
  Er  Er0  1  0.75000000  0.81588834  0.94708314  1
  Er  Er1  1  0.25000000  0.18411166  0.05291686  1
  Er  Er2  1  0.25000000  0.68411166  0.44708314  1
  Er  Er3  1  0.75000000  0.31588834  0.55291686  1
  Er  Er4  1  0.75000000  0.97453081  0.27961151  1
  Er  Er5  1  0.25000000  0.02546919  0.72038849  1
  Er  Er6  1  0.25000000  0.52546919  0.77961151  1
  Er  Er7  1  0.75000000  0.47453081  0.22038849  1
  Os  Os8  1  0.75000000  0.77385312  0.63398391  1
  Os  Os9  1  0.25000000  0.22614688  0.36601609  1
  Os  Os10  1  0.25000000  0.72614688  0.13398391  1
  Os  Os11  1  0.75000000  0.27385312  0.86601609  1
  C  C12  1  0.75000000  0.03750892  0.74158934  1
  C  C13  1  0.25000000  0.96249108  0.25841066  1
  C  C14  1  0.25000000  0.46249108  0.24158934  1
  C  C15  1  0.75000000  0.53750892  0.75841066  1
  C  C16  1  0.75000000  0.67437428  0.44459146  1
  C  C17  1  0.25000000  0.32562572  0.55540854  1
  C  C18  1  0.25000000  0.82562572  0.94459146  1
  C  C19  1  0.75000000  0.17437428  0.05540854  1
