# generated using pymatgen
data_Dy5(SiSb)2
_symmetry_space_group_name_H-M   'P 1'
_cell_length_a   7.81017485
_cell_length_b   7.83837234
_cell_length_c   8.54006727
_cell_angle_alpha   90.00000000
_cell_angle_beta   117.21086181
_cell_angle_gamma   90.00000000
_symmetry_Int_Tables_number   1
_chemical_formula_structural   Dy5(SiSb)2
_chemical_formula_sum   'Dy10 Si4 Sb4'
_cell_volume   464.95480018
_cell_formula_units_Z   2
loop_
 _symmetry_equiv_pos_site_id
 _symmetry_equiv_pos_as_xyz
  1  'x, y, z'
loop_
 _atom_site_type_symbol
 _atom_site_label
 _atom_site_symmetry_multiplicity
 _atom_site_fract_x
 _atom_site_fract_y
 _atom_site_fract_z
 _atom_site_occupancy
  Dy  Dy0  1  0.29282509  0.33442855  0.25260898  1
  Dy  Dy1  1  0.70717491  0.66557145  0.74739102  1
  Dy  Dy2  1  0.20717491  0.83442855  0.74739102  1
  Dy  Dy3  1  0.54021611  0.16557145  0.74739102  1
  Dy  Dy4  1  0.79282509  0.16557145  0.25260898  1
  Dy  Dy5  1  0.45978389  0.83442855  0.25260898  1
  Dy  Dy6  1  0.95978389  0.66557145  0.25260898  1
  Dy  Dy7  1  0.04021611  0.33442855  0.74739102  1
  Dy  Dy8  1  0.00000000  -0.00000000  -0.00000000  1
  Dy  Dy9  1  0.50000000  0.50000000  -0.00000000  1
  Si  Si10  1  0.36766111  0.13119798  1.00000000  1
  Si  Si11  1  0.63233889  0.86880202  0.00000000  1
  Si  Si12  1  0.13233889  0.63119798  0.00000000  1
  Si  Si13  1  0.86766111  0.36880202  1.00000000  1
  Sb  Sb14  1  0.20571201  -0.00000000  0.41142401  1
  Sb  Sb15  1  0.79428799  -0.00000000  0.58857599  1
  Sb  Sb16  1  0.29428799  0.50000000  0.58857599  1
  Sb  Sb17  1  0.70571201  0.50000000  0.41142401  1
