# generated using pymatgen
data_Dy7Co6Sn23
_symmetry_space_group_name_H-M   'P 1'
_cell_length_a   9.72301762
_cell_length_b   9.72301762
_cell_length_c   9.97078460
_cell_angle_alpha   90.00000000
_cell_angle_beta   90.00000000
_cell_angle_gamma   120.00000137
_symmetry_Int_Tables_number   1
_chemical_formula_structural   Dy7Co6Sn23
_chemical_formula_sum   'Dy7 Co6 Sn23'
_cell_volume   816.32313659
_cell_formula_units_Z   1
loop_
 _symmetry_equiv_pos_site_id
 _symmetry_equiv_pos_as_xyz
  1  'x, y, z'
loop_
 _atom_site_type_symbol
 _atom_site_label
 _atom_site_symmetry_multiplicity
 _atom_site_fract_x
 _atom_site_fract_y
 _atom_site_fract_z
 _atom_site_occupancy
  Dy  Dy0  1  0.00000000  0.00000000  -0.00000000  1
  Dy  Dy1  1  0.52103808  0.04207615  0.69416305  1
  Dy  Dy2  1  0.47896192  0.95792385  0.30583695  1
  Dy  Dy3  1  0.52103808  0.47896192  0.69416305  1
  Dy  Dy4  1  0.47896192  0.52103808  0.30583695  1
  Dy  Dy5  1  0.95792385  0.47896192  0.69416305  1
  Dy  Dy6  1  0.04207615  0.52103808  0.30583695  1
  Co  Co7  1  0.16754233  0.33508466  0.80221358  1
  Co  Co8  1  0.83245767  0.66491534  0.19778642  1
  Co  Co9  1  0.16754233  0.83245767  0.80221358  1
  Co  Co10  1  0.83245767  0.16754233  0.19778642  1
  Co  Co11  1  0.66491534  0.83245767  0.80221358  1
  Co  Co12  1  0.33508466  0.16754233  0.19778642  1
  Sn  Sn13  1  0.65389011  0.65389011  0.00000000  1
  Sn  Sn14  1  0.34610989  0.34610989  -0.00000000  1
  Sn  Sn15  1  1.00000000  0.34610989  0.00000000  1
  Sn  Sn16  1  0.00000000  0.65389011  0.00000000  1
  Sn  Sn17  1  0.34610989  1.00000000  0.00000000  1
  Sn  Sn18  1  0.65389011  0.00000000  -0.00000000  1
  Sn  Sn19  1  0.66666700  0.33333300  0.18188151  1
  Sn  Sn20  1  0.33333300  0.66666700  0.81811849  1
  Sn  Sn21  1  0.00000000  0.00000000  0.50000000  1
  Sn  Sn22  1  0.21896390  0.43792780  0.54703310  1
  Sn  Sn23  1  0.78103610  0.56207220  0.45296690  1
  Sn  Sn24  1  0.21896390  0.78103610  0.54703310  1
  Sn  Sn25  1  0.78103610  0.21896390  0.45296690  1
  Sn  Sn26  1  0.56207220  0.78103610  0.54703310  1
  Sn  Sn27  1  0.43792780  0.21896390  0.45296690  1
  Sn  Sn28  1  0.66666700  0.33333300  0.88331719  1
  Sn  Sn29  1  0.33333300  0.66666700  0.11668281  1
  Sn  Sn30  1  0.88208816  0.76417632  0.72472664  1
  Sn  Sn31  1  0.11791184  0.23582368  0.27527336  1
  Sn  Sn32  1  0.88208816  0.11791184  0.72472664  1
  Sn  Sn33  1  0.11791184  0.88208816  0.27527336  1
  Sn  Sn34  1  0.23582368  0.11791184  0.72472664  1
  Sn  Sn35  1  0.76417632  0.88208816  0.27527336  1
