# generated using pymatgen
data_Dy(Al5Re)2
_symmetry_space_group_name_H-M   'P 1'
_cell_length_a   6.97056286
_cell_length_b   6.97056286
_cell_length_c   18.04053579
_cell_angle_alpha   90.00000000
_cell_angle_beta   90.00000000
_cell_angle_gamma   96.14851911
_symmetry_Int_Tables_number   1
_chemical_formula_structural   Dy(Al5Re)2
_chemical_formula_sum   'Dy4 Al40 Re8'
_cell_volume   871.52465984
_cell_formula_units_Z   4
loop_
 _symmetry_equiv_pos_site_id
 _symmetry_equiv_pos_as_xyz
  1  'x, y, z'
loop_
 _atom_site_type_symbol
 _atom_site_label
 _atom_site_symmetry_multiplicity
 _atom_site_fract_x
 _atom_site_fract_y
 _atom_site_fract_z
 _atom_site_occupancy
  Dy  Dy0  1  0.25756083  0.74243917  0.75000000  1
  Dy  Dy1  1  0.74243917  0.25756083  0.25000000  1
  Dy  Dy2  1  0.00000000  0.00000000  0.00000000  1
  Dy  Dy3  1  0.00000000  0.00000000  0.50000000  1
  Al  Al4  1  0.64901691  0.64901691  0.00000000  1
  Al  Al5  1  0.35098309  0.35098309  0.00000000  1
  Al  Al6  1  0.35098309  0.35098309  0.50000000  1
  Al  Al7  1  0.64901691  0.64901691  0.50000000  1
  Al  Al8  1  0.34843967  0.09204149  0.86864834  1
  Al  Al9  1  0.65156033  0.90795851  0.13135166  1
  Al  Al10  1  0.65156033  0.90795851  0.36864834  1
  Al  Al11  1  0.90795851  0.65156033  0.63135166  1
  Al  Al12  1  0.34843967  0.09204149  0.63135166  1
  Al  Al13  1  0.09204149  0.34843967  0.36864834  1
  Al  Al14  1  0.09204149  0.34843967  0.13135166  1
  Al  Al15  1  0.90795851  0.65156033  0.86864834  1
  Al  Al16  1  0.61387907  0.08875442  0.75000000  1
  Al  Al17  1  0.38612093  0.91124558  0.25000000  1
  Al  Al18  1  0.91124558  0.38612093  0.75000000  1
  Al  Al19  1  0.08875442  0.61387907  0.25000000  1
  Al  Al20  1  0.71852059  0.28147941  0.42535259  1
  Al  Al21  1  0.28147941  0.71852059  0.57464741  1
  Al  Al22  1  0.28147941  0.71852059  0.92535259  1
  Al  Al23  1  0.71852059  0.28147941  0.07464741  1
  Al  Al24  1  0.96732112  0.03267888  0.82581199  1
  Al  Al25  1  0.03267888  0.96732112  0.17418801  1
  Al  Al26  1  0.03267888  0.96732112  0.32581199  1
  Al  Al27  1  0.96732112  0.03267888  0.67418801  1
  Al  Al28  1  0.50000000  0.00000000  0.00000000  1
  Al  Al29  1  0.50000000  0.00000000  0.50000000  1
  Al  Al30  1  0.00000000  0.50000000  0.50000000  1
  Al  Al31  1  0.00000000  0.50000000  0.00000000  1
  Al  Al32  1  0.75202319  0.24797681  0.90729168  1
  Al  Al33  1  0.24797681  0.75202319  0.09270832  1
  Al  Al34  1  0.24797681  0.75202319  0.40729168  1
  Al  Al35  1  0.75202319  0.24797681  0.59270832  1
  Al  Al36  1  0.70184271  0.72788616  0.75000000  1
  Al  Al37  1  0.29815729  0.27211384  0.25000000  1
  Al  Al38  1  0.27211384  0.29815729  0.75000000  1
  Al  Al39  1  0.72788616  0.70184271  0.25000000  1
  Al  Al40  1  0.50560153  0.49439847  0.85717348  1
  Al  Al41  1  0.49439847  0.50560153  0.14282652  1
  Al  Al42  1  0.49439847  0.50560153  0.35717348  1
  Al  Al43  1  0.50560153  0.49439847  0.64282652  1
  Re  Re44  1  0.62633140  0.86977169  0.87924572  1
  Re  Re45  1  0.37366860  0.13022831  0.12075428  1
  Re  Re46  1  0.37366860  0.13022831  0.37924572  1
  Re  Re47  1  0.13022831  0.37366860  0.62075428  1
  Re  Re48  1  0.62633140  0.86977169  0.62075428  1
  Re  Re49  1  0.86977169  0.62633140  0.37924572  1
  Re  Re50  1  0.86977169  0.62633140  0.12075428  1
  Re  Re51  1  0.13022831  0.37366860  0.87924572  1
