# generated using pymatgen
data_Eu2Sn
_symmetry_space_group_name_H-M   'P 1'
_cell_length_a   5.41621968
_cell_length_b   7.42528265
_cell_length_c   10.11408883
_cell_angle_alpha   90.00000000
_cell_angle_beta   90.00000000
_cell_angle_gamma   90.00000000
_symmetry_Int_Tables_number   1
_chemical_formula_structural   Eu2Sn
_chemical_formula_sum   'Eu8 Sn4'
_cell_volume   406.75792633
_cell_formula_units_Z   4
loop_
 _symmetry_equiv_pos_site_id
 _symmetry_equiv_pos_as_xyz
  1  'x, y, z'
loop_
 _atom_site_type_symbol
 _atom_site_label
 _atom_site_symmetry_multiplicity
 _atom_site_fract_x
 _atom_site_fract_y
 _atom_site_fract_z
 _atom_site_occupancy
  Eu  Eu0  1  0.75000000  0.81467909  0.92825847  1
  Eu  Eu1  1  0.25000000  0.18532091  0.07174153  1
  Eu  Eu2  1  0.25000000  0.68532091  0.42825847  1
  Eu  Eu3  1  0.75000000  0.31467909  0.57174153  1
  Eu  Eu4  1  0.75000000  0.97116859  0.29597739  1
  Eu  Eu5  1  0.25000000  0.02883141  0.70402261  1
  Eu  Eu6  1  0.25000000  0.52883141  0.79597739  1
  Eu  Eu7  1  0.75000000  0.47116859  0.20402261  1
  Sn  Sn8  1  0.75000000  0.77340604  0.60390961  1
  Sn  Sn9  1  0.25000000  0.22659396  0.39609039  1
  Sn  Sn10  1  0.25000000  0.72659396  0.10390961  1
  Sn  Sn11  1  0.75000000  0.27340604  0.89609039  1
