# generated using pymatgen
data_ErAlGeO5
_symmetry_space_group_name_H-M   'P 1'
_cell_length_a   5.65233953
_cell_length_b   7.28069256
_cell_length_c   8.38339363
_cell_angle_alpha   90.00000000
_cell_angle_beta   90.00000000
_cell_angle_gamma   90.00000000
_symmetry_Int_Tables_number   1
_chemical_formula_structural   ErAlGeO5
_chemical_formula_sum   'Er4 Al4 Ge4 O20'
_cell_volume   345.00134839
_cell_formula_units_Z   4
loop_
 _symmetry_equiv_pos_site_id
 _symmetry_equiv_pos_as_xyz
  1  'x, y, z'
loop_
 _atom_site_type_symbol
 _atom_site_label
 _atom_site_symmetry_multiplicity
 _atom_site_fract_x
 _atom_site_fract_y
 _atom_site_fract_z
 _atom_site_occupancy
  Er  Er0  1  0.50000000  0.35721709  0.32629703  1
  Er  Er1  1  0.50000000  0.64278291  0.67370297  1
  Er  Er2  1  0.50000000  0.14278291  0.82629703  1
  Er  Er3  1  0.50000000  0.85721709  0.17370297  1
  Al  Al4  1  0.25174751  -0.00000000  0.50000000  1
  Al  Al5  1  0.74825249  -0.00000000  0.50000000  1
  Al  Al6  1  0.74825249  0.50000000  0.00000000  1
  Al  Al7  1  0.25174751  0.50000000  -0.00000000  1
  Ge  Ge8  1  0.00000000  0.12054770  0.14458667  1
  Ge  Ge9  1  0.00000000  0.87945230  0.85541333  1
  Ge  Ge10  1  0.00000000  0.37945230  0.64458667  1
  Ge  Ge11  1  -0.00000000  0.62054770  0.35541333  1
  O  O12  1  0.24906008  0.10702265  0.28739180  1
  O  O13  1  0.75093992  0.89297735  0.71260820  1
  O  O14  1  0.24906008  0.89297735  0.71260820  1
  O  O15  1  0.75093992  0.39297735  0.78739180  1
  O  O16  1  0.75093992  0.10702265  0.28739180  1
  O  O17  1  0.24906008  0.60702265  0.21260820  1
  O  O18  1  0.75093992  0.60702265  0.21260820  1
  O  O19  1  0.24906008  0.39297735  0.78739180  1
  O  O20  1  0.50000000  0.33777497  0.05491384  1
  O  O21  1  0.50000000  0.66222503  0.94508616  1
  O  O22  1  0.50000000  0.16222503  0.55491384  1
  O  O23  1  0.50000000  0.83777497  0.44508616  1
  O  O24  1  0.21671792  -0.00000000  0.00000000  1
  O  O25  1  0.78328208  0.00000000  -0.00000000  1
  O  O26  1  0.78328208  0.50000000  0.50000000  1
  O  O27  1  0.21671792  0.50000000  0.50000000  1
  O  O28  1  -0.00000000  0.34692961  0.06805574  1
  O  O29  1  -0.00000000  0.65307039  0.93194426  1
  O  O30  1  0.00000000  0.15307039  0.56805574  1
  O  O31  1  0.00000000  0.84692961  0.43194426  1
