# generated using pymatgen
data_ErCoB4
_symmetry_space_group_name_H-M   'P 1'
_cell_length_a   3.36768815
_cell_length_b   5.88581914
_cell_length_c   11.38918440
_cell_angle_alpha   90.00000000
_cell_angle_beta   90.00000000
_cell_angle_gamma   90.00000000
_symmetry_Int_Tables_number   1
_chemical_formula_structural   ErCoB4
_chemical_formula_sum   'Er4 Co4 B16'
_cell_volume   225.75189589
_cell_formula_units_Z   4
loop_
 _symmetry_equiv_pos_site_id
 _symmetry_equiv_pos_as_xyz
  1  'x, y, z'
loop_
 _atom_site_type_symbol
 _atom_site_label
 _atom_site_symmetry_multiplicity
 _atom_site_fract_x
 _atom_site_fract_y
 _atom_site_fract_z
 _atom_site_occupancy
  Er  Er0  1  0.50000000  0.37283385  0.14981329  1
  Er  Er1  1  0.50000000  0.62716615  0.85018671  1
  Er  Er2  1  0.50000000  0.12716615  0.64981329  1
  Er  Er3  1  0.50000000  0.87283385  0.35018671  1
  Co  Co4  1  0.50000000  0.36496540  0.41045738  1
  Co  Co5  1  0.50000000  0.63503460  0.58954262  1
  Co  Co6  1  0.50000000  0.13503460  0.91045738  1
  Co  Co7  1  0.50000000  0.86496540  0.08954262  1
  B  B8  1  -0.00000000  0.11188149  0.04628728  1
  B  B9  1  -0.00000000  0.88811851  0.95371272  1
  B  B10  1  -0.00000000  0.38811851  0.54628728  1
  B  B11  1  -0.00000000  0.61188149  0.45371272  1
  B  B12  1  -0.00000000  0.13851143  0.46784818  1
  B  B13  1  -0.00000000  0.86148857  0.53215182  1
  B  B14  1  0.00000000  0.36148857  0.96784818  1
  B  B15  1  -0.00000000  0.63851143  0.03215182  1
  B  B16  1  0.00000000  0.02356584  0.19120337  1
  B  B17  1  0.00000000  0.97643416  0.80879663  1
  B  B18  1  0.00000000  0.47643416  0.69120337  1
  B  B19  1  0.00000000  0.52356584  0.30879663  1
  B  B20  1  -0.00000000  0.21771356  0.31482930  1
  B  B21  1  -0.00000000  0.78228644  0.68517070  1
  B  B22  1  -0.00000000  0.28228644  0.81482930  1
  B  B23  1  -0.00000000  0.71771356  0.18517070  1
