# generated using pymatgen
data_CsTlS2
_symmetry_space_group_name_H-M   'P 1'
_cell_length_a   8.27845012
_cell_length_b   8.27845012
_cell_length_c   16.62391020
_cell_angle_alpha   82.81006226
_cell_angle_beta   82.81006226
_cell_angle_gamma   89.98252494
_symmetry_Int_Tables_number   1
_chemical_formula_structural   CsTlS2
_chemical_formula_sum   'Cs8 Tl8 S16'
_cell_volume   1121.29892046
_cell_formula_units_Z   8
loop_
 _symmetry_equiv_pos_site_id
 _symmetry_equiv_pos_as_xyz
  1  'x, y, z'
loop_
 _atom_site_type_symbol
 _atom_site_label
 _atom_site_symmetry_multiplicity
 _atom_site_fract_x
 _atom_site_fract_y
 _atom_site_fract_z
 _atom_site_occupancy
  Cs  Cs0  1  0.34581991  0.22290169  0.61355584  1
  Cs  Cs1  1  0.65418009  0.77709831  0.38644416  1
  Cs  Cs2  1  0.77709831  0.65418009  0.88644416  1
  Cs  Cs3  1  0.22290169  0.34581991  0.11355584  1
  Cs  Cs4  1  0.77489694  0.15188344  0.89152817  1
  Cs  Cs5  1  0.22510306  0.84811656  0.10847183  1
  Cs  Cs6  1  0.84811656  0.22510306  0.60847183  1
  Cs  Cs7  1  0.15188344  0.77489694  0.39152817  1
  Tl  Tl8  1  0.29021489  0.91319304  0.83681584  1
  Tl  Tl9  1  0.70978511  0.08680696  0.16318416  1
  Tl  Tl10  1  0.08680696  0.70978511  0.66318416  1
  Tl  Tl11  1  0.91319304  0.29021489  0.33681584  1
  Tl  Tl12  1  0.58128744  0.70980945  0.66244433  1
  Tl  Tl13  1  0.41871256  0.29019055  0.33755567  1
  Tl  Tl14  1  0.29019055  0.41871256  0.83755567  1
  Tl  Tl15  1  0.70980945  0.58128744  0.16244433  1
  S  S16  1  0.56978018  0.94584162  0.74929101  1
  S  S17  1  0.43021982  0.05415838  0.25070899  1
  S  S18  1  0.05415838  0.43021982  0.75070899  1
  S  S19  1  0.94584162  0.56978018  0.24929101  1
  S  S20  1  0.35811201  0.73354920  0.56684695  1
  S  S21  1  0.64188799  0.26645080  0.43315305  1
  S  S22  1  0.26645080  0.64188799  0.93315305  1
  S  S23  1  0.73354920  0.35811201  0.06684695  1
  S  S24  1  0.56979535  0.43020465  0.75000000  1
  S  S25  1  0.43020465  0.56979535  0.25000000  1
  S  S26  1  0.26819827  0.14219263  0.93000614  1
  S  S27  1  0.73180173  0.85780737  0.06999386  1
  S  S28  1  0.85780737  0.73180173  0.56999386  1
  S  S29  1  0.14219263  0.26819827  0.43000614  1
  S  S30  1  0.05412257  0.94587743  0.75000000  1
  S  S31  1  0.94587743  0.05412257  0.25000000  1
