# generated using pymatgen
data_CsEuCl3
_symmetry_space_group_name_H-M   'P 1'
_cell_length_a   7.88129956
_cell_length_b   8.19368312
_cell_length_c   11.19117848
_cell_angle_alpha   90.00000000
_cell_angle_beta   90.00000000
_cell_angle_gamma   90.00000000
_symmetry_Int_Tables_number   1
_chemical_formula_structural   CsEuCl3
_chemical_formula_sum   'Cs4 Eu4 Cl12'
_cell_volume   722.69129093
_cell_formula_units_Z   4
loop_
 _symmetry_equiv_pos_site_id
 _symmetry_equiv_pos_as_xyz
  1  'x, y, z'
loop_
 _atom_site_type_symbol
 _atom_site_label
 _atom_site_symmetry_multiplicity
 _atom_site_fract_x
 _atom_site_fract_y
 _atom_site_fract_z
 _atom_site_occupancy
  Cs  Cs0  1  0.01750169  0.44187256  0.25000000  1
  Cs  Cs1  1  0.98249831  0.55812744  0.75000000  1
  Cs  Cs2  1  0.51750169  0.05812744  0.75000000  1
  Cs  Cs3  1  0.48249831  0.94187256  0.25000000  1
  Eu  Eu4  1  -0.00000000  0.00000000  -0.00000000  1
  Eu  Eu5  1  0.50000000  0.50000000  -0.00000000  1
  Eu  Eu6  1  -0.00000000  0.00000000  0.50000000  1
  Eu  Eu7  1  0.50000000  0.50000000  0.50000000  1
  Cl  Cl8  1  0.29475336  0.20801826  0.04115988  1
  Cl  Cl9  1  0.70524664  0.79198174  0.95884012  1
  Cl  Cl10  1  0.79475336  0.29198174  0.95884012  1
  Cl  Cl11  1  0.70524664  0.79198174  0.54115988  1
  Cl  Cl12  1  0.20524664  0.70801826  0.04115988  1
  Cl  Cl13  1  0.29475336  0.20801826  0.45884012  1
  Cl  Cl14  1  0.20524664  0.70801826  0.45884012  1
  Cl  Cl15  1  0.79475336  0.29198174  0.54115988  1
  Cl  Cl16  1  0.58057565  0.52005402  0.25000000  1
  Cl  Cl17  1  0.41942435  0.47994598  0.75000000  1
  Cl  Cl18  1  0.08057565  0.97994598  0.75000000  1
  Cl  Cl19  1  0.91942435  0.02005402  0.25000000  1
