# generated using pymatgen
data_YbFe2
_symmetry_space_group_name_H-M   'P 1'
_cell_length_a   5.07300843
_cell_length_b   5.07300843
_cell_length_c   8.27955167
_cell_angle_alpha   90.00000000
_cell_angle_beta   90.00000000
_cell_angle_gamma   120.06591906
_symmetry_Int_Tables_number   1
_chemical_formula_structural   YbFe2
_chemical_formula_sum   'Yb4 Fe8'
_cell_volume   184.40800101
_cell_formula_units_Z   4
loop_
 _symmetry_equiv_pos_site_id
 _symmetry_equiv_pos_as_xyz
  1  'x, y, z'
loop_
 _atom_site_type_symbol
 _atom_site_label
 _atom_site_symmetry_multiplicity
 _atom_site_fract_x
 _atom_site_fract_y
 _atom_site_fract_z
 _atom_site_occupancy
  Yb  Yb0  1  0.66663445  0.33336555  0.56416631  1
  Yb  Yb1  1  0.33336555  0.66663445  0.43583369  1
  Yb  Yb2  1  0.33336555  0.66663445  0.06416631  1
  Yb  Yb3  1  0.66663445  0.33336555  0.93583369  1
  Fe  Fe4  1  -0.00000000  0.00000000  0.50000000  1
  Fe  Fe5  1  -0.00000000  0.00000000  -0.00000000  1
  Fe  Fe6  1  0.16411155  0.32842834  0.75000000  1
  Fe  Fe7  1  0.16383145  0.83616855  0.75000000  1
  Fe  Fe8  1  0.67157166  0.83588845  0.75000000  1
  Fe  Fe9  1  0.83588845  0.67157166  0.25000000  1
  Fe  Fe10  1  0.83616855  0.16383145  0.25000000  1
  Fe  Fe11  1  0.32842834  0.16411155  0.25000000  1
