# generated using pymatgen
data_Gd2Sc3Ge4
_symmetry_space_group_name_H-M   'P 1'
_cell_length_a   7.28272109
_cell_length_b   7.52565739
_cell_length_c   14.17262807
_cell_angle_alpha   90.00000000
_cell_angle_beta   90.00000000
_cell_angle_gamma   90.00000000
_symmetry_Int_Tables_number   1
_chemical_formula_structural   Gd2Sc3Ge4
_chemical_formula_sum   'Gd8 Sc12 Ge16'
_cell_volume   776.76296523
_cell_formula_units_Z   4
loop_
 _symmetry_equiv_pos_site_id
 _symmetry_equiv_pos_as_xyz
  1  'x, y, z'
loop_
 _atom_site_type_symbol
 _atom_site_label
 _atom_site_symmetry_multiplicity
 _atom_site_fract_x
 _atom_site_fract_y
 _atom_site_fract_z
 _atom_site_occupancy
  Gd  Gd0  1  0.00169933  0.82365489  0.40387878  1
  Gd  Gd1  1  0.99830067  0.17634511  0.59612122  1
  Gd  Gd2  1  0.49830067  0.32365489  0.59612122  1
  Gd  Gd3  1  0.99830067  0.17634511  0.90387878  1
  Gd  Gd4  1  0.50169933  0.67634511  0.40387878  1
  Gd  Gd5  1  0.00169933  0.82365489  0.09612122  1
  Gd  Gd6  1  0.50169933  0.67634511  0.09612122  1
  Gd  Gd7  1  0.49830067  0.32365489  0.90387878  1
  Sc  Sc8  1  0.82443954  0.50014149  0.75000000  1
  Sc  Sc9  1  0.17556046  0.49985851  0.25000000  1
  Sc  Sc10  1  0.67556046  0.00014149  0.25000000  1
  Sc  Sc11  1  0.32443954  -0.00014149  0.75000000  1
  Sc  Sc12  1  0.65948074  0.83189003  0.87534285  1
  Sc  Sc13  1  0.34051926  0.16810997  0.12465715  1
  Sc  Sc14  1  0.84051926  0.33189003  0.12465715  1
  Sc  Sc15  1  0.34051926  0.16810997  0.37534285  1
  Sc  Sc16  1  0.15948074  0.66810997  0.87534285  1
  Sc  Sc17  1  0.65948074  0.83189003  0.62465715  1
  Sc  Sc18  1  0.15948074  0.66810997  0.62465715  1
  Sc  Sc19  1  0.84051926  0.33189003  0.37534285  1
  Ge  Ge20  1  0.82317753  0.54099593  0.95835351  1
  Ge  Ge21  1  0.17682247  0.45900407  0.04164649  1
  Ge  Ge22  1  0.67682247  0.04099593  0.04164649  1
  Ge  Ge23  1  0.17682247  0.45900407  0.45835351  1
  Ge  Ge24  1  0.32317753  0.95900407  0.95835351  1
  Ge  Ge25  1  0.82317753  0.54099593  0.54164649  1
  Ge  Ge26  1  0.32317753  0.95900407  0.54164649  1
  Ge  Ge27  1  0.67682247  0.04099593  0.45835351  1
  Ge  Ge28  1  0.96066158  0.87284076  0.75000000  1
  Ge  Ge29  1  0.03933842  0.12715924  0.25000000  1
  Ge  Ge30  1  0.53933842  0.37284076  0.25000000  1
  Ge  Ge31  1  0.46066158  0.62715924  0.75000000  1
  Ge  Ge32  1  0.69277616  0.13671648  0.75000000  1
  Ge  Ge33  1  0.30722384  0.86328352  0.25000000  1
  Ge  Ge34  1  0.80722384  0.63671648  0.25000000  1
  Ge  Ge35  1  0.19277616  0.36328352  0.75000000  1
