# generated using pymatgen
data_CsTb2Cl7
_symmetry_space_group_name_H-M   'P 1'
_cell_length_a   7.06236084
_cell_length_b   13.96975643
_cell_length_c   12.77271729
_cell_angle_alpha   90.00000000
_cell_angle_beta   90.00000000
_cell_angle_gamma   90.00000000
_symmetry_Int_Tables_number   1
_chemical_formula_structural   CsTb2Cl7
_chemical_formula_sum   'Cs4 Tb8 Cl28'
_cell_volume   1260.14940021
_cell_formula_units_Z   4
loop_
 _symmetry_equiv_pos_site_id
 _symmetry_equiv_pos_as_xyz
  1  'x, y, z'
loop_
 _atom_site_type_symbol
 _atom_site_label
 _atom_site_symmetry_multiplicity
 _atom_site_fract_x
 _atom_site_fract_y
 _atom_site_fract_z
 _atom_site_occupancy
  Cs  Cs0  1  0.75000000  0.95875719  0.19625590  1
  Cs  Cs1  1  0.25000000  0.04124281  0.80374410  1
  Cs  Cs2  1  0.25000000  0.54124281  0.69625590  1
  Cs  Cs3  1  0.75000000  0.45875719  0.30374410  1
  Tb  Tb4  1  0.75000000  0.76254983  0.54040354  1
  Tb  Tb5  1  0.25000000  0.23745017  0.45959646  1
  Tb  Tb6  1  0.25000000  0.73745017  0.04040354  1
  Tb  Tb7  1  0.75000000  0.26254983  0.95959646  1
  Tb  Tb8  1  0.75000000  0.75012143  0.84375437  1
  Tb  Tb9  1  0.25000000  0.24987857  0.15624563  1
  Tb  Tb10  1  0.25000000  0.74987857  0.34375437  1
  Tb  Tb11  1  0.75000000  0.25012143  0.65624563  1
  Cl  Cl12  1  0.98702781  0.82209544  0.69387175  1
  Cl  Cl13  1  0.01297219  0.17790456  0.30612825  1
  Cl  Cl14  1  0.01297219  0.67790456  0.19387175  1
  Cl  Cl15  1  0.48702781  0.17790456  0.30612825  1
  Cl  Cl16  1  0.98702781  0.32209544  0.80612825  1
  Cl  Cl17  1  0.51297219  0.82209544  0.69387175  1
  Cl  Cl18  1  0.51297219  0.32209544  0.80612825  1
  Cl  Cl19  1  0.48702781  0.67790456  0.19387175  1
  Cl  Cl20  1  0.99133321  0.87322304  0.42501026  1
  Cl  Cl21  1  0.00866679  0.12677696  0.57498974  1
  Cl  Cl22  1  0.00866679  0.62677696  0.92501026  1
  Cl  Cl23  1  0.49133321  0.12677696  0.57498974  1
  Cl  Cl24  1  0.99133321  0.37322304  0.07498974  1
  Cl  Cl25  1  0.50866679  0.87322304  0.42501026  1
  Cl  Cl26  1  0.50866679  0.37322304  0.07498974  1
  Cl  Cl27  1  0.49133321  0.62677696  0.92501026  1
  Cl  Cl28  1  0.99091839  0.86225647  0.95970649  1
  Cl  Cl29  1  0.00908161  0.13774353  0.04029351  1
  Cl  Cl30  1  0.00908161  0.63774353  0.45970649  1
  Cl  Cl31  1  0.49091839  0.13774353  0.04029351  1
  Cl  Cl32  1  0.99091839  0.36225647  0.54029351  1
  Cl  Cl33  1  0.50908161  0.86225647  0.95970649  1
  Cl  Cl34  1  0.50908161  0.36225647  0.54029351  1
  Cl  Cl35  1  0.49091839  0.63774353  0.45970649  1
  Cl  Cl36  1  0.75000000  0.61463728  0.68886122  1
  Cl  Cl37  1  0.25000000  0.38536272  0.31113878  1
  Cl  Cl38  1  0.25000000  0.88536272  0.18886122  1
  Cl  Cl39  1  0.75000000  0.11463728  0.81113878  1
