# generated using pymatgen
data_ErCu5Sn
_symmetry_space_group_name_H-M   'P 1'
_cell_length_a   4.98780489
_cell_length_b   8.18533581
_cell_length_c   10.53493899
_cell_angle_alpha   90.00000000
_cell_angle_beta   90.00000000
_cell_angle_gamma   90.00000000
_symmetry_Int_Tables_number   1
_chemical_formula_structural   ErCu5Sn
_chemical_formula_sum   'Er4 Cu20 Sn4'
_cell_volume   430.10845797
_cell_formula_units_Z   4
loop_
 _symmetry_equiv_pos_site_id
 _symmetry_equiv_pos_as_xyz
  1  'x, y, z'
loop_
 _atom_site_type_symbol
 _atom_site_label
 _atom_site_symmetry_multiplicity
 _atom_site_fract_x
 _atom_site_fract_y
 _atom_site_fract_z
 _atom_site_occupancy
  Er  Er0  1  0.75000000  0.74759285  0.43651685  1
  Er  Er1  1  0.25000000  0.25240715  0.56348315  1
  Er  Er2  1  0.25000000  0.75240715  0.93651685  1
  Er  Er3  1  0.75000000  0.24759285  0.06348315  1
  Cu  Cu4  1  0.75000000  0.68661767  0.75476757  1
  Cu  Cu5  1  0.25000000  0.31338233  0.24523243  1
  Cu  Cu6  1  0.25000000  0.81338233  0.25476757  1
  Cu  Cu7  1  0.75000000  0.18661767  0.74523243  1
  Cu  Cu8  1  0.49820779  0.93500704  0.68657701  1
  Cu  Cu9  1  0.50179221  0.06499296  0.31342299  1
  Cu  Cu10  1  0.50179221  0.56499296  0.18657701  1
  Cu  Cu11  1  0.99820779  0.06499296  0.31342299  1
  Cu  Cu12  1  0.49820779  0.43500704  0.81342299  1
  Cu  Cu13  1  0.00179221  0.93500704  0.68657701  1
  Cu  Cu14  1  0.00179221  0.43500704  0.81342299  1
  Cu  Cu15  1  0.99820779  0.56499296  0.18657701  1
  Cu  Cu16  1  0.75000000  0.58727567  0.98180827  1
  Cu  Cu17  1  0.25000000  0.41272433  0.01819173  1
  Cu  Cu18  1  0.25000000  0.91272433  0.48180827  1
  Cu  Cu19  1  0.75000000  0.08727567  0.51819173  1
  Cu  Cu20  1  0.75000000  0.94135857  0.89851145  1
  Cu  Cu21  1  0.25000000  0.05864143  0.10148855  1
  Cu  Cu22  1  0.25000000  0.55864143  0.39851145  1
  Cu  Cu23  1  0.75000000  0.44135857  0.60148855  1
  Sn  Sn24  1  0.75000000  0.86020490  0.13871821  1
  Sn  Sn25  1  0.25000000  0.13979510  0.86128179  1
  Sn  Sn26  1  0.25000000  0.63979510  0.63871821  1
  Sn  Sn27  1  0.75000000  0.36020490  0.36128179  1
