# generated using pymatgen
data_Er6Ni20P13
_symmetry_space_group_name_H-M   'P 1'
_cell_length_a   3.72870479
_cell_length_b   12.63669385
_cell_length_c   12.63669385
_cell_angle_alpha   119.99999606
_cell_angle_beta   90.00000000
_cell_angle_gamma   90.00000000
_symmetry_Int_Tables_number   1
_chemical_formula_structural   Er6Ni20P13
_chemical_formula_sum   'Er6 Ni20 P13'
_cell_volume   515.65065922
_cell_formula_units_Z   1
loop_
 _symmetry_equiv_pos_site_id
 _symmetry_equiv_pos_as_xyz
  1  'x, y, z'
loop_
 _atom_site_type_symbol
 _atom_site_label
 _atom_site_symmetry_multiplicity
 _atom_site_fract_x
 _atom_site_fract_y
 _atom_site_fract_z
 _atom_site_occupancy
  Er  Er0  1  0.00000000  0.52848852  0.80936796  1
  Er  Er1  1  -0.00000000  0.28087944  0.47151148  1
  Er  Er2  1  0.00000000  0.19063204  0.71912056  1
  Er  Er3  1  0.50000000  0.81103965  0.28196408  1
  Er  Er4  1  0.50000000  0.47092443  0.18896035  1
  Er  Er5  1  0.50000000  0.71803592  0.52907557  1
  Ni  Ni6  1  0.00000000  0.80393570  0.90733967  1
  Ni  Ni7  1  -0.00000000  0.10340398  0.19606430  1
  Ni  Ni8  1  -0.00000000  0.09266033  0.89659602  1
  Ni  Ni9  1  0.50000000  0.33333300  0.66666700  1
  Ni  Ni10  1  0.50000000  0.92294374  0.08196692  1
  Ni  Ni11  1  0.50000000  0.15902318  0.07705626  1
  Ni  Ni12  1  0.50000000  0.91803308  0.84097682  1
  Ni  Ni13  1  0.00000000  0.66666700  0.33333300  1
  Ni  Ni14  1  0.00000000  0.56172035  0.58188466  1
  Ni  Ni15  1  -0.00000000  0.02016431  0.43827965  1
  Ni  Ni16  1  0.00000000  0.41811534  0.97983569  1
  Ni  Ni17  1  0.50000000  0.68029813  0.75037205  1
  Ni  Ni18  1  0.50000000  0.07007392  0.31970187  1
  Ni  Ni19  1  0.50000000  0.24962795  0.92992608  1
  Ni  Ni20  1  0.50000000  0.98000409  0.56625864  1
  Ni  Ni21  1  0.50000000  0.58625455  0.01999591  1
  Ni  Ni22  1  0.50000000  0.43374136  0.41374545  1
  Ni  Ni23  1  -0.00000000  0.75677558  0.07779003  1
  Ni  Ni24  1  -0.00000000  0.32101445  0.24322442  1
  Ni  Ni25  1  0.00000000  0.92220997  0.67898555  1
  P  P26  1  0.50000000  0.47431183  0.61240277  1
  P  P27  1  0.50000000  0.13809093  0.52568817  1
  P  P28  1  0.50000000  0.38759723  0.86190907  1
  P  P29  1  0.50000000  0.71788683  0.94957017  1
  P  P30  1  0.50000000  0.23168334  0.28211317  1
  P  P31  1  0.50000000  0.05042983  0.76831666  1
  P  P32  1  -0.00000000  0.86144667  0.47640059  1
  P  P33  1  -0.00000000  0.61495392  0.13855333  1
  P  P34  1  0.00000000  0.52359941  0.38504608  1
  P  P35  1  0.00000000  0.95013333  0.23430487  1
  P  P36  1  0.00000000  0.28417154  0.04986667  1
  P  P37  1  -0.00000000  0.76569513  0.71582846  1
  P  P38  1  0.00000000  0.00000000  0.00000000  1
