# generated using pymatgen
data_FeSb(P2O7)2
_symmetry_space_group_name_H-M   'P 1'
_cell_length_a   8.03858730
_cell_length_b   8.02947881
_cell_length_c   16.15646407
_cell_angle_alpha   90.00000000
_cell_angle_beta   90.00000000
_cell_angle_gamma   90.00000000
_symmetry_Int_Tables_number   1
_chemical_formula_structural   FeSb(P2O7)2
_chemical_formula_sum   'Fe4 Sb4 P16 O56'
_cell_volume   1042.82973987
_cell_formula_units_Z   4
loop_
 _symmetry_equiv_pos_site_id
 _symmetry_equiv_pos_as_xyz
  1  'x, y, z'
loop_
 _atom_site_type_symbol
 _atom_site_label
 _atom_site_symmetry_multiplicity
 _atom_site_fract_x
 _atom_site_fract_y
 _atom_site_fract_z
 _atom_site_occupancy
  Fe  Fe0  1  0.60177185  0.00817767  0.12665164  1
  Fe  Fe1  1  0.10177185  0.99182233  0.87334836  1
  Fe  Fe2  1  0.60177185  0.50817767  0.37334836  1
  Fe  Fe3  1  0.10177185  0.49182233  0.62665164  1
  Sb  Sb4  1  0.10599749  0.01237504  0.37727074  1
  Sb  Sb5  1  0.60599749  0.98762496  0.62272926  1
  Sb  Sb6  1  0.10599749  0.51237504  0.12272926  1
  Sb  Sb7  1  0.60599749  0.48762496  0.87727074  1
  P  P8  1  0.49343621  0.10740505  0.32501268  1
  P  P9  1  0.99343621  0.89259495  0.67498732  1
  P  P10  1  0.49343621  0.60740505  0.17498732  1
  P  P11  1  0.99343621  0.39259495  0.82501268  1
  P  P12  1  0.99085583  0.39855235  0.31487603  1
  P  P13  1  0.49085583  0.60144765  0.68512397  1
  P  P14  1  0.99085583  0.89855235  0.18512397  1
  P  P15  1  0.49085583  0.10144765  0.81487603  1
  P  P16  1  0.22347860  0.10218316  0.56827123  1
  P  P17  1  0.72347860  0.89781684  0.43172877  1
  P  P18  1  0.22347860  0.60218316  0.93172877  1
  P  P19  1  0.72347860  0.39781684  0.06827123  1
  P  P20  1  0.20512935  0.11381537  0.07278881  1
  P  P21  1  0.70512935  0.88618463  0.92721119  1
  P  P22  1  0.20512935  0.61381537  0.42721119  1
  P  P23  1  0.70512935  0.38618463  0.57278881  1
  O  O24  1  0.59036911  0.06774775  0.24774426  1
  O  O25  1  0.09036911  0.93225225  0.75225574  1
  O  O26  1  0.59036911  0.56774775  0.25225574  1
  O  O27  1  0.09036911  0.43225225  0.74774426  1
  O  O28  1  0.14442257  0.29876282  0.06677401  1
  O  O29  1  0.64442257  0.70123718  0.93322599  1
  O  O30  1  0.14442257  0.79876282  0.43322599  1
  O  O31  1  0.64442257  0.20123718  0.56677401  1
  O  O32  1  0.18855640  0.13526483  0.47504084  1
  O  O33  1  0.68855640  0.86473517  0.52495916  1
  O  O34  1  0.18855640  0.63526483  0.02495916  1
  O  O35  1  0.68855640  0.36473517  0.97504084  1
  O  O36  1  0.47858943  0.28795701  0.34992509  1
  O  O37  1  0.97858943  0.71204299  0.65007491  1
  O  O38  1  0.47858943  0.78795701  0.15007491  1
  O  O39  1  0.97858943  0.21204299  0.84992509  1
  O  O40  1  0.32215639  0.01140701  0.31872124  1
  O  O41  1  0.82215639  0.98859299  0.68127876  1
  O  O42  1  0.32215639  0.51140701  0.18127876  1
  O  O43  1  0.82215639  0.48859299  0.81872124  1
  O  O44  1  0.14767646  0.02430189  0.99652160  1
  O  O45  1  0.64767646  0.97569811  0.00347840  1
  O  O46  1  0.14767646  0.52430189  0.50347840  1
  O  O47  1  0.64767646  0.47569811  0.49652160  1
  O  O48  1  0.32126460  0.10142806  0.85270615  1
  O  O49  1  0.82126460  0.89857194  0.14729385  1
  O  O50  1  0.32126460  0.60142806  0.64729385  1
  O  O51  1  0.82126460  0.39857194  0.35270615  1
  O  O52  1  0.57639710  0.01612291  0.40403564  1
  O  O53  1  0.07639710  0.98387709  0.59596436  1
  O  O54  1  0.57639710  0.51612291  0.09596436  1
  O  O55  1  0.07639710  0.48387709  0.90403564  1
  O  O56  1  0.22909655  0.26274026  0.61497605  1
  O  O57  1  0.72909655  0.73725974  0.38502395  1
  O  O58  1  0.22909655  0.76274026  0.88502395  1
  O  O59  1  0.72909655  0.23725974  0.11497605  1
  O  O60  1  0.10459679  0.04589961  0.15283927  1
  O  O61  1  0.60459679  0.95410039  0.84716073  1
  O  O62  1  0.10459679  0.54589961  0.34716073  1
  O  O63  1  0.60459679  0.45410039  0.65283927  1
  O  O64  1  0.38698294  0.10926531  0.09574484  1
  O  O65  1  0.88698294  0.89073469  0.90425516  1
  O  O66  1  0.38698294  0.60926531  0.40425516  1
  O  O67  1  0.88698294  0.39073469  0.59574484  1
  O  O68  1  0.98521402  0.42223378  0.21995722  1
  O  O69  1  0.48521402  0.57776622  0.78004278  1
  O  O70  1  0.98521402  0.92223378  0.28004278  1
  O  O71  1  0.48521402  0.07776622  0.71995722  1
  O  O72  1  0.88022158  0.01171474  0.42767835  1
  O  O73  1  0.38022158  0.98828526  0.57232165  1
  O  O74  1  0.88022158  0.51171474  0.07232165  1
  O  O75  1  0.38022158  0.48828526  0.92767835  1
  O  O76  1  0.08608673  0.23662941  0.32980319  1
  O  O77  1  0.58608673  0.76337059  0.67019681  1
  O  O78  1  0.08608673  0.73662941  0.17019681  1
  O  O79  1  0.58608673  0.26337059  0.82980319  1
