# generated using pymatgen
data_CsKZr6BCl15
_symmetry_space_group_name_H-M   'P 1'
_cell_length_a   9.90405834
_cell_length_b   14.27007579
_cell_length_c   19.00439874
_cell_angle_alpha   90.00000000
_cell_angle_beta   90.00000000
_cell_angle_gamma   90.00000000
_symmetry_Int_Tables_number   1
_chemical_formula_structural   CsKZr6BCl15
_chemical_formula_sum   'Cs4 K4 Zr24 B4 Cl60'
_cell_volume   2685.92328091
_cell_formula_units_Z   4
loop_
 _symmetry_equiv_pos_site_id
 _symmetry_equiv_pos_as_xyz
  1  'x, y, z'
loop_
 _atom_site_type_symbol
 _atom_site_label
 _atom_site_symmetry_multiplicity
 _atom_site_fract_x
 _atom_site_fract_y
 _atom_site_fract_z
 _atom_site_occupancy
  Cs  Cs0  1  0.59110243  0.50000000  0.75000000  1
  Cs  Cs1  1  0.40889757  0.50000000  0.25000000  1
  Cs  Cs2  1  -0.00000000  -0.00000000  0.00000000  1
  Cs  Cs3  1  -0.00000000  -0.00000000  0.50000000  1
  K  K4  1  0.15797396  0.74855332  0.75000000  1
  K  K5  1  0.84202604  0.25144668  0.25000000  1
  K  K6  1  0.15797396  0.25144668  0.75000000  1
  K  K7  1  0.84202604  0.74855332  0.25000000  1
  Zr  Zr8  1  0.41405141  -0.00000000  0.75000000  1
  Zr  Zr9  1  0.58594859  -0.00000000  0.25000000  1
  Zr  Zr10  1  0.91948933  0.50000000  0.38578696  1
  Zr  Zr11  1  0.08051067  0.50000000  0.61421304  1
  Zr  Zr12  1  0.91948933  0.50000000  0.11421304  1
  Zr  Zr13  1  0.08051067  0.50000000  0.88578696  1
  Zr  Zr14  1  0.84152430  0.61565717  0.97122025  1
  Zr  Zr15  1  0.15847570  0.38434283  0.02877975  1
  Zr  Zr16  1  0.84152430  0.38434283  0.52877975  1
  Zr  Zr17  1  0.15847570  0.61565717  0.02877975  1
  Zr  Zr18  1  0.15847570  0.61565717  0.47122025  1
  Zr  Zr19  1  0.84152430  0.38434283  0.97122025  1
  Zr  Zr20  1  0.15847570  0.38434283  0.47122025  1
  Zr  Zr21  1  0.84152430  0.61565717  0.52877975  1
  Zr  Zr22  1  0.64673320  0.88394849  0.83737018  1
  Zr  Zr23  1  0.35326680  0.11605151  0.16262982  1
  Zr  Zr24  1  0.64673320  0.11605151  0.66262982  1
  Zr  Zr25  1  0.35326680  0.88394849  0.16262982  1
  Zr  Zr26  1  0.35326680  0.88394849  0.33737018  1
  Zr  Zr27  1  0.64673320  0.11605151  0.83737018  1
  Zr  Zr28  1  0.35326680  0.11605151  0.33737018  1
  Zr  Zr29  1  0.64673320  0.88394849  0.66262982  1
  Zr  Zr30  1  0.87796341  -0.00000000  0.75000000  1
  Zr  Zr31  1  0.12203659  -0.00000000  0.25000000  1
  B  B32  1  0.64551260  -0.00000000  0.75000000  1
  B  B33  1  0.35448740  -0.00000000  0.25000000  1
  B  B34  1  -0.00000000  0.50000000  0.00000000  1
  B  B35  1  -0.00000000  0.50000000  0.50000000  1
  Cl  Cl36  1  -0.00000000  0.75234421  0.00000000  1
  Cl  Cl37  1  -0.00000000  0.24765579  0.00000000  1
  Cl  Cl38  1  -0.00000000  0.24765579  0.50000000  1
  Cl  Cl39  1  -0.00000000  0.75234421  0.50000000  1
  Cl  Cl40  1  0.91435885  0.62437622  0.84105119  1
  Cl  Cl41  1  0.08564115  0.37562378  0.15894881  1
  Cl  Cl42  1  0.91435885  0.37562378  0.65894881  1
  Cl  Cl43  1  0.08564115  0.62437622  0.15894881  1
  Cl  Cl44  1  0.08564115  0.62437622  0.34105119  1
  Cl  Cl45  1  0.91435885  0.37562378  0.84105119  1
  Cl  Cl46  1  0.08564115  0.37562378  0.34105119  1
  Cl  Cl47  1  0.91435885  0.62437622  0.65894881  1
  Cl  Cl48  1  0.65382128  0.50000000  0.93689065  1
  Cl  Cl49  1  0.34617872  0.50000000  0.06310935  1
  Cl  Cl50  1  0.65382128  0.50000000  0.56310935  1
  Cl  Cl51  1  0.34617872  0.50000000  0.43689065  1
  Cl  Cl52  1  0.64019322  0.74656828  0.75000000  1
  Cl  Cl53  1  0.35980678  0.25343172  0.25000000  1
  Cl  Cl54  1  0.64019322  0.25343172  0.75000000  1
  Cl  Cl55  1  0.35980678  0.74656828  0.25000000  1
  Cl  Cl56  1  0.65669627  0.74903738  0.93729245  1
  Cl  Cl57  1  0.34330373  0.25096262  0.06270755  1
  Cl  Cl58  1  0.65669627  0.25096262  0.56270755  1
  Cl  Cl59  1  0.34330373  0.74903738  0.06270755  1
  Cl  Cl60  1  0.34330373  0.74903738  0.43729245  1
  Cl  Cl61  1  0.65669627  0.25096262  0.93729245  1
  Cl  Cl62  1  0.34330373  0.25096262  0.43729245  1
  Cl  Cl63  1  0.65669627  0.74903738  0.56270755  1
  Cl  Cl64  1  0.90761434  0.87326147  0.84401030  1
  Cl  Cl65  1  0.09238566  0.12673853  0.15598970  1
  Cl  Cl66  1  0.90761434  0.12673853  0.65598970  1
  Cl  Cl67  1  0.09238566  0.87326147  0.15598970  1
  Cl  Cl68  1  0.09238566  0.87326147  0.34401030  1
  Cl  Cl69  1  0.90761434  0.12673853  0.84401030  1
  Cl  Cl70  1  0.09238566  0.12673853  0.34401030  1
  Cl  Cl71  1  0.90761434  0.87326147  0.65598970  1
  Cl  Cl72  1  0.74068479  0.62793324  0.40358719  1
  Cl  Cl73  1  0.25931521  0.37206676  0.59641281  1
  Cl  Cl74  1  0.74068479  0.37206676  0.09641281  1
  Cl  Cl75  1  0.25931521  0.62793324  0.59641281  1
  Cl  Cl76  1  0.25931521  0.62793324  0.90358719  1
  Cl  Cl77  1  0.74068479  0.37206676  0.40358719  1
  Cl  Cl78  1  0.25931521  0.37206676  0.90358719  1
  Cl  Cl79  1  0.74068479  0.62793324  0.09641281  1
  Cl  Cl80  1  0.14633923  -0.00000000  0.75000000  1
  Cl  Cl81  1  0.85366077  -0.00000000  0.25000000  1
  Cl  Cl82  1  0.65038455  -0.00000000  0.94083300  1
  Cl  Cl83  1  0.34961545  -0.00000000  0.05916700  1
  Cl  Cl84  1  0.65038455  -0.00000000  0.55916700  1
  Cl  Cl85  1  0.34961545  -0.00000000  0.44083300  1
  Cl  Cl86  1  0.38745225  0.87341029  0.84607617  1
  Cl  Cl87  1  0.61254775  0.12658971  0.15392383  1
  Cl  Cl88  1  0.38745225  0.12658971  0.65392383  1
  Cl  Cl89  1  0.61254775  0.87341029  0.15392383  1
  Cl  Cl90  1  0.61254775  0.87341029  0.34607617  1
  Cl  Cl91  1  0.38745225  0.12658971  0.84607617  1
  Cl  Cl92  1  0.61254775  0.12658971  0.34607617  1
  Cl  Cl93  1  0.38745225  0.87341029  0.65392383  1
  Cl  Cl94  1  0.18798888  0.50000000  0.75000000  1
  Cl  Cl95  1  0.81201112  0.50000000  0.25000000  1
