# generated using pymatgen
data_CsTm(MoO4)2
_symmetry_space_group_name_H-M   'P 1'
_cell_length_a   5.04484375
_cell_length_b   9.76014135
_cell_length_c   8.13428628
_cell_angle_alpha   92.01418375
_cell_angle_beta   90.00000000
_cell_angle_gamma   90.00000000
_symmetry_Int_Tables_number   1
_chemical_formula_structural   CsTm(MoO4)2
_chemical_formula_sum   'Cs2 Tm2 Mo4 O16'
_cell_volume   400.27168666
_cell_formula_units_Z   2
loop_
 _symmetry_equiv_pos_site_id
 _symmetry_equiv_pos_as_xyz
  1  'x, y, z'
loop_
 _atom_site_type_symbol
 _atom_site_label
 _atom_site_symmetry_multiplicity
 _atom_site_fract_x
 _atom_site_fract_y
 _atom_site_fract_z
 _atom_site_occupancy
  Cs  Cs0  1  0.46636095  0.50000000  0.75000000  1
  Cs  Cs1  1  0.53363905  0.50000000  0.25000000  1
  Tm  Tm2  1  0.50117582  0.00000000  0.75000000  1
  Tm  Tm3  1  0.49882418  0.00000000  0.25000000  1
  Mo  Mo4  1  0.97662147  0.80980617  0.49140212  1
  Mo  Mo5  1  0.02337853  0.19019383  0.50859788  1
  Mo  Mo6  1  0.97662147  0.19019383  0.00859788  1
  Mo  Mo7  1  0.02337853  0.80980617  0.99140212  1
  O  O8  1  0.89211021  0.64362287  0.98299462  1
  O  O9  1  0.10788979  0.35637713  0.01700538  1
  O  O10  1  0.89211021  0.35637713  0.51700538  1
  O  O11  1  0.10788979  0.64362287  0.48299462  1
  O  O12  1  0.75745257  0.82097057  0.31650179  1
  O  O13  1  0.24254743  0.17902943  0.68349821  1
  O  O14  1  0.75745257  0.17902943  0.18349821  1
  O  O15  1  0.24254743  0.82097057  0.81650179  1
  O  O16  1  0.74427906  0.93500538  0.99721159  1
  O  O17  1  0.25572094  0.06499462  0.00278841  1
  O  O18  1  0.74427906  0.06499462  0.50278841  1
  O  O19  1  0.25572094  0.93500538  0.49721159  1
  O  O20  1  0.75776707  0.82039857  0.66775496  1
  O  O21  1  0.24223293  0.17960143  0.33224504  1
  O  O22  1  0.75776707  0.17960143  0.83224504  1
  O  O23  1  0.24223293  0.82039857  0.16775496  1
