# generated using pymatgen
data_LiFePO4
_symmetry_space_group_name_H-M   'P 1'
_cell_length_a   5.31112441
_cell_length_b   5.43399403
_cell_length_c   7.21540949
_cell_angle_alpha   111.68411757
_cell_angle_beta   109.90128386
_cell_angle_gamma   102.42071434
_symmetry_Int_Tables_number   1
_chemical_formula_structural   LiFePO4
_chemical_formula_sum   'Li2 Fe2 P2 O8'
_cell_volume   167.53218692
_cell_formula_units_Z   2
loop_
 _symmetry_equiv_pos_site_id
 _symmetry_equiv_pos_as_xyz
  1  'x, y, z'
loop_
 _atom_site_type_symbol
 _atom_site_label
 _atom_site_symmetry_multiplicity
 _atom_site_fract_x
 _atom_site_fract_y
 _atom_site_fract_z
 _atom_site_occupancy
  Li  Li0  1  0.02760066  0.32994665  0.74305444  1
  Li  Li1  1  0.97239934  0.67005335  0.25694556  1
  Fe  Fe2  1  0.50000000  0.50000000  0.50000000  1
  Fe  Fe3  1  -0.00000000  0.00000000  -0.00000000  1
  P  P4  1  0.57864648  0.90307833  0.25463787  1
  P  P5  1  0.42135352  0.09692167  0.74536213  1
  O  O6  1  0.24032299  0.78771051  0.11799386  1
  O  O7  1  0.75967701  0.21228949  0.88200614  1
  O  O8  1  0.66576376  0.72526498  0.37344108  1
  O  O9  1  0.33423624  0.27473502  0.62655892  1
  O  O10  1  0.70326009  0.22583030  0.43001754  1
  O  O11  1  0.29673991  0.77416970  0.56998246  1
  O  O12  1  0.27737983  0.14266969  0.90311125  1
  O  O13  1  0.72262017  0.85733031  0.09688875  1
