# generated using pymatgen
data_CsRbZr6BCl15
_symmetry_space_group_name_H-M   'P 1'
_cell_length_a   10.01148603
_cell_length_b   14.34828188
_cell_length_c   19.16939059
_cell_angle_alpha   90.00000000
_cell_angle_beta   90.00000000
_cell_angle_gamma   90.00000000
_symmetry_Int_Tables_number   1
_chemical_formula_structural   CsRbZr6BCl15
_chemical_formula_sum   'Cs4 Rb4 Zr24 B4 Cl60'
_cell_volume   2753.63740404
_cell_formula_units_Z   4
loop_
 _symmetry_equiv_pos_site_id
 _symmetry_equiv_pos_as_xyz
  1  'x, y, z'
loop_
 _atom_site_type_symbol
 _atom_site_label
 _atom_site_symmetry_multiplicity
 _atom_site_fract_x
 _atom_site_fract_y
 _atom_site_fract_z
 _atom_site_occupancy
  Cs  Cs0  1  0.59310924  0.50000000  0.75000000  1
  Cs  Cs1  1  0.40689076  0.50000000  0.25000000  1
  Cs  Cs2  1  0.00000000  -0.00000000  0.00000000  1
  Cs  Cs3  1  0.00000000  -0.00000000  0.50000000  1
  Rb  Rb4  1  0.15773820  0.74868337  0.75000000  1
  Rb  Rb5  1  0.84226180  0.25131663  0.25000000  1
  Rb  Rb6  1  0.15773820  0.25131663  0.75000000  1
  Rb  Rb7  1  0.84226180  0.74868337  0.25000000  1
  Zr  Zr8  1  0.41758565  -0.00000000  0.75000000  1
  Zr  Zr9  1  0.58241435  -0.00000000  0.25000000  1
  Zr  Zr10  1  0.92153659  0.50000000  0.38713405  1
  Zr  Zr11  1  0.07846341  0.50000000  0.61286595  1
  Zr  Zr12  1  0.92153659  0.50000000  0.11286595  1
  Zr  Zr13  1  0.07846341  0.50000000  0.88713405  1
  Zr  Zr14  1  0.84405904  0.61489665  0.97106500  1
  Zr  Zr15  1  0.15594096  0.38510335  0.02893500  1
  Zr  Zr16  1  0.84405904  0.38510335  0.52893500  1
  Zr  Zr17  1  0.15594096  0.61489665  0.02893500  1
  Zr  Zr18  1  0.15594096  0.61489665  0.47106500  1
  Zr  Zr19  1  0.84405904  0.38510335  0.97106500  1
  Zr  Zr20  1  0.15594096  0.38510335  0.47106500  1
  Zr  Zr21  1  0.84405904  0.61489665  0.52893500  1
  Zr  Zr22  1  0.64782196  0.88478871  0.83631462  1
  Zr  Zr23  1  0.35217804  0.11521129  0.16368538  1
  Zr  Zr24  1  0.64782196  0.11521129  0.66368538  1
  Zr  Zr25  1  0.35217804  0.88478871  0.16368538  1
  Zr  Zr26  1  0.35217804  0.88478871  0.33631462  1
  Zr  Zr27  1  0.64782196  0.11521129  0.83631462  1
  Zr  Zr28  1  0.35217804  0.11521129  0.33631462  1
  Zr  Zr29  1  0.64782196  0.88478871  0.66368538  1
  Zr  Zr30  1  0.87586100  -0.00000000  0.75000000  1
  Zr  Zr31  1  0.12413900  -0.00000000  0.25000000  1
  B  B32  1  0.64600432  -0.00000000  0.75000000  1
  B  B33  1  0.35399568  -0.00000000  0.25000000  1
  B  B34  1  0.00000000  0.50000000  -0.00000000  1
  B  B35  1  -0.00000000  0.50000000  0.50000000  1
  Cl  Cl36  1  0.00000000  0.75139751  -0.00000000  1
  Cl  Cl37  1  -0.00000000  0.24860249  -0.00000000  1
  Cl  Cl38  1  -0.00000000  0.24860249  0.50000000  1
  Cl  Cl39  1  -0.00000000  0.75139751  0.50000000  1
  Cl  Cl40  1  0.91472575  0.62361664  0.84214345  1
  Cl  Cl41  1  0.08527425  0.37638336  0.15785655  1
  Cl  Cl42  1  0.91472575  0.37638336  0.65785655  1
  Cl  Cl43  1  0.08527425  0.62361664  0.15785655  1
  Cl  Cl44  1  0.08527425  0.62361664  0.34214345  1
  Cl  Cl45  1  0.91472575  0.37638336  0.84214345  1
  Cl  Cl46  1  0.08527425  0.37638336  0.34214345  1
  Cl  Cl47  1  0.91472575  0.62361664  0.65785655  1
  Cl  Cl48  1  0.65795704  0.50000000  0.93709896  1
  Cl  Cl49  1  0.34204296  0.50000000  0.06290104  1
  Cl  Cl50  1  0.65795704  0.50000000  0.56290104  1
  Cl  Cl51  1  0.34204296  0.50000000  0.43709896  1
  Cl  Cl52  1  0.64157231  0.74773360  0.75000000  1
  Cl  Cl53  1  0.35842769  0.25226640  0.25000000  1
  Cl  Cl54  1  0.64157231  0.25226640  0.75000000  1
  Cl  Cl55  1  0.35842769  0.74773360  0.25000000  1
  Cl  Cl56  1  0.66358687  0.74900777  0.93468399  1
  Cl  Cl57  1  0.33641313  0.25099223  0.06531601  1
  Cl  Cl58  1  0.66358687  0.25099223  0.56531601  1
  Cl  Cl59  1  0.33641313  0.74900777  0.06531601  1
  Cl  Cl60  1  0.33641313  0.74900777  0.43468399  1
  Cl  Cl61  1  0.66358687  0.25099223  0.93468399  1
  Cl  Cl62  1  0.33641313  0.25099223  0.43468399  1
  Cl  Cl63  1  0.66358687  0.74900777  0.56531601  1
  Cl  Cl64  1  0.90525356  0.87442344  0.84363863  1
  Cl  Cl65  1  0.09474644  0.12557656  0.15636137  1
  Cl  Cl66  1  0.90525356  0.12557656  0.65636137  1
  Cl  Cl67  1  0.09474644  0.87442344  0.15636137  1
  Cl  Cl68  1  0.09474644  0.87442344  0.34363863  1
  Cl  Cl69  1  0.90525356  0.12557656  0.84363863  1
  Cl  Cl70  1  0.09474644  0.12557656  0.34363863  1
  Cl  Cl71  1  0.90525356  0.87442344  0.65636137  1
  Cl  Cl72  1  0.74358364  0.62677633  0.40511201  1
  Cl  Cl73  1  0.25641636  0.37322367  0.59488799  1
  Cl  Cl74  1  0.74358364  0.37322367  0.09488799  1
  Cl  Cl75  1  0.25641636  0.62677633  0.59488799  1
  Cl  Cl76  1  0.25641636  0.62677633  0.90511201  1
  Cl  Cl77  1  0.74358364  0.37322367  0.40511201  1
  Cl  Cl78  1  0.25641636  0.37322367  0.90511201  1
  Cl  Cl79  1  0.74358364  0.62677633  0.09488799  1
  Cl  Cl80  1  0.14659649  -0.00000000  0.75000000  1
  Cl  Cl81  1  0.85340351  -0.00000000  0.25000000  1
  Cl  Cl82  1  0.65064038  -0.00000000  0.93885002  1
  Cl  Cl83  1  0.34935962  -0.00000000  0.06114998  1
  Cl  Cl84  1  0.65064038  -0.00000000  0.56114998  1
  Cl  Cl85  1  0.34935962  -0.00000000  0.43885002  1
  Cl  Cl86  1  0.39138850  0.87447091  0.84525525  1
  Cl  Cl87  1  0.60861150  0.12552909  0.15474475  1
  Cl  Cl88  1  0.39138850  0.12552909  0.65474475  1
  Cl  Cl89  1  0.60861150  0.87447091  0.15474475  1
  Cl  Cl90  1  0.60861150  0.87447091  0.34525525  1
  Cl  Cl91  1  0.39138850  0.12552909  0.84525525  1
  Cl  Cl92  1  0.60861150  0.12552909  0.34525525  1
  Cl  Cl93  1  0.39138850  0.87447091  0.65474475  1
  Cl  Cl94  1  0.18219915  0.50000000  0.75000000  1
  Cl  Cl95  1  0.81780085  0.50000000  0.25000000  1
