# generated using pymatgen
data_CsNb3(PO5)3
_symmetry_space_group_name_H-M   'P 1'
_cell_length_a   6.52580489
_cell_length_b   13.72401550
_cell_length_c   15.06654536
_cell_angle_alpha   90.00000000
_cell_angle_beta   90.00000000
_cell_angle_gamma   90.00000000
_symmetry_Int_Tables_number   1
_chemical_formula_structural   CsNb3(PO5)3
_chemical_formula_sum   'Cs4 Nb12 P12 O60'
_cell_volume   1349.36353081
_cell_formula_units_Z   4
loop_
 _symmetry_equiv_pos_site_id
 _symmetry_equiv_pos_as_xyz
  1  'x, y, z'
loop_
 _atom_site_type_symbol
 _atom_site_label
 _atom_site_symmetry_multiplicity
 _atom_site_fract_x
 _atom_site_fract_y
 _atom_site_fract_z
 _atom_site_occupancy
  Cs  Cs0  1  -0.00000000  0.50951370  0.32885231  1
  Cs  Cs1  1  -0.00000000  0.49048630  0.67114769  1
  Cs  Cs2  1  0.50000000  0.99048630  0.82885231  1
  Cs  Cs3  1  0.50000000  0.00951370  0.17114769  1
  Nb  Nb4  1  -0.00000000  0.06183483  0.61251009  1
  Nb  Nb5  1  -0.00000000  0.93816517  0.38748991  1
  Nb  Nb6  1  0.50000000  0.43816517  0.11251009  1
  Nb  Nb7  1  0.50000000  0.56183483  0.88748991  1
  Nb  Nb8  1  -0.00000000  0.18808945  0.27263514  1
  Nb  Nb9  1  -0.00000000  0.81191055  0.72736486  1
  Nb  Nb10  1  0.50000000  0.31191055  0.77263514  1
  Nb  Nb11  1  0.50000000  0.68808945  0.22736486  1
  Nb  Nb12  1  -0.00000000  0.14061529  0.02232087  1
  Nb  Nb13  1  -0.00000000  0.85938471  0.97767913  1
  Nb  Nb14  1  0.50000000  0.35938471  0.52232087  1
  Nb  Nb15  1  0.50000000  0.64061529  0.47767913  1
  P  P16  1  -0.00000000  0.77131767  0.20458968  1
  P  P17  1  -0.00000000  0.22868233  0.79541032  1
  P  P18  1  0.50000000  0.72868233  0.70458968  1
  P  P19  1  0.50000000  0.27131767  0.29541032  1
  P  P20  1  -0.00000000  0.28781795  0.49183417  1
  P  P21  1  -0.00000000  0.71218205  0.50816583  1
  P  P22  1  0.50000000  0.21218205  0.99183417  1
  P  P23  1  0.50000000  0.78781795  0.00816583  1
  P  P24  1  -0.00000000  0.36837648  0.11797539  1
  P  P25  1  -0.00000000  0.63162352  0.88202461  1
  P  P26  1  0.50000000  0.13162352  0.61797539  1
  P  P27  1  0.50000000  0.86837648  0.38202461  1
  O  O28  1  -0.00000000  0.06066103  0.32384486  1
  O  O29  1  -0.00000000  0.93933897  0.67615514  1
  O  O30  1  0.50000000  0.43933897  0.82384486  1
  O  O31  1  0.50000000  0.56066103  0.17615514  1
  O  O32  1  -0.00000000  0.81293186  0.11010452  1
  O  O33  1  -0.00000000  0.18706814  0.88989548  1
  O  O34  1  0.50000000  0.68706814  0.61010452  1
  O  O35  1  0.50000000  0.31293186  0.38989548  1
  O  O36  1  -0.00000000  0.00000000  0.00000000  1
  O  O37  1  0.50000000  0.50000000  0.50000000  1
  O  O38  1  -0.00000000  0.14202417  0.73053579  1
  O  O39  1  -0.00000000  0.85797583  0.26946421  1
  O  O40  1  0.50000000  0.35797583  0.23053579  1
  O  O41  1  0.50000000  0.64202417  0.76946421  1
  O  O42  1  -0.00000000  0.00000000  0.50000000  1
  O  O43  1  0.50000000  0.50000000  0.00000000  1
  O  O44  1  0.31193528  0.20366043  0.27835608  1
  O  O45  1  0.68806472  0.79633957  0.72164392  1
  O  O46  1  0.31193528  0.79633957  0.72164392  1
  O  O47  1  0.18806472  0.29633957  0.77835608  1
  O  O48  1  0.68806472  0.20366043  0.27835608  1
  O  O49  1  0.81193528  0.70366043  0.22164392  1
  O  O50  1  0.18806472  0.70366043  0.22164392  1
  O  O51  1  0.81193528  0.29633957  0.77835608  1
  O  O52  1  -0.00000000  0.13479472  0.15054571  1
  O  O53  1  -0.00000000  0.86520528  0.84945429  1
  O  O54  1  0.50000000  0.36520528  0.65054571  1
  O  O55  1  0.50000000  0.63479472  0.34945429  1
  O  O56  1  0.19036027  0.43576126  0.11235000  1
  O  O57  1  0.80963973  0.56423874  0.88765000  1
  O  O58  1  0.19036027  0.56423874  0.88765000  1
  O  O59  1  0.30963973  0.06423874  0.61235000  1
  O  O60  1  0.80963973  0.43576126  0.11235000  1
  O  O61  1  0.69036027  0.93576126  0.38765000  1
  O  O62  1  0.30963973  0.93576126  0.38765000  1
  O  O63  1  0.69036027  0.06423874  0.61235000  1
  O  O64  1  -0.00000000  0.19780112  0.55102927  1
  O  O65  1  -0.00000000  0.80219888  0.44897073  1
  O  O66  1  0.50000000  0.30219888  0.05102927  1
  O  O67  1  0.50000000  0.69780112  0.94897073  1
  O  O68  1  0.31284747  0.14561637  0.01374970  1
  O  O69  1  0.68715253  0.85438363  0.98625030  1
  O  O70  1  0.31284747  0.85438363  0.98625030  1
  O  O71  1  0.18715253  0.35438363  0.51374970  1
  O  O72  1  0.68715253  0.14561637  0.01374970  1
  O  O73  1  0.81284747  0.64561637  0.48625030  1
  O  O74  1  0.18715253  0.64561637  0.48625030  1
  O  O75  1  0.81284747  0.35438363  0.51374970  1
  O  O76  1  -0.00000000  0.26368438  0.39263728  1
  O  O77  1  -0.00000000  0.73631562  0.60736272  1
  O  O78  1  0.50000000  0.23631562  0.89263728  1
  O  O79  1  0.50000000  0.76368438  0.10736272  1
  O  O80  1  -0.00000000  0.32446478  0.21236925  1
  O  O81  1  -0.00000000  0.67553522  0.78763075  1
  O  O82  1  0.50000000  0.17553522  0.71236925  1
  O  O83  1  0.50000000  0.82446478  0.28763075  1
  O  O84  1  -0.00000000  0.29323948  0.04308560  1
  O  O85  1  -0.00000000  0.70676052  0.95691440  1
  O  O86  1  0.50000000  0.20676052  0.54308560  1
  O  O87  1  0.50000000  0.79323948  0.45691440  1
