# generated using pymatgen
data_CsAg3Te2
_symmetry_space_group_name_H-M   'P 1'
_cell_length_a   4.69092638
_cell_length_b   9.21735709
_cell_length_c   9.64149039
_cell_angle_alpha   111.20075983
_cell_angle_beta   90.00000000
_cell_angle_gamma   104.74168321
_symmetry_Int_Tables_number   1
_chemical_formula_structural   CsAg3Te2
_chemical_formula_sum   'Cs2 Ag6 Te4'
_cell_volume   373.90700269
_cell_formula_units_Z   2
loop_
 _symmetry_equiv_pos_site_id
 _symmetry_equiv_pos_as_xyz
  1  'x, y, z'
loop_
 _atom_site_type_symbol
 _atom_site_label
 _atom_site_symmetry_multiplicity
 _atom_site_fract_x
 _atom_site_fract_y
 _atom_site_fract_z
 _atom_site_occupancy
  Cs  Cs0  1  0.86319437  0.72638875  0.95102421  1
  Cs  Cs1  1  0.13680563  0.27361125  0.04897579  1
  Ag  Ag2  1  0.58890976  0.17781953  0.62405800  1
  Ag  Ag3  1  0.41109024  0.82218047  0.37594200  1
  Ag  Ag4  1  0.93848240  0.87696479  0.59014450  1
  Ag  Ag5  1  0.06151760  0.12303521  0.40985550  1
  Ag  Ag6  1  0.68824925  0.37649851  0.44413789  1
  Ag  Ag7  1  0.31175075  0.62350149  0.55586211  1
  Te  Te8  1  0.80340132  0.60680263  0.31328604  1
  Te  Te9  1  0.19659868  0.39319737  0.68671396  1
  Te  Te10  1  0.47918278  0.95836557  0.76686087  1
  Te  Te11  1  0.52081722  0.04163443  0.23313913  1
