# generated using pymatgen
data_CaVSiO5
_symmetry_space_group_name_H-M   'P 1'
_cell_length_a   5.49117978
_cell_length_b   5.49117978
_cell_length_c   7.01416048
_cell_angle_alpha   103.91389626
_cell_angle_beta   103.91389626
_cell_angle_gamma   105.99538740
_symmetry_Int_Tables_number   1
_chemical_formula_structural   CaVSiO5
_chemical_formula_sum   'Ca2 V2 Si2 O10'
_cell_volume   186.37724394
_cell_formula_units_Z   2
loop_
 _symmetry_equiv_pos_site_id
 _symmetry_equiv_pos_as_xyz
  1  'x, y, z'
loop_
 _atom_site_type_symbol
 _atom_site_label
 _atom_site_symmetry_multiplicity
 _atom_site_fract_x
 _atom_site_fract_y
 _atom_site_fract_z
 _atom_site_occupancy
  Ca  Ca0  1  0.66600172  0.33399828  0.75000000  1
  Ca  Ca1  1  0.33399828  0.66600172  0.25000000  1
  V  V2  1  -0.00000000  -0.00000000  -0.00000000  1
  V  V3  1  -0.00000000  -0.00000000  0.50000000  1
  Si  Si4  1  0.31625707  0.68374293  0.75000000  1
  Si  Si5  1  0.68374293  0.31625707  0.25000000  1
  O  O6  1  0.93303818  0.06696182  0.75000000  1
  O  O7  1  0.06696182  0.93303818  0.25000000  1
  O  O8  1  0.61790996  0.75127422  0.91117090  1
  O  O9  1  0.38209004  0.24872578  0.08882910  1
  O  O10  1  0.24872578  0.38209004  0.58882910  1
  O  O11  1  0.75127422  0.61790996  0.41117090  1
  O  O12  1  0.31562621  0.89621265  0.61835761  1
  O  O13  1  0.68437379  0.10378735  0.38164239  1
  O  O14  1  0.10378735  0.68437379  0.88164239  1
  O  O15  1  0.89621265  0.31562621  0.11835761  1
