# generated using pymatgen
data_CeAl4Pd
_symmetry_space_group_name_H-M   'P 1'
_cell_length_a   4.27327064
_cell_length_b   6.67490790
_cell_length_c   8.19058522
_cell_angle_alpha   90.00000000
_cell_angle_beta   105.12138536
_cell_angle_gamma   90.00000000
_symmetry_Int_Tables_number   1
_chemical_formula_structural   CeAl4Pd
_chemical_formula_sum   'Ce2 Al8 Pd2'
_cell_volume   225.53648475
_cell_formula_units_Z   2
loop_
 _symmetry_equiv_pos_site_id
 _symmetry_equiv_pos_as_xyz
  1  'x, y, z'
loop_
 _atom_site_type_symbol
 _atom_site_label
 _atom_site_symmetry_multiplicity
 _atom_site_fract_x
 _atom_site_fract_y
 _atom_site_fract_z
 _atom_site_occupancy
  Ce  Ce0  1  0.61447469  0.25000000  0.22894938  1
  Ce  Ce1  1  0.38552531  0.75000000  0.77105062  1
  Al  Al2  1  0.42948726  0.25000000  0.85897452  1
  Al  Al3  1  0.57051274  0.75000000  0.14102548  1
  Al  Al4  1  -0.00000000  -0.00000000  0.00000000  1
  Al  Al5  1  -0.00000000  0.50000000  0.00000000  1
  Al  Al6  1  0.81761730  0.05090920  0.63523461  1
  Al  Al7  1  0.18238270  0.94909080  0.36476539  1
  Al  Al8  1  0.18238270  0.55090920  0.36476539  1
  Al  Al9  1  0.81761730  0.44909080  0.63523461  1
  Pd  Pd10  1  0.27645271  0.25000000  0.55290542  1
  Pd  Pd11  1  0.72354729  0.75000000  0.44709458  1
