# generated using pymatgen
data_CsAlZnF6
_symmetry_space_group_name_H-M   'P 1'
_cell_length_a   7.21190908
_cell_length_b   7.27195216
_cell_length_c   10.25474528
_cell_angle_alpha   90.00000000
_cell_angle_beta   90.00000000
_cell_angle_gamma   90.00000000
_symmetry_Int_Tables_number   1
_chemical_formula_structural   CsAlZnF6
_chemical_formula_sum   'Cs4 Al4 Zn4 F24'
_cell_volume   537.80660716
_cell_formula_units_Z   4
loop_
 _symmetry_equiv_pos_site_id
 _symmetry_equiv_pos_as_xyz
  1  'x, y, z'
loop_
 _atom_site_type_symbol
 _atom_site_label
 _atom_site_symmetry_multiplicity
 _atom_site_fract_x
 _atom_site_fract_y
 _atom_site_fract_z
 _atom_site_occupancy
  Cs  Cs0  1  0.75000000  0.98535411  0.37252550  1
  Cs  Cs1  1  0.25000000  0.01464589  0.62747450  1
  Cs  Cs2  1  0.25000000  0.51464589  0.87252550  1
  Cs  Cs3  1  0.75000000  0.48535411  0.12747450  1
  Al  Al4  1  -0.00000000  0.00000000  -0.00000000  1
  Al  Al5  1  -0.00000000  0.50000000  0.50000000  1
  Al  Al6  1  0.50000000  0.00000000  -0.00000000  1
  Al  Al7  1  0.50000000  0.50000000  0.50000000  1
  Zn  Zn8  1  0.75000000  0.77846246  0.73822672  1
  Zn  Zn9  1  0.25000000  0.22153754  0.26177328  1
  Zn  Zn10  1  0.25000000  0.72153754  0.23822672  1
  Zn  Zn11  1  0.75000000  0.27846246  0.76177328  1
  F  F12  1  0.94578694  0.70407408  0.59554135  1
  F  F13  1  0.05421306  0.29592592  0.40445865  1
  F  F14  1  0.05421306  0.79592592  0.09554135  1
  F  F15  1  0.44578694  0.29592592  0.40445865  1
  F  F16  1  0.94578694  0.20407408  0.90445865  1
  F  F17  1  0.55421306  0.70407408  0.59554135  1
  F  F18  1  0.55421306  0.20407408  0.90445865  1
  F  F19  1  0.44578694  0.79592592  0.09554135  1
  F  F20  1  0.75000000  0.46314616  0.46116687  1
  F  F21  1  0.25000000  0.53685384  0.53883313  1
  F  F22  1  0.25000000  0.03685384  0.96116687  1
  F  F23  1  0.75000000  0.96314616  0.03883313  1
  F  F24  1  0.52200417  0.85785541  0.85522109  1
  F  F25  1  0.47799583  0.14214459  0.14477891  1
  F  F26  1  0.47799583  0.64214459  0.35522109  1
  F  F27  1  0.02200417  0.14214459  0.14477891  1
  F  F28  1  0.52200417  0.35785541  0.64477891  1
  F  F29  1  0.97799583  0.85785541  0.85522109  1
  F  F30  1  0.97799583  0.35785541  0.64477891  1
  F  F31  1  0.02200417  0.64214459  0.35522109  1
  F  F32  1  0.75000000  0.53739662  0.83172820  1
  F  F33  1  0.25000000  0.46260338  0.16827180  1
  F  F34  1  0.25000000  0.96260338  0.33172820  1
  F  F35  1  0.75000000  0.03739662  0.66827180  1
