# generated using pymatgen
data_Cs3ReO5
_symmetry_space_group_name_H-M   'P 1'
_cell_length_a   9.02874410
_cell_length_b   9.53174956
_cell_length_c   9.65883273
_cell_angle_alpha   90.00000000
_cell_angle_beta   90.00000000
_cell_angle_gamma   90.00000000
_symmetry_Int_Tables_number   1
_chemical_formula_structural   Cs3ReO5
_chemical_formula_sum   'Cs12 Re4 O20'
_cell_volume   831.23651370
_cell_formula_units_Z   4
loop_
 _symmetry_equiv_pos_site_id
 _symmetry_equiv_pos_as_xyz
  1  'x, y, z'
loop_
 _atom_site_type_symbol
 _atom_site_label
 _atom_site_symmetry_multiplicity
 _atom_site_fract_x
 _atom_site_fract_y
 _atom_site_fract_z
 _atom_site_occupancy
  Cs  Cs0  1  0.25000000  0.00000000  0.47766898  1
  Cs  Cs1  1  0.75000000  0.00000000  0.52233102  1
  Cs  Cs2  1  0.25000000  0.50000000  0.02233102  1
  Cs  Cs3  1  0.75000000  0.50000000  0.97766898  1
  Cs  Cs4  1  0.25000000  0.00000000  0.01832515  1
  Cs  Cs5  1  0.75000000  0.00000000  0.98167485  1
  Cs  Cs6  1  0.25000000  0.50000000  0.48167485  1
  Cs  Cs7  1  0.75000000  0.50000000  0.51832515  1
  Cs  Cs8  1  0.54587851  0.25000000  0.25000000  1
  Cs  Cs9  1  0.45412149  0.75000000  0.75000000  1
  Cs  Cs10  1  0.95412149  0.75000000  0.25000000  1
  Cs  Cs11  1  0.04587851  0.25000000  0.75000000  1
  Re  Re12  1  0.02486165  0.25000000  0.25000000  1
  Re  Re13  1  0.97513835  0.75000000  0.75000000  1
  Re  Re14  1  0.47513835  0.75000000  0.25000000  1
  Re  Re15  1  0.52486165  0.25000000  0.75000000  1
  O  O16  1  0.22376054  0.25000000  0.25000000  1
  O  O17  1  0.77623946  0.75000000  0.75000000  1
  O  O18  1  0.27623946  0.75000000  0.25000000  1
  O  O19  1  0.72376054  0.25000000  0.75000000  1
  O  O20  1  0.53077650  0.56506424  0.21935074  1
  O  O21  1  0.46922350  0.43493576  0.78064926  1
  O  O22  1  0.96922350  0.43493576  0.21935074  1
  O  O23  1  0.96922350  0.06506424  0.28064926  1
  O  O24  1  0.03077650  0.56506424  0.78064926  1
  O  O25  1  0.03077650  0.93493576  0.71935074  1
  O  O26  1  0.53077650  0.93493576  0.28064926  1
  O  O27  1  0.46922350  0.06506424  0.71935074  1
  O  O28  1  0.47828677  0.28118028  0.56499510  1
  O  O29  1  0.52171323  0.71881972  0.43500490  1
  O  O30  1  0.02171323  0.71881972  0.56499510  1
  O  O31  1  0.02171323  0.78118028  0.93500490  1
  O  O32  1  0.97828677  0.28118028  0.43500490  1
  O  O33  1  0.97828677  0.21881972  0.06499510  1
  O  O34  1  0.47828677  0.21881972  0.93500490  1
  O  O35  1  0.52171323  0.78118028  0.06499510  1
