# generated using pymatgen
data_Eu2Hf2(MoO4)7
_symmetry_space_group_name_H-M   'P 1'
_cell_length_a   10.05221701
_cell_length_b   11.75785759
_cell_length_c   14.13435822
_cell_angle_alpha   110.66093173
_cell_angle_beta   90.00000000
_cell_angle_gamma   115.30698093
_symmetry_Int_Tables_number   1
_chemical_formula_structural   Eu2Hf2(MoO4)7
_chemical_formula_sum   'Eu4 Hf4 Mo14 O56'
_cell_volume   1390.47422195
_cell_formula_units_Z   2
loop_
 _symmetry_equiv_pos_site_id
 _symmetry_equiv_pos_as_xyz
  1  'x, y, z'
loop_
 _atom_site_type_symbol
 _atom_site_label
 _atom_site_symmetry_multiplicity
 _atom_site_fract_x
 _atom_site_fract_y
 _atom_site_fract_z
 _atom_site_occupancy
  Eu  Eu0  1  0.15027605  0.27580580  0.93703732  1
  Eu  Eu1  1  0.84972395  0.72419420  0.06296268  1
  Eu  Eu2  1  0.87447025  0.72419420  0.56296268  1
  Eu  Eu3  1  0.12552975  0.27580580  0.43703732  1
  Hf  Hf4  1  0.41867591  0.76806486  0.81209910  1
  Hf  Hf5  1  0.58132409  0.23193514  0.18790090  1
  Hf  Hf6  1  0.65061105  0.23193514  0.68790090  1
  Hf  Hf7  1  0.34938895  0.76806486  0.31209910  1
  Mo  Mo8  1  0.49992732  0.48748296  0.82507966  1
  Mo  Mo9  1  0.50007268  0.51251704  0.17492034  1
  Mo  Mo10  1  0.01244436  0.51251704  0.67492034  1
  Mo  Mo11  1  0.98755564  0.48748296  0.32507966  1
  Mo  Mo12  1  0.45483680  0.68538034  0.52361335  1
  Mo  Mo13  1  0.54516320  0.31461966  0.47638665  1
  Mo  Mo14  1  0.76945646  0.31461966  0.97638665  1
  Mo  Mo15  1  0.23054354  0.68538034  0.02361335  1
  Mo  Mo16  1  0.80964399  0.87874546  0.85304987  1
  Mo  Mo17  1  0.19035601  0.12125454  0.14695013  1
  Mo  Mo18  1  0.93089853  0.12125454  0.64695013  1
  Mo  Mo19  1  0.06910147  0.87874546  0.35304987  1
  Mo  Mo20  1  0.29923733  0.00000000  0.75000000  1
  Mo  Mo21  1  0.70076267  1.00000000  0.25000000  1
  O  O22  1  0.48752370  0.61370874  0.78230279  1
  O  O23  1  0.51247630  0.38629126  0.21769721  1
  O  O24  1  0.87381496  0.38629126  0.71769721  1
  O  O25  1  0.12618504  0.61370874  0.28230279  1
  O  O26  1  0.63807293  0.71348601  0.50460839  1
  O  O27  1  0.36192707  0.28651399  0.49539161  1
  O  O28  1  0.92458692  0.28651399  0.99539161  1
  O  O29  1  0.07541308  0.71348601  0.00460839  1
  O  O30  1  0.31933309  0.37782570  0.83264779  1
  O  O31  1  0.68066691  0.62217430  0.16735221  1
  O  O32  1  0.94150739  0.62217430  0.66735221  1
  O  O33  1  0.05849261  0.37782570  0.33264779  1
  O  O34  1  0.93576774  0.96271590  0.60191936  1
  O  O35  1  0.06423226  0.03728410  0.39808064  1
  O  O36  1  0.97305184  0.03728410  0.89808064  1
  O  O37  1  0.02694816  0.96271590  0.10191936  1
  O  O38  1  0.79598682  0.79503313  0.71858776  1
  O  O39  1  0.20401318  0.20496687  0.28141224  1
  O  O40  1  0.00095368  0.20496687  0.78141224  1
  O  O41  1  0.99904632  0.79503313  0.21858776  1
  O  O42  1  0.57521705  0.38106362  0.73917173  1
  O  O43  1  0.42478295  0.61893638  0.26082827  1
  O  O44  1  0.19415344  0.61893638  0.76082827  1
  O  O45  1  0.80584656  0.38106362  0.23917173  1
  O  O46  1  0.66355548  0.49185641  0.52929300  1
  O  O47  1  0.33644452  0.50814359  0.47070700  1
  O  O48  1  0.17169906  0.50814359  0.97070700  1
  O  O49  1  0.82830094  0.49185641  0.02929300  1
  O  O50  1  0.82924922  0.77728381  0.91539877  1
  O  O51  1  0.17075078  0.22271619  0.08460123  1
  O  O52  1  0.05196541  0.22271619  0.58460123  1
  O  O53  1  0.94803459  0.77728381  0.41539877  1
  O  O54  1  0.60786888  0.57016694  0.95038314  1
  O  O55  1  0.39213112  0.42983306  0.04961686  1
  O  O56  1  0.03770195  0.42983306  0.54961686  1
  O  O57  1  0.96229805  0.57016694  0.45038314  1
  O  O58  1  0.37447620  0.76458754  0.95461671  1
  O  O59  1  0.62552380  0.23541246  0.04538329  1
  O  O60  1  0.60988867  0.23541246  0.54538329  1
  O  O61  1  0.39011133  0.76458754  0.45461671  1
  O  O62  1  0.26096234  0.12489510  0.84079416  1
  O  O63  1  0.73903766  0.87510490  0.15920584  1
  O  O64  1  0.13606724  0.87510490  0.65920584  1
  O  O65  1  0.86393276  0.12489510  0.34079416  1
  O  O66  1  0.44140259  0.07990481  0.68080140  1
  O  O67  1  0.55859741  0.92009519  0.31919860  1
  O  O68  1  0.36149778  0.92009519  0.81919860  1
  O  O69  1  0.63850222  0.07990481  0.18080140  1
  O  O70  1  0.64035408  0.90373357  0.87362001  1
  O  O71  1  0.35964592  0.09626643  0.12637999  1
  O  O72  1  0.73662051  0.09626643  0.62637999  1
  O  O73  1  0.26337949  0.90373357  0.37362001  1
  O  O74  1  0.44889651  0.75121309  0.66117447  1
  O  O75  1  0.55110349  0.24878691  0.33882553  1
  O  O76  1  0.69768342  0.24878691  0.83882553  1
  O  O77  1  0.30231658  0.75121309  0.16117447  1
