# generated using pymatgen
data_Cs2MnI4
_symmetry_space_group_name_H-M   'P 1'
_cell_length_a   8.62824052
_cell_length_b   11.31461347
_cell_length_c   15.08622568
_cell_angle_alpha   90.00000000
_cell_angle_beta   90.00000000
_cell_angle_gamma   90.00000000
_symmetry_Int_Tables_number   1
_chemical_formula_structural   Cs2MnI4
_chemical_formula_sum   'Cs8 Mn4 I16'
_cell_volume   1472.79589596
_cell_formula_units_Z   4
loop_
 _symmetry_equiv_pos_site_id
 _symmetry_equiv_pos_as_xyz
  1  'x, y, z'
loop_
 _atom_site_type_symbol
 _atom_site_label
 _atom_site_symmetry_multiplicity
 _atom_site_fract_x
 _atom_site_fract_y
 _atom_site_fract_z
 _atom_site_occupancy
  Cs  Cs0  1  0.75000000  0.51621166  0.32282132  1
  Cs  Cs1  1  0.25000000  0.48378834  0.67717868  1
  Cs  Cs2  1  0.25000000  0.98378834  0.82282132  1
  Cs  Cs3  1  0.75000000  0.01621166  0.17717868  1
  Cs  Cs4  1  0.75000000  0.84816723  0.58474643  1
  Cs  Cs5  1  0.25000000  0.15183277  0.41525357  1
  Cs  Cs6  1  0.25000000  0.65183277  0.08474643  1
  Cs  Cs7  1  0.75000000  0.34816723  0.91525357  1
  Mn  Mn8  1  0.75000000  0.76784096  0.92205367  1
  Mn  Mn9  1  0.25000000  0.23215904  0.07794633  1
  Mn  Mn10  1  0.25000000  0.73215904  0.42205367  1
  Mn  Mn11  1  0.75000000  0.26784096  0.57794633  1
  I  I12  1  0.00487404  0.68358872  0.84143603  1
  I  I13  1  0.99512596  0.31641128  0.15856397  1
  I  I14  1  0.99512596  0.81641128  0.34143603  1
  I  I15  1  0.50487404  0.31641128  0.15856397  1
  I  I16  1  0.00487404  0.18358872  0.65856397  1
  I  I17  1  0.49512596  0.68358872  0.84143603  1
  I  I18  1  0.49512596  0.18358872  0.65856397  1
  I  I19  1  0.50487404  0.81641128  0.34143603  1
  I  I20  1  0.75000000  0.00540170  0.91535572  1
  I  I21  1  0.25000000  0.99459830  0.08464428  1
  I  I22  1  0.25000000  0.49459830  0.41535572  1
  I  I23  1  0.75000000  0.50540170  0.58464428  1
  I  I24  1  0.75000000  0.18508458  0.40956543  1
  I  I25  1  0.25000000  0.81491542  0.59043457  1
  I  I26  1  0.25000000  0.31491542  0.90956543  1
  I  I27  1  0.75000000  0.68508458  0.09043457  1
