# generated using pymatgen
data_Ce3(Al3Os)4
_symmetry_space_group_name_H-M   'P 1'
_cell_length_a   8.91092525
_cell_length_b   8.91092525
_cell_length_c   9.57826691
_cell_angle_alpha   90.00000000
_cell_angle_beta   90.00000000
_cell_angle_gamma   120.00000411
_symmetry_Int_Tables_number   1
_chemical_formula_structural   Ce3(Al3Os)4
_chemical_formula_sum   'Ce6 Al24 Os8'
_cell_volume   658.66282147
_cell_formula_units_Z   2
loop_
 _symmetry_equiv_pos_site_id
 _symmetry_equiv_pos_as_xyz
  1  'x, y, z'
loop_
 _atom_site_type_symbol
 _atom_site_label
 _atom_site_symmetry_multiplicity
 _atom_site_fract_x
 _atom_site_fract_y
 _atom_site_fract_z
 _atom_site_occupancy
  Ce  Ce0  1  0.80677835  0.19322165  0.75000000  1
  Ce  Ce1  1  0.19322165  0.80677835  0.25000000  1
  Ce  Ce2  1  0.38644331  0.19322165  0.75000000  1
  Ce  Ce3  1  0.61355669  0.80677835  0.25000000  1
  Ce  Ce4  1  0.80677835  0.61355669  0.75000000  1
  Ce  Ce5  1  0.19322165  0.38644331  0.25000000  1
  Al  Al6  1  0.66666700  0.33333300  0.98862269  1
  Al  Al7  1  0.33333300  0.66666700  0.01137731  1
  Al  Al8  1  0.33333300  0.66666700  0.48862269  1
  Al  Al9  1  0.66666700  0.33333300  0.51137731  1
  Al  Al10  1  0.83762491  0.16237509  0.42415123  1
  Al  Al11  1  0.16237509  0.83762491  0.57584877  1
  Al  Al12  1  0.32475019  0.16237509  0.42415123  1
  Al  Al13  1  0.16237509  0.83762491  0.92415123  1
  Al  Al14  1  0.67524981  0.83762491  0.57584877  1
  Al  Al15  1  0.83762491  0.16237509  0.07584877  1
  Al  Al16  1  0.83762491  0.67524981  0.42415123  1
  Al  Al17  1  0.67524981  0.83762491  0.92415123  1
  Al  Al18  1  0.16237509  0.32475019  0.57584877  1
  Al  Al19  1  0.32475019  0.16237509  0.07584877  1
  Al  Al20  1  0.16237509  0.32475019  0.92415123  1
  Al  Al21  1  0.83762491  0.67524981  0.07584877  1
  Al  Al22  1  0.43723041  0.56276959  0.75000000  1
  Al  Al23  1  0.56276959  0.43723041  0.25000000  1
  Al  Al24  1  0.12553918  0.56276959  0.75000000  1
  Al  Al25  1  0.87446082  0.43723041  0.25000000  1
  Al  Al26  1  0.43723041  0.87446082  0.75000000  1
  Al  Al27  1  0.56276959  0.12553918  0.25000000  1
  Al  Al28  1  -0.00000000  -0.00000000  0.75000000  1
  Al  Al29  1  -0.00000000  -0.00000000  0.25000000  1
  Os  Os30  1  0.50000000  0.50000000  -0.00000000  1
  Os  Os31  1  -0.00000000  0.50000000  -0.00000000  1
  Os  Os32  1  0.50000000  0.50000000  0.50000000  1
  Os  Os33  1  0.50000000  -0.00000000  -0.00000000  1
  Os  Os34  1  -0.00000000  0.50000000  0.50000000  1
  Os  Os35  1  0.50000000  -0.00000000  0.50000000  1
  Os  Os36  1  -0.00000000  -0.00000000  -0.00000000  1
  Os  Os37  1  -0.00000000  -0.00000000  0.50000000  1
