# generated using pymatgen
data_CaMnSiO4
_symmetry_space_group_name_H-M   'P 1'
_cell_length_a   4.99549714
_cell_length_b   6.59519947
_cell_length_c   11.24809273
_cell_angle_alpha   90.00000000
_cell_angle_beta   90.00000000
_cell_angle_gamma   90.00000000
_symmetry_Int_Tables_number   1
_chemical_formula_structural   CaMnSiO4
_chemical_formula_sum   'Ca4 Mn4 Si4 O16'
_cell_volume   370.58303852
_cell_formula_units_Z   4
loop_
 _symmetry_equiv_pos_site_id
 _symmetry_equiv_pos_as_xyz
  1  'x, y, z'
loop_
 _atom_site_type_symbol
 _atom_site_label
 _atom_site_symmetry_multiplicity
 _atom_site_fract_x
 _atom_site_fract_y
 _atom_site_fract_z
 _atom_site_occupancy
  Ca  Ca0  1  0.47759393  0.75000000  0.77692349  1
  Ca  Ca1  1  0.52240607  0.25000000  0.22307651  1
  Ca  Ca2  1  0.97759393  0.25000000  0.72307651  1
  Ca  Ca3  1  0.02240607  0.75000000  0.27692349  1
  Mn  Mn4  1  0.00000000  0.00000000  -0.00000000  1
  Mn  Mn5  1  0.50000000  0.00000000  0.50000000  1
  Mn  Mn6  1  0.00000000  0.50000000  0.00000000  1
  Mn  Mn7  1  0.50000000  0.50000000  0.50000000  1
  Si  Si8  1  0.91477635  0.75000000  0.58534472  1
  Si  Si9  1  0.08522365  0.25000000  0.41465528  1
  Si  Si10  1  0.41477635  0.25000000  0.91465528  1
  Si  Si11  1  0.58522365  0.75000000  0.08534472  1
  O  O12  1  0.78068045  0.95027967  0.65226391  1
  O  O13  1  0.21931955  0.04972033  0.34773609  1
  O  O14  1  0.28068045  0.04972033  0.84773609  1
  O  O15  1  0.21931955  0.45027967  0.34773609  1
  O  O16  1  0.71931955  0.95027967  0.15226391  1
  O  O17  1  0.78068045  0.54972033  0.65226391  1
  O  O18  1  0.71931955  0.54972033  0.15226391  1
  O  O19  1  0.28068045  0.45027967  0.84773609  1
  O  O20  1  0.73013611  0.75000000  0.95012517  1
  O  O21  1  0.26986389  0.25000000  0.04987483  1
  O  O22  1  0.23013611  0.25000000  0.54987483  1
  O  O23  1  0.76986389  0.75000000  0.45012517  1
  O  O24  1  0.24165990  0.75000000  0.58218137  1
  O  O25  1  0.75834010  0.25000000  0.41781863  1
  O  O26  1  0.74165990  0.25000000  0.91781863  1
  O  O27  1  0.25834010  0.75000000  0.08218137  1
