# generated using pymatgen
data_Ce11(Ni2Ge3)2
_symmetry_space_group_name_H-M   'P 1'
_cell_length_a   4.23123287
_cell_length_b   9.16313540
_cell_length_c   13.68981645
_cell_angle_alpha   106.82316400
_cell_angle_beta   90.00000000
_cell_angle_gamma   103.34909045
_symmetry_Int_Tables_number   1
_chemical_formula_structural   Ce11(Ni2Ge3)2
_chemical_formula_sum   'Ce11 Ni4 Ge6'
_cell_volume   493.05609937
_cell_formula_units_Z   1
loop_
 _symmetry_equiv_pos_site_id
 _symmetry_equiv_pos_as_xyz
  1  'x, y, z'
loop_
 _atom_site_type_symbol
 _atom_site_label
 _atom_site_symmetry_multiplicity
 _atom_site_fract_x
 _atom_site_fract_y
 _atom_site_fract_z
 _atom_site_occupancy
  Ce  Ce0  1  0.90358493  0.80716986  0.71699744  1
  Ce  Ce1  1  0.09641507  0.19283014  0.28300256  1
  Ce  Ce2  1  0.55007483  0.10014966  0.62790447  1
  Ce  Ce3  1  0.44992517  0.89985034  0.37209553  1
  Ce  Ce4  1  0.78378276  0.56756552  0.40021889  1
  Ce  Ce5  1  0.21621724  0.43243448  0.59978111  1
  Ce  Ce6  1  0.85755846  0.71511692  0.15137125  1
  Ce  Ce7  1  0.14244154  0.28488308  0.84862875  1
  Ce  Ce8  1  0.34161472  0.68322945  0.90725958  1
  Ce  Ce9  1  0.65838528  0.31677055  0.09274042  1
  Ce  Ce10  1  0.00000000  0.00000000  0.00000000  1
  Ni  Ni11  1  0.94000061  0.88000121  0.52486085  1
  Ni  Ni12  1  0.05999939  0.11999879  0.47513915  1
  Ni  Ni13  1  0.75223236  0.50446471  0.95067854  1
  Ni  Ni14  1  0.24776764  0.49553529  0.04932146  1
  Ge  Ge15  1  0.73722696  0.47445391  0.76365342  1
  Ge  Ge16  1  0.26277304  0.52554609  0.23634658  1
  Ge  Ge17  1  0.62904859  0.25809719  0.45093186  1
  Ge  Ge18  1  0.37095141  0.74190281  0.54906814  1
  Ge  Ge19  1  0.51433857  0.02867715  0.84878244  1
  Ge  Ge20  1  0.48566143  0.97132285  0.15121756  1
