# generated using pymatgen
data_Be3Ag4P3BrO12
_symmetry_space_group_name_H-M   'P 1'
_cell_length_a   8.63032024
_cell_length_b   8.63032024
_cell_length_c   8.63032024
_cell_angle_alpha   90.00000000
_cell_angle_beta   90.00000000
_cell_angle_gamma   90.00000000
_symmetry_Int_Tables_number   1
_chemical_formula_structural   Be3Ag4P3BrO12
_chemical_formula_sum   'Be6 Ag8 P6 Br2 O24'
_cell_volume   642.80720110
_cell_formula_units_Z   2
loop_
 _symmetry_equiv_pos_site_id
 _symmetry_equiv_pos_as_xyz
  1  'x, y, z'
loop_
 _atom_site_type_symbol
 _atom_site_label
 _atom_site_symmetry_multiplicity
 _atom_site_fract_x
 _atom_site_fract_y
 _atom_site_fract_z
 _atom_site_occupancy
  Be  Be0  1  0.25000000  -0.00000000  0.50000000  1
  Be  Be1  1  0.75000000  -0.00000000  0.50000000  1
  Be  Be2  1  0.50000000  0.25000000  -0.00000000  1
  Be  Be3  1  0.50000000  0.75000000  -0.00000000  1
  Be  Be4  1  -0.00000000  0.50000000  0.25000000  1
  Be  Be5  1  -0.00000000  0.50000000  0.75000000  1
  Ag  Ag6  1  0.17201438  0.17201438  0.17201438  1
  Ag  Ag7  1  0.82798562  0.82798562  0.17201438  1
  Ag  Ag8  1  0.82798562  0.17201438  0.82798562  1
  Ag  Ag9  1  0.67201438  0.67201438  0.67201438  1
  Ag  Ag10  1  0.17201438  0.82798562  0.82798562  1
  Ag  Ag11  1  0.32798562  0.32798562  0.67201438  1
  Ag  Ag12  1  0.67201438  0.32798562  0.32798562  1
  Ag  Ag13  1  0.32798562  0.67201438  0.32798562  1
  P  P14  1  0.25000000  0.50000000  -0.00000000  1
  P  P15  1  0.75000000  0.50000000  -0.00000000  1
  P  P16  1  -0.00000000  0.25000000  0.50000000  1
  P  P17  1  -0.00000000  0.75000000  0.50000000  1
  P  P18  1  0.50000000  -0.00000000  0.25000000  1
  P  P19  1  0.50000000  -0.00000000  0.75000000  1
  Br  Br20  1  -0.00000000  -0.00000000  -0.00000000  1
  Br  Br21  1  0.50000000  0.50000000  0.50000000  1
  O  O22  1  0.14172405  0.14981113  0.45293976  1
  O  O23  1  0.85827595  0.85018887  0.45293976  1
  O  O24  1  0.85827595  0.14981113  0.54706024  1
  O  O25  1  0.45293976  0.14172405  0.14981113  1
  O  O26  1  0.64981113  0.64172405  0.95293976  1
  O  O27  1  0.14172405  0.85018887  0.54706024  1
  O  O28  1  0.45293976  0.85827595  0.85018887  1
  O  O29  1  0.35018887  0.35827595  0.95293976  1
  O  O30  1  0.54706024  0.85827595  0.14981113  1
  O  O31  1  0.64981113  0.35827595  0.04706024  1
  O  O32  1  0.54706024  0.14172405  0.85018887  1
  O  O33  1  0.35018887  0.64172405  0.04706024  1
  O  O34  1  0.14981113  0.45293976  0.14172405  1
  O  O35  1  0.64172405  0.95293976  0.64981113  1
  O  O36  1  0.14981113  0.54706024  0.85827595  1
  O  O37  1  0.35827595  0.04706024  0.64981113  1
  O  O38  1  0.85018887  0.54706024  0.14172405  1
  O  O39  1  0.64172405  0.04706024  0.35018887  1
  O  O40  1  0.85018887  0.45293976  0.85827595  1
  O  O41  1  0.35827595  0.95293976  0.35018887  1
  O  O42  1  0.95293976  0.64981113  0.64172405  1
  O  O43  1  0.95293976  0.35018887  0.35827595  1
  O  O44  1  0.04706024  0.35018887  0.64172405  1
  O  O45  1  0.04706024  0.64981113  0.35827595  1
