# generated using pymatgen
data_Cs2MnH12(SeO7)2
_symmetry_space_group_name_H-M   'P 1'
_cell_length_a   6.76102727
_cell_length_b   9.65256076
_cell_length_c   13.42734333
_cell_angle_alpha   90.00000000
_cell_angle_beta   90.00000000
_cell_angle_gamma   105.54015639
_symmetry_Int_Tables_number   1
_chemical_formula_structural   Cs2MnH12(SeO7)2
_chemical_formula_sum   'Cs4 Mn2 H24 Se4 O28'
_cell_volume   844.25047762
_cell_formula_units_Z   2
loop_
 _symmetry_equiv_pos_site_id
 _symmetry_equiv_pos_as_xyz
  1  'x, y, z'
loop_
 _atom_site_type_symbol
 _atom_site_label
 _atom_site_symmetry_multiplicity
 _atom_site_fract_x
 _atom_site_fract_y
 _atom_site_fract_z
 _atom_site_occupancy
  Cs  Cs0  1  0.85513964  0.62725591  0.13745585  1
  Cs  Cs1  1  0.14486036  0.37274409  0.86254415  1
  Cs  Cs2  1  0.14486036  0.87274409  0.63745585  1
  Cs  Cs3  1  0.85513964  0.12725591  0.36254415  1
  Mn  Mn4  1  0.50000000  0.00000000  -0.00000000  1
  Mn  Mn5  1  0.50000000  0.50000000  0.50000000  1
  H  H6  1  0.80308898  0.71124977  0.39165313  1
  H  H7  1  0.19691102  0.28875023  0.60834687  1
  H  H8  1  0.19691102  0.78875023  0.89165313  1
  H  H9  1  0.80308898  0.21124977  0.10834687  1
  H  H10  1  0.80686506  0.52078524  0.63813847  1
  H  H11  1  0.19313494  0.47921476  0.36186153  1
  H  H12  1  0.19313494  0.97921476  0.13813847  1
  H  H13  1  0.80686506  0.02078524  0.86186153  1
  H  H14  1  0.41732408  0.76559846  0.86172513  1
  H  H15  1  0.58267592  0.23440154  0.13827487  1
  H  H16  1  0.58267592  0.73440154  0.36172513  1
  H  H17  1  0.41732408  0.26559846  0.63827487  1
  H  H18  1  0.51633930  0.65203344  0.68149568  1
  H  H19  1  0.48366070  0.34796656  0.31850432  1
  H  H20  1  0.48366070  0.84796656  0.18149568  1
  H  H21  1  0.51633930  0.15203344  0.81850432  1
  H  H22  1  0.57571666  0.77490474  0.59939853  1
  H  H23  1  0.42428334  0.22509526  0.40060147  1
  H  H24  1  0.42428334  0.72509526  0.09939853  1
  H  H25  1  0.57571666  0.27490474  0.90060147  1
  H  H26  1  0.82002339  0.89286591  0.93281684  1
  H  H27  1  0.17997661  0.10713409  0.06718316  1
  H  H28  1  0.17997661  0.60713409  0.43281684  1
  H  H29  1  0.82002339  0.39286591  0.56718316  1
  Se  Se30  1  0.75590611  0.60239517  0.84903691  1
  Se  Se31  1  0.24409389  0.39760483  0.15096309  1
  Se  Se32  1  0.24409389  0.89760483  0.34903691  1
  Se  Se33  1  0.75590611  0.10239517  0.65096309  1
  O  O34  1  0.53625780  0.63692323  0.81006520  1
  O  O35  1  0.46374220  0.36307677  0.18993480  1
  O  O36  1  0.46374220  0.86307677  0.31006520  1
  O  O37  1  0.53625780  0.13692323  0.68993480  1
  O  O38  1  0.70445469  0.95439675  0.58016183  1
  O  O39  1  0.29554531  0.04560325  0.41983817  1
  O  O40  1  0.29554531  0.54560325  0.08016183  1
  O  O41  1  0.70445469  0.45439675  0.91983817  1
  O  O42  1  0.34360480  0.83714499  0.88316266  1
  O  O43  1  0.65639520  0.16285501  0.11683734  1
  O  O44  1  0.65639520  0.66285501  0.38316266  1
  O  O45  1  0.34360480  0.33714499  0.61683734  1
  O  O46  1  0.49738552  0.67322986  0.60996257  1
  O  O47  1  0.50261448  0.32677014  0.39003743  1
  O  O48  1  0.50261448  0.82677014  0.10996257  1
  O  O49  1  0.49738552  0.17322986  0.89003743  1
  O  O50  1  0.89668448  0.73945520  0.91759032  1
  O  O51  1  0.10331552  0.26054480  0.08240968  1
  O  O52  1  0.10331552  0.76054480  0.41759032  1
  O  O53  1  0.89668448  0.23945520  0.58240968  1
  O  O54  1  0.77943913  0.98464396  0.93144800  1
  O  O55  1  0.22056087  0.01535604  0.06855200  1
  O  O56  1  0.22056087  0.51535604  0.43144800  1
  O  O57  1  0.77943913  0.48464396  0.56855200  1
  O  O58  1  0.89886207  0.58276253  0.75069258  1
  O  O59  1  0.10113793  0.41723747  0.24930742  1
  O  O60  1  0.10113793  0.91723747  0.25069258  1
  O  O61  1  0.89886207  0.08276253  0.74930742  1
