# generated using pymatgen
data_C3N4
_symmetry_space_group_name_H-M   'P 1'
_cell_length_a   3.61941654
_cell_length_b   7.14230675
_cell_length_c   7.14099200
_cell_angle_alpha   119.99939524
_cell_angle_beta   90.00000000
_cell_angle_gamma   90.00000000
_symmetry_Int_Tables_number   1
_chemical_formula_structural   C3N4
_chemical_formula_sum   'C6 N8'
_cell_volume   159.87070508
_cell_formula_units_Z   2
loop_
 _symmetry_equiv_pos_site_id
 _symmetry_equiv_pos_as_xyz
  1  'x, y, z'
loop_
 _atom_site_type_symbol
 _atom_site_label
 _atom_site_symmetry_multiplicity
 _atom_site_fract_x
 _atom_site_fract_y
 _atom_site_fract_z
 _atom_site_occupancy
  C  C0  1  -0.00000000  0.11950276  0.88049546  1
  C  C1  1  -0.00000000  0.11951047  0.23902306  1
  C  C2  1  -0.00000000  0.76103186  0.88050733  1
  C  C3  1  -0.00000000  0.44621397  0.89262268  1
  C  C4  1  0.00000000  0.10732454  0.55358906  1
  C  C5  1  -0.00000000  0.44614873  0.55350978  1
  N  N6  1  -0.00000000  -0.00004912  -0.00004841  1
  N  N7  1  -0.00000000  0.33526805  0.99653091  1
  N  N8  1  0.00000000  0.00346418  0.33872148  1
  N  N9  1  0.00000000  0.66143120  0.66488226  1
  N  N10  1  0.00000000  0.66140488  0.99654980  1
  N  N11  1  -0.00000000  0.00344674  0.66481475  1
  N  N12  1  0.00000000  0.33530811  0.33877649  1
  N  N13  1  -0.00000000  0.33339361  0.66672535  1
