# generated using pymatgen
data_CeTl(PO3)4
_symmetry_space_group_name_H-M   'P 1'
_cell_length_a   9.20044159
_cell_length_b   10.66851630
_cell_length_c   11.17816571
_cell_angle_alpha   106.11212054
_cell_angle_beta   90.00000000
_cell_angle_gamma   90.00000000
_symmetry_Int_Tables_number   1
_chemical_formula_structural   CeTl(PO3)4
_chemical_formula_sum   'Ce4 Tl4 P16 O48'
_cell_volume   1054.09628961
_cell_formula_units_Z   4
loop_
 _symmetry_equiv_pos_site_id
 _symmetry_equiv_pos_as_xyz
  1  'x, y, z'
loop_
 _atom_site_type_symbol
 _atom_site_label
 _atom_site_symmetry_multiplicity
 _atom_site_fract_x
 _atom_site_fract_y
 _atom_site_fract_z
 _atom_site_occupancy
  Ce  Ce0  1  0.77354398  0.00030261  0.81584590  1
  Ce  Ce1  1  0.22645602  0.99969739  0.18415410  1
  Ce  Ce2  1  0.27354398  0.49969739  0.68415410  1
  Ce  Ce3  1  0.72645602  0.50030261  0.31584590  1
  Tl  Tl4  1  0.06471339  0.79343833  0.53957755  1
  Tl  Tl5  1  0.93528661  0.20656167  0.46042245  1
  Tl  Tl6  1  0.56471339  0.70656167  0.96042245  1
  Tl  Tl7  1  0.43528661  0.29343833  0.03957755  1
  P  P8  1  0.02453672  0.25057239  0.77631001  1
  P  P9  1  0.97546328  0.74942761  0.22368999  1
  P  P10  1  0.52453672  0.24942761  0.72368999  1
  P  P11  1  0.47546328  0.75057239  0.27631001  1
  P  P12  1  0.40348910  0.85510204  0.73957288  1
  P  P13  1  0.59651090  0.14489796  0.26042712  1
  P  P14  1  0.90348910  0.64489796  0.76042712  1
  P  P15  1  0.09651090  0.35510204  0.23957288  1
  P  P16  1  0.10275567  0.67616700  0.97759191  1
  P  P17  1  0.89724433  0.32383300  0.02240809  1
  P  P18  1  0.60275567  0.82383300  0.52240809  1
  P  P19  1  0.39724433  0.17616700  0.47759191  1
  P  P20  1  0.17392639  0.04072932  0.85855046  1
  P  P21  1  0.82607361  0.95927068  0.14144954  1
  P  P22  1  0.67392639  0.45927068  0.64144954  1
  P  P23  1  0.32607361  0.54072932  0.35855046  1
  O  O24  1  0.29254619  0.97671227  0.75106654  1
  O  O25  1  0.70745381  0.02328773  0.24893346  1
  O  O26  1  0.79254619  0.52328773  0.74893346  1
  O  O27  1  0.20745381  0.47671227  0.25106654  1
  O  O28  1  0.24447581  0.06554113  0.98433548  1
  O  O29  1  0.75552419  0.93445887  0.01566452  1
  O  O30  1  0.74447581  0.43445887  0.51566452  1
  O  O31  1  0.25552419  0.56554113  0.48433548  1
  O  O32  1  0.81896479  0.76089307  0.74834634  1
  O  O33  1  0.18103521  0.23910693  0.25165366  1
  O  O34  1  0.31896479  0.73910693  0.75165366  1
  O  O35  1  0.68103521  0.26089307  0.24834634  1
  O  O36  1  0.41248637  0.35086426  0.78236375  1
  O  O37  1  0.58751363  0.64913574  0.21763625  1
  O  O38  1  0.91248637  0.14913574  0.71763625  1
  O  O39  1  0.08751363  0.85086426  0.28236375  1
  O  O40  1  0.08903329  0.32743860  0.69539965  1
  O  O41  1  0.91096671  0.67256140  0.30460035  1
  O  O42  1  0.58903329  0.17256140  0.80460035  1
  O  O43  1  0.41096671  0.82743860  0.19539965  1
  O  O44  1  0.65825431  0.68618173  0.48584367  1
  O  O45  1  0.34174569  0.31381827  0.51415633  1
  O  O46  1  0.15825431  0.81381827  0.01415633  1
  O  O47  1  0.84174569  0.18618173  0.98584367  1
  O  O48  1  0.53214051  0.89812925  0.82465519  1
  O  O49  1  0.46785949  0.10187075  0.17534481  1
  O  O50  1  0.03214051  0.60187075  0.67534481  1
  O  O51  1  0.96785949  0.39812925  0.32465519  1
  O  O52  1  0.44952917  0.83216472  0.59654619  1
  O  O53  1  0.55047083  0.16783528  0.40345381  1
  O  O54  1  0.94952917  0.66783528  0.90345381  1
  O  O55  1  0.05047083  0.33216472  0.09654619  1
  O  O56  1  0.03548399  0.96388588  0.82879692  1
  O  O57  1  0.96451601  0.03611412  0.17120308  1
  O  O58  1  0.53548399  0.53611412  0.67120308  1
  O  O59  1  0.46451601  0.46388588  0.32879692  1
  O  O60  1  0.15591535  0.18259791  0.83320269  1
  O  O61  1  0.84408465  0.81740209  0.16679731  1
  O  O62  1  0.65591535  0.31740209  0.66679731  1
  O  O63  1  0.34408465  0.68259791  0.33320269  1
  O  O64  1  0.20265957  0.56901383  0.90865721  1
  O  O65  1  0.79734043  0.43098617  0.09134279  1
  O  O66  1  0.70265957  0.93098617  0.59134279  1
  O  O67  1  0.29734043  0.06901383  0.40865721  1
  O  O68  1  0.45953016  0.14394381  0.60148793  1
  O  O69  1  0.54046984  0.85605619  0.39851207  1
  O  O70  1  0.95953016  0.35605619  0.89851207  1
  O  O71  1  0.04046984  0.64394381  0.10148793  1
