# generated using pymatgen
data_GaH18I3N7
_symmetry_space_group_name_H-M   'P 1'
_cell_length_a   7.84237169
_cell_length_b   13.91786903
_cell_length_c   15.55121803
_cell_angle_alpha   90.00000000
_cell_angle_beta   90.00000000
_cell_angle_gamma   90.00000000
_symmetry_Int_Tables_number   1
_chemical_formula_structural   GaH18I3N7
_chemical_formula_sum   'Ga4 H72 I12 N28'
_cell_volume   1697.40148401
_cell_formula_units_Z   4
loop_
 _symmetry_equiv_pos_site_id
 _symmetry_equiv_pos_as_xyz
  1  'x, y, z'
loop_
 _atom_site_type_symbol
 _atom_site_label
 _atom_site_symmetry_multiplicity
 _atom_site_fract_x
 _atom_site_fract_y
 _atom_site_fract_z
 _atom_site_occupancy
  Ga  Ga0  1  0.75000000  0.27542919  0.59805841  1
  Ga  Ga1  1  0.75000000  0.77542919  0.90194159  1
  Ga  Ga2  1  0.25000000  0.72457081  0.40194159  1
  Ga  Ga3  1  0.25000000  0.22457081  0.09805841  1
  H  H4  1  0.75000000  0.12735832  0.70603211  1
  H  H5  1  0.75000000  0.62735832  0.79396789  1
  H  H6  1  0.25000000  0.87264168  0.29396789  1
  H  H7  1  0.25000000  0.37264168  0.20603211  1
  H  H8  1  0.85538391  0.21633072  0.75183435  1
  H  H9  1  0.64461609  0.71633072  0.74816565  1
  H  H10  1  0.35538391  0.78366928  0.24816565  1
  H  H11  1  0.14461609  0.28366928  0.25183435  1
  H  H12  1  0.14461609  0.78366928  0.24816565  1
  H  H13  1  0.35538391  0.28366928  0.25183435  1
  H  H14  1  0.64461609  0.21633072  0.75183435  1
  H  H15  1  0.85538391  0.71633072  0.74816565  1
  H  H16  1  0.05832827  0.20318627  0.56391024  1
  H  H17  1  0.44167173  0.70318627  0.93608976  1
  H  H18  1  0.55832827  0.79681373  0.43608976  1
  H  H19  1  0.94167173  0.29681373  0.06391024  1
  H  H20  1  0.94167173  0.79681373  0.43608976  1
  H  H21  1  0.55832827  0.29681373  0.06391024  1
  H  H22  1  0.44167173  0.20318627  0.56391024  1
  H  H23  1  0.05832827  0.70318627  0.93608976  1
  H  H24  1  0.92390510  0.11266814  0.57512502  1
  H  H25  1  0.57609490  0.61266814  0.92487498  1
  H  H26  1  0.42390510  0.88733186  0.42487498  1
  H  H27  1  0.07609490  0.38733186  0.07512502  1
  H  H28  1  0.07609490  0.88733186  0.42487498  1
  H  H29  1  0.42390510  0.38733186  0.07512502  1
  H  H30  1  0.57609490  0.11266814  0.57512502  1
  H  H31  1  0.92390510  0.61266814  0.92487498  1
  H  H32  1  0.93230272  0.17196755  0.48375122  1
  H  H33  1  0.56769728  0.67196755  0.01624878  1
  H  H34  1  0.43230272  0.82803245  0.51624878  1
  H  H35  1  0.06769728  0.32803245  0.98375122  1
  H  H36  1  0.06769728  0.82803245  0.51624878  1
  H  H37  1  0.43230272  0.32803245  0.98375122  1
  H  H38  1  0.56769728  0.17196755  0.48375122  1
  H  H39  1  0.93230272  0.67196755  0.01624878  1
  H  H40  1  0.89657248  0.42397645  0.67887876  1
  H  H41  1  0.60342752  0.92397645  0.82112124  1
  H  H42  1  0.39657248  0.57602355  0.32112124  1
  H  H43  1  0.10342752  0.07602355  0.17887876  1
  H  H44  1  0.10342752  0.57602355  0.32112124  1
  H  H45  1  0.39657248  0.07602355  0.17887876  1
  H  H46  1  0.60342752  0.42397645  0.67887876  1
  H  H47  1  0.89657248  0.92397645  0.82112124  1
  H  H48  1  0.02394822  0.32960761  0.68554297  1
  H  H49  1  0.47605178  0.82960761  0.81445703  1
  H  H50  1  0.52394822  0.67039239  0.31445703  1
  H  H51  1  0.97605178  0.17039239  0.18554297  1
  H  H52  1  0.97605178  0.67039239  0.31445703  1
  H  H53  1  0.52394822  0.17039239  0.18554297  1
  H  H54  1  0.47605178  0.32960761  0.68554297  1
  H  H55  1  0.02394822  0.82960761  0.81445703  1
  H  H56  1  0.01919352  0.39236881  0.59581228  1
  H  H57  1  0.48080648  0.89236881  0.90418772  1
  H  H58  1  0.51919352  0.60763119  0.40418772  1
  H  H59  1  0.98080648  0.10763119  0.09581228  1
  H  H60  1  0.98080648  0.60763119  0.40418772  1
  H  H61  1  0.51919352  0.10763119  0.09581228  1
  H  H62  1  0.48080648  0.39236881  0.59581228  1
  H  H63  1  0.01919352  0.89236881  0.90418772  1
  H  H64  1  0.75000000  0.42548869  0.49368940  1
  H  H65  1  0.75000000  0.92548869  0.00631060  1
  H  H66  1  0.25000000  0.57451131  0.50631060  1
  H  H67  1  0.25000000  0.07451131  0.99368940  1
  H  H68  1  0.85514114  0.33911228  0.44429656  1
  H  H69  1  0.64485886  0.83911228  0.05570344  1
  H  H70  1  0.35514114  0.66088772  0.55570344  1
  H  H71  1  0.14485886  0.16088772  0.94429656  1
  H  H72  1  0.14485886  0.66088772  0.55570344  1
  H  H73  1  0.35514114  0.16088772  0.94429656  1
  H  H74  1  0.64485886  0.33911228  0.44429656  1
  H  H75  1  0.85514114  0.83911228  0.05570344  1
  I  I76  1  0.75000000  0.10995950  0.96081097  1
  I  I77  1  0.75000000  0.60995950  0.53918903  1
  I  I78  1  0.25000000  0.89004050  0.03918903  1
  I  I79  1  0.25000000  0.39004050  0.46081097  1
  I  I80  1  0.75000000  0.44824238  0.85963392  1
  I  I81  1  0.75000000  0.94824238  0.64036608  1
  I  I82  1  0.25000000  0.55175762  0.14036608  1
  I  I83  1  0.25000000  0.05175762  0.35963392  1
  I  I84  1  0.25000000  0.18332704  0.73517475  1
  I  I85  1  0.25000000  0.68332704  0.76482525  1
  I  I86  1  0.75000000  0.81667296  0.26482525  1
  I  I87  1  0.75000000  0.31667296  0.23517475  1
  N  N88  1  0.75000000  0.20111106  0.71517621  1
  N  N89  1  0.75000000  0.70111106  0.78482379  1
  N  N90  1  0.25000000  0.79888894  0.28482379  1
  N  N91  1  0.25000000  0.29888894  0.21517621  1
  N  N92  1  0.93728703  0.18065240  0.54930290  1
  N  N93  1  0.56271297  0.68065240  0.95069710  1
  N  N94  1  0.43728703  0.81934760  0.45069710  1
  N  N95  1  0.06271297  0.31934760  0.04930290  1
  N  N96  1  0.06271297  0.81934760  0.45069710  1
  N  N97  1  0.43728703  0.31934760  0.04930290  1
  N  N98  1  0.56271297  0.18065240  0.54930290  1
  N  N99  1  0.93728703  0.68065240  0.95069710  1
  N  N100  1  0.94314746  0.36644085  0.64477054  1
  N  N101  1  0.55685254  0.86644085  0.85522946  1
  N  N102  1  0.44314746  0.63355915  0.35522946  1
  N  N103  1  0.05685254  0.13355915  0.14477054  1
  N  N104  1  0.05685254  0.63355915  0.35522946  1
  N  N105  1  0.44314746  0.13355915  0.14477054  1
  N  N106  1  0.55685254  0.36644085  0.64477054  1
  N  N107  1  0.94314746  0.86644085  0.85522946  1
  N  N108  1  0.75000000  0.35224852  0.48188482  1
  N  N109  1  0.75000000  0.85224852  0.01811518  1
  N  N110  1  0.25000000  0.64775148  0.51811518  1
  N  N111  1  0.25000000  0.14775148  0.98188482  1
  N  N112  1  0.25000000  0.39958519  0.87557626  1
  N  N113  1  0.25000000  0.89958519  0.62442374  1
  N  N114  1  0.75000000  0.60041481  0.12442374  1
  N  N115  1  0.75000000  0.10041481  0.37557626  1
