# generated using pymatgen
data_Cs3La(MoO4)3
_symmetry_space_group_name_H-M   'P 1'
_cell_length_a   6.56724409
_cell_length_b   9.57543745
_cell_length_c   26.57538862
_cell_angle_alpha   90.00000000
_cell_angle_beta   90.00000000
_cell_angle_gamma   90.00000000
_symmetry_Int_Tables_number   1
_chemical_formula_structural   Cs3La(MoO4)3
_chemical_formula_sum   'Cs12 La4 Mo12 O48'
_cell_volume   1671.17298327
_cell_formula_units_Z   4
loop_
 _symmetry_equiv_pos_site_id
 _symmetry_equiv_pos_as_xyz
  1  'x, y, z'
loop_
 _atom_site_type_symbol
 _atom_site_label
 _atom_site_symmetry_multiplicity
 _atom_site_fract_x
 _atom_site_fract_y
 _atom_site_fract_z
 _atom_site_occupancy
  Cs  Cs0  1  0.75000000  0.97485027  0.40794553  1
  Cs  Cs1  1  0.25000000  0.02514973  0.59205447  1
  Cs  Cs2  1  0.25000000  0.52514973  0.90794553  1
  Cs  Cs3  1  0.75000000  0.47485027  0.09205447  1
  Cs  Cs4  1  0.75000000  0.89669268  0.82027797  1
  Cs  Cs5  1  0.25000000  0.10330732  0.17972203  1
  Cs  Cs6  1  0.25000000  0.60330732  0.32027797  1
  Cs  Cs7  1  0.75000000  0.39669268  0.67972203  1
  Cs  Cs8  1  0.75000000  0.81191884  0.24121392  1
  Cs  Cs9  1  0.25000000  0.18808116  0.75878608  1
  Cs  Cs10  1  0.25000000  0.68808116  0.74121392  1
  Cs  Cs11  1  0.75000000  0.31191884  0.25878608  1
  La  La12  1  0.75000000  0.68286137  0.54114871  1
  La  La13  1  0.25000000  0.31713863  0.45885129  1
  La  La14  1  0.25000000  0.81713863  0.04114871  1
  La  La15  1  0.75000000  0.18286137  0.95885129  1
  Mo  Mo16  1  0.75000000  0.88523609  0.67476601  1
  Mo  Mo17  1  0.25000000  0.11476391  0.32523399  1
  Mo  Mo18  1  0.25000000  0.61476391  0.17476601  1
  Mo  Mo19  1  0.75000000  0.38523609  0.82523399  1
  Mo  Mo20  1  0.75000000  0.74527529  0.97540569  1
  Mo  Mo21  1  0.25000000  0.25472471  0.02459431  1
  Mo  Mo22  1  0.25000000  0.75472471  0.47540569  1
  Mo  Mo23  1  0.75000000  0.24527529  0.52459431  1
  Mo  Mo24  1  0.75000000  0.52041685  0.39982811  1
  Mo  Mo25  1  0.25000000  0.47958315  0.60017189  1
  Mo  Mo26  1  0.25000000  0.97958315  0.89982811  1
  Mo  Mo27  1  0.75000000  0.02041685  0.10017189  1
  O  O28  1  0.75000000  0.72174097  0.70788971  1
  O  O29  1  0.25000000  0.27825903  0.29211029  1
  O  O30  1  0.25000000  0.77825903  0.20788971  1
  O  O31  1  0.75000000  0.22174097  0.79211029  1
  O  O32  1  0.75000000  0.65875502  0.44530387  1
  O  O33  1  0.25000000  0.34124498  0.55469613  1
  O  O34  1  0.25000000  0.84124498  0.94530387  1
  O  O35  1  0.75000000  0.15875502  0.05469613  1
  O  O36  1  0.75000000  0.85444558  0.60697240  1
  O  O37  1  0.25000000  0.14555442  0.39302760  1
  O  O38  1  0.25000000  0.64555442  0.10697240  1
  O  O39  1  0.75000000  0.35444558  0.89302760  1
  O  O40  1  0.75000000  0.69881378  0.91114192  1
  O  O41  1  0.25000000  0.30118622  0.08885808  1
  O  O42  1  0.25000000  0.80118622  0.41114192  1
  O  O43  1  0.75000000  0.19881378  0.58885808  1
  O  O44  1  0.47146189  0.82405925  0.50734606  1
  O  O45  1  0.52853811  0.17594075  0.49265394  1
  O  O46  1  0.52853811  0.67594075  0.00734606  1
  O  O47  1  0.97146189  0.17594075  0.49265394  1
  O  O48  1  0.47146189  0.32405925  0.99265394  1
  O  O49  1  0.02853811  0.82405925  0.50734606  1
  O  O50  1  0.02853811  0.32405925  0.99265394  1
  O  O51  1  0.97146189  0.67594075  0.00734606  1
  O  O52  1  0.75000000  0.93280279  0.98165167  1
  O  O53  1  0.25000000  0.06719721  0.01834833  1
  O  O54  1  0.25000000  0.56719721  0.48165167  1
  O  O55  1  0.75000000  0.43280279  0.51834833  1
  O  O56  1  0.47697406  0.58474708  0.59497672  1
  O  O57  1  0.52302594  0.41525292  0.40502328  1
  O  O58  1  0.52302594  0.91525292  0.09497672  1
  O  O59  1  0.97697406  0.41525292  0.40502328  1
  O  O60  1  0.47697406  0.08474708  0.90502328  1
  O  O61  1  0.02302594  0.58474708  0.59497672  1
  O  O62  1  0.02302594  0.08474708  0.90502328  1
  O  O63  1  0.97697406  0.91525292  0.09497672  1
  O  O64  1  0.97512760  0.97806598  0.69341633  1
  O  O65  1  0.02487240  0.02193402  0.30658367  1
  O  O66  1  0.02487240  0.52193402  0.19341633  1
  O  O67  1  0.47512760  0.02193402  0.30658367  1
  O  O68  1  0.97512760  0.47806598  0.80658367  1
  O  O69  1  0.52487240  0.97806598  0.69341633  1
  O  O70  1  0.52487240  0.47806598  0.80658367  1
  O  O71  1  0.47512760  0.52193402  0.19341633  1
  O  O72  1  0.75000000  0.59642474  0.33827029  1
  O  O73  1  0.25000000  0.40357526  0.66172971  1
  O  O74  1  0.25000000  0.90357526  0.83827029  1
  O  O75  1  0.75000000  0.09642474  0.16172971  1
