# generated using pymatgen
data_Ce3CoGe2
_symmetry_space_group_name_H-M   'P 1'
_cell_length_a   4.17107662
_cell_length_b   11.78641928
_cell_length_c   11.33862125
_cell_angle_alpha   90.00000000
_cell_angle_beta   90.00000000
_cell_angle_gamma   90.00000000
_symmetry_Int_Tables_number   1
_chemical_formula_structural   Ce3CoGe2
_chemical_formula_sum   'Ce12 Co4 Ge8'
_cell_volume   557.42995431
_cell_formula_units_Z   4
loop_
 _symmetry_equiv_pos_site_id
 _symmetry_equiv_pos_as_xyz
  1  'x, y, z'
loop_
 _atom_site_type_symbol
 _atom_site_label
 _atom_site_symmetry_multiplicity
 _atom_site_fract_x
 _atom_site_fract_y
 _atom_site_fract_z
 _atom_site_occupancy
  Ce  Ce0  1  0.75000000  0.94921924  0.62655423  1
  Ce  Ce1  1  0.25000000  0.05078076  0.37344577  1
  Ce  Ce2  1  0.25000000  0.55078076  0.12655423  1
  Ce  Ce3  1  0.75000000  0.44921924  0.87344577  1
  Ce  Ce4  1  0.75000000  0.77433283  0.29870024  1
  Ce  Ce5  1  0.25000000  0.22566717  0.70129976  1
  Ce  Ce6  1  0.25000000  0.72566717  0.79870024  1
  Ce  Ce7  1  0.75000000  0.27433283  0.20129976  1
  Ce  Ce8  1  0.75000000  0.61777569  0.55653179  1
  Ce  Ce9  1  0.25000000  0.38222431  0.44346821  1
  Ce  Ce10  1  0.25000000  0.88222431  0.05653179  1
  Ce  Ce11  1  0.75000000  0.11777569  0.94346821  1
  Co  Co12  1  0.75000000  0.87001540  0.86944662  1
  Co  Co13  1  0.25000000  0.12998460  0.13055338  1
  Co  Co14  1  0.25000000  0.62998460  0.36944662  1
  Co  Co15  1  0.75000000  0.37001540  0.63055338  1
  Ge  Ge16  1  0.75000000  0.52024388  0.31176870  1
  Ge  Ge17  1  0.25000000  0.47975612  0.68823130  1
  Ge  Ge18  1  0.25000000  0.97975612  0.81176870  1
  Ge  Ge19  1  0.75000000  0.02024388  0.18823130  1
  Ge  Ge20  1  0.75000000  0.69877889  0.00169124  1
  Ge  Ge21  1  0.25000000  0.30122111  0.99830876  1
  Ge  Ge22  1  0.25000000  0.80122111  0.50169124  1
  Ge  Ge23  1  0.75000000  0.19877889  0.49830876  1
