# generated using pymatgen
data_Ba3ZnSb2O9
_symmetry_space_group_name_H-M   'P 1'
_cell_length_a   5.94575100
_cell_length_b   5.94573374
_cell_length_c   14.67531198
_cell_angle_alpha   90.00000000
_cell_angle_beta   90.00000000
_cell_angle_gamma   119.99992815
_symmetry_Int_Tables_number   1
_chemical_formula_structural   Ba3ZnSb2O9
_chemical_formula_sum   'Ba6 Zn2 Sb4 O18'
_cell_volume   449.29383928
_cell_formula_units_Z   2
loop_
 _symmetry_equiv_pos_site_id
 _symmetry_equiv_pos_as_xyz
  1  'x, y, z'
loop_
 _atom_site_type_symbol
 _atom_site_label
 _atom_site_symmetry_multiplicity
 _atom_site_fract_x
 _atom_site_fract_y
 _atom_site_fract_z
 _atom_site_occupancy
  Ba  Ba0  1  0.66666883  0.33333471  0.91083087  1
  Ba  Ba1  1  0.33333382  0.66666593  0.08916939  1
  Ba  Ba2  1  0.33333382  0.66666593  0.41083061  1
  Ba  Ba3  1  0.66666883  0.33333471  0.58916913  1
  Ba  Ba4  1  0.00000005  0.00000034  0.75000000  1
  Ba  Ba5  1  -0.00000641  0.99999402  0.25000000  1
  Zn  Zn6  1  0.99999997  0.00000052  -0.00000002  1
  Zn  Zn7  1  0.99999997  0.00000052  0.50000002  1
  Sb  Sb8  1  0.66666724  0.33333480  0.34841363  1
  Sb  Sb9  1  0.33333350  0.66666751  0.65158703  1
  Sb  Sb10  1  0.33333350  0.66666751  0.84841297  1
  Sb  Sb11  1  0.66666724  0.33333480  0.15158637  1
  O  O12  1  0.48154744  0.51844420  0.75000000  1
  O  O13  1  0.51844762  0.48155272  0.25000000  1
  O  O14  1  0.03689442  0.51845420  0.75000000  1
  O  O15  1  0.96310530  0.48155488  0.25000000  1
  O  O16  1  0.48155863  0.96310496  0.75000000  1
  O  O17  1  0.51844584  0.03689673  0.25000000  1
  O  O18  1  0.83088667  0.16911077  0.41561326  1
  O  O19  1  0.16911342  0.83088988  0.58438600  1
  O  O20  1  0.33822397  0.16911044  0.41561370  1
  O  O21  1  0.16911342  0.83088988  0.91561400  1
  O  O22  1  0.66177614  0.83088944  0.58438619  1
  O  O23  1  0.83088667  0.16911077  0.08438674  1
  O  O24  1  0.83088911  0.66177675  0.41561482  1
  O  O25  1  0.66177614  0.83088944  0.91561381  1
  O  O26  1  0.16911088  0.33822321  0.58438642  1
  O  O27  1  0.33822397  0.16911044  0.08438630  1
  O  O28  1  0.16911088  0.33822321  0.91561358  1
  O  O29  1  0.83088911  0.66177675  0.08438518  1
