# generated using pymatgen
data_Ba3CdIr2O9
_symmetry_space_group_name_H-M   'P 1'
_cell_length_a   5.95612014
_cell_length_b   5.95612014
_cell_length_c   14.78467812
_cell_angle_alpha   90.99263561
_cell_angle_beta   90.99263561
_cell_angle_gamma   119.65767599
_symmetry_Int_Tables_number   1
_chemical_formula_structural   Ba3CdIr2O9
_chemical_formula_sum   'Ba6 Cd2 Ir4 O18'
_cell_volume   455.51116591
_cell_formula_units_Z   2
loop_
 _symmetry_equiv_pos_site_id
 _symmetry_equiv_pos_as_xyz
  1  'x, y, z'
loop_
 _atom_site_type_symbol
 _atom_site_label
 _atom_site_symmetry_multiplicity
 _atom_site_fract_x
 _atom_site_fract_y
 _atom_site_fract_z
 _atom_site_occupancy
  Ba  Ba0  1  0.32862031  0.65935247  0.91393999  1
  Ba  Ba1  1  0.67137969  0.34064753  0.08606001  1
  Ba  Ba2  1  0.34064753  0.67137969  0.58606001  1
  Ba  Ba3  1  0.65935247  0.32862031  0.41393999  1
  Ba  Ba4  1  0.99758414  0.00241586  0.75000000  1
  Ba  Ba5  1  0.00241586  0.99758414  0.25000000  1
  Cd  Cd6  1  -0.00000000  0.00000000  0.00000000  1
  Cd  Cd7  1  -0.00000000  0.00000000  0.50000000  1
  Ir  Ir8  1  0.65175924  0.31727476  0.83620000  1
  Ir  Ir9  1  0.34824076  0.68272524  0.16380000  1
  Ir  Ir10  1  0.68272524  0.34824076  0.66380000  1
  Ir  Ir11  1  0.31727476  0.65175924  0.33620000  1
  O  O12  1  0.39586410  0.20785848  0.57452239  1
  O  O13  1  0.60413590  0.79214152  0.42547761  1
  O  O14  1  0.79214152  0.60413590  0.92547761  1
  O  O15  1  0.20785848  0.39586410  0.07452239  1
  O  O16  1  0.51207010  0.48792990  0.75000000  1
  O  O17  1  0.48792990  0.51207010  0.25000000  1
  O  O18  1  0.78716947  0.13588147  0.90880800  1
  O  O19  1  0.21283053  0.86411853  0.09119200  1
  O  O20  1  0.86411853  0.21283053  0.59119200  1
  O  O21  1  0.13588147  0.78716947  0.40880800  1
  O  O22  1  0.32473431  0.14529617  0.90010802  1
  O  O23  1  0.67526569  0.85470383  0.09989198  1
  O  O24  1  0.85470383  0.67526569  0.59989198  1
  O  O25  1  0.14529617  0.32473431  0.40010802  1
  O  O26  1  0.51201275  0.02664531  0.73904693  1
  O  O27  1  0.48798725  0.97335469  0.26095307  1
  O  O28  1  0.97335469  0.48798725  0.76095307  1
  O  O29  1  0.02664531  0.51201275  0.23904693  1
