# generated using pymatgen
data_Ca2Si3Pb3O11
_symmetry_space_group_name_H-M   'P 1'
_cell_length_a   10.05227278
_cell_length_b   10.05227278
_cell_length_c   10.31903766
_cell_angle_alpha   90.00000000
_cell_angle_beta   90.00000000
_cell_angle_gamma   119.99999784
_symmetry_Int_Tables_number   1
_chemical_formula_structural   Ca2Si3Pb3O11
_chemical_formula_sum   'Ca6 Si9 Pb9 O33'
_cell_volume   903.02207915
_cell_formula_units_Z   3
loop_
 _symmetry_equiv_pos_site_id
 _symmetry_equiv_pos_as_xyz
  1  'x, y, z'
loop_
 _atom_site_type_symbol
 _atom_site_label
 _atom_site_symmetry_multiplicity
 _atom_site_fract_x
 _atom_site_fract_y
 _atom_site_fract_z
 _atom_site_occupancy
  Ca  Ca0  1  -0.00000000  -0.00000000  0.83928648  1
  Ca  Ca1  1  -0.00000000  -0.00000000  0.16071352  1
  Ca  Ca2  1  0.66666700  0.33333300  0.82225005  1
  Ca  Ca3  1  0.66666700  0.33333300  0.17774995  1
  Ca  Ca4  1  0.66666700  0.33333300  0.50000000  1
  Ca  Ca5  1  -0.00000000  -0.00000000  0.50000000  1
  Si  Si6  1  0.92513692  0.28162732  -0.00000000  1
  Si  Si7  1  0.35649039  0.07486308  -0.00000000  1
  Si  Si8  1  0.71837268  0.64350961  -0.00000000  1
  Si  Si9  1  0.74037192  0.04954135  0.64933452  1
  Si  Si10  1  0.30916943  0.25962808  0.64933452  1
  Si  Si11  1  0.74037192  0.04954135  0.35066548  1
  Si  Si12  1  0.95045865  0.69083057  0.64933452  1
  Si  Si13  1  0.30916943  0.25962808  0.35066548  1
  Si  Si14  1  0.95045865  0.69083057  0.35066548  1
  Pb  Pb15  1  0.60738028  0.67176092  0.67881027  1
  Pb  Pb16  1  0.06438064  0.39261972  0.67881027  1
  Pb  Pb17  1  0.60738028  0.67176092  0.32118973  1
  Pb  Pb18  1  0.32823908  0.93561936  0.67881027  1
  Pb  Pb19  1  0.06438064  0.39261972  0.32118973  1
  Pb  Pb20  1  0.32823908  0.93561936  0.32118973  1
  Pb  Pb21  1  0.58788131  0.93779152  -0.00000000  1
  Pb  Pb22  1  0.34991021  0.41211869  -0.00000000  1
  Pb  Pb23  1  0.06220848  0.65008979  -0.00000000  1
  O  O24  1  0.65125148  0.90810581  0.75341348  1
  O  O25  1  0.25685432  0.34874852  0.75341348  1
  O  O26  1  0.65125148  0.90810581  0.24658652  1
  O  O27  1  0.09189419  0.74314568  0.75341348  1
  O  O28  1  0.25685432  0.34874852  0.24658652  1
  O  O29  1  0.09189419  0.74314568  0.24658652  1
  O  O30  1  0.98302482  0.40303674  0.87610713  1
  O  O31  1  0.42001192  0.01697518  0.87610713  1
  O  O32  1  0.98302482  0.40303674  0.12389287  1
  O  O33  1  0.59696326  0.57998808  0.87610713  1
  O  O34  1  0.42001192  0.01697518  0.12389287  1
  O  O35  1  0.59696326  0.57998808  0.12389287  1
  O  O36  1  0.70760084  0.96756826  0.50000000  1
  O  O37  1  0.25996742  0.29239916  0.50000000  1
  O  O38  1  0.03243174  0.74003258  0.50000000  1
  O  O39  1  0.83699422  0.82620369  -0.00000000  1
  O  O40  1  0.98920947  0.16300578  -0.00000000  1
  O  O41  1  0.17379631  0.01079053  -0.00000000  1
  O  O42  1  0.69067887  0.17870042  0.65730204  1
  O  O43  1  0.48802155  0.30932113  0.65730204  1
  O  O44  1  0.69067887  0.17870042  0.34269796  1
  O  O45  1  0.82129958  0.51197845  0.65730204  1
  O  O46  1  0.48802155  0.30932113  0.34269796  1
  O  O47  1  0.82129958  0.51197845  0.34269796  1
  O  O48  1  0.73468665  0.19619522  -0.00000000  1
  O  O49  1  0.46150857  0.26531335  -0.00000000  1
  O  O50  1  0.80380478  0.53849143  -0.00000000  1
  O  O51  1  0.92927585  0.12653169  0.66785721  1
  O  O52  1  0.19725584  0.07072415  0.66785721  1
  O  O53  1  0.92927585  0.12653169  0.33214279  1
  O  O54  1  0.87346831  0.80274416  0.66785721  1
  O  O55  1  0.19725584  0.07072415  0.33214279  1
  O  O56  1  0.87346831  0.80274416  0.33214279  1
