# generated using pymatgen
data_Rb2Mo(SO)2
_symmetry_space_group_name_H-M   'P 1'
_cell_length_a   6.97337903
_cell_length_b   6.97337903
_cell_length_c   9.51289743
_cell_angle_alpha   98.79636558
_cell_angle_beta   105.42503153
_cell_angle_gamma   115.37539770
_symmetry_Int_Tables_number   1
_chemical_formula_structural   Rb2Mo(SO)2
_chemical_formula_sum   'Rb4 Mo2 S4 O4'
_cell_volume   383.52204442
_cell_formula_units_Z   2
loop_
 _symmetry_equiv_pos_site_id
 _symmetry_equiv_pos_as_xyz
  1  'x, y, z'
loop_
 _atom_site_type_symbol
 _atom_site_label
 _atom_site_symmetry_multiplicity
 _atom_site_fract_x
 _atom_site_fract_y
 _atom_site_fract_z
 _atom_site_occupancy
  Rb  Rb0  1  0.42989745  0.34382134  0.66502988  1
  Rb  Rb1  1  0.17879146  0.76486757  0.83497012  1
  Rb  Rb2  1  0.57010255  0.65617866  0.33497012  1
  Rb  Rb3  1  0.82120854  0.23513243  0.16502988  1
  Mo  Mo4  1  0.82825213  0.07825213  0.75000000  1
  Mo  Mo5  1  0.17174787  0.92174787  0.25000000  1
  S  S6  1  0.17588043  0.26988787  0.93578816  1
  S  S7  1  0.83409971  0.24009227  0.56421184  1
  S  S8  1  0.82411957  0.73011213  0.06421184  1
  S  S9  1  0.16590029  0.75990773  0.43578816  1
  O  O10  1  0.76289567  0.79809039  0.67379222  1
  O  O11  1  0.62429817  0.08910345  0.82620778  1
  O  O12  1  0.23710433  0.20190961  0.32620778  1
  O  O13  1  0.37570183  0.91089655  0.17379222  1
