# generated using pymatgen
data_Ba6Ho2Ga4O15
_symmetry_space_group_name_H-M   'P 1'
_cell_length_a   6.03235871
_cell_length_b   8.04465249
_cell_length_c   18.63506313
_cell_angle_alpha   91.34014347
_cell_angle_beta   90.00000000
_cell_angle_gamma   90.00000000
_symmetry_Int_Tables_number   1
_chemical_formula_structural   Ba6Ho2Ga4O15
_chemical_formula_sum   'Ba12 Ho4 Ga8 O30'
_cell_volume   904.07925821
_cell_formula_units_Z   2
loop_
 _symmetry_equiv_pos_site_id
 _symmetry_equiv_pos_as_xyz
  1  'x, y, z'
loop_
 _atom_site_type_symbol
 _atom_site_label
 _atom_site_symmetry_multiplicity
 _atom_site_fract_x
 _atom_site_fract_y
 _atom_site_fract_z
 _atom_site_occupancy
  Ba  Ba0  1  0.75613773  0.49864922  0.42151782  1
  Ba  Ba1  1  0.24386227  0.50135078  0.57848218  1
  Ba  Ba2  1  0.75613773  0.50135078  0.07848218  1
  Ba  Ba3  1  0.24386227  0.49864922  0.92151782  1
  Ba  Ba4  1  0.74486734  0.97202967  0.41043052  1
  Ba  Ba5  1  0.25513266  0.02797033  0.58956948  1
  Ba  Ba6  1  0.74486734  0.02797033  0.08956948  1
  Ba  Ba7  1  0.25513266  0.97202967  0.91043052  1
  Ba  Ba8  1  0.72211683  -0.00000000  0.75000000  1
  Ba  Ba9  1  0.27788317  -0.00000000  0.25000000  1
  Ba  Ba10  1  0.66790607  0.50000000  0.75000000  1
  Ba  Ba11  1  0.33209393  0.50000000  0.25000000  1
  Ho  Ho12  1  0.74495228  0.75140865  0.58982734  1
  Ho  Ho13  1  0.25504772  0.24859135  0.41017266  1
  Ho  Ho14  1  0.74495228  0.24859135  0.91017266  1
  Ho  Ho15  1  0.25504772  0.75140865  0.08982734  1
  Ga  Ga16  1  0.75078838  0.75373339  0.94157671  1
  Ga  Ga17  1  0.24921162  0.24626661  0.05842329  1
  Ga  Ga18  1  0.75078838  0.24626661  0.55842329  1
  Ga  Ga19  1  0.24921162  0.75373339  0.44157671  1
  Ga  Ga20  1  0.77509900  0.77018254  0.23358326  1
  Ga  Ga21  1  0.22490100  0.22981746  0.76641674  1
  Ga  Ga22  1  0.77509900  0.22981746  0.26641674  1
  Ga  Ga23  1  0.22490100  0.77018254  0.73358326  1
  O  O24  1  0.20577750  -0.00000000  0.75000000  1
  O  O25  1  0.79422250  -0.00000000  0.25000000  1
  O  O26  1  0.50373459  0.76493885  0.50018200  1
  O  O27  1  0.49626541  0.23506115  0.49981800  1
  O  O28  1  0.50373459  0.23506115  0.99981800  1
  O  O29  1  0.49626541  0.76493885  0.00018200  1
  O  O30  1  0.76087379  0.95379903  0.89203771  1
  O  O31  1  0.23912621  0.04620097  0.10796229  1
  O  O32  1  0.76087379  0.04620097  0.60796229  1
  O  O33  1  0.23912621  0.95379903  0.39203771  1
  O  O34  1  0.00348654  0.76340377  0.50537714  1
  O  O35  1  0.99651346  0.23659623  0.49462286  1
  O  O36  1  0.00348654  0.23659623  0.99462286  1
  O  O37  1  0.99651346  0.76340377  0.00537714  1
  O  O38  1  0.32582014  0.68846054  0.81788382  1
  O  O39  1  0.67417986  0.31153946  0.18211618  1
  O  O40  1  0.32582014  0.31153946  0.68211618  1
  O  O41  1  0.67417986  0.68846054  0.31788382  1
  O  O42  1  0.45212714  0.74920484  0.66407263  1
  O  O43  1  0.54787286  0.25079516  0.33592737  1
  O  O44  1  0.45212714  0.25079516  0.83592737  1
  O  O45  1  0.54787286  0.74920484  0.16407263  1
  O  O46  1  0.95628958  0.72623151  0.68916596  1
  O  O47  1  0.04371042  0.27376849  0.31083404  1
  O  O48  1  0.95628958  0.27376849  0.81083404  1
  O  O49  1  0.04371042  0.72623151  0.18916596  1
  O  O50  1  0.75536855  0.53180057  0.90836125  1
  O  O51  1  0.24463145  0.46819943  0.09163875  1
  O  O52  1  0.75536855  0.46819943  0.59163875  1
  O  O53  1  0.24463145  0.53180057  0.40836125  1
