# generated using pymatgen
data_Ba2Sm(CuO2)4
_symmetry_space_group_name_H-M   'P 1'
_cell_length_a   3.92856618
_cell_length_b   3.90585054
_cell_length_c   13.95306216
_cell_angle_alpha   98.04575843
_cell_angle_beta   90.00000000
_cell_angle_gamma   90.00000000
_symmetry_Int_Tables_number   1
_chemical_formula_structural   Ba2Sm(CuO2)4
_chemical_formula_sum   'Ba2 Sm1 Cu4 O8'
_cell_volume   211.99377667
_cell_formula_units_Z   1
loop_
 _symmetry_equiv_pos_site_id
 _symmetry_equiv_pos_as_xyz
  1  'x, y, z'
loop_
 _atom_site_type_symbol
 _atom_site_label
 _atom_site_symmetry_multiplicity
 _atom_site_fract_x
 _atom_site_fract_y
 _atom_site_fract_z
 _atom_site_occupancy
  Ba  Ba0  1  0.50000000  0.36435217  0.72870434  1
  Ba  Ba1  1  0.50000000  0.63564783  0.27129566  1
  Sm  Sm2  1  0.50000000  0.50000000  0.00000000  1
  Cu  Cu3  1  0.00000000  0.06207285  0.12414571  1
  Cu  Cu4  1  -0.00000000  0.93792715  0.87585429  1
  Cu  Cu5  1  0.00000000  0.21253204  0.42506409  1
  Cu  Cu6  1  -0.00000000  0.78746796  0.57493591  1
  O  O7  1  0.00000000  0.14574498  0.29148996  1
  O  O8  1  -0.00000000  0.85425502  0.70851004  1
  O  O9  1  -0.00000000  0.44617976  0.89235953  1
  O  O10  1  -0.00000000  0.55382024  0.10764047  1
  O  O11  1  -0.00000000  0.28090703  0.56181406  1
  O  O12  1  -0.00000000  0.71909297  0.43818594  1
  O  O13  1  0.50000000  0.05399490  0.10798979  1
  O  O14  1  0.50000000  0.94600510  0.89201021  1
