# generated using pymatgen
data_Ba5Cr3O12F
_symmetry_space_group_name_H-M   'P 1'
_cell_length_a   7.97764034
_cell_length_b   10.58247036
_cell_length_c   10.58247037
_cell_angle_alpha   119.99999966
_cell_angle_beta   90.00000000
_cell_angle_gamma   90.00000000
_symmetry_Int_Tables_number   1
_chemical_formula_structural   Ba5Cr3O12F
_chemical_formula_sum   'Ba10 Cr6 O24 F2'
_cell_volume   773.71177792
_cell_formula_units_Z   2
loop_
 _symmetry_equiv_pos_site_id
 _symmetry_equiv_pos_as_xyz
  1  'x, y, z'
loop_
 _atom_site_type_symbol
 _atom_site_label
 _atom_site_symmetry_multiplicity
 _atom_site_fract_x
 _atom_site_fract_y
 _atom_site_fract_z
 _atom_site_occupancy
  Ba  Ba0  1  0.00108658  0.66666700  0.33333300  1
  Ba  Ba1  1  0.99891342  0.33333300  0.66666700  1
  Ba  Ba2  1  0.50108658  0.33333300  0.66666700  1
  Ba  Ba3  1  0.49891342  0.66666700  0.33333300  1
  Ba  Ba4  1  0.75000000  0.75783168  0.01064608  1
  Ba  Ba5  1  0.25000000  0.24216832  0.98935392  1
  Ba  Ba6  1  0.75000000  0.25281440  0.24216832  1
  Ba  Ba7  1  0.25000000  0.74718560  0.75783168  1
  Ba  Ba8  1  0.75000000  0.98935392  0.74718560  1
  Ba  Ba9  1  0.25000000  0.01064608  0.25281440  1
  Cr  Cr10  1  0.75000000  0.59990231  0.62976999  1
  Cr  Cr11  1  0.25000000  0.40009769  0.37023001  1
  Cr  Cr12  1  0.75000000  0.02986768  0.40009769  1
  Cr  Cr13  1  0.25000000  0.97013232  0.59990231  1
  Cr  Cr14  1  0.75000000  0.37023001  0.97013232  1
  Cr  Cr15  1  0.25000000  0.62976999  0.02986768  1
  O  O16  1  0.75000000  0.84168040  0.32037759  1
  O  O17  1  0.25000000  0.15831960  0.67962241  1
  O  O18  1  0.75000000  0.47869718  0.15831960  1
  O  O19  1  0.25000000  0.52130282  0.84168040  1
  O  O20  1  0.75000000  0.67962241  0.52130282  1
  O  O21  1  0.25000000  0.32037759  0.47869718  1
  O  O22  1  0.75000000  0.41086203  0.53810854  1
  O  O23  1  0.25000000  0.58913797  0.46189146  1
  O  O24  1  0.75000000  0.12724651  0.58913797  1
  O  O25  1  0.25000000  0.87275349  0.41086203  1
  O  O26  1  0.75000000  0.46189146  0.87275349  1
  O  O27  1  0.25000000  0.53810854  0.12724651  1
  O  O28  1  0.92483145  0.65452121  0.74003653  1
  O  O29  1  0.07516855  0.34547879  0.25996347  1
  O  O30  1  0.92483145  0.08551532  0.34547879  1
  O  O31  1  0.42483145  0.34547879  0.25996347  1
  O  O32  1  0.07516855  0.91448468  0.65452121  1
  O  O33  1  0.57516855  0.65452121  0.74003653  1
  O  O34  1  0.92483145  0.25996347  0.91448468  1
  O  O35  1  0.42483145  0.91448468  0.65452121  1
  O  O36  1  0.07516855  0.74003653  0.08551532  1
  O  O37  1  0.57516855  0.08551532  0.34547879  1
  O  O38  1  0.42483145  0.74003653  0.08551532  1
  O  O39  1  0.57516855  0.25996347  0.91448468  1
  F  F40  1  0.75000000  -0.00000000  -0.00000000  1
  F  F41  1  0.25000000  -0.00000000  -0.00000000  1
