# generated using pymatgen
data_Ba5Cr3ClO12
_symmetry_space_group_name_H-M   'P 1'
_cell_length_a   7.93127011
_cell_length_b   10.87405156
_cell_length_c   10.87405157
_cell_angle_alpha   120.00000001
_cell_angle_beta   90.00000000
_cell_angle_gamma   90.00000000
_symmetry_Int_Tables_number   1
_chemical_formula_structural   Ba5Cr3ClO12
_chemical_formula_sum   'Ba10 Cr6 Cl2 O24'
_cell_volume   812.18721392
_cell_formula_units_Z   2
loop_
 _symmetry_equiv_pos_site_id
 _symmetry_equiv_pos_as_xyz
  1  'x, y, z'
loop_
 _atom_site_type_symbol
 _atom_site_label
 _atom_site_symmetry_multiplicity
 _atom_site_fract_x
 _atom_site_fract_y
 _atom_site_fract_z
 _atom_site_occupancy
  Ba  Ba0  1  -0.00079044  0.66666700  0.33333300  1
  Ba  Ba1  1  0.00079044  0.33333300  0.66666700  1
  Ba  Ba2  1  0.49920956  0.33333300  0.66666700  1
  Ba  Ba3  1  0.50079044  0.66666700  0.33333300  1
  Ba  Ba4  1  0.75000000  0.73291578  0.00710153  1
  Ba  Ba5  1  0.25000000  0.26708422  0.99289847  1
  Ba  Ba6  1  0.75000000  0.27418575  0.26708422  1
  Ba  Ba7  1  0.25000000  0.72581425  0.73291578  1
  Ba  Ba8  1  0.75000000  0.99289847  0.72581425  1
  Ba  Ba9  1  0.25000000  0.00710153  0.27418575  1
  Cr  Cr10  1  0.75000000  0.59996822  0.63455829  1
  Cr  Cr11  1  0.25000000  0.40003178  0.36544171  1
  Cr  Cr12  1  0.75000000  0.03459007  0.40003178  1
  Cr  Cr13  1  0.25000000  0.96540993  0.59996822  1
  Cr  Cr14  1  0.75000000  0.36544171  0.96540993  1
  Cr  Cr15  1  0.25000000  0.63455829  0.03459007  1
  Cl  Cl16  1  0.75000000  0.00000000  -0.00000000  1
  Cl  Cl17  1  0.25000000  0.00000000  -0.00000000  1
  O  O18  1  0.75000000  0.85088017  0.33160134  1
  O  O19  1  0.25000000  0.14911983  0.66839866  1
  O  O20  1  0.75000000  0.48072117  0.14911983  1
  O  O21  1  0.25000000  0.51927883  0.85088017  1
  O  O22  1  0.75000000  0.66839866  0.51927883  1
  O  O23  1  0.25000000  0.33160134  0.48072117  1
  O  O24  1  0.75000000  0.41474462  0.54710433  1
  O  O25  1  0.25000000  0.58525538  0.45289567  1
  O  O26  1  0.75000000  0.13235971  0.58525538  1
  O  O27  1  0.25000000  0.86764029  0.41474462  1
  O  O28  1  0.75000000  0.45289567  0.86764029  1
  O  O29  1  0.25000000  0.54710433  0.13235971  1
  O  O30  1  0.92761351  0.64876112  0.73855999  1
  O  O31  1  0.07238649  0.35123888  0.26144001  1
  O  O32  1  0.92761351  0.08979887  0.35123888  1
  O  O33  1  0.42761351  0.35123888  0.26144001  1
  O  O34  1  0.07238649  0.91020113  0.64876112  1
  O  O35  1  0.57238649  0.64876112  0.73855999  1
  O  O36  1  0.92761351  0.26144001  0.91020113  1
  O  O37  1  0.42761351  0.91020113  0.64876112  1
  O  O38  1  0.07238649  0.73855999  0.08979887  1
  O  O39  1  0.57238649  0.08979887  0.35123888  1
  O  O40  1  0.42761351  0.73855999  0.08979887  1
  O  O41  1  0.57238649  0.26144001  0.91020113  1
