# generated using pymatgen
data_Ba2HoCl7
_symmetry_space_group_name_H-M   'P 1'
_cell_length_a   6.90295743
_cell_length_b   10.63147613
_cell_length_c   15.70907606
_cell_angle_alpha   90.00000000
_cell_angle_beta   90.00000000
_cell_angle_gamma   90.68386079
_symmetry_Int_Tables_number   1
_chemical_formula_structural   Ba2HoCl7
_chemical_formula_sum   'Ba8 Ho4 Cl28'
_cell_volume   1152.78540761
_cell_formula_units_Z   4
loop_
 _symmetry_equiv_pos_site_id
 _symmetry_equiv_pos_as_xyz
  1  'x, y, z'
loop_
 _atom_site_type_symbol
 _atom_site_label
 _atom_site_symmetry_multiplicity
 _atom_site_fract_x
 _atom_site_fract_y
 _atom_site_fract_z
 _atom_site_occupancy
  Ba  Ba0  1  0.23514441  0.95083588  0.77982128  1
  Ba  Ba1  1  0.76485559  0.04916412  0.22017872  1
  Ba  Ba2  1  0.76485559  0.54916412  0.27982128  1
  Ba  Ba3  1  0.23514441  0.45083588  0.72017872  1
  Ba  Ba4  1  0.76540861  0.67635717  0.93910376  1
  Ba  Ba5  1  0.23459139  0.32364283  0.06089624  1
  Ba  Ba6  1  0.23459139  0.82364283  0.43910376  1
  Ba  Ba7  1  0.76540861  0.17635717  0.56089624  1
  Ho  Ho8  1  0.71651091  0.71792887  0.62681132  1
  Ho  Ho9  1  0.28348909  0.28207113  0.37318868  1
  Ho  Ho10  1  0.28348909  0.78207113  0.12681132  1
  Ho  Ho11  1  0.71651091  0.21792887  0.87318868  1
  Cl  Cl12  1  0.37152898  0.62431352  0.57102182  1
  Cl  Cl13  1  0.62847102  0.37568648  0.42897818  1
  Cl  Cl14  1  0.62847102  0.87568648  0.07102182  1
  Cl  Cl15  1  0.37152898  0.12431352  0.92897818  1
  Cl  Cl16  1  0.98608205  0.91345272  0.60499189  1
  Cl  Cl17  1  0.01391795  0.08654728  0.39500811  1
  Cl  Cl18  1  0.01391795  0.58654728  0.10499189  1
  Cl  Cl19  1  0.98608205  0.41345272  0.89500811  1
  Cl  Cl20  1  0.79390453  0.71306912  0.46060195  1
  Cl  Cl21  1  0.20609547  0.28693088  0.53939805  1
  Cl  Cl22  1  0.20609547  0.78693088  0.96060195  1
  Cl  Cl23  1  0.79390453  0.21306912  0.03939805  1
  Cl  Cl24  1  0.79012851  0.97270108  0.86039354  1
  Cl  Cl25  1  0.20987149  0.02729892  0.13960646  1
  Cl  Cl26  1  0.20987149  0.52729892  0.36039354  1
  Cl  Cl27  1  0.79012851  0.47270108  0.63960646  1
  Cl  Cl28  1  0.98781429  0.69823424  0.75682946  1
  Cl  Cl29  1  0.01218571  0.30176576  0.24317054  1
  Cl  Cl30  1  0.01218571  0.80176576  0.25682946  1
  Cl  Cl31  1  0.98781429  0.19823424  0.74317054  1
  Cl  Cl32  1  0.50176622  0.70549332  0.77173479  1
  Cl  Cl33  1  0.49823378  0.29450668  0.22826521  1
  Cl  Cl34  1  0.49823378  0.79450668  0.27173479  1
  Cl  Cl35  1  0.50176622  0.20549332  0.72826521  1
  Cl  Cl36  1  0.50036654  0.92828021  0.60453322  1
  Cl  Cl37  1  0.49963346  0.07171979  0.39546678  1
  Cl  Cl38  1  0.49963346  0.57171979  0.10453322  1
  Cl  Cl39  1  0.50036654  0.42828021  0.89546678  1
