# generated using pymatgen
data_Ba2VCu2F12
_symmetry_space_group_name_H-M   'P 1'
_cell_length_a   5.41623021
_cell_length_b   7.08821847
_cell_length_c   7.41427322
_cell_angle_alpha   66.58858986
_cell_angle_beta   70.21195585
_cell_angle_gamma   71.68497063
_symmetry_Int_Tables_number   1
_chemical_formula_structural   Ba2VCu2F12
_chemical_formula_sum   'Ba2 V1 Cu2 F12'
_cell_volume   240.40403392
_cell_formula_units_Z   1
loop_
 _symmetry_equiv_pos_site_id
 _symmetry_equiv_pos_as_xyz
  1  'x, y, z'
loop_
 _atom_site_type_symbol
 _atom_site_label
 _atom_site_symmetry_multiplicity
 _atom_site_fract_x
 _atom_site_fract_y
 _atom_site_fract_z
 _atom_site_occupancy
  Ba  Ba0  1  0.22256524  0.79194963  0.28143435  1
  Ba  Ba1  1  0.77743476  0.20805037  0.71856565  1
  V  V2  1  -0.00000000  0.50000000  -0.00000000  1
  Cu  Cu3  1  0.45010018  0.21616228  0.33326533  1
  Cu  Cu4  1  0.54989982  0.78383772  0.66673467  1
  F  F5  1  0.03213207  0.23290585  0.00400665  1
  F  F6  1  0.96786793  0.76709415  0.99599335  1
  F  F7  1  0.10083263  0.39438926  0.25362150  1
  F  F8  1  0.89916737  0.60561074  0.74637850  1
  F  F9  1  0.63688649  0.50154415  0.14145943  1
  F  F10  1  0.36311351  0.49845585  0.85854057  1
  F  F11  1  0.76668323  0.04934506  0.44054885  1
  F  F12  1  0.23331677  0.95065494  0.55945115  1
  F  F13  1  0.32516951  0.34890758  0.53396020  1
  F  F14  1  0.67483049  0.65109242  0.46603980  1
  F  F15  1  0.53380936  0.08770485  0.13526689  1
  F  F16  1  0.46619064  0.91229515  0.86473311  1
