# generated using pymatgen
data_Ba2B5BrO9
_symmetry_space_group_name_H-M   'P 1'
_cell_length_a   6.73401326
_cell_length_b   11.92135575
_cell_length_c   11.97400090
_cell_angle_alpha   90.00000000
_cell_angle_beta   90.00000000
_cell_angle_gamma   90.00000000
_symmetry_Int_Tables_number   1
_chemical_formula_structural   Ba2B5BrO9
_chemical_formula_sum   'Ba8 B20 Br4 O36'
_cell_volume   961.25564186
_cell_formula_units_Z   4
loop_
 _symmetry_equiv_pos_site_id
 _symmetry_equiv_pos_as_xyz
  1  'x, y, z'
loop_
 _atom_site_type_symbol
 _atom_site_label
 _atom_site_symmetry_multiplicity
 _atom_site_fract_x
 _atom_site_fract_y
 _atom_site_fract_z
 _atom_site_occupancy
  Ba  Ba0  1  0.15457489  0.03902095  0.75102971  1
  Ba  Ba1  1  0.15457489  0.96097905  0.24897029  1
  Ba  Ba2  1  0.65457489  0.53902095  0.74897029  1
  Ba  Ba3  1  0.65457489  0.46097905  0.25102971  1
  Ba  Ba4  1  0.31270749  0.26116098  0.46940825  1
  Ba  Ba5  1  0.31270749  0.73883902  0.53059175  1
  Ba  Ba6  1  0.81270749  0.76116098  0.03059175  1
  Ba  Ba7  1  0.81270749  0.23883902  0.96940825  1
  B  B8  1  0.31465335  0.71380246  0.19456795  1
  B  B9  1  0.31465335  0.28619754  0.80543205  1
  B  B10  1  0.81465335  0.21380246  0.30543205  1
  B  B11  1  0.81465335  0.78619754  0.69456795  1
  B  B12  1  0.34476519  0.25199892  0.02884042  1
  B  B13  1  0.34476519  0.74800108  0.97115958  1
  B  B14  1  0.84476519  0.75199892  0.47115958  1
  B  B15  1  0.84476519  0.24800108  0.52884042  1
  B  B16  1  0.18349419  0.51648802  0.23453535  1
  B  B17  1  0.18349419  0.48351198  0.76546465  1
  B  B18  1  0.68349419  0.01648802  0.26546465  1
  B  B19  1  0.68349419  0.98351198  0.73453535  1
  B  B20  1  0.46455894  0.18314962  0.22055121  1
  B  B21  1  0.46455894  0.81685038  0.77944879  1
  B  B22  1  0.96455894  0.68314962  0.27944879  1
  B  B23  1  0.96455894  0.31685038  0.72055121  1
  B  B24  1  0.13708727  0.29036447  0.19742122  1
  B  B25  1  0.13708727  0.70963553  0.80257878  1
  B  B26  1  0.63708727  0.79036447  0.30257878  1
  B  B27  1  0.63708727  0.20963553  0.69742122  1
  Br  Br28  1  0.00615765  -0.00000000  -0.00000000  1
  Br  Br29  1  0.50615765  0.50000000  0.50000000  1
  Br  Br30  1  0.24068299  -0.00000000  0.50000000  1
  Br  Br31  1  0.74068299  0.50000000  -0.00000000  1
  O  O32  1  0.49557994  0.21670208  0.10138792  1
  O  O33  1  0.49557994  0.78329792  0.89861208  1
  O  O34  1  0.99557994  0.71670208  0.39861208  1
  O  O35  1  0.99557994  0.28329792  0.60138792  1
  O  O36  1  0.39528036  0.74968295  0.08267773  1
  O  O37  1  0.39528036  0.25031705  0.91732227  1
  O  O38  1  0.89528036  0.24968295  0.41732227  1
  O  O39  1  0.89528036  0.75031705  0.58267773  1
  O  O40  1  0.33692927  0.58960648  0.20762274  1
  O  O41  1  0.33692927  0.41039352  0.79237726  1
  O  O42  1  0.83692927  0.08960648  0.29237726  1
  O  O43  1  0.83692927  0.91039352  0.70762274  1
  O  O44  1  0.60074327  0.24323050  0.29682091  1
  O  O45  1  0.60074327  0.75676950  0.70317909  1
  O  O46  1  0.10074327  0.74323050  0.20317909  1
  O  O47  1  0.10074327  0.25676950  0.79682091  1
  O  O48  1  0.42439179  0.22188817  0.71845608  1
  O  O49  1  0.42439179  0.77811183  0.28154392  1
  O  O50  1  0.92439179  0.72188817  0.78154392  1
  O  O51  1  0.92439179  0.27811183  0.21845608  1
  O  O52  1  0.50300148  0.05916582  0.23145862  1
  O  O53  1  0.50300148  0.94083418  0.76854138  1
  O  O54  1  0.00300148  0.55916582  0.26854138  1
  O  O55  1  0.00300148  0.44083418  0.73145862  1
  O  O56  1  0.25664038  0.20232234  0.25225993  1
  O  O57  1  0.25664038  0.79767766  0.74774007  1
  O  O58  1  0.75664038  0.70232234  0.24774007  1
  O  O59  1  0.75664038  0.29767766  0.75225993  1
  O  O60  1  0.16507360  0.28467463  0.07153613  1
  O  O61  1  0.16507360  0.71532537  0.92846387  1
  O  O62  1  0.66507360  0.78467463  0.42846387  1
  O  O63  1  0.66507360  0.21532537  0.57153613  1
  O  O64  1  0.22584826  0.40324470  0.23483208  1
  O  O65  1  0.22584826  0.59675530  0.76516792  1
  O  O66  1  0.72584826  0.90324470  0.26516792  1
  O  O67  1  0.72584826  0.09675530  0.73483208  1
