# generated using pymatgen
data_Ba2LaNb(CuO4)2
_symmetry_space_group_name_H-M   'P 1'
_cell_length_a   5.66849975
_cell_length_b   5.66849975
_cell_length_c   12.82913217
_cell_angle_alpha   102.76324648
_cell_angle_beta   102.76324648
_cell_angle_gamma   90.00000000
_symmetry_Int_Tables_number   1
_chemical_formula_structural   Ba2LaNb(CuO4)2
_chemical_formula_sum   'Ba4 La2 Nb2 Cu4 O16'
_cell_volume   391.58833616
_cell_formula_units_Z   2
loop_
 _symmetry_equiv_pos_site_id
 _symmetry_equiv_pos_as_xyz
  1  'x, y, z'
loop_
 _atom_site_type_symbol
 _atom_site_label
 _atom_site_symmetry_multiplicity
 _atom_site_fract_x
 _atom_site_fract_y
 _atom_site_fract_z
 _atom_site_occupancy
  Ba  Ba0  1  0.09769319  0.59769319  0.19538639  1
  Ba  Ba1  1  0.90230681  0.40230681  0.80461361  1
  Ba  Ba2  1  0.59769319  0.09769319  0.19538639  1
  Ba  Ba3  1  0.40230681  0.90230681  0.80461361  1
  La  La4  1  0.25000000  0.75000000  0.50000000  1
  La  La5  1  0.75000000  0.25000000  0.50000000  1
  Nb  Nb6  1  0.00000000  0.00000000  0.00000000  1
  Nb  Nb7  1  0.50000000  0.50000000  0.00000000  1
  Cu  Cu8  1  0.17799230  0.17799230  0.35598460  1
  Cu  Cu9  1  0.82200770  0.82200770  0.64401540  1
  Cu  Cu10  1  0.32200770  0.32200770  0.64401540  1
  Cu  Cu11  1  0.67799230  0.67799230  0.35598460  1
  O  O12  1  0.08167569  0.08167569  0.16335138  1
  O  O13  1  0.91832431  0.91832431  0.83664862  1
  O  O14  1  0.41832431  0.41832431  0.83664862  1
  O  O15  1  0.58167569  0.58167569  0.16335138  1
  O  O16  1  0.93477491  0.43477491  0.37137447  1
  O  O17  1  0.06522509  0.56522509  0.62862553  1
  O  O18  1  0.43659955  0.93659955  0.37137447  1
  O  O19  1  0.93659955  0.93477491  0.37137447  1
  O  O20  1  0.56522509  0.56340045  0.62862553  1
  O  O21  1  0.56340045  0.06340045  0.62862553  1
  O  O22  1  0.06340045  0.06522509  0.62862553  1
  O  O23  1  0.43477491  0.43659955  0.37137447  1
  O  O24  1  0.22193564  0.72193564  0.00000000  1
  O  O25  1  0.77806436  0.27806436  1.00000000  1
  O  O26  1  0.27806436  0.22193564  0.00000000  1
  O  O27  1  0.72193564  0.77806436  0.00000000  1
