# generated using pymatgen
data_Ba3Sr2Re3ClO15
_symmetry_space_group_name_H-M   'P 1'
_cell_length_a   7.82034624
_cell_length_b   10.90359350
_cell_length_c   10.90359350
_cell_angle_alpha   120.00000022
_cell_angle_beta   90.00000000
_cell_angle_gamma   90.00000000
_symmetry_Int_Tables_number   1
_chemical_formula_structural   Ba3Sr2Re3ClO15
_chemical_formula_sum   'Ba6 Sr4 Re6 Cl2 O30'
_cell_volume   805.18544567
_cell_formula_units_Z   2
loop_
 _symmetry_equiv_pos_site_id
 _symmetry_equiv_pos_as_xyz
  1  'x, y, z'
loop_
 _atom_site_type_symbol
 _atom_site_label
 _atom_site_symmetry_multiplicity
 _atom_site_fract_x
 _atom_site_fract_y
 _atom_site_fract_z
 _atom_site_occupancy
  Ba  Ba0  1  0.77327399  0.26317358  0.26317358  1
  Ba  Ba1  1  0.77327399  1.00000000  0.73682642  1
  Ba  Ba2  1  0.27327399  0.73682642  0.73682642  1
  Ba  Ba3  1  0.27327399  0.00000000  0.26317358  1
  Ba  Ba4  1  0.77327399  0.73682642  1.00000000  1
  Ba  Ba5  1  0.27327399  0.26317358  0.00000000  1
  Sr  Sr6  1  0.52828412  0.66666700  0.33333300  1
  Sr  Sr7  1  0.02828412  0.33333300  0.66666700  1
  Sr  Sr8  1  0.02828412  0.66666700  0.33333300  1
  Sr  Sr9  1  0.52828412  0.33333300  0.66666700  1
  Re  Re10  1  0.82978005  0.60824610  0.60824610  1
  Re  Re11  1  0.82978005  0.00000000  0.39175390  1
  Re  Re12  1  0.32978005  0.39175390  0.39175390  1
  Re  Re13  1  0.32978005  1.00000000  0.60824610  1
  Re  Re14  1  0.82978005  0.39175390  0.00000000  1
  Re  Re15  1  0.32978005  0.60824610  1.00000000  1
  Cl  Cl16  1  0.99812651  -0.00000000  -0.00000000  1
  Cl  Cl17  1  0.49812651  -0.00000000  -0.00000000  1
  O  O18  1  0.78615897  0.86446612  0.44445105  1
  O  O19  1  0.78615897  0.57998492  0.13553388  1
  O  O20  1  0.28615897  0.13553388  0.55554895  1
  O  O21  1  0.28615897  0.57998492  0.44445105  1
  O  O22  1  0.78615897  0.55554895  0.42001508  1
  O  O23  1  0.28615897  0.42001508  0.86446612  1
  O  O24  1  0.28615897  0.55554895  0.13553388  1
  O  O25  1  0.78615897  0.42001508  0.55554895  1
  O  O26  1  0.28615897  0.44445105  0.57998492  1
  O  O27  1  0.78615897  0.44445105  0.86446612  1
  O  O28  1  0.28615897  0.86446612  0.42001508  1
  O  O29  1  0.78615897  0.13553388  0.57998492  1
  O  O30  1  0.97386638  0.86525253  0.25756697  1
  O  O31  1  0.97386638  0.39231444  0.13474747  1
  O  O32  1  0.47386638  0.13474747  0.74243303  1
  O  O33  1  0.47386638  0.39231444  0.25756697  1
  O  O34  1  0.97386638  0.74243303  0.60768556  1
  O  O35  1  0.47386638  0.60768556  0.86525253  1
  O  O36  1  0.47386638  0.74243303  0.13474747  1
  O  O37  1  0.97386638  0.60768556  0.74243303  1
  O  O38  1  0.47386638  0.25756697  0.39231444  1
  O  O39  1  0.97386638  0.25756697  0.86525253  1
  O  O40  1  0.47386638  0.86525253  0.60768556  1
  O  O41  1  0.97386638  0.13474747  0.39231444  1
  O  O42  1  0.65246367  0.70804492  0.70804492  1
  O  O43  1  0.65246367  0.00000000  0.29195508  1
  O  O44  1  0.15246367  0.29195508  0.29195508  1
  O  O45  1  0.15246367  1.00000000  0.70804492  1
  O  O46  1  0.65246367  0.29195508  0.00000000  1
  O  O47  1  0.15246367  0.70804492  1.00000000  1
