# generated using pymatgen
data_Ba6Na2Ta2V2O17
_symmetry_space_group_name_H-M   'P 1'
_cell_length_a   6.00094889
_cell_length_b   6.00096689
_cell_length_c   30.44647791
_cell_angle_alpha   90.00017619
_cell_angle_beta   89.99991443
_cell_angle_gamma   119.99977697
_symmetry_Int_Tables_number   1
_chemical_formula_structural   Ba6Na2Ta2V2O17
_chemical_formula_sum   'Ba12 Na4 Ta4 V4 O34'
_cell_volume   949.53248302
_cell_formula_units_Z   2
loop_
 _symmetry_equiv_pos_site_id
 _symmetry_equiv_pos_as_xyz
  1  'x, y, z'
loop_
 _atom_site_type_symbol
 _atom_site_label
 _atom_site_symmetry_multiplicity
 _atom_site_fract_x
 _atom_site_fract_y
 _atom_site_fract_z
 _atom_site_occupancy
  Ba  Ba0  1  0.66666627  0.33333028  0.81974865  1
  Ba  Ba1  1  0.33333306  0.66666832  0.18024685  1
  Ba  Ba2  1  0.33333471  0.66666830  0.31974797  1
  Ba  Ba3  1  0.66666442  0.33336455  0.68024948  1
  Ba  Ba4  1  0.00000025  0.00000021  0.99999887  1
  Ba  Ba5  1  0.99999988  0.99999857  0.49999812  1
  Ba  Ba6  1  0.66666603  0.33333233  0.40932897  1
  Ba  Ba7  1  0.33333403  0.66665197  0.59066895  1
  Ba  Ba8  1  0.33333425  0.66666890  0.90932622  1
  Ba  Ba9  1  0.66666870  0.33333285  0.09066848  1
  Ba  Ba10  1  0.99999954  0.99999104  0.74999894  1
  Ba  Ba11  1  0.99999960  0.99999960  0.24999851  1
  Na  Na12  1  0.99999931  0.00000021  0.87532305  1
  Na  Na13  1  0.99999957  0.99999886  0.12467509  1
  Na  Na14  1  0.00000012  0.00000006  0.37532395  1
  Na  Na15  1  0.00000029  0.99998505  0.62468259  1
  Ta  Ta16  1  0.66666688  0.33333327  0.29833955  1
  Ta  Ta17  1  0.33333230  0.66662363  0.70165769  1
  Ta  Ta18  1  0.33333287  0.66666101  0.79833917  1
  Ta  Ta19  1  0.66666642  0.33333328  0.20165737  1
  V  V20  1  0.66666680  0.33333369  0.94783832  1
  V  V21  1  0.33333311  0.66666634  0.05216882  1
  V  V22  1  0.33333332  0.66666657  0.44784594  1
  V  V23  1  0.66666706  0.33332993  0.55217027  1
  O  O24  1  0.66666656  0.33332832  0.49551207  1
  O  O25  1  0.33333274  0.66666784  0.50449104  1
  O  O26  1  0.33333272  0.66666640  0.99549329  1
  O  O27  1  0.66666719  0.33333330  0.00449578  1
  O  O28  1  0.82462205  0.17580986  0.33015626  1
  O  O29  1  0.17549348  0.82424090  0.66983684  1
  O  O30  1  0.35118921  0.17538152  0.33015642  1
  O  O31  1  0.17538043  0.82419722  0.83015442  1
  O  O32  1  0.64881675  0.82436224  0.66984270  1
  O  O33  1  0.82462364  0.17580656  0.16984228  1
  O  O34  1  0.82418908  0.64880957  0.33015649  1
  O  O35  1  0.64881266  0.82462266  0.83015606  1
  O  O36  1  0.17569101  0.35111516  0.66984864  1
  O  O37  1  0.35118362  0.17537720  0.16984228  1
  O  O38  1  0.17580784  0.35119247  0.83015788  1
  O  O39  1  0.82419047  0.64881354  0.16984227  1
  O  O40  1  0.48358220  0.51645671  0.75000499  1
  O  O41  1  0.51639982  0.48350671  0.24999902  1
  O  O42  1  0.03289295  0.51639555  0.74999913  1
  O  O43  1  0.96710608  0.48359768  0.24999883  1
  O  O44  1  0.48352419  0.96708772  0.74999317  1
  O  O45  1  0.51649397  0.03289562  0.24999861  1
  O  O46  1  0.82413210  0.17588139  0.92757659  1
  O  O47  1  0.17584946  0.82413781  0.07242533  1
  O  O48  1  0.35175108  0.17586963  0.92757684  1
  O  O49  1  0.17586416  0.82412113  0.42757340  1
  O  O50  1  0.64828806  0.82414930  0.07242517  1
  O  O51  1  0.82413712  0.17586801  0.57243309  1
  O  O52  1  0.82411633  0.64824681  0.92757668  1
  O  O53  1  0.64825767  0.82413331  0.42757353  1
  O  O54  1  0.17586441  0.35171474  0.07242510  1
  O  O55  1  0.35173294  0.17586520  0.57243119  1
  O  O56  1  0.17587893  0.35174345  0.42757346  1
  O  O57  1  0.82413030  0.64826561  0.57242931  1
