# generated using pymatgen
data_Ba2Zn2Cr7Ga2(SnO11)2
_symmetry_space_group_name_H-M   'P 1'
_cell_length_a   5.96926949
_cell_length_b   5.96926949
_cell_length_c   14.48993161
_cell_angle_alpha   90.00000000
_cell_angle_beta   90.00000000
_cell_angle_gamma   120.00000146
_symmetry_Int_Tables_number   1
_chemical_formula_structural   Ba2Zn2Cr7Ga2(SnO11)2
_chemical_formula_sum   'Ba2 Zn2 Cr7 Ga2 Sn2 O22'
_cell_volume   447.13568707
_cell_formula_units_Z   1
loop_
 _symmetry_equiv_pos_site_id
 _symmetry_equiv_pos_as_xyz
  1  'x, y, z'
loop_
 _atom_site_type_symbol
 _atom_site_label
 _atom_site_symmetry_multiplicity
 _atom_site_fract_x
 _atom_site_fract_y
 _atom_site_fract_z
 _atom_site_occupancy
  Ba  Ba0  1  0.66666700  0.33333300  0.42502407  1
  Ba  Ba1  1  0.33333300  0.66666700  0.57497593  1
  Zn  Zn2  1  0.66666700  0.33333300  0.95554205  1
  Zn  Zn3  1  0.33333300  0.66666700  0.04445795  1
  Cr  Cr4  1  0.16851966  0.33703931  0.82994367  1
  Cr  Cr5  1  0.83148034  0.66296069  0.17005633  1
  Cr  Cr6  1  0.16851966  0.83148034  0.82994367  1
  Cr  Cr7  1  0.83148034  0.16851966  0.17005633  1
  Cr  Cr8  1  0.66296069  0.83148034  0.82994367  1
  Cr  Cr9  1  0.33703931  0.16851966  0.17005633  1
  Cr  Cr10  1  -0.00000000  -0.00000000  -0.00000000  1
  Ga  Ga11  1  -0.00000000  -0.00000000  0.62703185  1
  Ga  Ga12  1  -0.00000000  -0.00000000  0.37296815  1
  Sn  Sn13  1  0.66666700  0.33333300  0.68179295  1
  Sn  Sn14  1  0.33333300  0.66666700  0.31820705  1
  O  O15  1  0.82691787  0.65383573  0.59238039  1
  O  O16  1  0.17308213  0.34616427  0.40761961  1
  O  O17  1  0.82691787  0.17308213  0.59238039  1
  O  O18  1  0.17308213  0.82691787  0.40761961  1
  O  O19  1  0.34616427  0.17308213  0.59238039  1
  O  O20  1  0.65383573  0.82691787  0.40761961  1
  O  O21  1  0.49298378  0.98596756  0.75742203  1
  O  O22  1  0.50701622  0.01403244  0.24257797  1
  O  O23  1  0.49298378  0.50701622  0.75742203  1
  O  O24  1  0.50701622  0.49298378  0.24257797  1
  O  O25  1  0.01403244  0.50701622  0.75742203  1
  O  O26  1  0.98596756  0.49298378  0.24257797  1
  O  O27  1  0.84971122  0.69942245  0.91175539  1
  O  O28  1  0.15028878  0.30057755  0.08824461  1
  O  O29  1  0.84971122  0.15028878  0.91175539  1
  O  O30  1  0.15028878  0.84971122  0.08824461  1
  O  O31  1  0.30057755  0.15028878  0.91175539  1
  O  O32  1  0.69942245  0.84971122  0.08824461  1
  O  O33  1  0.66666700  0.33333300  0.09592186  1
  O  O34  1  0.33333300  0.66666700  0.90407814  1
  O  O35  1  -0.00000000  -0.00000000  0.75930984  1
  O  O36  1  -0.00000000  -0.00000000  0.24069016  1
