# generated using pymatgen
data_YbAl7Cu5
_symmetry_space_group_name_H-M   'P 1'
_cell_length_a   5.08508735
_cell_length_b   6.67557901
_cell_length_c   6.67557901
_cell_angle_alpha   97.66106945
_cell_angle_beta   112.38773039
_cell_angle_gamma   67.61226961
_symmetry_Int_Tables_number   1
_chemical_formula_structural   YbAl7Cu5
_chemical_formula_sum   'Yb1 Al7 Cu5'
_cell_volume   193.71756117
_cell_formula_units_Z   1
loop_
 _symmetry_equiv_pos_site_id
 _symmetry_equiv_pos_as_xyz
  1  'x, y, z'
loop_
 _atom_site_type_symbol
 _atom_site_label
 _atom_site_symmetry_multiplicity
 _atom_site_fract_x
 _atom_site_fract_y
 _atom_site_fract_z
 _atom_site_occupancy
  Yb  Yb0  1  0.00302854  0.99697146  0.00302854  1
  Al  Al1  1  0.65121548  0.34878452  0.65121548  1
  Al  Al2  1  0.34531112  0.65468888  0.34531112  1
  Al  Al3  1  0.99292539  0.35629428  0.34214505  1
  Al  Al4  1  0.99292539  0.65785495  0.64370572  1
  Al  Al5  1  0.27678136  0.22321864  0.77678136  1
  Al  Al6  1  0.50614034  0.78085784  0.79313853  1
  Al  Al7  1  0.50614034  0.20686147  0.21914216  1
  Cu  Cu8  1  0.49988002  0.00008667  0.50271140  1
  Cu  Cu9  1  0.00274471  0.00008667  0.50271140  1
  Cu  Cu10  1  0.49988002  0.49728860  0.99991333  1
  Cu  Cu11  1  0.00274471  0.49728860  0.99991333  1
  Cu  Cu12  1  0.72028257  0.77971743  0.22028257  1
