# generated using pymatgen
data_Zr2V3Fe
_symmetry_space_group_name_H-M   'P 1'
_cell_length_a   5.22522435
_cell_length_b   5.22522435
_cell_length_c   5.05886430
_cell_angle_alpha   90.00000000
_cell_angle_beta   58.90608212
_cell_angle_gamma   120.00000000
_symmetry_Int_Tables_number   1
_chemical_formula_structural   Zr2V3Fe
_chemical_formula_sum   'Zr2 V3 Fe1'
_cell_volume   96.02085466
_cell_formula_units_Z   1
loop_
 _symmetry_equiv_pos_site_id
 _symmetry_equiv_pos_as_xyz
  1  'x, y, z'
loop_
 _atom_site_type_symbol
 _atom_site_label
 _atom_site_symmetry_multiplicity
 _atom_site_fract_x
 _atom_site_fract_y
 _atom_site_fract_z
 _atom_site_occupancy
  Zr  Zr0  1  0.49812648  0.74906324  0.75281029  1
  Zr  Zr1  1  0.00187352  0.00093676  0.99718971  1
  V  V2  1  0.25000000  0.37500000  0.37500000  1
  V  V3  1  0.25000000  0.87500000  0.37500000  1
  V  V4  1  0.75000000  0.37500000  0.37500000  1
  Fe  Fe5  1  0.75000000  0.37500000  0.87500000  1
