# generated using pymatgen
data_Ba5AlRu2O11
_symmetry_space_group_name_H-M   'P 1'
_cell_length_a   5.87861075
_cell_length_b   18.87667335
_cell_length_c   11.22318511
_cell_angle_alpha   90.00000000
_cell_angle_beta   90.00000000
_cell_angle_gamma   90.00000000
_symmetry_Int_Tables_number   1
_chemical_formula_structural   Ba5AlRu2O11
_chemical_formula_sum   'Ba20 Al4 Ru8 O44'
_cell_volume   1245.42130619
_cell_formula_units_Z   4
loop_
 _symmetry_equiv_pos_site_id
 _symmetry_equiv_pos_as_xyz
  1  'x, y, z'
loop_
 _atom_site_type_symbol
 _atom_site_label
 _atom_site_symmetry_multiplicity
 _atom_site_fract_x
 _atom_site_fract_y
 _atom_site_fract_z
 _atom_site_occupancy
  Ba  Ba0  1  0.75000000  0.93276760  0.47184199  1
  Ba  Ba1  1  0.25000000  0.06723240  0.52815801  1
  Ba  Ba2  1  0.25000000  0.56723240  0.97184199  1
  Ba  Ba3  1  0.75000000  0.43276760  0.02815801  1
  Ba  Ba4  1  0.75000000  0.47292098  0.39393108  1
  Ba  Ba5  1  0.25000000  0.52707902  0.60606892  1
  Ba  Ba6  1  0.25000000  0.02707902  0.89393108  1
  Ba  Ba7  1  0.75000000  0.97292098  0.10606892  1
  Ba  Ba8  1  0.75000000  0.63855219  0.19318216  1
  Ba  Ba9  1  0.25000000  0.36144781  0.80681784  1
  Ba  Ba10  1  0.25000000  0.86144781  0.69318216  1
  Ba  Ba11  1  0.75000000  0.13855219  0.30681784  1
  Ba  Ba12  1  0.75000000  0.67271768  0.54829538  1
  Ba  Ba13  1  0.25000000  0.32728232  0.45170462  1
  Ba  Ba14  1  0.25000000  0.82728232  0.04829538  1
  Ba  Ba15  1  0.75000000  0.17271768  0.95170462  1
  Ba  Ba16  1  0.75000000  0.74988278  0.87226837  1
  Ba  Ba17  1  0.25000000  0.25011722  0.12773163  1
  Ba  Ba18  1  0.25000000  0.75011722  0.37226837  1
  Ba  Ba19  1  0.75000000  0.24988278  0.62773163  1
  Al  Al20  1  0.75000000  0.81224952  0.23882701  1
  Al  Al21  1  0.25000000  0.18775048  0.76117299  1
  Al  Al22  1  0.25000000  0.68775048  0.73882701  1
  Al  Al23  1  0.75000000  0.31224952  0.26117299  1
  Ru  Ru24  1  0.75000000  0.93639461  0.79166907  1
  Ru  Ru25  1  0.25000000  0.06360539  0.20833093  1
  Ru  Ru26  1  0.25000000  0.56360539  0.29166907  1
  Ru  Ru27  1  0.75000000  0.43639461  0.70833093  1
  Ru  Ru28  1  0.75000000  0.56094178  0.79315168  1
  Ru  Ru29  1  0.25000000  0.43905822  0.20684832  1
  Ru  Ru30  1  0.25000000  0.93905822  0.29315168  1
  Ru  Ru31  1  0.75000000  0.06094178  0.70684832  1
  O  O32  1  0.98560442  0.98418392  0.67780594  1
  O  O33  1  0.01439558  0.01581608  0.32219406  1
  O  O34  1  0.01439558  0.51581608  0.17780594  1
  O  O35  1  0.48560442  0.01581608  0.32219406  1
  O  O36  1  0.98560442  0.48418392  0.82219406  1
  O  O37  1  0.51439558  0.98418392  0.67780594  1
  O  O38  1  0.51439558  0.48418392  0.82219406  1
  O  O39  1  0.48560442  0.51581608  0.17780594  1
  O  O40  1  0.98456323  0.90063545  0.89540575  1
  O  O41  1  0.01543677  0.09936455  0.10459425  1
  O  O42  1  0.01543677  0.59936455  0.39540575  1
  O  O43  1  0.48456323  0.09936455  0.10459425  1
  O  O44  1  0.98456323  0.40063545  0.60459425  1
  O  O45  1  0.51543677  0.90063545  0.89540575  1
  O  O46  1  0.51543677  0.40063545  0.60459425  1
  O  O47  1  0.48456323  0.59936455  0.39540575  1
  O  O48  1  0.75000000  0.85093164  0.69284951  1
  O  O49  1  0.25000000  0.14906836  0.30715049  1
  O  O50  1  0.25000000  0.64906836  0.19284951  1
  O  O51  1  0.75000000  0.35093164  0.80715049  1
  O  O52  1  0.75000000  0.75066034  0.35623669  1
  O  O53  1  0.25000000  0.24933966  0.64376331  1
  O  O54  1  0.25000000  0.74933966  0.85623669  1
  O  O55  1  0.75000000  0.25066034  0.14376331  1
  O  O56  1  0.75000000  0.77096677  0.09744057  1
  O  O57  1  0.25000000  0.22903323  0.90255943  1
  O  O58  1  0.25000000  0.72903323  0.59744057  1
  O  O59  1  0.75000000  0.27096677  0.40255943  1
  O  O60  1  0.49956101  0.63491026  0.75235227  1
  O  O61  1  0.50043899  0.36508974  0.24764773  1
  O  O62  1  0.50043899  0.86508974  0.25235227  1
  O  O63  1  -0.00043899  0.36508974  0.24764773  1
  O  O64  1  0.49956101  0.13491026  0.74764773  1
  O  O65  1  0.00043899  0.63491026  0.75235227  1
  O  O66  1  0.00043899  0.13491026  0.74764773  1
  O  O67  1  -0.00043899  0.86508974  0.25235227  1
  O  O68  1  0.75000000  0.53175373  0.61648198  1
  O  O69  1  0.25000000  0.46824627  0.38351802  1
  O  O70  1  0.25000000  0.96824627  0.11648198  1
  O  O71  1  0.75000000  0.03175373  0.88351802  1
  O  O72  1  0.75000000  0.59101830  0.95593917  1
  O  O73  1  0.25000000  0.40898170  0.04406083  1
  O  O74  1  0.25000000  0.90898170  0.45593917  1
  O  O75  1  0.75000000  0.09101830  0.54406083  1
