# generated using pymatgen
data_Yb2Mn3Sb3O14
_symmetry_space_group_name_H-M   'P 1'
_cell_length_a   7.23524380
_cell_length_b   7.10341235
_cell_length_c   7.31431946
_cell_angle_alpha   90.00000000
_cell_angle_beta   59.63780053
_cell_angle_gamma   119.80258821
_symmetry_Int_Tables_number   1
_chemical_formula_structural   Yb2Mn3Sb3O14
_chemical_formula_sum   'Yb2 Mn3 Sb3 O14'
_cell_volume   265.14499597
_cell_formula_units_Z   1
loop_
 _symmetry_equiv_pos_site_id
 _symmetry_equiv_pos_as_xyz
  1  'x, y, z'
loop_
 _atom_site_type_symbol
 _atom_site_label
 _atom_site_symmetry_multiplicity
 _atom_site_fract_x
 _atom_site_fract_y
 _atom_site_fract_z
 _atom_site_occupancy
  Yb  Yb0  1  0.00000000  0.00000000  0.50000000  1
  Yb  Yb1  1  0.00000000  0.00000000  0.00000000  1
  Mn  Mn2  1  0.50000000  0.00000000  0.50000000  1
  Mn  Mn3  1  0.50000000  0.50000000  0.00000000  1
  Mn  Mn4  1  0.50000000  0.00000000  0.00000000  1
  Sb  Sb5  1  0.50000000  0.50000000  0.50000000  1
  Sb  Sb6  1  0.00000000  0.50000000  0.00000000  1
  Sb  Sb7  1  0.00000000  0.50000000  0.50000000  1
  O  O8  1  0.29665844  0.13070940  0.10167078  1
  O  O9  1  0.70334156  0.86929060  0.89832922  1
  O  O10  1  0.65582851  0.83282764  0.42208574  1
  O  O11  1  0.83988800  0.41185117  0.83005600  1
  O  O12  1  0.25569424  0.83151267  0.81952948  1
  O  O13  1  0.24626544  0.41263568  0.42148157  1
  O  O14  1  0.24626544  0.41263568  0.83225299  1
  O  O15  1  0.25569424  0.83151267  0.42477628  1
  O  O16  1  0.34417149  0.16717236  0.57791426  1
  O  O17  1  0.16011200  0.58814883  0.16994400  1
  O  O18  1  0.74430576  0.16848733  0.18047052  1
  O  O19  1  0.75373456  0.58736432  0.57851843  1
  O  O20  1  0.75373456  0.58736432  0.16774701  1
  O  O21  1  0.74430576  0.16848733  0.57522372  1
