# generated using pymatgen
data_MnGa6
_symmetry_space_group_name_H-M   'P 1'
_cell_length_a   5.02090667
_cell_length_b   5.02090667
_cell_length_c   8.91121672
_cell_angle_alpha   90.00000000
_cell_angle_beta   90.00000000
_cell_angle_gamma   98.42405010
_symmetry_Int_Tables_number   1
_chemical_formula_structural   MnGa6
_chemical_formula_sum   'Mn2 Ga12'
_cell_volume   222.22361541
_cell_formula_units_Z   2
loop_
 _symmetry_equiv_pos_site_id
 _symmetry_equiv_pos_as_xyz
  1  'x, y, z'
loop_
 _atom_site_type_symbol
 _atom_site_label
 _atom_site_symmetry_multiplicity
 _atom_site_fract_x
 _atom_site_fract_y
 _atom_site_fract_z
 _atom_site_occupancy
  Mn  Mn0  1  0.44728049  0.44728049  0.25000000  1
  Mn  Mn1  1  0.55271951  0.55271951  0.75000000  1
  Ga  Ga2  1  0.67353052  0.32646948  0.50000000  1
  Ga  Ga3  1  0.67353052  0.32646948  -0.00000000  1
  Ga  Ga4  1  0.32646948  0.67353052  0.50000000  1
  Ga  Ga5  1  0.32646948  0.67353052  -0.00000000  1
  Ga  Ga6  1  0.13170488  0.13170488  0.40037246  1
  Ga  Ga7  1  0.86829512  0.86829512  0.59962754  1
  Ga  Ga8  1  0.13170488  0.13170488  0.09962754  1
  Ga  Ga9  1  0.86829512  0.86829512  0.90037246  1
  Ga  Ga10  1  0.95844649  0.59942394  0.25000000  1
  Ga  Ga11  1  0.40057606  0.04155351  0.75000000  1
  Ga  Ga12  1  0.04155351  0.40057606  0.75000000  1
  Ga  Ga13  1  0.59942394  0.95844649  0.25000000  1
