# generated using pymatgen
data_Zr10(AlSb)3
_symmetry_space_group_name_H-M   'P 1'
_cell_length_a   5.73504471
_cell_length_b   8.41605507
_cell_length_c   8.41605563
_cell_angle_alpha   60.01757439
_cell_angle_beta   90.00010760
_cell_angle_gamma   89.99989235
_symmetry_Int_Tables_number   1
_chemical_formula_structural   Zr10(AlSb)3
_chemical_formula_sum   'Zr10 Al3 Sb3'
_cell_volume   351.85318642
_cell_formula_units_Z   1
loop_
 _symmetry_equiv_pos_site_id
 _symmetry_equiv_pos_as_xyz
  1  'x, y, z'
loop_
 _atom_site_type_symbol
 _atom_site_label
 _atom_site_symmetry_multiplicity
 _atom_site_fract_x
 _atom_site_fract_y
 _atom_site_fract_z
 _atom_site_occupancy
  Zr  Zr0  1  0.50611878  0.33335369  0.33331611  1
  Zr  Zr1  1  0.50611878  0.66668389  0.66664631  1
  Zr  Zr2  1  0.99388074  0.66669478  0.66663639  1
  Zr  Zr3  1  0.99388074  0.33336361  0.33330522  1
  Zr  Zr4  1  0.74999562  0.24964122  0.75035878  1
  Zr  Zr5  1  0.75000382  0.75042474  0.00000839  1
  Zr  Zr6  1  0.75000382  -0.00000839  0.24957526  1
  Zr  Zr7  1  0.24999579  0.75057985  0.24942015  1
  Zr  Zr8  1  0.25000222  0.24938079  0.00000444  1
  Zr  Zr9  1  0.25000222  0.99999556  0.75061921  1
  Al  Al10  1  0.74999251  0.61088338  0.38911662  1
  Al  Al11  1  0.75000268  0.38911256  0.99999343  1
  Al  Al12  1  0.75000268  0.00000657  0.61088744  1
  Sb  Sb13  1  0.24999322  0.39298775  0.60701225  1
  Sb  Sb14  1  0.25000319  0.60690757  0.00000757  1
  Sb  Sb15  1  0.25000319  -0.00000757  0.39309243  1
