# generated using pymatgen
data_ZrTaC2
_symmetry_space_group_name_H-M   'P 1'
_cell_length_a   3.24157269
_cell_length_b   3.24157269
_cell_length_c   5.64388646
_cell_angle_alpha   73.31106281
_cell_angle_beta   90.00000000
_cell_angle_gamma   120.00000000
_symmetry_Int_Tables_number   1
_chemical_formula_structural   ZrTaC2
_chemical_formula_sum   'Zr1 Ta1 C2'
_cell_volume   48.45351116
_cell_formula_units_Z   1
loop_
 _symmetry_equiv_pos_site_id
 _symmetry_equiv_pos_as_xyz
  1  'x, y, z'
loop_
 _atom_site_type_symbol
 _atom_site_label
 _atom_site_symmetry_multiplicity
 _atom_site_fract_x
 _atom_site_fract_y
 _atom_site_fract_z
 _atom_site_occupancy
  Zr  Zr0  1  0.75000000  0.50000000  0.75000000  1
  Ta  Ta1  1  0.25000000  0.50000000  0.25000000  1
  C  C2  1  0.99504762  0.99009524  0.01485714  1
  C  C3  1  0.50495238  0.00990476  0.48514286  1
