# generated using pymatgen
data_Zr4TaGe4
_symmetry_space_group_name_H-M   'P 1'
_cell_length_a   7.18533673
_cell_length_b   7.18533673
_cell_length_c   13.17180800
_cell_angle_alpha   90.00000000
_cell_angle_beta   90.00000000
_cell_angle_gamma   90.00000000
_symmetry_Int_Tables_number   1
_chemical_formula_structural   Zr4TaGe4
_chemical_formula_sum   'Zr16 Ta4 Ge16'
_cell_volume   680.04811722
_cell_formula_units_Z   4
loop_
 _symmetry_equiv_pos_site_id
 _symmetry_equiv_pos_as_xyz
  1  'x, y, z'
loop_
 _atom_site_type_symbol
 _atom_site_label
 _atom_site_symmetry_multiplicity
 _atom_site_fract_x
 _atom_site_fract_y
 _atom_site_fract_z
 _atom_site_occupancy
  Zr  Zr0  1  0.99945534  0.34025182  0.52798561  1
  Zr  Zr1  1  0.00054466  0.65974818  0.02798561  1
  Zr  Zr2  1  0.84025182  0.50054466  0.27798561  1
  Zr  Zr3  1  0.15974818  0.49945534  0.77798561  1
  Zr  Zr4  1  0.65625181  0.99901909  0.97173368  1
  Zr  Zr5  1  0.34374819  0.00098091  0.47173368  1
  Zr  Zr6  1  0.49901909  0.84374819  0.72173368  1
  Zr  Zr7  1  0.50098091  0.15625181  0.22173368  1
  Zr  Zr8  1  0.65426622  0.49939622  0.87751065  1
  Zr  Zr9  1  0.34573378  0.50060378  0.37751065  1
  Zr  Zr10  1  0.99939622  0.84573378  0.62751065  1
  Zr  Zr11  1  0.00060378  0.15426622  0.12751065  1
  Zr  Zr12  1  0.83005279  0.17034141  0.74974131  1
  Zr  Zr13  1  0.16994721  0.82965859  0.24974131  1
  Zr  Zr14  1  0.67034141  0.66994721  0.49974131  1
  Zr  Zr15  1  0.32965859  0.33005279  0.99974131  1
  Ta  Ta16  1  0.50293566  0.34386099  0.62318256  1
  Ta  Ta17  1  0.49706434  0.65613901  0.12318256  1
  Ta  Ta18  1  0.84386099  0.99706434  0.37318256  1
  Ta  Ta19  1  0.15613901  0.00293566  0.87318256  1
  Ge  Ge20  1  0.69741859  0.04208282  0.56464564  1
  Ge  Ge21  1  0.30258141  0.95791718  0.06464564  1
  Ge  Ge22  1  0.54208282  0.80258141  0.31464564  1
  Ge  Ge23  1  0.45791718  0.19741859  0.81464564  1
  Ge  Ge24  1  0.96324483  0.29972954  0.93300486  1
  Ge  Ge25  1  0.03675517  0.70027046  0.43300486  1
  Ge  Ge26  1  0.79972954  0.53675517  0.68300486  1
  Ge  Ge27  1  0.20027046  0.46324483  0.18300486  1
  Ge  Ge28  1  0.64163920  0.29497963  0.42336408  1
  Ge  Ge29  1  0.35836080  0.70502037  0.92336408  1
  Ge  Ge30  1  0.79497963  0.85836080  0.17336408  1
  Ge  Ge31  1  0.20502037  0.14163920  0.67336408  1
  Ge  Ge32  1  0.69810636  0.36434669  0.07883161  1
  Ge  Ge33  1  0.30189364  0.63565331  0.57883161  1
  Ge  Ge34  1  0.86434669  0.80189364  0.82883161  1
  Ge  Ge35  1  0.13565331  0.19810636  0.32883161  1
