# generated using pymatgen
data_ZnGa2(TeO3)4
_symmetry_space_group_name_H-M   'P 1'
_cell_length_a   9.33144210
_cell_length_b   9.33144210
_cell_length_c   9.33144210
_cell_angle_alpha   70.14227302
_cell_angle_beta   70.14227302
_cell_angle_gamma   108.70094301
_symmetry_Int_Tables_number   1
_chemical_formula_structural   ZnGa2(TeO3)4
_chemical_formula_sum   'Zn2 Ga4 Te8 O24'
_cell_volume   625.41116120
_cell_formula_units_Z   2
loop_
 _symmetry_equiv_pos_site_id
 _symmetry_equiv_pos_as_xyz
  1  'x, y, z'
loop_
 _atom_site_type_symbol
 _atom_site_label
 _atom_site_symmetry_multiplicity
 _atom_site_fract_x
 _atom_site_fract_y
 _atom_site_fract_z
 _atom_site_occupancy
  Zn  Zn0  1  0.12500000  0.37500000  0.25000000  1
  Zn  Zn1  1  0.37500000  0.12500000  0.75000000  1
  Ga  Ga2  1  0.75000000  0.62749023  0.12250977  1
  Ga  Ga3  1  0.25000000  0.87250977  0.37749023  1
  Ga  Ga4  1  0.87250977  0.25000000  0.87749023  1
  Ga  Ga5  1  0.62749023  0.75000000  0.62250977  1
  Te  Te6  1  0.27414852  0.49070327  0.50612826  1
  Te  Te7  1  0.00316847  0.00929673  0.71655474  1
  Te  Te8  1  0.22585148  0.71972321  0.78344526  1
  Te  Te9  1  0.49683153  0.78027679  0.99387174  1
  Te  Te10  1  0.78027679  0.49683153  0.49387174  1
  Te  Te11  1  0.00929673  0.00316847  0.21655474  1
  Te  Te12  1  0.49070327  0.27414852  0.00612826  1
  Te  Te13  1  0.71972321  0.22585148  0.28344526  1
  O  O14  1  0.12141325  0.33486544  0.47068291  1
  O  O15  1  0.19445166  0.16513456  0.71345219  1
  O  O16  1  0.37858675  0.90790384  0.78654781  1
  O  O17  1  0.30554834  0.59209616  0.02931709  1
  O  O18  1  0.79306441  0.66448877  0.29171291  1
  O  O19  1  0.04379833  0.83551123  0.37142435  1
  O  O20  1  0.45620167  0.08477732  0.20828709  1
  O  O21  1  0.70693559  0.41522268  0.12857565  1
  O  O22  1  0.21253796  0.86783299  0.58862121  1
  O  O23  1  0.95645420  0.80115918  0.91137879  1
  O  O24  1  0.54354580  0.63216701  0.15529503  1
  O  O25  1  0.28746204  0.69884082  0.34470497  1
  O  O26  1  0.86783299  0.21253796  0.08862121  1
  O  O27  1  0.80115918  0.95645420  0.41137879  1
  O  O28  1  0.63216701  0.54354580  0.65529503  1
  O  O29  1  0.69884082  0.28746204  0.84470497  1
  O  O30  1  0.66448877  0.79306441  0.79171291  1
  O  O31  1  0.83551123  0.04379833  0.87142435  1
  O  O32  1  0.08477732  0.45620167  0.70828709  1
  O  O33  1  0.41522268  0.70693559  0.62857565  1
  O  O34  1  0.33486544  0.12141325  0.97068291  1
  O  O35  1  0.16513456  0.19445166  0.21345219  1
  O  O36  1  0.90790384  0.37858675  0.28654781  1
  O  O37  1  0.59209616  0.30554834  0.52931709  1
