# generated using pymatgen
data_V8GaGeS16
_symmetry_space_group_name_H-M   'P 1'
_cell_length_a   6.87661787
_cell_length_b   9.72173745
_cell_length_c   6.87661787
_cell_angle_alpha   90.00000000
_cell_angle_beta   90.00000000
_cell_angle_gamma   90.00000000
_symmetry_Int_Tables_number   1
_chemical_formula_structural   V8GaGeS16
_chemical_formula_sum   'V8 Ga1 Ge1 S16'
_cell_volume   459.72028955
_cell_formula_units_Z   1
loop_
 _symmetry_equiv_pos_site_id
 _symmetry_equiv_pos_as_xyz
  1  'x, y, z'
loop_
 _atom_site_type_symbol
 _atom_site_label
 _atom_site_symmetry_multiplicity
 _atom_site_fract_x
 _atom_site_fract_y
 _atom_site_fract_z
 _atom_site_occupancy
  V  V0  1  0.20767272  0.39496140  -0.00000000  1
  V  V1  1  0.70998946  0.89517537  0.50000000  1
  V  V2  1  -0.00000000  0.60503860  0.79232728  1
  V  V3  1  0.50000000  0.10482463  0.29001054  1
  V  V4  1  -0.00000000  0.60503860  0.20767272  1
  V  V5  1  0.50000000  0.10482463  0.70998946  1
  V  V6  1  0.79232728  0.39496140  -0.00000000  1
  V  V7  1  0.29001054  0.89517537  0.50000000  1
  Ga  Ga8  1  -0.00000000  -0.00000000  -0.00000000  1
  Ge  Ge9  1  0.50000000  0.50000000  0.50000000  1
  S  S10  1  0.74047783  0.62821188  -0.00000000  1
  S  S11  1  0.24130026  0.12914796  0.50000000  1
  S  S12  1  -0.00000000  0.37178812  0.25952217  1
  S  S13  1  0.50000000  0.87085204  0.75869974  1
  S  S14  1  0.00000000  0.37178812  0.74047783  1
  S  S15  1  0.50000000  0.87085204  0.24130026  1
  S  S16  1  0.25952217  0.62821188  -0.00000000  1
  S  S17  1  0.75869974  0.12914796  0.50000000  1
  S  S18  1  0.72575557  0.13776451  -0.00000000  1
  S  S19  1  0.22798200  0.63577637  0.50000000  1
  S  S20  1  0.50000000  0.36422363  0.77201800  1
  S  S21  1  -0.00000000  0.86223549  0.27424443  1
  S  S22  1  0.50000000  0.36422363  0.22798200  1
  S  S23  1  -0.00000000  0.86223549  0.72575557  1
  S  S24  1  0.27424443  0.13776451  -0.00000000  1
  S  S25  1  0.77201800  0.63577637  0.50000000  1
