# generated using pymatgen
data_V4Cd3(PO4)6
_symmetry_space_group_name_H-M   'P 1'
_cell_length_a   6.57563687
_cell_length_b   8.90426631
_cell_length_c   8.93000426
_cell_angle_alpha   89.85625378
_cell_angle_beta   108.06505782
_cell_angle_gamma   107.70930967
_symmetry_Int_Tables_number   1
_chemical_formula_structural   V4Cd3(PO4)6
_chemical_formula_sum   'V4 Cd3 P6 O24'
_cell_volume   471.09223620
_cell_formula_units_Z   1
loop_
 _symmetry_equiv_pos_site_id
 _symmetry_equiv_pos_as_xyz
  1  'x, y, z'
loop_
 _atom_site_type_symbol
 _atom_site_label
 _atom_site_symmetry_multiplicity
 _atom_site_fract_x
 _atom_site_fract_y
 _atom_site_fract_z
 _atom_site_occupancy
  V  V0  1  0.13336217  0.88033256  0.56666681  1
  V  V1  1  0.36750148  0.43477653  0.12019673  1
  V  V2  1  0.86407660  0.12076247  0.42970322  1
  V  V3  1  0.63165159  0.56405347  0.88199671  1
  Cd  Cd4  1  0.25497111  0.75055367  0.25009599  1
  Cd  Cd5  1  0.74940342  0.24467247  0.75683424  1
  Cd  Cd6  1  0.02866008  0.98084197  0.98082129  1
  P  P7  1  0.24839724  0.21755821  0.77789994  1
  P  P8  1  0.75244302  0.78528724  0.21959212  1
  P  P9  1  0.35813498  0.14370538  0.35801635  1
  P  P10  1  0.13640063  0.64351885  0.85660139  1
  P  P11  1  0.64327226  0.85470082  0.64225379  1
  P  P12  1  0.86194616  0.35562787  0.14044672  1
  O  O13  1  0.26352720  0.04971919  0.75769318  1
  O  O14  1  0.22649549  0.23955916  0.94550098  1
  O  O15  1  0.73125476  0.94949154  0.24439137  1
  O  O16  1  0.77634106  0.76198432  0.05316253  1
  O  O17  1  0.96694390  0.76438245  0.34572720  1
  O  O18  1  0.53844956  0.65562874  0.23425092  1
  O  O19  1  0.03356045  0.23686963  0.65212025  1
  O  O20  1  0.46245743  0.34490792  0.76262494  1
  O  O21  1  0.14247118  0.70522834  0.69657926  1
  O  O22  1  0.35619231  0.30350708  0.29408043  1
  O  O23  1  0.85646262  0.29600526  0.30182020  1
  O  O24  1  0.64348514  0.69469084  0.70639610  1
  O  O25  1  0.40931852  0.84273886  0.52281453  1
  O  O26  1  0.09614016  0.48273708  0.16142193  1
  O  O27  1  0.59214112  0.15825937  0.47972085  1
  O  O28  1  0.90371148  0.51834006  0.83855942  1
  O  O29  1  0.29330376  0.01604968  0.22006798  1
  O  O30  1  0.18908120  0.78083167  0.98113793  1
  O  O31  1  0.71562629  0.98094620  0.78342119  1
  O  O32  1  0.81034479  0.22033254  0.01711460  1
  O  O33  1  0.18003906  0.09051088  0.44872725  1
  O  O34  1  0.31939096  0.55486621  0.91360689  1
  O  O35  1  0.81989469  0.90810730  0.55082568  1
  O  O36  1  0.67944612  0.44681417  0.08660910  1
