# generated using pymatgen
data_TmAlNi4
_symmetry_space_group_name_H-M   'P 1'
_cell_length_a   4.01993521
_cell_length_b   4.97109131
_cell_length_c   4.85812971
_cell_angle_alpha   120.77220495
_cell_angle_beta   90.00000000
_cell_angle_gamma   90.00000000
_symmetry_Int_Tables_number   1
_chemical_formula_structural   TmAlNi4
_chemical_formula_sum   'Tm1 Al1 Ni4'
_cell_volume   83.41387775
_cell_formula_units_Z   1
loop_
 _symmetry_equiv_pos_site_id
 _symmetry_equiv_pos_as_xyz
  1  'x, y, z'
loop_
 _atom_site_type_symbol
 _atom_site_label
 _atom_site_symmetry_multiplicity
 _atom_site_fract_x
 _atom_site_fract_y
 _atom_site_fract_z
 _atom_site_occupancy
  Tm  Tm0  1  -0.00000000  0.99998436  0.00000000  1
  Al  Al1  1  0.50000000  0.49999730  0.00000000  1
  Ni  Ni2  1  -0.00000000  0.33348603  0.66702972  1
  Ni  Ni3  1  -0.00000000  0.66645631  0.33297028  1
  Ni  Ni4  1  0.50000000  0.49999130  0.50000660  1
  Ni  Ni5  1  0.50000000  0.99998470  0.49999340  1
