# generated using pymatgen
data_UAl7Cu5
_symmetry_space_group_name_H-M   'P 1'
_cell_length_a   5.10474340
_cell_length_b   6.66415878
_cell_length_c   6.66415878
_cell_angle_alpha   97.93440142
_cell_angle_beta   112.51962345
_cell_angle_gamma   67.48037655
_symmetry_Int_Tables_number   1
_chemical_formula_structural   UAl7Cu5
_chemical_formula_sum   'U1 Al7 Cu5'
_cell_volume   193.44151492
_cell_formula_units_Z   1
loop_
 _symmetry_equiv_pos_site_id
 _symmetry_equiv_pos_as_xyz
  1  'x, y, z'
loop_
 _atom_site_type_symbol
 _atom_site_label
 _atom_site_symmetry_multiplicity
 _atom_site_fract_x
 _atom_site_fract_y
 _atom_site_fract_z
 _atom_site_occupancy
  U  U0  1  0.99992237  0.00007763  0.99992237  1
  Al  Al1  1  0.65129531  0.34870469  0.65129531  1
  Al  Al2  1  0.34527638  0.65472362  0.34527638  1
  Al  Al3  1  0.99290908  0.35413597  0.33995412  1
  Al  Al4  1  0.99290908  0.66004588  0.64586403  1
  Al  Al5  1  0.27737496  0.22262504  0.77737496  1
  Al  Al6  1  0.50636220  0.78410036  0.79682476  1
  Al  Al7  1  0.50636220  0.20317524  0.21589964  1
  Cu  Cu8  1  0.49931384  0.00036579  0.50262483  1
  Cu  Cu9  1  0.00294520  0.00036579  0.50262483  1
  Cu  Cu10  1  0.49931384  0.49737517  0.99963421  1
  Cu  Cu11  1  0.00294520  0.49737517  0.99963421  1
  Cu  Cu12  1  0.72307034  0.77692966  0.22307034  1
