# generated using pymatgen
data_Y2TeS2
_symmetry_space_group_name_H-M   'P 1'
_cell_length_a   4.23104673
_cell_length_b   5.35382994
_cell_length_c   7.58832517
_cell_angle_alpha   69.34331470
_cell_angle_beta   73.81220148
_cell_angle_gamma   90.00000000
_symmetry_Int_Tables_number   1
_chemical_formula_structural   Y2TeS2
_chemical_formula_sum   'Y2 Te1 S2'
_cell_volume   153.53745804
_cell_formula_units_Z   1
loop_
 _symmetry_equiv_pos_site_id
 _symmetry_equiv_pos_as_xyz
  1  'x, y, z'
loop_
 _atom_site_type_symbol
 _atom_site_label
 _atom_site_symmetry_multiplicity
 _atom_site_fract_x
 _atom_site_fract_y
 _atom_site_fract_z
 _atom_site_occupancy
  Y  Y0  1  0.66515902  0.16515902  0.66968195  1
  Y  Y1  1  0.33484098  0.83484098  0.33031805  1
  Te  Te2  1  0.00000000  0.00000000  -0.00000000  1
  S  S3  1  0.29447426  0.29447426  0.41105149  1
  S  S4  1  0.70552574  0.70552574  0.58894851  1
