# generated using pymatgen
data_VP2PbO8
_symmetry_space_group_name_H-M   'P 1'
_cell_length_a   7.57088945
_cell_length_b   9.06855154
_cell_length_c   9.27412517
_cell_angle_alpha   90.00000000
_cell_angle_beta   90.00000000
_cell_angle_gamma   90.00000000
_symmetry_Int_Tables_number   1
_chemical_formula_structural   VP2PbO8
_chemical_formula_sum   'V4 P8 Pb4 O32'
_cell_volume   636.73362275
_cell_formula_units_Z   4
loop_
 _symmetry_equiv_pos_site_id
 _symmetry_equiv_pos_as_xyz
  1  'x, y, z'
loop_
 _atom_site_type_symbol
 _atom_site_label
 _atom_site_symmetry_multiplicity
 _atom_site_fract_x
 _atom_site_fract_y
 _atom_site_fract_z
 _atom_site_occupancy
  V  V0  1  0.52924690  0.99916335  0.49578373  1
  V  V1  1  0.97075310  0.49916335  0.00421627  1
  V  V2  1  0.02924690  0.00083665  0.50421627  1
  V  V3  1  0.47075310  0.50083665  0.99578373  1
  P  P4  1  0.44814588  0.21997308  0.77641198  1
  P  P5  1  0.05185412  0.71997308  0.72358802  1
  P  P6  1  0.94814588  0.78002692  0.22358802  1
  P  P7  1  0.55185412  0.28002692  0.27641198  1
  P  P8  1  0.55210282  0.77922051  0.22276678  1
  P  P9  1  0.94789718  0.27922051  0.27723322  1
  P  P10  1  0.05210282  0.22077949  0.77723322  1
  P  P11  1  0.44789718  0.72077949  0.72276678  1
  Pb  Pb12  1  0.74964494  0.43367282  0.59602988  1
  Pb  Pb13  1  0.75035506  0.93367282  0.90397012  1
  Pb  Pb14  1  0.24964494  0.56632718  0.40397012  1
  Pb  Pb15  1  0.25035506  0.06632718  0.09602988  1
  O  O16  1  0.25007328  0.26621468  0.73187297  1
  O  O17  1  0.24992672  0.76621468  0.76812703  1
  O  O18  1  0.75007328  0.73378532  0.26812703  1
  O  O19  1  0.74992672  0.23378532  0.23187297  1
  O  O20  1  0.74879150  0.99652235  0.46666739  1
  O  O21  1  0.75120850  0.49652235  0.03333261  1
  O  O22  1  0.24879150  0.00347765  0.53333261  1
  O  O23  1  0.25120850  0.50347765  0.96666739  1
  O  O24  1  0.54100777  0.17684982  0.63482827  1
  O  O25  1  0.95899223  0.67684982  0.86517173  1
  O  O26  1  0.04100777  0.82315018  0.36517173  1
  O  O27  1  0.45899223  0.32315018  0.13482827  1
  O  O28  1  0.46211947  0.82481755  0.36541599  1
  O  O29  1  0.03788053  0.32481755  0.13458401  1
  O  O30  1  0.96211947  0.17518245  0.63458401  1
  O  O31  1  0.53788053  0.67518245  0.86541599  1
  O  O32  1  0.44444689  0.09778687  0.88824477  1
  O  O33  1  0.05555311  0.59778687  0.61175523  1
  O  O34  1  0.94444689  0.90221313  0.11175523  1
  O  O35  1  0.55555311  0.40221313  0.38824477  1
  O  O36  1  0.55562514  0.90154117  0.11098596  1
  O  O37  1  0.94437486  0.40154117  0.38901404  1
  O  O38  1  0.05562514  0.09845883  0.88901404  1
  O  O39  1  0.44437486  0.59845883  0.61098596  1
  O  O40  1  0.53625921  0.86355898  0.67070437  1
  O  O41  1  0.96374079  0.36355898  0.82929563  1
  O  O42  1  0.03625921  0.13644102  0.32929563  1
  O  O43  1  0.46374079  0.63644102  0.17070437  1
  O  O44  1  0.46577174  0.13645968  0.33068452  1
  O  O45  1  0.03422826  0.63645968  0.16931548  1
  O  O46  1  0.96577174  0.86354032  0.66931548  1
  O  O47  1  0.53422826  0.36354032  0.83068452  1
