# generated using pymatgen
data_VSb(SeO3)4
_symmetry_space_group_name_H-M   'P 1'
_cell_length_a   8.22162309
_cell_length_b   8.22387665
_cell_length_c   8.21733447
_cell_angle_alpha   90.48337117
_cell_angle_beta   90.00000000
_cell_angle_gamma   90.00000000
_symmetry_Int_Tables_number   1
_chemical_formula_structural   VSb(SeO3)4
_chemical_formula_sum   'V2 Sb2 Se8 O24'
_cell_volume   555.58391042
_cell_formula_units_Z   2
loop_
 _symmetry_equiv_pos_site_id
 _symmetry_equiv_pos_as_xyz
  1  'x, y, z'
loop_
 _atom_site_type_symbol
 _atom_site_label
 _atom_site_symmetry_multiplicity
 _atom_site_fract_x
 _atom_site_fract_y
 _atom_site_fract_z
 _atom_site_occupancy
  V  V0  1  0.00000000  0.00000000  0.50000000  1
  V  V1  1  0.50000000  0.50000000  0.50000000  1
  Sb  Sb2  1  0.00000000  0.50000000  0.00000000  1
  Sb  Sb3  1  0.50000000  0.00000000  0.00000000  1
  Se  Se4  1  0.66955793  0.16878602  0.33884037  1
  Se  Se5  1  0.16955793  0.33121398  0.66115963  1
  Se  Se6  1  0.33440399  0.66625290  0.17245657  1
  Se  Se7  1  0.83440399  0.83374710  0.82754343  1
  Se  Se8  1  0.33044207  0.83121398  0.66115963  1
  Se  Se9  1  0.83044207  0.66878602  0.33884037  1
  Se  Se10  1  0.66559601  0.33374710  0.82754343  1
  Se  Se11  1  0.16559601  0.16625290  0.17245657  1
  O  O12  1  0.75740460  0.03242771  0.46678236  1
  O  O13  1  0.25740460  0.46757229  0.53321764  1
  O  O14  1  0.24283573  0.53180177  0.02911017  1
  O  O15  1  0.74283573  0.96819823  0.97088983  1
  O  O16  1  0.46841354  0.75744709  0.03017541  1
  O  O17  1  0.53194374  0.25717467  0.46711697  1
  O  O18  1  0.03194374  0.24282533  0.53288303  1
  O  O19  1  0.96841354  0.74255291  0.96982459  1
  O  O20  1  0.02835305  0.47116192  0.76020564  1
  O  O21  1  0.46606928  0.53295013  0.25451391  1
  O  O22  1  0.52835305  0.02883808  0.23979436  1
  O  O23  1  0.96606928  0.96704987  0.74548609  1
  O  O24  1  0.24259540  0.96757229  0.53321764  1
  O  O25  1  0.74259540  0.53242771  0.46678236  1
  O  O26  1  0.75716427  0.46819823  0.97088983  1
  O  O27  1  0.25716427  0.03180177  0.02911017  1
  O  O28  1  0.53158646  0.24255291  0.96982459  1
  O  O29  1  0.46805626  0.74282533  0.53288303  1
  O  O30  1  0.96805626  0.75717467  0.46711697  1
  O  O31  1  0.03158646  0.25744709  0.03017541  1
  O  O32  1  0.97164695  0.52883808  0.23979436  1
  O  O33  1  0.53393072  0.46704987  0.74548609  1
  O  O34  1  0.47164695  0.97116192  0.76020564  1
  O  O35  1  0.03393072  0.03295013  0.25451391  1
