# generated using pymatgen
data_TiB2Mo
_symmetry_space_group_name_H-M   'P 1'
_cell_length_a   3.08770802
_cell_length_b   3.17994818
_cell_length_c   4.51691403
_cell_angle_alpha   69.39002344
_cell_angle_beta   90.00000000
_cell_angle_gamma   90.00000000
_symmetry_Int_Tables_number   1
_chemical_formula_structural   TiB2Mo
_chemical_formula_sum   'Ti1 B2 Mo1'
_cell_volume   41.51194990
_cell_formula_units_Z   1
loop_
 _symmetry_equiv_pos_site_id
 _symmetry_equiv_pos_as_xyz
  1  'x, y, z'
loop_
 _atom_site_type_symbol
 _atom_site_label
 _atom_site_symmetry_multiplicity
 _atom_site_fract_x
 _atom_site_fract_y
 _atom_site_fract_z
 _atom_site_occupancy
  Ti  Ti0  1  0.25000000  0.14696581  0.70606838  1
  B  B1  1  0.75000000  0.55830095  0.88339811  1
  B  B2  1  0.25000000  0.44056609  0.11886781  1
  Mo  Mo3  1  0.75000000  0.85416715  0.29166570  1
