# generated using pymatgen
data_Zr5Ti5Pb6
_symmetry_space_group_name_H-M   'P 1'
_cell_length_a   5.78037852
_cell_length_b   8.62784585
_cell_length_c   8.53577067
_cell_angle_alpha   120.35747592
_cell_angle_beta   90.03812721
_cell_angle_gamma   89.92455932
_symmetry_Int_Tables_number   1
_chemical_formula_structural   Zr5Ti5Pb6
_chemical_formula_sum   'Zr5 Ti5 Pb6'
_cell_volume   367.32962164
_cell_formula_units_Z   1
loop_
 _symmetry_equiv_pos_site_id
 _symmetry_equiv_pos_as_xyz
  1  'x, y, z'
loop_
 _atom_site_type_symbol
 _atom_site_label
 _atom_site_symmetry_multiplicity
 _atom_site_fract_x
 _atom_site_fract_y
 _atom_site_fract_z
 _atom_site_occupancy
  Zr  Zr0  1  0.75019859  0.76152233  0.76317581  1
  Zr  Zr1  1  0.75019859  0.99834652  0.23682419  1
  Zr  Zr2  1  0.24985121  0.75736498  0.00000000  1
  Zr  Zr3  1  0.24979010  0.23385238  0.23469742  1
  Zr  Zr4  1  0.24979010  0.99915496  0.76530258  1
  Ti  Ti5  1  0.49992778  0.33345965  0.66427994  1
  Ti  Ti6  1  0.49992778  0.66917971  0.33572006  1
  Ti  Ti7  1  0.00013403  0.66928803  0.33576693  1
  Ti  Ti8  1  0.00013403  0.33352110  0.66423307  1
  Ti  Ti9  1  0.75021183  0.24977926  1.00000000  1
  Pb  Pb10  1  0.75005894  0.59499897  0.00000000  1
  Pb  Pb11  1  0.74996635  0.39588440  0.38891696  1
  Pb  Pb12  1  0.74996635  0.00696744  0.61108304  1
  Pb  Pb13  1  0.24986698  0.39756287  1.00000000  1
  Pb  Pb14  1  0.24998867  0.59877111  0.59842484  1
  Pb  Pb15  1  0.24998867  0.00034627  0.40157516  1
