# generated using pymatgen
data_Nb5Ga3
_symmetry_space_group_name_H-M   'P 1'
_cell_length_a   5.30021287
_cell_length_b   7.79383871
_cell_length_c   7.79464585
_cell_angle_alpha   119.99658049
_cell_angle_beta   90.00000000
_cell_angle_gamma   90.00000000
_symmetry_Int_Tables_number   1
_chemical_formula_structural   Nb5Ga3
_chemical_formula_sum   'Nb10 Ga6'
_cell_volume   278.86031254
_cell_formula_units_Z   2
loop_
 _symmetry_equiv_pos_site_id
 _symmetry_equiv_pos_as_xyz
  1  'x, y, z'
loop_
 _atom_site_type_symbol
 _atom_site_label
 _atom_site_symmetry_multiplicity
 _atom_site_fract_x
 _atom_site_fract_y
 _atom_site_fract_z
 _atom_site_occupancy
  Nb  Nb0  1  0.49999969  0.33336103  0.66672475  1
  Nb  Nb1  1  0.49999969  0.66663627  0.33327525  1
  Nb  Nb2  1  -0.00000031  0.66663897  0.33327525  1
  Nb  Nb3  1  -0.00000031  0.33336373  0.66672475  1
  Nb  Nb4  1  0.74997247  0.24443437  0.00000000  1
  Nb  Nb5  1  0.75001391  0.75523909  0.75554307  1
  Nb  Nb6  1  0.75001391  0.99969602  0.24445693  1
  Nb  Nb7  1  0.24997247  0.75556563  1.00000000  1
  Nb  Nb8  1  0.25001391  0.24476091  0.24445693  1
  Nb  Nb9  1  0.25001391  0.00030398  0.75554307  1
  Ga  Ga10  1  0.74998608  0.60457404  0.00000000  1
  Ga  Ga11  1  0.75000713  0.39523893  0.39528735  1
  Ga  Ga12  1  0.75000713  0.99995158  0.60471265  1
  Ga  Ga13  1  0.24998608  0.39542596  1.00000000  1
  Ga  Ga14  1  0.25000713  0.60476107  0.60471265  1
  Ga  Ga15  1  0.25000713  0.00004842  0.39528735  1
