# generated using pymatgen
data_U4CuTe12
_symmetry_space_group_name_H-M   'P 1'
_cell_length_a   7.41086952
_cell_length_b   11.29919678
_cell_length_c   7.41086952
_cell_angle_alpha   108.81524956
_cell_angle_beta   69.40342001
_cell_angle_gamma   108.81524956
_symmetry_Int_Tables_number   1
_chemical_formula_structural   U4CuTe12
_chemical_formula_sum   'U4 Cu1 Te12'
_cell_volume   534.33157358
_cell_formula_units_Z   1
loop_
 _symmetry_equiv_pos_site_id
 _symmetry_equiv_pos_as_xyz
  1  'x, y, z'
loop_
 _atom_site_type_symbol
 _atom_site_label
 _atom_site_symmetry_multiplicity
 _atom_site_fract_x
 _atom_site_fract_y
 _atom_site_fract_z
 _atom_site_occupancy
  U  U0  1  0.19163481  0.83941547  0.44163481  1
  U  U1  1  0.68757431  0.84060756  0.93757431  1
  U  U2  1  0.31000265  0.15930441  0.05692535  1
  U  U3  1  0.80692535  0.15930441  0.56000265  1
  Cu  Cu4  1  0.18602783  0.53435139  0.43602783  1
  Te  Te5  1  0.99094722  0.32480897  0.24094722  1
  Te  Te6  1  0.49905828  0.32965038  0.74905828  1
  Te  Te7  1  0.51251216  0.67272566  0.25474653  1
  Te  Te8  1  0.00474653  0.67272566  0.76251216  1
  Te  Te9  1  0.74214618  0.33469959  0.99214618  1
  Te  Te10  1  0.24575897  0.33127425  0.49575897  1
  Te  Te11  1  0.75590956  0.66850526  0.50852238  1
  Te  Te12  1  0.25852238  0.66850526  0.00590956  1
  Te  Te13  1  0.97706253  0.93965979  0.22706253  1
  Te  Te14  1  0.47650060  0.93770447  0.72650060  1
  Te  Te15  1  0.52182355  0.06057874  0.27154708  1
  Te  Te16  1  0.02154708  0.06057874  0.77182355  1
