# generated using pymatgen
data_Tm2FeGe4
_symmetry_space_group_name_H-M   'P 1'
_cell_length_a   4.13431558
_cell_length_b   4.16611195
_cell_length_c   7.96375699
_cell_angle_alpha   74.83694019
_cell_angle_beta   90.00000000
_cell_angle_gamma   90.00000000
_symmetry_Int_Tables_number   1
_chemical_formula_structural   Tm2FeGe4
_chemical_formula_sum   'Tm2 Fe1 Ge4'
_cell_volume   132.39246665
_cell_formula_units_Z   1
loop_
 _symmetry_equiv_pos_site_id
 _symmetry_equiv_pos_as_xyz
  1  'x, y, z'
loop_
 _atom_site_type_symbol
 _atom_site_label
 _atom_site_symmetry_multiplicity
 _atom_site_fract_x
 _atom_site_fract_y
 _atom_site_fract_z
 _atom_site_occupancy
  Tm  Tm0  1  0.25000000  0.89805067  0.20389865  1
  Tm  Tm1  1  0.75000000  0.10312256  0.79375488  1
  Fe  Fe2  1  0.25000000  0.69470134  0.61059733  1
  Ge  Ge3  1  0.25000000  0.54613818  0.90772365  1
  Ge  Ge4  1  0.75000000  0.43384719  0.13230563  1
  Ge  Ge5  1  0.25000000  0.26148754  0.47702492  1
  Ge  Ge6  1  0.75000000  0.75965253  0.48069494  1
