# generated using pymatgen
data_UNiP2
_symmetry_space_group_name_H-M   'P 1'
_cell_length_a   3.79604416
_cell_length_b   3.79113772
_cell_length_c   13.32563826
_cell_angle_alpha   89.95421290
_cell_angle_beta   90.02569577
_cell_angle_gamma   89.96781091
_symmetry_Int_Tables_number   1
_chemical_formula_structural   UNiP2
_chemical_formula_sum   'U3 Ni3 P6'
_cell_volume   191.77349595
_cell_formula_units_Z   3
loop_
 _symmetry_equiv_pos_site_id
 _symmetry_equiv_pos_as_xyz
  1  'x, y, z'
loop_
 _atom_site_type_symbol
 _atom_site_label
 _atom_site_symmetry_multiplicity
 _atom_site_fract_x
 _atom_site_fract_y
 _atom_site_fract_z
 _atom_site_occupancy
  U  U0  1  0.49398324  0.50626424  0.64549481  1
  U  U1  1  0.49413351  0.50571400  0.34418803  1
  U  U2  1  0.99939233  0.00030564  0.01285199  1
  Ni  Ni3  1  0.49841102  0.00016825  0.82601334  1
  Ni  Ni4  1  0.99965729  0.50135282  0.82883583  1
  Ni  Ni5  1  0.49794467  0.00059910  0.17666927  1
  P  P6  1  0.49978394  0.49989350  0.91929550  1
  P  P7  1  0.49972124  0.50062819  0.09006693  1
  P  P8  1  0.99640978  0.00386547  0.72522525  1
  P  P9  1  0.99688624  0.00467753  0.26787567  1
  P  P10  1  0.99215647  0.51731436  0.49528156  1
  P  P11  1  0.48252027  0.00821689  0.49550183  1
