# generated using pymatgen
data_Tm2Mn(GeO3)4
_symmetry_space_group_name_H-M   'P 1'
_cell_length_a   4.99877231
_cell_length_b   9.95749724
_cell_length_c   9.95749724
_cell_angle_alpha   90.47853173
_cell_angle_beta   90.00000000
_cell_angle_gamma   90.00000000
_symmetry_Int_Tables_number   1
_chemical_formula_structural   Tm2Mn(GeO3)4
_chemical_formula_sum   'Tm4 Mn2 Ge8 O24'
_cell_volume   495.61974261
_cell_formula_units_Z   2
loop_
 _symmetry_equiv_pos_site_id
 _symmetry_equiv_pos_as_xyz
  1  'x, y, z'
loop_
 _atom_site_type_symbol
 _atom_site_label
 _atom_site_symmetry_multiplicity
 _atom_site_fract_x
 _atom_site_fract_y
 _atom_site_fract_z
 _atom_site_occupancy
  Tm  Tm0  1  0.50000000  -0.00000000  0.50000000  1
  Tm  Tm1  1  0.50000000  0.50000000  0.00000000  1
  Tm  Tm2  1  0.50000000  0.75000000  0.75000000  1
  Tm  Tm3  1  0.50000000  0.25000000  0.25000000  1
  Mn  Mn4  1  0.50000000  0.50000000  0.50000000  1
  Mn  Mn5  1  0.50000000  -0.00000000  0.00000000  1
  Ge  Ge6  1  0.99617395  0.74708873  0.48003718  1
  Ge  Ge7  1  0.00382605  0.25291127  0.51996282  1
  Ge  Ge8  1  0.00382605  0.24708873  0.98003718  1
  Ge  Ge9  1  0.99617395  0.75291127  0.01996282  1
  Ge  Ge10  1  0.00382605  0.48003718  0.74708873  1
  Ge  Ge11  1  0.99617395  0.51996282  0.25291127  1
  Ge  Ge12  1  0.99617395  0.98003718  0.24708873  1
  Ge  Ge13  1  0.00382605  0.01996282  0.75291127  1
  O  O14  1  0.26165586  0.56611782  0.66827937  1
  O  O15  1  0.25546733  0.06404351  0.33097456  1
  O  O16  1  0.25546733  0.43595649  0.16902544  1
  O  O17  1  0.26165586  0.93388218  0.83172063  1
  O  O18  1  0.73834414  0.43388218  0.33172063  1
  O  O19  1  0.74453267  0.93595649  0.66902544  1
  O  O20  1  0.74453267  0.56404351  0.83097456  1
  O  O21  1  0.73834414  0.06611782  0.16827937  1
  O  O22  1  0.73834414  0.66827937  0.56611782  1
  O  O23  1  0.74453267  0.33097456  0.06404351  1
  O  O24  1  0.74453267  0.16902544  0.43595649  1
  O  O25  1  0.73834414  0.83172063  0.93388218  1
  O  O26  1  0.26165586  0.33172063  0.43388218  1
  O  O27  1  0.25546733  0.66902544  0.93595649  1
  O  O28  1  0.25546733  0.83097456  0.56404351  1
  O  O29  1  0.26165586  0.16827937  0.06611782  1
  O  O30  1  0.83141405  0.36952346  0.63047654  1
  O  O31  1  0.82821151  0.87392511  0.37392511  1
  O  O32  1  0.82821151  0.62607489  0.12607489  1
  O  O33  1  0.83141405  0.13047654  0.86952346  1
  O  O34  1  0.16858595  0.63047654  0.36952346  1
  O  O35  1  0.17178849  0.12607489  0.62607489  1
  O  O36  1  0.17178849  0.37392511  0.87392511  1
  O  O37  1  0.16858595  0.86952346  0.13047654  1
