# generated using pymatgen
data_U2Fe3Si
_symmetry_space_group_name_H-M   'P 1'
_cell_length_a   5.15099519
_cell_length_b   5.12384958
_cell_length_c   7.44716978
_cell_angle_alpha   90.00000000
_cell_angle_beta   90.00000000
_cell_angle_gamma   60.17417676
_symmetry_Int_Tables_number   1
_chemical_formula_structural   U2Fe3Si
_chemical_formula_sum   'U4 Fe6 Si2'
_cell_volume   170.51750500
_cell_formula_units_Z   2
loop_
 _symmetry_equiv_pos_site_id
 _symmetry_equiv_pos_as_xyz
  1  'x, y, z'
loop_
 _atom_site_type_symbol
 _atom_site_label
 _atom_site_symmetry_multiplicity
 _atom_site_fract_x
 _atom_site_fract_y
 _atom_site_fract_z
 _atom_site_occupancy
  U  U0  1  0.33479802  0.33260099  0.56596835  1
  U  U1  1  0.66520198  0.66739901  0.43403165  1
  U  U2  1  0.66520198  0.66739901  0.06596835  1
  U  U3  1  0.33479802  0.33260099  0.93403165  1
  Fe  Fe4  1  0.83314417  0.33441439  0.75000000  1
  Fe  Fe5  1  0.33361744  0.83319128  0.75000000  1
  Fe  Fe6  1  0.83314417  0.83244144  0.75000000  1
  Fe  Fe7  1  0.16685583  0.66558561  0.25000000  1
  Fe  Fe8  1  0.66638256  0.16680872  0.25000000  1
  Fe  Fe9  1  0.16685583  0.16755856  0.25000000  1
  Si  Si10  1  0.00000000  -0.00000000  0.50000000  1
  Si  Si11  1  0.00000000  -0.00000000  0.00000000  1
