# generated using pymatgen
data_Tb2FeCo3
_symmetry_space_group_name_H-M   'P 1'
_cell_length_a   5.12481147
_cell_length_b   5.12481147
_cell_length_c   4.96375280
_cell_angle_alpha   90.00000000
_cell_angle_beta   58.92073087
_cell_angle_gamma   120.00000000
_symmetry_Int_Tables_number   1
_chemical_formula_structural   Tb2FeCo3
_chemical_formula_sum   'Tb2 Fe1 Co3'
_cell_volume   90.65048930
_cell_formula_units_Z   1
loop_
 _symmetry_equiv_pos_site_id
 _symmetry_equiv_pos_as_xyz
  1  'x, y, z'
loop_
 _atom_site_type_symbol
 _atom_site_label
 _atom_site_symmetry_multiplicity
 _atom_site_fract_x
 _atom_site_fract_y
 _atom_site_fract_z
 _atom_site_occupancy
  Tb  Tb0  1  0.49620813  0.74810406  0.75568781  1
  Tb  Tb1  1  0.00379187  0.00189594  0.99431219  1
  Fe  Fe2  1  0.75000000  0.37500000  0.87500000  1
  Co  Co3  1  0.25000000  0.37500000  0.37500000  1
  Co  Co4  1  0.25000000  0.87500000  0.37500000  1
  Co  Co5  1  0.75000000  0.37500000  0.37500000  1
