# generated using pymatgen
data_TbSi4B18C
_symmetry_space_group_name_H-M   'P 1'
_cell_length_a   7.93586016
_cell_length_b   7.91072330
_cell_length_c   7.93587753
_cell_angle_alpha   78.42522674
_cell_angle_beta   78.28982802
_cell_angle_gamma   78.42518661
_symmetry_Int_Tables_number   1
_chemical_formula_structural   TbSi4B18C
_chemical_formula_sum   'Tb2 Si8 B36 C2'
_cell_volume   471.22356916
_cell_formula_units_Z   2
loop_
 _symmetry_equiv_pos_site_id
 _symmetry_equiv_pos_as_xyz
  1  'x, y, z'
loop_
 _atom_site_type_symbol
 _atom_site_label
 _atom_site_symmetry_multiplicity
 _atom_site_fract_x
 _atom_site_fract_y
 _atom_site_fract_z
 _atom_site_occupancy
  Tb  Tb0  1  -0.00000000  0.50000000  0.50000000  1
  Tb  Tb1  1  0.50000000  0.50000000  -0.00000000  1
  Si  Si2  1  0.57128832  0.57205725  0.57128031  1
  Si  Si3  1  0.42871168  0.42794275  0.42871969  1
  Si  Si4  1  0.73141503  0.74523232  0.34555732  1
  Si  Si5  1  0.73588301  0.33823369  0.73588393  1
  Si  Si6  1  0.34556456  0.74522886  0.73140980  1
  Si  Si7  1  0.26858497  0.25476768  0.65444268  1
  Si  Si8  1  0.26411699  0.66176631  0.26411607  1
  Si  Si9  1  0.65443544  0.25477114  0.26859020  1
  B  B10  1  0.72835832  0.98796985  0.98779424  1
  B  B11  1  0.98779559  0.98796742  0.72835780  1
  B  B12  1  0.98804358  0.73024592  0.98804054  1
  B  B13  1  0.27164168  0.01203015  0.01220576  1
  B  B14  1  0.01220441  0.01203258  0.27164220  1
  B  B15  1  0.01195642  0.26975408  0.01195946  1
  B  B16  1  0.56034117  0.12441925  0.12388154  1
  B  B17  1  0.12388100  0.12441552  0.56034364  1
  B  B18  1  0.12380042  0.56203543  0.12379734  1
  B  B19  1  0.43965883  0.87558075  0.87611846  1
  B  B20  1  0.87611900  0.87558448  0.43965636  1
  B  B21  1  0.87619958  0.43796457  0.87620266  1
  B  B22  1  0.58533805  0.89467041  0.17712383  1
  B  B23  1  0.89303604  0.17291271  0.58494538  1
  B  B24  1  0.17799739  0.58714463  0.89076871  1
  B  B25  1  0.89077311  0.58714546  0.17799415  1
  B  B26  1  0.58494373  0.17291377  0.89303572  1
  B  B27  1  0.17712488  0.89466931  0.58533689  1
  B  B28  1  0.41466195  0.10532959  0.82287617  1
  B  B29  1  0.10696396  0.82708729  0.41505462  1
  B  B30  1  0.82200261  0.41285537  0.10923129  1
  B  B31  1  0.10922689  0.41285454  0.82200585  1
  B  B32  1  0.41505627  0.82708623  0.10696428  1
  B  B33  1  0.82287512  0.10533069  0.41466311  1
  B  B34  1  0.20164360  0.02145354  0.37202542  1
  B  B35  1  0.01917742  0.37182118  0.19829784  1
  B  B36  1  0.37190800  0.19724118  0.02029732  1
  B  B37  1  0.02029706  0.19724140  0.37190937  1
  B  B38  1  0.19829807  0.37182010  0.01917802  1
  B  B39  1  0.37202555  0.02145355  0.20164393  1
  B  B40  1  0.79835640  0.97854646  0.62797458  1
  B  B41  1  0.98082258  0.62817882  0.80170216  1
  B  B42  1  0.62809200  0.80275882  0.97970268  1
  B  B43  1  0.97970294  0.80275860  0.62809063  1
  B  B44  1  0.80170193  0.62817990  0.98082198  1
  B  B45  1  0.62797445  0.97854645  0.79835607  1
  C  C46  1  0.94865981  0.94935451  0.94866205  1
  C  C47  1  0.05134019  0.05064549  0.05133795  1
