# generated using pymatgen
data_TbH18(BrO6)3
_symmetry_space_group_name_H-M   'P 1'
_cell_length_a   6.89050449
_cell_length_b   11.79647328
_cell_length_c   11.79656067
_cell_angle_alpha   60.00024505
_cell_angle_beta   90.00000000
_cell_angle_gamma   90.00000000
_symmetry_Int_Tables_number   1
_chemical_formula_structural   TbH18(BrO6)3
_chemical_formula_sum   'Tb2 H36 Br6 O36'
_cell_volume   830.40569305
_cell_formula_units_Z   2
loop_
 _symmetry_equiv_pos_site_id
 _symmetry_equiv_pos_as_xyz
  1  'x, y, z'
loop_
 _atom_site_type_symbol
 _atom_site_label
 _atom_site_symmetry_multiplicity
 _atom_site_fract_x
 _atom_site_fract_y
 _atom_site_fract_z
 _atom_site_occupancy
  Tb  Tb0  1  0.75351428  0.66666719  0.66666563  1
  Tb  Tb1  1  0.25351428  0.33333281  0.33333437  1
  H  H2  1  0.74207151  0.88234774  0.74556407  1
  H  H3  1  0.74206982  0.74556267  0.37208259  1
  H  H4  1  0.74206745  0.37207864  0.88236133  1
  H  H5  1  0.74206745  0.74556003  0.88236133  1
  H  H6  1  0.74207151  0.37208819  0.74556407  1
  H  H7  1  0.74206982  0.88235474  0.37208259  1
  H  H8  1  0.24207151  0.11765226  0.25443593  1
  H  H9  1  0.24206982  0.25443733  0.62791741  1
  H  H10  1  0.24206745  0.62792136  0.11763867  1
  H  H11  1  0.24206745  0.25443997  0.11763867  1
  H  H12  1  0.24207151  0.62791181  0.25443593  1
  H  H13  1  0.24206982  0.11764526  0.62791741  1
  H  H14  1  0.43899199  0.63032269  0.49767685  1
  H  H15  1  0.43899224  0.49767929  0.87199768  1
  H  H16  1  0.43899295  0.87200100  0.63032104  1
  H  H17  1  0.43899295  0.49767796  0.63032104  1
  H  H18  1  0.43899199  0.87200046  0.49767685  1
  H  H19  1  0.43899224  0.63032303  0.87199768  1
  H  H20  1  0.56029115  0.36963619  0.50305064  1
  H  H21  1  0.56029104  0.50304862  0.12731535  1
  H  H22  1  0.56028978  0.12731254  0.36963857  1
  H  H23  1  0.56028978  0.50304889  0.36963857  1
  H  H24  1  0.56029115  0.12731317  0.50305064  1
  H  H25  1  0.56029104  0.36963603  0.12731535  1
  H  H26  1  0.93899199  0.36967731  0.50232315  1
  H  H27  1  0.93899224  0.50232071  0.12800232  1
  H  H28  1  0.93899295  0.12799900  0.36967896  1
  H  H29  1  0.93899295  0.50232204  0.36967896  1
  H  H30  1  0.93899199  0.12799954  0.50232315  1
  H  H31  1  0.93899224  0.36967697  0.12800232  1
  H  H32  1  0.06029115  0.63036381  0.49694936  1
  H  H33  1  0.06029104  0.49695138  0.87268465  1
  H  H34  1  0.06028978  0.87268746  0.63036143  1
  H  H35  1  0.06028978  0.49695111  0.63036143  1
  H  H36  1  0.06029115  0.87268683  0.49694936  1
  H  H37  1  0.06029104  0.63036397  0.87268465  1
  Br  Br38  1  0.24387063  0.86883878  0.86884020  1
  Br  Br39  1  0.24387341  0.86883854  0.26232292  1
  Br  Br40  1  0.24387063  0.26232102  0.86884020  1
  Br  Br41  1  0.74387063  0.13116122  0.13115980  1
  Br  Br42  1  0.74387341  0.13116146  0.73767708  1
  Br  Br43  1  0.74387063  0.73767898  0.13115980  1
  O  O44  1  0.24837668  0.70330397  0.93136545  1
  O  O45  1  0.24837751  0.93136475  0.36533162  1
  O  O46  1  0.24837357  0.36533124  0.70330241  1
  O  O47  1  0.24837357  0.93136634  0.70330241  1
  O  O48  1  0.24837668  0.36533058  0.93136545  1
  O  O49  1  0.24837751  0.70330363  0.36533162  1
  O  O50  1  0.74837668  0.29669603  0.06863455  1
  O  O51  1  0.74837751  0.06863525  0.63466838  1
  O  O52  1  0.74837357  0.63466876  0.29669759  1
  O  O53  1  0.74837357  0.06863366  0.29669759  1
  O  O54  1  0.74837668  0.63466942  0.06863455  1
  O  O55  1  0.74837751  0.29669637  0.63466838  1
  O  O56  1  0.51557477  0.57782845  0.57782500  1
  O  O57  1  0.51557590  0.57782647  0.84434707  1
  O  O58  1  0.51557477  0.84434655  0.57782500  1
  O  O59  1  0.48532622  0.42237307  0.42237662  1
  O  O60  1  0.48532609  0.42237556  0.15524888  1
  O  O61  1  0.48532622  0.15525031  0.42237662  1
  O  O62  1  0.01557477  0.42217155  0.42217500  1
  O  O63  1  0.01557590  0.42217353  0.15565293  1
  O  O64  1  0.01557477  0.15565345  0.42217500  1
  O  O65  1  0.98532622  0.57762693  0.57762338  1
  O  O66  1  0.98532609  0.57762444  0.84475112  1
  O  O67  1  0.98532622  0.84474969  0.57762338  1
  O  O68  1  0.76495030  0.78752672  0.78751102  1
  O  O69  1  0.76495448  0.78752001  0.42495998  1
  O  O70  1  0.76495030  0.42496226  0.78751102  1
  O  O71  1  0.26495030  0.21247328  0.21248898  1
  O  O72  1  0.26495448  0.21247999  0.57504002  1
  O  O73  1  0.26495030  0.57503774  0.21248898  1
  O  O74  1  0.45874726  0.90566869  0.90566742  1
  O  O75  1  0.45874608  0.90566729  0.18866541  1
  O  O76  1  0.45874726  0.18866389  0.90566742  1
  O  O77  1  0.95874726  0.09433131  0.09433258  1
  O  O78  1  0.95874608  0.09433271  0.81133459  1
  O  O79  1  0.95874726  0.81133611  0.09433258  1
