# generated using pymatgen
data_TbCu2Ni3
_symmetry_space_group_name_H-M   'P 1'
_cell_length_a   3.96749346
_cell_length_b   4.93466292
_cell_length_c   4.93466335
_cell_angle_alpha   60.00968511
_cell_angle_beta   90.00000000
_cell_angle_gamma   90.00000000
_symmetry_Int_Tables_number   1
_chemical_formula_structural   TbCu2Ni3
_chemical_formula_sum   'Tb1 Cu2 Ni3'
_cell_volume   83.67664306
_cell_formula_units_Z   1
loop_
 _symmetry_equiv_pos_site_id
 _symmetry_equiv_pos_as_xyz
  1  'x, y, z'
loop_
 _atom_site_type_symbol
 _atom_site_label
 _atom_site_symmetry_multiplicity
 _atom_site_fract_x
 _atom_site_fract_y
 _atom_site_fract_z
 _atom_site_occupancy
  Tb  Tb0  1  -0.00000000  0.99998923  0.00001077  1
  Cu  Cu1  1  -0.00000000  0.33330620  0.33338162  1
  Cu  Cu2  1  0.00000000  0.66661838  0.66669380  1
  Ni  Ni3  1  0.50000000  0.49999959  0.50000041  1
  Ni  Ni4  1  0.50000000  0.49999337  0.00000676  1
  Ni  Ni5  1  0.50000000  0.99999324  0.50000663  1
