# generated using pymatgen
data_Ta2MnV3
_symmetry_space_group_name_H-M   'P 1'
_cell_length_a   5.03185152
_cell_length_b   5.03185152
_cell_length_c   4.95752531
_cell_angle_alpha   90.00000000
_cell_angle_beta   59.50279695
_cell_angle_gamma   120.00000000
_symmetry_Int_Tables_number   1
_chemical_formula_structural   Ta2MnV3
_chemical_formula_sum   'Ta2 Mn1 V3'
_cell_volume   88.08471332
_cell_formula_units_Z   1
loop_
 _symmetry_equiv_pos_site_id
 _symmetry_equiv_pos_as_xyz
  1  'x, y, z'
loop_
 _atom_site_type_symbol
 _atom_site_label
 _atom_site_symmetry_multiplicity
 _atom_site_fract_x
 _atom_site_fract_y
 _atom_site_fract_z
 _atom_site_occupancy
  Ta  Ta0  1  0.49930495  0.74965247  0.75104258  1
  Ta  Ta1  1  0.00069505  0.00034753  -0.00104258  1
  Mn  Mn2  1  0.75000000  0.37500000  0.87500000  1
  V  V3  1  0.25000000  0.37500000  0.37500000  1
  V  V4  1  0.25000000  0.87500000  0.37500000  1
  V  V5  1  0.75000000  0.37500000  0.37500000  1
