# generated using pymatgen
data_Ti2Co3Si
_symmetry_space_group_name_H-M   'P 1'
_cell_length_a   4.83098328
_cell_length_b   4.83085095
_cell_length_c   7.36745754
_cell_angle_alpha   90.00000000
_cell_angle_beta   90.00000000
_cell_angle_gamma   60.00089867
_symmetry_Int_Tables_number   1
_chemical_formula_structural   Ti2Co3Si
_chemical_formula_sum   'Ti4 Co6 Si2'
_cell_volume   148.90571913
_cell_formula_units_Z   2
loop_
 _symmetry_equiv_pos_site_id
 _symmetry_equiv_pos_as_xyz
  1  'x, y, z'
loop_
 _atom_site_type_symbol
 _atom_site_label
 _atom_site_symmetry_multiplicity
 _atom_site_fract_x
 _atom_site_fract_y
 _atom_site_fract_z
 _atom_site_occupancy
  Ti  Ti0  1  0.33334866  0.33332567  0.55808723  1
  Ti  Ti1  1  0.66665134  0.66667433  0.44191277  1
  Ti  Ti2  1  0.66665134  0.66667433  0.05808723  1
  Ti  Ti3  1  0.33334866  0.33332567  0.94191277  1
  Co  Co4  1  0.82899004  0.34193779  0.75000000  1
  Co  Co5  1  0.34193694  0.82903153  0.75000000  1
  Co  Co6  1  0.82899004  0.82907217  0.75000000  1
  Co  Co7  1  0.17100996  0.65806221  0.25000000  1
  Co  Co8  1  0.65806306  0.17096847  0.25000000  1
  Co  Co9  1  0.17100996  0.17092783  0.25000000  1
  Si  Si10  1  0.00000000  -0.00000000  0.50000000  1
  Si  Si11  1  0.00000000  -0.00000000  0.00000000  1
