# generated using pymatgen
data_Th2Si3Rh
_symmetry_space_group_name_H-M   'P 1'
_cell_length_a   4.07239912
_cell_length_b   4.24490189
_cell_length_c   7.72204821
_cell_angle_alpha   74.04656975
_cell_angle_beta   74.71108333
_cell_angle_gamma   90.00000000
_symmetry_Int_Tables_number   1
_chemical_formula_structural   Th2Si3Rh
_chemical_formula_sum   'Th2 Si3 Rh1'
_cell_volume   123.42813514
_cell_formula_units_Z   1
loop_
 _symmetry_equiv_pos_site_id
 _symmetry_equiv_pos_as_xyz
  1  'x, y, z'
loop_
 _atom_site_type_symbol
 _atom_site_label
 _atom_site_symmetry_multiplicity
 _atom_site_fract_x
 _atom_site_fract_y
 _atom_site_fract_z
 _atom_site_occupancy
  Th  Th0  1  0.74760190  0.24760190  0.50479621  1
  Th  Th1  1  0.00038940  0.00038940  0.99922120  1
  Si  Si2  1  0.41609165  0.41609165  0.16781670  1
  Si  Si3  1  0.16882378  0.66882378  0.66235244  1
  Si  Si4  1  0.58227287  0.58227287  0.83545426  1
  Rh  Rh5  1  0.33482040  0.83482040  0.33035919  1
