# generated using pymatgen
data_TaB2Mo
_symmetry_space_group_name_H-M   'P 1'
_cell_length_a   3.12804984
_cell_length_b   3.24259424
_cell_length_c   4.60613899
_cell_angle_alpha   69.39114720
_cell_angle_beta   90.00000000
_cell_angle_gamma   90.00000000
_symmetry_Int_Tables_number   1
_chemical_formula_structural   TaB2Mo
_chemical_formula_sum   'Ta1 B2 Mo1'
_cell_volume   43.73020904
_cell_formula_units_Z   1
loop_
 _symmetry_equiv_pos_site_id
 _symmetry_equiv_pos_as_xyz
  1  'x, y, z'
loop_
 _atom_site_type_symbol
 _atom_site_label
 _atom_site_symmetry_multiplicity
 _atom_site_fract_x
 _atom_site_fract_y
 _atom_site_fract_z
 _atom_site_occupancy
  Ta  Ta0  1  0.25000000  0.14610967  0.70778066  1
  B  B1  1  0.75000000  0.55807952  0.88384095  1
  B  B2  1  0.25000000  0.44037615  0.11924770  1
  Mo  Mo3  1  0.75000000  0.85543466  0.28913069  1
