# generated using pymatgen
data_CoAgO2
_symmetry_space_group_name_H-M   'P 1'
_cell_length_a   3.04384948
_cell_length_b   3.04384948
_cell_length_c   24.94070646
_cell_angle_alpha   90.00000000
_cell_angle_beta   90.00000000
_cell_angle_gamma   120.00437576
_symmetry_Int_Tables_number   1
_chemical_formula_structural   CoAgO2
_chemical_formula_sum   'Co4 Ag4 O8'
_cell_volume   200.10897942
_cell_formula_units_Z   4
loop_
 _symmetry_equiv_pos_site_id
 _symmetry_equiv_pos_as_xyz
  1  'x, y, z'
loop_
 _atom_site_type_symbol
 _atom_site_label
 _atom_site_symmetry_multiplicity
 _atom_site_fract_x
 _atom_site_fract_y
 _atom_site_fract_z
 _atom_site_occupancy
  Co  Co0  1  0.33332563  0.66667437  0.12499904  1
  Co  Co1  1  0.66667437  0.33332563  0.87500096  1
  Co  Co2  1  0.66667437  0.33332563  0.62499904  1
  Co  Co3  1  0.33332563  0.66667437  0.37500096  1
  Ag  Ag4  1  0.00000000  -0.00000000  0.00000000  1
  Ag  Ag5  1  0.00000000  -0.00000000  0.50000000  1
  Ag  Ag6  1  0.66670753  0.33329247  0.25000000  1
  Ag  Ag7  1  0.33329247  0.66670753  0.75000000  1
  O  O8  1  0.99996832  0.00003168  0.08437738  1
  O  O9  1  0.00003168  0.99996832  0.91562262  1
  O  O10  1  0.00003168  0.99996832  0.58437738  1
  O  O11  1  0.99996832  0.00003168  0.41562262  1
  O  O12  1  0.66670541  0.33329459  0.16561382  1
  O  O13  1  0.33329459  0.66670541  0.83438618  1
  O  O14  1  0.33329459  0.66670541  0.66561382  1
  O  O15  1  0.66670541  0.33329459  0.33438618  1
