# generated using pymatgen
data_Tb8Se15
_symmetry_space_group_name_H-M   'P 1'
_cell_length_a   11.63658045
_cell_length_b   11.63658045
_cell_length_c   12.18036521
_cell_angle_alpha   90.02890137
_cell_angle_beta   90.02890137
_cell_angle_gamma   91.70004318
_symmetry_Int_Tables_number   1
_chemical_formula_structural   Tb8Se15
_chemical_formula_sum   'Tb24 Se45'
_cell_volume   1648.61689629
_cell_formula_units_Z   3
loop_
 _symmetry_equiv_pos_site_id
 _symmetry_equiv_pos_as_xyz
  1  'x, y, z'
loop_
 _atom_site_type_symbol
 _atom_site_label
 _atom_site_symmetry_multiplicity
 _atom_site_fract_x
 _atom_site_fract_y
 _atom_site_fract_z
 _atom_site_occupancy
  Tb  Tb0  1  0.84177652  0.15822348  0.00000000  1
  Tb  Tb1  1  0.75299161  0.50466450  0.16840700  1
  Tb  Tb2  1  0.49533550  0.24700839  0.83159300  1
  Tb  Tb3  1  0.75444111  0.50523067  0.82953284  1
  Tb  Tb4  1  0.49476933  0.24555889  0.17046716  1
  Tb  Tb5  1  0.25705479  0.98670393  0.16563080  1
  Tb  Tb6  1  0.01329607  0.74294521  0.83436920  1
  Tb  Tb7  1  0.25708746  0.98667037  0.83409973  1
  Tb  Tb8  1  0.01332963  0.74291254  0.16590027  1
  Tb  Tb9  1  0.11527901  0.39067113  0.66939819  1
  Tb  Tb10  1  0.60932887  0.88472099  0.33060181  1
  Tb  Tb11  1  0.11460357  0.38878641  0.33187441  1
  Tb  Tb12  1  0.61121359  0.88539643  0.66812559  1
  Tb  Tb13  1  0.37172608  0.62827392  0.00000000  1
  Tb  Tb14  1  0.25080076  0.00488857  0.49951543  1
  Tb  Tb15  1  0.99511143  0.74919924  0.50048457  1
  Tb  Tb16  1  0.85981570  0.13995440  0.33241386  1
  Tb  Tb17  1  0.86004560  0.14018430  0.66758614  1
  Tb  Tb18  1  0.10595537  0.39288952  0.00005841  1
  Tb  Tb19  1  0.60711048  0.89404463  -0.00005841  1
  Tb  Tb20  1  0.76404884  0.48554687  0.49856006  1
  Tb  Tb21  1  0.51445313  0.23595116  0.50143994  1
  Tb  Tb22  1  0.35121038  0.64697682  0.33427053  1
  Tb  Tb23  1  0.35302318  0.64878962  0.66572947  1
  Se  Se24  1  0.22388370  0.23539338  0.84168125  1
  Se  Se25  1  0.76460662  0.77611630  0.15831875  1
  Se  Se26  1  0.22394683  0.23576798  0.15824265  1
  Se  Se27  1  0.76423202  0.77605317  0.84175735  1
  Se  Se28  1  0.49252639  0.50323597  0.19023694  1
  Se  Se29  1  0.49676403  0.50747361  0.80976306  1
  Se  Se30  1  0.93183056  0.57044884  0.66626599  1
  Se  Se31  1  0.42955116  0.06816944  0.33373401  1
  Se  Se32  1  0.93174911  0.56998771  0.33306064  1
  Se  Se33  1  0.43001229  0.06825089  0.66693936  1
  Se  Se34  1  0.11673552  0.13064236  0.31422035  1
  Se  Se35  1  0.86935764  0.88326448  0.68577965  1
  Se  Se36  1  0.11725077  0.13144570  0.68482476  1
  Se  Se37  1  0.86855430  0.88274923  0.31517524  1
  Se  Se38  1  0.94233356  0.31142294  0.50008765  1
  Se  Se39  1  0.68857706  0.05766644  0.49991235  1
  Se  Se40  1  0.17510833  0.82464902  0.33392779  1
  Se  Se41  1  0.17535098  0.82489167  0.66607221  1
  Se  Se42  1  0.68040435  0.31850240  0.33517177  1
  Se  Se43  1  0.68149760  0.31959565  0.66482823  1
  Se  Se44  1  0.93085488  0.57552077  0.99988608  1
  Se  Se45  1  0.42447923  0.06914512  0.00011392  1
  Se  Se46  1  0.42967120  0.81752615  0.49928508  1
  Se  Se47  1  0.18247385  0.57032880  0.50071492  1
  Se  Se48  1  0.66783813  0.33216187  0.00000000  1
  Se  Se49  1  0.72745814  0.73648291  0.49703068  1
  Se  Se50  1  0.26351709  0.27254186  0.50296932  1
  Se  Se51  1  0.93140688  0.31764868  0.16469689  1
  Se  Se52  1  0.68235132  0.06859312  0.83530311  1
  Se  Se53  1  0.93171189  0.31763537  0.83525046  1
  Se  Se54  1  0.68236463  0.06828811  0.16474954  1
  Se  Se55  1  0.63188528  0.64183816  0.99921054  1
  Se  Se56  1  0.35816184  0.36811472  0.00078946  1
  Se  Se57  1  0.43818180  0.81138652  0.16662032  1
  Se  Se58  1  0.18861348  0.56181820  0.83337968  1
  Se  Se59  1  0.43894624  0.81224158  0.83267680  1
  Se  Se60  1  0.18775842  0.56105376  0.16732320  1
  Se  Se61  1  0.99344993  0.00655007  0.50000000  1
  Se  Se62  1  0.19489084  0.80510916  0.00000000  1
  Se  Se63  1  0.60753788  0.61658609  0.34473927  1
  Se  Se64  1  0.38341391  0.39246212  0.65526073  1
  Se  Se65  1  0.61201106  0.62241772  0.64746379  1
  Se  Se66  1  0.37758228  0.38798894  0.35253621  1
  Se  Se67  1  0.00580444  0.99278551  0.89871593  1
  Se  Se68  1  0.00721449  0.99419556  0.10128407  1
