# generated using pymatgen
data_SrLa2Mn3O9
_symmetry_space_group_name_H-M   'P 1'
_cell_length_a   5.58166505
_cell_length_b   5.58166470
_cell_length_c   13.49922384
_cell_angle_alpha   90.00000000
_cell_angle_beta   90.00000000
_cell_angle_gamma   120.00000214
_symmetry_Int_Tables_number   1
_chemical_formula_structural   SrLa2Mn3O9
_chemical_formula_sum   'Sr2 La4 Mn6 O18'
_cell_volume   364.22263874
_cell_formula_units_Z   2
loop_
 _symmetry_equiv_pos_site_id
 _symmetry_equiv_pos_as_xyz
  1  'x, y, z'
loop_
 _atom_site_type_symbol
 _atom_site_label
 _atom_site_symmetry_multiplicity
 _atom_site_fract_x
 _atom_site_fract_y
 _atom_site_fract_z
 _atom_site_occupancy
  Sr  Sr0  1  0.00000000  -0.00000000  0.25000000  1
  Sr  Sr1  1  0.00000000  -0.00000000  0.75000000  1
  La  La2  1  0.33333300  0.66666700  0.58428196  1
  La  La3  1  0.66666700  0.33333300  0.91571804  1
  La  La4  1  0.33333300  0.66666700  0.08428196  1
  La  La5  1  0.66666700  0.33333300  0.41571804  1
  Mn  Mn6  1  0.00000000  -0.00000000  0.50000000  1
  Mn  Mn7  1  0.33333300  0.66666700  0.83249793  1
  Mn  Mn8  1  0.66666700  0.33333300  0.16750207  1
  Mn  Mn9  1  0.00000000  -0.00000000  -0.00000000  1
  Mn  Mn10  1  0.33333300  0.66666700  0.33249793  1
  Mn  Mn11  1  0.66666700  0.33333300  0.66750207  1
  O  O12  1  0.89023623  0.66326215  0.57942675  1
  O  O13  1  0.22697508  0.33673785  0.92057325  1
  O  O14  1  0.54270301  -0.00000000  0.25000000  1
  O  O15  1  0.77302492  0.10976377  0.57942675  1
  O  O16  1  0.10976377  0.77302492  0.92057325  1
  O  O17  1  0.45729699  0.45729699  0.25000000  1
  O  O18  1  0.33673785  0.22697408  0.57942675  1
  O  O19  1  0.66326215  0.89023623  0.92057325  1
  O  O20  1  0.00000000  0.54270301  0.25000000  1
  O  O21  1  0.22697508  0.89023623  0.42057325  1
  O  O22  1  0.54270301  0.54270301  0.75000000  1
  O  O23  1  0.89023623  0.22697508  0.07942675  1
  O  O24  1  0.66326215  0.77302492  0.42057325  1
  O  O25  1  1.00000000  0.45729699  0.75000000  1
  O  O26  1  0.33673785  0.10976377  0.07942675  1
  O  O27  1  0.10976377  0.33673785  0.42057325  1
  O  O28  1  0.45729699  -0.00000000  0.75000000  1
  O  O29  1  0.77302492  0.66326215  0.07942675  1
