# generated using pymatgen
data_Sr4GaSi3
_symmetry_space_group_name_H-M   'P 1'
_cell_length_a   4.17345602
_cell_length_b   4.79113136
_cell_length_c   11.54492310
_cell_angle_alpha   90.00000000
_cell_angle_beta   90.00000000
_cell_angle_gamma   90.00000000
_symmetry_Int_Tables_number   1
_chemical_formula_structural   Sr4GaSi3
_chemical_formula_sum   'Sr4 Ga1 Si3'
_cell_volume   230.84738746
_cell_formula_units_Z   1
loop_
 _symmetry_equiv_pos_site_id
 _symmetry_equiv_pos_as_xyz
  1  'x, y, z'
loop_
 _atom_site_type_symbol
 _atom_site_label
 _atom_site_symmetry_multiplicity
 _atom_site_fract_x
 _atom_site_fract_y
 _atom_site_fract_z
 _atom_site_occupancy
  Sr  Sr0  1  0.25000000  0.00000000  0.36571138  1
  Sr  Sr1  1  0.25000000  0.50000000  0.85800725  1
  Sr  Sr2  1  0.75000000  0.50000000  0.14101188  1
  Sr  Sr3  1  0.75000000  0.00000000  0.63721066  1
  Ga  Ga4  1  0.25000000  -0.00000000  0.06363331  1
  Si  Si5  1  0.25000000  0.50000000  0.56194796  1
  Si  Si6  1  0.75000000  0.50000000  0.43909724  1
  Si  Si7  1  0.75000000  0.00000000  0.93338031  1
