# generated using pymatgen
data_SrNd2Mn3O9
_symmetry_space_group_name_H-M   'P 1'
_cell_length_a   5.55130855
_cell_length_b   7.73434992
_cell_length_c   16.78761444
_cell_angle_alpha   90.00000000
_cell_angle_beta   90.00000000
_cell_angle_gamma   90.00000000
_symmetry_Int_Tables_number   1
_chemical_formula_structural   SrNd2Mn3O9
_chemical_formula_sum   'Sr4 Nd8 Mn12 O36'
_cell_volume   720.78903224
_cell_formula_units_Z   4
loop_
 _symmetry_equiv_pos_site_id
 _symmetry_equiv_pos_as_xyz
  1  'x, y, z'
loop_
 _atom_site_type_symbol
 _atom_site_label
 _atom_site_symmetry_multiplicity
 _atom_site_fract_x
 _atom_site_fract_y
 _atom_site_fract_z
 _atom_site_occupancy
  Sr  Sr0  1  0.99460563  0.75000000  0.15898792  1
  Sr  Sr1  1  0.50539437  0.75000000  0.65898792  1
  Sr  Sr2  1  0.00539437  0.25000000  0.84101208  1
  Sr  Sr3  1  0.49460563  0.25000000  0.34101208  1
  Nd  Nd4  1  0.99007747  0.75000000  0.48819674  1
  Nd  Nd5  1  0.99011304  0.75000000  0.82058860  1
  Nd  Nd6  1  0.50988696  0.75000000  0.32058860  1
  Nd  Nd7  1  0.50992253  0.75000000  0.98819674  1
  Nd  Nd8  1  0.00988696  0.25000000  0.17941140  1
  Nd  Nd9  1  0.00992253  0.25000000  0.51180326  1
  Nd  Nd10  1  0.49007747  0.25000000  0.01180326  1
  Nd  Nd11  1  0.49011304  0.25000000  0.67941140  1
  Mn  Mn12  1  0.50054268  0.99900697  0.16607808  1
  Mn  Mn13  1  0.50000000  -0.00000000  0.50000000  1
  Mn  Mn14  1  0.49945732  0.00099303  0.83392192  1
  Mn  Mn15  1  0.00000000  0.50000000  0.00000000  1
  Mn  Mn16  1  0.00054268  0.49900697  0.33392192  1
  Mn  Mn17  1  0.99945732  0.50099303  0.66607808  1
  Mn  Mn18  1  0.50054268  0.50099303  0.16607808  1
  Mn  Mn19  1  0.50000000  0.50000000  0.50000000  1
  Mn  Mn20  1  0.49945732  0.49900697  0.83392192  1
  Mn  Mn21  1  0.00000000  -0.00000000  0.00000000  1
  Mn  Mn22  1  0.00054268  0.00099303  0.33392192  1
  Mn  Mn23  1  0.99945732  0.99900697  0.66607808  1
  O  O24  1  0.08135437  0.75000000  0.00347539  1
  O  O25  1  0.07946105  0.75000000  0.34008197  1
  O  O26  1  0.05845475  0.75000000  0.67138173  1
  O  O27  1  0.44154525  0.75000000  0.17138173  1
  O  O28  1  0.41864563  0.75000000  0.50347539  1
  O  O29  1  0.42053895  0.75000000  0.84008197  1
  O  O30  1  0.94154525  0.25000000  0.32861827  1
  O  O31  1  0.92053895  0.25000000  0.65991803  1
  O  O32  1  0.91864563  0.25000000  0.99652461  1
  O  O33  1  0.57946105  0.25000000  0.15991803  1
  O  O34  1  0.58135437  0.25000000  0.49652461  1
  O  O35  1  0.55845475  0.25000000  0.82861827  1
  O  O36  1  0.71383411  0.96485803  0.06963987  1
  O  O37  1  0.72002903  0.95069445  0.40784695  1
  O  O38  1  0.73438789  0.96607791  0.74427819  1
  O  O39  1  0.76561211  0.53392209  0.24427819  1
  O  O40  1  0.78616589  0.53514197  0.56963987  1
  O  O41  1  0.77997097  0.54930555  0.90784695  1
  O  O42  1  0.26561211  0.46607791  0.25572181  1
  O  O43  1  0.27997097  0.45069445  0.59215305  1
  O  O44  1  0.28616589  0.46485803  0.93036013  1
  O  O45  1  0.22002903  0.04930555  0.09215305  1
  O  O46  1  0.21383411  0.03514197  0.43036013  1
  O  O47  1  0.23438789  0.03392209  0.75572181  1
  O  O48  1  0.26561211  0.03392209  0.25572181  1
  O  O49  1  0.27997097  0.04930555  0.59215305  1
  O  O50  1  0.28616589  0.03514197  0.93036013  1
  O  O51  1  0.22002903  0.45069445  0.09215305  1
  O  O52  1  0.21383411  0.46485803  0.43036013  1
  O  O53  1  0.23438789  0.46607791  0.75572181  1
  O  O54  1  0.71383411  0.53514197  0.06963987  1
  O  O55  1  0.72002903  0.54930555  0.40784695  1
  O  O56  1  0.73438789  0.53392209  0.74427819  1
  O  O57  1  0.76561211  0.96607791  0.24427819  1
  O  O58  1  0.78616589  0.96485803  0.56963987  1
  O  O59  1  0.77997097  0.95069445  0.90784695  1
