# generated using pymatgen
data_SrPr2Mn3O9
_symmetry_space_group_name_H-M   'P 1'
_cell_length_a   5.60176500
_cell_length_b   13.44592822
_cell_length_c   9.62291660
_cell_angle_alpha   90.35587212
_cell_angle_beta   90.00000000
_cell_angle_gamma   90.00000000
_symmetry_Int_Tables_number   1
_chemical_formula_structural   SrPr2Mn3O9
_chemical_formula_sum   'Sr4 Pr8 Mn12 O36'
_cell_volume   724.79304754
_cell_formula_units_Z   4
loop_
 _symmetry_equiv_pos_site_id
 _symmetry_equiv_pos_as_xyz
  1  'x, y, z'
loop_
 _atom_site_type_symbol
 _atom_site_label
 _atom_site_symmetry_multiplicity
 _atom_site_fract_x
 _atom_site_fract_y
 _atom_site_fract_z
 _atom_site_occupancy
  Sr  Sr0  1  0.49320198  0.08358336  0.66650592  1
  Sr  Sr1  1  0.00679802  0.58358336  0.16650592  1
  Sr  Sr2  1  0.50679802  0.58308364  0.66682708  1
  Sr  Sr3  1  0.99320198  0.08308364  0.16682708  1
  Pr  Pr4  1  0.49395287  0.41759283  0.33259244  1
  Pr  Pr5  1  0.49447923  0.74959204  0.00018682  1
  Pr  Pr6  1  0.00552077  0.24959204  0.50018682  1
  Pr  Pr7  1  0.00604713  0.91759283  0.83259244  1
  Pr  Pr8  1  0.50552077  0.91707496  0.33314618  1
  Pr  Pr9  1  0.50604713  0.24907317  0.00074156  1
  Pr  Pr10  1  0.99395287  0.74907317  0.50074156  1
  Pr  Pr11  1  0.99447923  0.41707496  0.83314618  1
  Mn  Mn12  1  0.50258470  0.66608777  0.33340836  1
  Mn  Mn13  1  0.49741530  0.00057923  0.99992464  1
  Mn  Mn14  1  0.50000000  0.33333300  0.66666700  1
  Mn  Mn15  1  0.00191772  0.66635211  0.83367786  1
  Mn  Mn16  1  0.99808228  0.00031489  0.49965514  1
  Mn  Mn17  1  0.00000000  0.33333300  0.16666700  1
  Mn  Mn18  1  0.50191772  0.50031489  0.99965514  1
  Mn  Mn19  1  0.50000000  0.83333300  0.66666700  1
  Mn  Mn20  1  0.49808228  0.16635211  0.33367786  1
  Mn  Mn21  1  0.00258470  0.50057923  0.49992464  1
  Mn  Mn22  1  0.00000000  0.83333300  0.16666700  1
  Mn  Mn23  1  0.99741530  0.16608777  0.83340836  1
  O  O24  1  0.23353008  0.90630622  0.04855906  1
  O  O25  1  0.22538744  0.24710771  0.71817871  1
  O  O26  1  0.25013835  0.57425070  0.39324223  1
  O  O27  1  0.25043965  0.59322223  0.93878664  1
  O  O28  1  0.22806064  0.92053726  0.61399876  1
  O  O29  1  0.23580854  0.26228346  0.28503660  1
  O  O30  1  0.75043965  0.57344477  0.89454636  1
  O  O31  1  0.73580854  0.90438254  0.54829740  1
  O  O32  1  0.72806064  0.24612974  0.21933424  1
  O  O33  1  0.75013835  0.59241630  0.44009077  1
  O  O34  1  0.72538744  0.91955829  0.11515529  1
  O  O35  1  0.73353008  0.26036078  0.78477394  1
  O  O36  1  0.77461256  0.41955829  0.61515529  1
  O  O37  1  0.76646992  0.76036078  0.28477394  1
  O  O38  1  0.74986165  0.09241630  0.94009077  1
  O  O39  1  0.77193936  0.74612974  0.71933424  1
  O  O40  1  0.74956035  0.07344477  0.39454636  1
  O  O41  1  0.76419146  0.40438254  0.04829740  1
  O  O42  1  0.26419146  0.76228346  0.78503660  1
  O  O43  1  0.24956035  0.09322223  0.43878664  1
  O  O44  1  0.27193936  0.42053726  0.11399876  1
  O  O45  1  0.27461256  0.74710771  0.21817871  1
  O  O46  1  0.24986165  0.07425070  0.89324223  1
  O  O47  1  0.26646992  0.40630622  0.54855906  1
  O  O48  1  0.57592477  0.91433388  0.83439846  1
  O  O49  1  0.57543332  0.25387804  0.49733522  1
  O  O50  1  0.55795569  0.58361480  0.16605879  1
  O  O51  1  0.92456668  0.75387804  -0.00266478  1
  O  O52  1  0.94204431  0.08361480  0.66605879  1
  O  O53  1  0.92407523  0.41433388  0.33439846  1
  O  O54  1  0.42456668  0.41278896  0.83599778  1
  O  O55  1  0.42407523  0.75233212  0.49893554  1
  O  O56  1  0.44204431  0.08305220  0.16727421  1
  O  O57  1  0.05795569  0.58305220  0.66727421  1
  O  O58  1  0.07543332  0.91278896  0.33599778  1
  O  O59  1  0.07592477  0.25233212  -0.00106446  1
