# generated using pymatgen
data_SrLaMnFeO6
_symmetry_space_group_name_H-M   'P 1'
_cell_length_a   5.51978232
_cell_length_b   5.52460161
_cell_length_c   7.85636199
_cell_angle_alpha   89.97227397
_cell_angle_beta   90.00000000
_cell_angle_gamma   90.00000000
_symmetry_Int_Tables_number   1
_chemical_formula_structural   SrLaMnFeO6
_chemical_formula_sum   'Sr2 La2 Mn2 Fe2 O12'
_cell_volume   239.57657479
_cell_formula_units_Z   2
loop_
 _symmetry_equiv_pos_site_id
 _symmetry_equiv_pos_as_xyz
  1  'x, y, z'
loop_
 _atom_site_type_symbol
 _atom_site_label
 _atom_site_symmetry_multiplicity
 _atom_site_fract_x
 _atom_site_fract_y
 _atom_site_fract_z
 _atom_site_occupancy
  Sr  Sr0  1  0.51194403  0.49916137  0.75009817  1
  Sr  Sr1  1  0.98805597  0.99916137  0.25009817  1
  La  La2  1  0.01894740  0.00036923  0.75010629  1
  La  La3  1  0.48105260  0.50036923  0.25010629  1
  Mn  Mn4  1  0.50071358  -0.00007389  0.50002115  1
  Mn  Mn5  1  0.99928642  0.49992611  0.00002115  1
  Fe  Fe6  1  0.50181657  0.99981401  0.00016704  1
  Fe  Fe7  1  0.99818343  0.49981401  0.50016704  1
  O  O8  1  0.99642503  0.54555167  0.75407987  1
  O  O9  1  0.49165002  0.96866417  0.74580985  1
  O  O10  1  0.00834998  0.46866417  0.24580985  1
  O  O11  1  0.50357497  0.04555167  0.25407987  1
  O  O12  1  0.27437165  0.28201452  0.98417349  1
  O  O13  1  0.78124300  0.21085794  0.52277598  1
  O  O14  1  0.71106961  0.71945729  0.47690006  1
  O  O15  1  0.21803837  0.77418370  0.01586811  1
  O  O16  1  0.71875700  0.71085794  0.02277598  1
  O  O17  1  0.22562835  0.78201452  0.48417349  1
  O  O18  1  0.28196163  0.27418370  0.51586811  1
  O  O19  1  0.78893039  0.21945729  0.97690006  1
