# generated using pymatgen
data_Sr4TlFe2O9
_symmetry_space_group_name_H-M   'P 1'
_cell_length_a   3.85134868
_cell_length_b   3.85134868
_cell_length_c   15.53832520
_cell_angle_alpha   82.81743296
_cell_angle_beta   82.81743296
_cell_angle_gamma   89.49108589
_symmetry_Int_Tables_number   1
_chemical_formula_structural   Sr4TlFe2O9
_chemical_formula_sum   'Sr4 Tl1 Fe2 O9'
_cell_volume   226.86985182
_cell_formula_units_Z   1
loop_
 _symmetry_equiv_pos_site_id
 _symmetry_equiv_pos_as_xyz
  1  'x, y, z'
loop_
 _atom_site_type_symbol
 _atom_site_label
 _atom_site_symmetry_multiplicity
 _atom_site_fract_x
 _atom_site_fract_y
 _atom_site_fract_z
 _atom_site_occupancy
  Sr  Sr0  1  0.58248497  0.58248497  0.83550345  1
  Sr  Sr1  1  0.41798843  0.41798843  0.16449655  1
  Sr  Sr2  1  0.70524699  0.70524699  0.58943996  1
  Sr  Sr3  1  0.29468695  0.29468695  0.41056004  1
  Tl  Tl4  1  0.02683652  0.02683652  0.00000000  1
  Fe  Fe5  1  0.14849245  0.14849245  0.70276465  1
  Fe  Fe6  1  0.85125710  0.85125710  0.29723535  1
  O  O7  1  0.06260140  0.06260140  0.86252574  1
  O  O8  1  0.92512714  0.92512714  0.13747426  1
  O  O9  1  0.14343628  0.64280935  0.71396943  1
  O  O10  1  0.64280935  0.14343628  0.71396943  1
  O  O11  1  0.85740571  0.35677879  0.28603057  1
  O  O12  1  0.35677879  0.85740571  0.28603057  1
  O  O13  1  0.21287963  0.21287963  0.57398119  1
  O  O14  1  0.78686081  0.78686081  0.42601881  1
  O  O15  1  0.45550748  0.45550748  1.00000000  1
