# generated using pymatgen
data_RbCrCoF6
_symmetry_space_group_name_H-M   'P 1'
_cell_length_a   7.40317873
_cell_length_b   7.36075881
_cell_length_c   7.40147491
_cell_angle_alpha   90.00000000
_cell_angle_beta   60.00761285
_cell_angle_gamma   119.81063477
_symmetry_Int_Tables_number   1
_chemical_formula_structural   RbCrCoF6
_chemical_formula_sum   'Rb2 Cr2 Co2 F12'
_cell_volume   286.04273697
_cell_formula_units_Z   2
loop_
 _symmetry_equiv_pos_site_id
 _symmetry_equiv_pos_as_xyz
  1  'x, y, z'
loop_
 _atom_site_type_symbol
 _atom_site_label
 _atom_site_symmetry_multiplicity
 _atom_site_fract_x
 _atom_site_fract_y
 _atom_site_fract_z
 _atom_site_occupancy
  Rb  Rb0  1  0.75729569  0.37864785  0.37135215  1
  Rb  Rb1  1  0.24270431  0.62135215  0.62864785  1
  Cr  Cr2  1  -0.00000000  0.00000000  0.50000000  1
  Cr  Cr3  1  -0.00000000  0.00000000  -0.00000000  1
  Co  Co4  1  0.50000000  0.50000000  -0.00000000  1
  Co  Co5  1  0.50000000  0.00000000  -0.00000000  1
  F  F6  1  0.86903079  0.93451540  0.31548460  1
  F  F7  1  0.65474047  0.32737024  0.92262976  1
  F  F8  1  0.24607835  0.93123150  0.92174854  1
  F  F9  1  0.24607835  0.31484685  0.33217311  1
  F  F10  1  0.24607835  0.31484685  0.92174854  1
  F  F11  1  0.24607835  0.93123150  0.33217311  1
  F  F12  1  0.13096921  0.06548460  0.68451540  1
  F  F13  1  0.34525953  0.67262976  0.07737024  1
  F  F14  1  0.75392165  0.06876850  0.07825146  1
  F  F15  1  0.75392165  0.68515315  0.66782689  1
  F  F16  1  0.75392165  0.68515315  0.07825146  1
  F  F17  1  0.75392165  0.06876850  0.66782689  1
