# generated using pymatgen
data_Sn2Sb2Pb4O13
_symmetry_space_group_name_H-M   'P 1'
_cell_length_a   7.58843027
_cell_length_b   7.56929580
_cell_length_c   7.59978599
_cell_angle_alpha   90.00000000
_cell_angle_beta   59.95048540
_cell_angle_gamma   119.91662340
_symmetry_Int_Tables_number   1
_chemical_formula_structural   Sn2Sb2Pb4O13
_chemical_formula_sum   'Sn2 Sb2 Pb4 O13'
_cell_volume   308.82705261
_cell_formula_units_Z   1
loop_
 _symmetry_equiv_pos_site_id
 _symmetry_equiv_pos_as_xyz
  1  'x, y, z'
loop_
 _atom_site_type_symbol
 _atom_site_label
 _atom_site_symmetry_multiplicity
 _atom_site_fract_x
 _atom_site_fract_y
 _atom_site_fract_z
 _atom_site_occupancy
  Sn  Sn0  1  0.50045778  0.00068263  0.49977111  1
  Sn  Sn1  1  0.50045778  0.49977515  0.49977111  1
  Sb  Sb2  1  -0.00025714  0.49987143  0.00050633  1
  Sb  Sb3  1  -0.00025714  0.49987143  0.49975081  1
  Pb  Pb4  1  0.50064115  0.50211578  0.99967943  1
  Pb  Pb5  1  0.50064115  0.99852537  0.99967943  1
  Pb  Pb6  1  0.99798121  0.99899060  0.50191272  1
  Pb  Pb7  1  0.99798121  0.99899060  0.00010607  1
  O  O8  1  0.66079448  0.83039724  0.41960276  1
  O  O9  1  0.86081664  0.43040832  0.81959168  1
  O  O10  1  0.24637371  0.81846643  0.83174978  1
  O  O11  1  0.24637371  0.42790728  0.42187651  1
  O  O12  1  0.24637371  0.42790728  0.83174978  1
  O  O13  1  0.24637371  0.81846643  0.42187651  1
  O  O14  1  0.34372542  0.17186271  0.57813729  1
  O  O15  1  0.13534667  0.56767333  0.18232667  1
  O  O16  1  0.75315683  0.18333985  0.17057594  1
  O  O17  1  0.75315683  0.56981698  0.57626723  1
  O  O18  1  0.75315683  0.56981698  0.17057594  1
  O  O19  1  0.75315683  0.18333985  0.57626723  1
  O  O20  1  0.25354862  0.12677431  0.12322569  1
