# generated using pymatgen
data_Sc5P12Ir19
_symmetry_space_group_name_H-M   'P 1'
_cell_length_a   3.90533048
_cell_length_b   12.66636746
_cell_length_c   12.66471670
_cell_angle_alpha   120.00431606
_cell_angle_beta   89.99983386
_cell_angle_gamma   90.00033215
_symmetry_Int_Tables_number   1
_chemical_formula_structural   Sc5P12Ir19
_chemical_formula_sum   'Sc5 P12 Ir19'
_cell_volume   542.52167675
_cell_formula_units_Z   1
loop_
 _symmetry_equiv_pos_site_id
 _symmetry_equiv_pos_as_xyz
  1  'x, y, z'
loop_
 _atom_site_type_symbol
 _atom_site_label
 _atom_site_symmetry_multiplicity
 _atom_site_fract_x
 _atom_site_fract_y
 _atom_site_fract_z
 _atom_site_occupancy
  Sc  Sc0  1  0.00004952  0.33331485  0.66663830  1
  Sc  Sc1  1  0.00004952  0.66667655  0.33336170  1
  Sc  Sc2  1  0.50577638  0.18333635  0.00000000  1
  Sc  Sc3  1  0.50584559  0.81676297  0.81674907  1
  Sc  Sc4  1  0.50584559  0.00001390  0.18325093  1
  P  P5  1  0.00711837  0.82408401  0.00000000  1
  P  P6  1  0.00713445  0.17591076  0.17590883  1
  P  P7  1  0.00713445  0.00000194  0.82409117  1
  P  P8  1  0.50066389  0.31216510  0.48374348  1
  P  P9  1  0.50063543  0.17146006  0.68783334  1
  P  P10  1  0.50069060  0.51626866  0.82843626  1
  P  P11  1  0.50066389  0.82842162  0.51625652  1
  P  P12  1  0.50063543  0.48362672  0.31216666  1
  P  P13  1  0.50069060  0.68783241  0.17156374  1
  P  P14  1  0.00052096  0.35505788  0.00000000  1
  P  P15  1  0.00052553  0.64501569  0.64506897  1
  P  P16  1  0.00052553  0.99994672  0.35493103  1
  Ir  Ir17  1  0.99972861  0.53606895  1.00000000  1
  Ir  Ir18  1  0.99958394  0.46402096  0.46395840  1
  Ir  Ir19  1  0.99958394  0.00006256  0.53604160  1
  Ir  Ir20  1  0.50086219  0.13641310  0.49593668  1
  Ir  Ir21  1  0.50087250  0.35954624  0.86354668  1
  Ir  Ir22  1  0.50086305  0.50399880  0.64041238  1
  Ir  Ir23  1  0.50086219  0.64047642  0.50406332  1
  Ir  Ir24  1  0.50087250  0.49599956  0.13645332  1
  Ir  Ir25  1  0.50086305  0.86358642  0.35958762  1
  Ir  Ir26  1  0.00247077  0.19028466  0.37171570  1
  Ir  Ir27  1  0.00245687  0.18144161  0.80978095  1
  Ir  Ir28  1  0.00249560  0.62826429  0.81863347  1
  Ir  Ir29  1  0.00247077  0.81856897  0.62828430  1
  Ir  Ir30  1  0.00245687  0.37166066  0.19021905  1
  Ir  Ir31  1  0.00249560  0.80963082  0.18136653  1
  Ir  Ir32  1  0.50498179  0.71607801  1.00000000  1
  Ir  Ir33  1  0.50500826  0.28396479  0.28399941  1
  Ir  Ir34  1  0.50500826  0.99996538  0.71600059  1
  Ir  Ir35  1  0.01065750  0.99997160  0.00000000  1
