# generated using pymatgen
data_RbV3Cd4O12
_symmetry_space_group_name_H-M   'P 1'
_cell_length_a   7.19674133
_cell_length_b   9.56836376
_cell_length_c   9.56836376
_cell_angle_alpha   91.96468323
_cell_angle_beta   107.09946592
_cell_angle_gamma   107.09946592
_symmetry_Int_Tables_number   1
_chemical_formula_structural   RbV3Cd4O12
_chemical_formula_sum   'Rb2 V6 Cd8 O24'
_cell_volume   596.64353266
_cell_formula_units_Z   2
loop_
 _symmetry_equiv_pos_site_id
 _symmetry_equiv_pos_as_xyz
  1  'x, y, z'
loop_
 _atom_site_type_symbol
 _atom_site_label
 _atom_site_symmetry_multiplicity
 _atom_site_fract_x
 _atom_site_fract_y
 _atom_site_fract_z
 _atom_site_occupancy
  Rb  Rb0  1  0.25037814  0.97403601  0.02720640  1
  Rb  Rb1  1  0.75037814  0.02720640  0.97403601  1
  V  V2  1  0.24955547  0.70339255  0.29639591  1
  V  V3  1  0.74955547  0.29639591  0.70339255  1
  V  V4  1  0.14073419  0.12952333  0.35115812  1
  V  V5  1  0.36078507  0.64992929  0.87187902  1
  V  V6  1  0.86078507  0.87187902  0.64992929  1
  V  V7  1  0.64073419  0.35115812  0.12952333  1
  Cd  Cd8  1  0.24837657  0.26385277  0.73538451  1
  Cd  Cd9  1  0.74837657  0.73538451  0.26385277  1
  Cd  Cd10  1  0.35068869  0.93851724  0.61518793  1
  Cd  Cd11  1  0.15003739  0.38338343  0.06392073  1
  Cd  Cd12  1  0.65003739  0.06392073  0.38338343  1
  Cd  Cd13  1  0.85068869  0.61518793  0.93851724  1
  Cd  Cd14  1  0.46990259  0.51372707  0.52382316  1
  Cd  Cd15  1  0.96990259  0.52382316  0.51372707  1
  O  O16  1  0.13203602  0.18207231  0.18010394  1
  O  O17  1  0.36752511  0.81958661  0.81751845  1
  O  O18  1  0.86752511  0.81751845  0.81958661  1
  O  O19  1  0.63203602  0.18010394  0.18207231  1
  O  O20  1  0.22712763  0.71449720  0.47601313  1
  O  O21  1  0.27440019  0.52753922  0.28523645  1
  O  O22  1  0.77440019  0.28523645  0.52753922  1
  O  O23  1  0.72712763  0.47601313  0.71449720  1
  O  O24  1  0.46983138  0.82106284  0.26995940  1
  O  O25  1  0.03028440  0.73005948  0.17807202  1
  O  O26  1  0.53028440  0.17807202  0.73005948  1
  O  O27  1  0.96983138  0.26995940  0.82106284  1
  O  O28  1  0.90207505  0.99421160  0.32966990  1
  O  O29  1  0.59806314  0.67142181  0.00543121  1
  O  O30  1  0.09806314  0.00543121  0.67142181  1
  O  O31  1  0.40207505  0.32966990  0.99421160  1
  O  O32  1  0.21079320  0.28547666  0.48447417  1
  O  O33  1  0.29129316  0.51859612  0.71005137  1
  O  O34  1  0.79129316  0.71005137  0.51859612  1
  O  O35  1  0.71079320  0.48447417  0.28547666  1
  O  O36  1  0.32500958  0.04060932  0.39714493  1
  O  O37  1  0.17530301  0.60288171  0.95839267  1
  O  O38  1  0.67530301  0.95839267  0.60288171  1
  O  O39  1  0.82500958  0.39714493  0.04060932  1
