# generated using pymatgen
data_RbCrCuF6
_symmetry_space_group_name_H-M   'P 1'
_cell_length_a   7.39094272
_cell_length_b   7.17384351
_cell_length_c   7.42023052
_cell_angle_alpha   90.00000000
_cell_angle_beta   59.86882943
_cell_angle_gamma   119.03299176
_symmetry_Int_Tables_number   1
_chemical_formula_structural   RbCrCuF6
_chemical_formula_sum   'Rb2 Cr2 Cu2 F12'
_cell_volume   281.65021402
_cell_formula_units_Z   2
loop_
 _symmetry_equiv_pos_site_id
 _symmetry_equiv_pos_as_xyz
  1  'x, y, z'
loop_
 _atom_site_type_symbol
 _atom_site_label
 _atom_site_symmetry_multiplicity
 _atom_site_fract_x
 _atom_site_fract_y
 _atom_site_fract_z
 _atom_site_occupancy
  Rb  Rb0  1  0.76066844  0.38033422  0.36966578  1
  Rb  Rb1  1  0.23933156  0.61966578  0.63033422  1
  Cr  Cr2  1  0.00000000  0.00000000  0.50000000  1
  Cr  Cr3  1  0.00000000  0.00000000  0.00000000  1
  Cu  Cu4  1  0.50000000  0.50000000  0.00000000  1
  Cu  Cu5  1  0.50000000  0.00000000  0.00000000  1
  F  F6  1  0.87534637  0.93767319  0.31232681  1
  F  F7  1  0.63757292  0.31878646  0.93121354  1
  F  F8  1  0.24330468  0.92594552  0.92270440  1
  F  F9  1  0.24330468  0.31735916  0.33399092  1
  F  F10  1  0.24330468  0.31735916  0.92270440  1
  F  F11  1  0.24330468  0.92594552  0.33399092  1
  F  F12  1  0.12465363  0.06232681  0.68767319  1
  F  F13  1  0.36242708  0.68121354  0.06878646  1
  F  F14  1  0.75669532  0.07405448  0.07729560  1
  F  F15  1  0.75669532  0.68264084  0.66600908  1
  F  F16  1  0.75669532  0.68264084  0.07729560  1
  F  F17  1  0.75669532  0.07405448  0.66600908  1
