# generated using pymatgen
data_Re3Br8Cl
_symmetry_space_group_name_H-M   'P 1'
_cell_length_a   9.77354828
_cell_length_b   9.80746890
_cell_length_c   9.80746890
_cell_angle_alpha   67.65928585
_cell_angle_beta   67.65696159
_cell_angle_gamma   67.65696159
_symmetry_Int_Tables_number   1
_chemical_formula_structural   Re3Br8Cl
_chemical_formula_sum   'Re6 Br16 Cl2'
_cell_volume   773.12781576
_cell_formula_units_Z   2
loop_
 _symmetry_equiv_pos_site_id
 _symmetry_equiv_pos_as_xyz
  1  'x, y, z'
loop_
 _atom_site_type_symbol
 _atom_site_label
 _atom_site_symmetry_multiplicity
 _atom_site_fract_x
 _atom_site_fract_y
 _atom_site_fract_z
 _atom_site_occupancy
  Re  Re0  1  0.85202379  0.35140875  0.12500627  1
  Re  Re1  1  0.85202379  0.12500627  0.35140875  1
  Re  Re2  1  0.14889465  0.64788828  0.87428005  1
  Re  Re3  1  0.14889465  0.87428005  0.64788828  1
  Re  Re4  1  0.62474142  0.35169116  0.35169116  1
  Re  Re5  1  0.37511505  0.64812863  0.64812863  1
  Br  Br6  1  0.77527838  0.27693830  0.96085154  1
  Br  Br7  1  0.77527838  0.96085154  0.27693830  1
  Br  Br8  1  0.22542610  0.72249292  0.03850359  1
  Br  Br9  1  0.22542610  0.03850359  0.72249292  1
  Br  Br10  1  0.99538994  0.49261413  0.17269128  1
  Br  Br11  1  0.99538994  0.17269128  0.49261413  1
  Br  Br12  1  0.00816226  0.50510481  0.82604661  1
  Br  Br13  1  0.00816226  0.82604661  0.50510481  1
  Br  Br14  1  0.09288400  0.12054106  0.12054106  1
  Br  Br15  1  0.90869476  0.87840110  0.87840110  1
  Br  Br16  1  0.46001043  0.27617882  0.27617882  1
  Br  Br17  1  0.54086585  0.72295313  0.72295313  1
  Br  Br18  1  0.67360214  0.49355268  0.49355268  1
  Br  Br19  1  0.32643237  0.50661000  0.50661000  1
  Br  Br20  1  0.62087129  0.59182345  0.12058535  1
  Br  Br21  1  0.62087129  0.12058535  0.59182345  1
  Cl  Cl22  1  0.37278057  0.42551019  0.87019790  1
  Cl  Cl23  1  0.37278057  0.87019790  0.42551019  1
