# generated using pymatgen
data_SmCdIn
_symmetry_space_group_name_H-M   'P 1'
_cell_length_a   4.90345445
_cell_length_b   4.90403150
_cell_length_c   7.64745405
_cell_angle_alpha   89.99153110
_cell_angle_beta   89.98465555
_cell_angle_gamma   59.99776613
_symmetry_Int_Tables_number   1
_chemical_formula_structural   SmCdIn
_chemical_formula_sum   'Sm2 Cd2 In2'
_cell_volume   159.25501317
_cell_formula_units_Z   2
loop_
 _symmetry_equiv_pos_site_id
 _symmetry_equiv_pos_as_xyz
  1  'x, y, z'
loop_
 _atom_site_type_symbol
 _atom_site_label
 _atom_site_symmetry_multiplicity
 _atom_site_fract_x
 _atom_site_fract_y
 _atom_site_fract_z
 _atom_site_occupancy
  Sm  Sm0  1  -0.00000635  0.99996286  0.73857632  1
  Sm  Sm1  1  0.00000635  0.00003714  0.26142368  1
  Cd  Cd2  1  0.33335611  0.33331049  0.52822100  1
  Cd  Cd3  1  0.66664389  0.66668951  0.47177900  1
  In  In4  1  0.66672289  0.66662060  0.05191902  1
  In  In5  1  0.33327711  0.33337940  0.94808098  1
