# generated using pymatgen
data_RbCNO
_symmetry_space_group_name_H-M   'P 1'
_cell_length_a   5.88685279
_cell_length_b   5.88685279
_cell_length_c   5.88685279
_cell_angle_alpha   65.69070863
_cell_angle_beta   65.99067966
_cell_angle_gamma   100.45438134
_symmetry_Int_Tables_number   1
_chemical_formula_structural   RbCNO
_chemical_formula_sum   'Rb2 C2 N2 O2'
_cell_volume   154.19461230
_cell_formula_units_Z   2
loop_
 _symmetry_equiv_pos_site_id
 _symmetry_equiv_pos_as_xyz
  1  'x, y, z'
loop_
 _atom_site_type_symbol
 _atom_site_label
 _atom_site_symmetry_multiplicity
 _atom_site_fract_x
 _atom_site_fract_y
 _atom_site_fract_z
 _atom_site_occupancy
  Rb  Rb0  1  0.75195731  0.75000000  0.99804269  1
  Rb  Rb1  1  0.25195731  0.25000000  0.99804269  1
  C  C2  1  0.99861464  0.50225796  0.49912740  1
  C  C3  1  0.49861464  0.99774204  0.50364333  1
  N  N4  1  0.86528750  0.63357510  0.50113740  1
  N  N5  1  0.36528750  0.86642490  0.76828760  1
  O  O6  1  0.13414056  0.36526507  0.50059437  1
  O  O7  1  0.63414056  0.13473493  0.23112451  1
