# generated using pymatgen
data_Rb2Mo2P2O11
_symmetry_space_group_name_H-M   'P 1'
_cell_length_a   10.15689523
_cell_length_b   10.17903781
_cell_length_c   10.39071500
_cell_angle_alpha   90.00000000
_cell_angle_beta   90.00000000
_cell_angle_gamma   97.71318117
_symmetry_Int_Tables_number   1
_chemical_formula_structural   Rb2Mo2P2O11
_chemical_formula_sum   'Rb8 Mo8 P8 O44'
_cell_volume   1064.54960914
_cell_formula_units_Z   4
loop_
 _symmetry_equiv_pos_site_id
 _symmetry_equiv_pos_as_xyz
  1  'x, y, z'
loop_
 _atom_site_type_symbol
 _atom_site_label
 _atom_site_symmetry_multiplicity
 _atom_site_fract_x
 _atom_site_fract_y
 _atom_site_fract_z
 _atom_site_occupancy
  Rb  Rb0  1  0.23679006  0.21555539  0.68874076  1
  Rb  Rb1  1  0.76320994  0.28444461  0.18874076  1
  Rb  Rb2  1  0.76088886  0.79379736  0.31518942  1
  Rb  Rb3  1  0.23911114  0.70620264  0.81518942  1
  Rb  Rb4  1  0.99978826  0.50006186  0.49990249  1
  Rb  Rb5  1  0.00021174  0.99993814  0.99990249  1
  Rb  Rb6  1  0.49223603  0.99524231  0.56672233  1
  Rb  Rb7  1  0.50776397  0.50475769  0.06672233  1
  Mo  Mo8  1  0.65285278  0.36395214  0.58488474  1
  Mo  Mo9  1  0.34714722  0.13604786  0.08488474  1
  Mo  Mo10  1  0.34697138  0.63734679  0.41556862  1
  Mo  Mo11  1  0.65302862  0.86265321  0.91556862  1
  Mo  Mo12  1  0.92040582  0.35108128  0.82310187  1
  Mo  Mo13  1  0.07959418  0.14891872  0.32310187  1
  Mo  Mo14  1  0.07899373  0.64915490  0.17722547  1
  Mo  Mo15  1  0.92100627  0.85084510  0.67722547  1
  P  P16  1  0.60393221  0.18264419  0.87403142  1
  P  P17  1  0.39606779  0.31735581  0.37403142  1
  P  P18  1  0.39572182  0.81821023  0.12595034  1
  P  P19  1  0.60427818  0.68178977  0.62595034  1
  P  P20  1  0.87476841  0.14624938  0.57579352  1
  P  P21  1  0.12523159  0.35375062  0.07579352  1
  P  P22  1  0.12549687  0.85392684  0.42444709  1
  P  P23  1  0.87450313  0.64607316  0.92444709  1
  O  O24  1  0.57377067  0.52958404  0.64796432  1
  O  O25  1  0.42622933  0.97041596  0.14796432  1
  O  O26  1  0.42639703  0.47061868  0.35157002  1
  O  O27  1  0.57360297  0.02938132  0.85157002  1
  O  O28  1  0.75267929  0.22721095  0.90431673  1
  O  O29  1  0.24732071  0.27278905  0.40431673  1
  O  O30  1  0.24695615  0.77302351  0.09566567  1
  O  O31  1  0.75304385  0.72697649  0.59566567  1
  O  O32  1  0.47257680  0.27897653  0.49643543  1
  O  O33  1  0.52742320  0.22102347  0.99643543  1
  O  O34  1  0.52753654  0.72068091  0.50328433  1
  O  O35  1  0.47246346  0.77931909  0.00328433  1
  O  O36  1  0.92915875  0.18150751  0.71334602  1
  O  O37  1  0.07084125  0.31849249  0.21334602  1
  O  O38  1  0.07144756  0.81870969  0.28688884  1
  O  O39  1  0.92855244  0.68129031  0.78688884  1
  O  O40  1  0.55625256  0.25135912  0.75273340  1
  O  O41  1  0.44374744  0.24864088  0.25273340  1
  O  O42  1  0.44361266  0.74409478  0.24410103  1
  O  O43  1  0.55638734  0.75590522  0.74410103  1
  O  O44  1  0.73286221  0.18324477  0.55357911  1
  O  O45  1  0.26713779  0.31675523  0.05357911  1
  O  O46  1  0.26752626  0.81699216  0.44750121  1
  O  O47  1  0.73247374  0.68300784  0.94750121  1
  O  O48  1  0.02500196  0.27772064  0.97928837  1
  O  O49  1  0.97499804  0.22227936  0.47928837  1
  O  O50  1  0.97512734  0.72223692  0.02057146  1
  O  O51  1  0.02487266  0.77776308  0.52057146  1
  O  O52  1  0.86692223  0.49464468  0.94664275  1
  O  O53  1  0.13307777  0.00535532  0.44664275  1
  O  O54  1  0.13317445  0.50537506  0.05394691  1
  O  O55  1  0.86682555  0.99462494  0.55394691  1
  O  O56  1  0.80005482  0.41331601  0.69958442  1
  O  O57  1  0.19994518  0.08668399  0.19958442  1
  O  O58  1  0.20005632  0.58705863  0.30027128  1
  O  O59  1  0.79994368  0.91294137  0.80027128  1
  O  O60  1  0.07202332  0.42956021  0.76402900  1
  O  O61  1  0.92797668  0.07043979  0.26402900  1
  O  O62  1  0.92720405  0.57068506  0.23577530  1
  O  O63  1  0.07279595  0.92931494  0.73577530  1
  O  O64  1  0.71380205  0.42930022  0.43881695  1
  O  O65  1  0.28619795  0.07069978  0.93881695  1
  O  O66  1  0.28577797  0.56997874  0.56062940  1
  O  O67  1  0.71422203  0.93002126  0.06062940  1
