# generated using pymatgen
data_Rb(Nb3Se4)2
_symmetry_space_group_name_H-M   'P 1'
_cell_length_a   3.52278703
_cell_length_b   10.24938875
_cell_length_c   10.24937066
_cell_angle_alpha   119.99644893
_cell_angle_beta   90.00009148
_cell_angle_gamma   90.00079768
_symmetry_Int_Tables_number   1
_chemical_formula_structural   Rb(Nb3Se4)2
_chemical_formula_sum   'Rb1 Nb6 Se8'
_cell_volume   320.49977192
_cell_formula_units_Z   1
loop_
 _symmetry_equiv_pos_site_id
 _symmetry_equiv_pos_as_xyz
  1  'x, y, z'
loop_
 _atom_site_type_symbol
 _atom_site_label
 _atom_site_symmetry_multiplicity
 _atom_site_fract_x
 _atom_site_fract_y
 _atom_site_fract_z
 _atom_site_occupancy
  Rb  Rb0  1  0.50000000  0.00000000  0.00000000  1
  Nb  Nb1  1  0.74960482  0.38205885  0.89390321  1
  Nb  Nb2  1  0.74960801  0.10608457  0.48815545  1
  Nb  Nb3  1  0.74960961  0.51184309  0.61791714  1
  Nb  Nb4  1  0.25039518  0.61794115  0.10609679  1
  Nb  Nb5  1  0.25039199  0.89391543  0.51184455  1
  Nb  Nb6  1  0.25039039  0.48815691  0.38208286  1
  Se  Se7  1  0.75184319  0.06017592  0.71643656  1
  Se  Se8  1  0.75183634  0.28356325  0.34374856  1
  Se  Se9  1  0.75184171  0.65627487  0.93983655  1
  Se  Se10  1  0.24815681  0.93982408  0.28356344  1
  Se  Se11  1  0.24816366  0.71643675  0.65625144  1
  Se  Se12  1  0.24815829  0.34372513  0.06016345  1
  Se  Se13  1  0.75001961  0.66666186  0.33332872  1
  Se  Se14  1  0.24998039  0.33333814  0.66667128  1
