# generated using pymatgen
data_Rb2Bi4Se7
_symmetry_space_group_name_H-M   'P 1'
_cell_length_a   4.26075238
_cell_length_b   13.23239044
_cell_length_c   15.37984155
_cell_angle_alpha   92.78956468
_cell_angle_beta   90.00000000
_cell_angle_gamma   90.00000000
_symmetry_Int_Tables_number   1
_chemical_formula_structural   Rb2Bi4Se7
_chemical_formula_sum   'Rb4 Bi8 Se14'
_cell_volume   866.08701375
_cell_formula_units_Z   2
loop_
 _symmetry_equiv_pos_site_id
 _symmetry_equiv_pos_as_xyz
  1  'x, y, z'
loop_
 _atom_site_type_symbol
 _atom_site_label
 _atom_site_symmetry_multiplicity
 _atom_site_fract_x
 _atom_site_fract_y
 _atom_site_fract_z
 _atom_site_occupancy
  Rb  Rb0  1  0.75000000  0.56566033  0.18719574  1
  Rb  Rb1  1  0.25000000  0.43433967  0.81280426  1
  Rb  Rb2  1  0.25000000  0.81854384  0.37035657  1
  Rb  Rb3  1  0.75000000  0.18145616  0.62964343  1
  Bi  Bi4  1  0.75000000  0.83561441  0.72122351  1
  Bi  Bi5  1  0.25000000  0.16438559  0.27877649  1
  Bi  Bi6  1  0.25000000  0.60996667  0.56876628  1
  Bi  Bi7  1  0.75000000  0.39003333  0.43123372  1
  Bi  Bi8  1  0.25000000  0.72790800  0.95145978  1
  Bi  Bi9  1  0.75000000  0.27209200  0.04854022  1
  Bi  Bi10  1  0.75000000  0.94163036  0.12385948  1
  Bi  Bi11  1  0.25000000  0.05836964  0.87614052  1
  Se  Se12  1  0.75000000  0.59007285  0.96431425  1
  Se  Se13  1  0.25000000  0.40992715  0.03568575  1
  Se  Se14  1  0.25000000  0.99465345  0.69790009  1
  Se  Se15  1  0.75000000  0.00534655  0.30209991  1
  Se  Se16  1  0.25000000  0.69160424  0.75855294  1
  Se  Se17  1  0.75000000  0.30839576  0.24144706  1
  Se  Se18  1  0.25000000  0.78760227  0.14161030  1
  Se  Se19  1  0.75000000  0.21239773  0.85838970  1
  Se  Se20  1  0.75000000  0.90476873  0.91521775  1
  Se  Se21  1  0.25000000  0.09523127  0.08478225  1
  Se  Se22  1  0.75000000  0.76206657  0.54047230  1
  Se  Se23  1  0.25000000  0.23793343  0.45952770  1
  Se  Se24  1  0.75000000  0.45931355  0.61162708  1
  Se  Se25  1  0.25000000  0.54068645  0.38837292  1
