# generated using pymatgen
data_Rb7VSiO8
_symmetry_space_group_name_H-M   'P 1'
_cell_length_a   6.50984399
_cell_length_b   10.57818976
_cell_length_c   21.07590694
_cell_angle_alpha   90.00000000
_cell_angle_beta   93.24636607
_cell_angle_gamma   90.00000000
_symmetry_Int_Tables_number   1
_chemical_formula_structural   Rb7VSiO8
_chemical_formula_sum   'Rb28 V4 Si4 O32'
_cell_volume   1449.00778517
_cell_formula_units_Z   4
loop_
 _symmetry_equiv_pos_site_id
 _symmetry_equiv_pos_as_xyz
  1  'x, y, z'
loop_
 _atom_site_type_symbol
 _atom_site_label
 _atom_site_symmetry_multiplicity
 _atom_site_fract_x
 _atom_site_fract_y
 _atom_site_fract_z
 _atom_site_occupancy
  Rb  Rb0  1  0.60623151  0.65295313  0.88782542  1
  Rb  Rb1  1  0.38850883  0.15512984  0.61756459  1
  Rb  Rb2  1  0.38850883  0.34487016  0.11756459  1
  Rb  Rb3  1  0.60623151  0.84704687  0.38782542  1
  Rb  Rb4  1  0.11371119  0.66112520  0.81034091  1
  Rb  Rb5  1  0.89846528  0.17354360  0.69712535  1
  Rb  Rb6  1  0.89846528  0.32645640  0.19712535  1
  Rb  Rb7  1  0.11371119  0.83887480  0.31034091  1
  Rb  Rb8  1  0.71801230  0.29401338  0.86128233  1
  Rb  Rb9  1  0.27922635  0.78863594  0.62956043  1
  Rb  Rb10  1  0.27922635  0.71136406  0.12956043  1
  Rb  Rb11  1  0.71801230  0.20598662  0.36128233  1
  Rb  Rb12  1  0.21472951  0.44252443  0.94849656  1
  Rb  Rb13  1  0.78205244  0.93303996  0.54490668  1
  Rb  Rb14  1  0.78205244  0.56696004  0.04490668  1
  Rb  Rb15  1  0.21472951  0.05747557  0.44849656  1
  Rb  Rb16  1  0.28565261  0.10711049  0.96769877  1
  Rb  Rb17  1  0.70917924  0.61586127  0.52680664  1
  Rb  Rb18  1  0.70917924  0.88413873  0.02680664  1
  Rb  Rb19  1  0.28565261  0.39288951  0.46769877  1
  Rb  Rb20  1  0.92114875  0.94935202  0.87032156  1
  Rb  Rb21  1  0.09312049  0.45852782  0.63343690  1
  Rb  Rb22  1  0.09312049  0.04147218  0.13343690  1
  Rb  Rb23  1  0.92114875  0.55064798  0.37032156  1
  Rb  Rb24  1  0.37736452  0.00715037  0.79003916  1
  Rb  Rb25  1  0.61979969  0.49434548  0.71697786  1
  Rb  Rb26  1  0.61979969  0.00565452  0.21697786  1
  Rb  Rb27  1  0.37736452  0.49284963  0.29003916  1
  V  V28  1  0.77815790  0.27641673  0.52730437  1
  V  V29  1  0.77815790  0.22358327  0.02730437  1
  V  V30  1  0.78218180  0.83941873  0.70718244  1
  V  V31  1  0.78218180  0.66058127  0.20718244  1
  Si  Si32  1  0.22160114  0.77768649  0.97349181  1
  Si  Si33  1  0.22160114  0.72231351  0.47349181  1
  Si  Si34  1  0.21745934  0.33874148  0.79198149  1
  Si  Si35  1  0.21745934  0.16125852  0.29198149  1
  O  O36  1  0.18528412  0.88051554  0.03191609  1
  O  O37  1  0.81282851  0.38293510  0.46573646  1
  O  O38  1  0.81282851  0.11706490  0.96573646  1
  O  O39  1  0.18528412  0.61948446  0.53191609  1
  O  O40  1  0.32171650  0.27764340  0.72786286  1
  O  O41  1  0.67043966  0.77677364  0.77361800  1
  O  O42  1  0.67043966  0.72322636  0.27361800  1
  O  O43  1  0.32171650  0.22235660  0.22786286  1
  O  O44  1  0.37262472  0.45156050  0.82346305  1
  O  O45  1  0.62169672  0.95759693  0.67369545  1
  O  O46  1  0.62169672  0.54240307  0.17369545  1
  O  O47  1  0.37262472  0.04843950  0.32346305  1
  O  O48  1  0.18042367  0.22452658  0.84482492  1
  O  O49  1  0.82001152  0.71920369  0.65199730  1
  O  O50  1  0.82001152  0.78079631  0.15199730  1
  O  O51  1  0.18042367  0.27547342  0.34482492  1
  O  O52  1  0.99037779  0.40461477  0.76871717  1
  O  O53  1  0.01995861  0.90826985  0.73060927  1
  O  O54  1  0.01995861  0.59173015  0.23060927  1
  O  O55  1  0.99037779  0.09538523  0.26871717  1
  O  O56  1  0.38791637  0.66728712  0.00121465  1
  O  O57  1  0.60614270  0.16031842  0.49897966  1
  O  O58  1  0.60614270  0.33968158  0.99897966  1
  O  O59  1  0.38791637  0.83271288  0.50121465  1
  O  O60  1  0.31672381  0.85336633  0.91136070  1
  O  O61  1  0.67730589  0.35645252  0.59166058  1
  O  O62  1  0.67730589  0.14354748  0.09166058  1
  O  O63  1  0.31672381  0.64663367  0.41136070  1
  O  O64  1  0.99797271  0.71028295  0.94788125  1
  O  O65  1  0.01197380  0.20599539  0.55411934  1
  O  O66  1  0.01197380  0.29400461  0.05411934  1
  O  O67  1  0.99797271  0.78971705  0.44788125  1
