# generated using pymatgen
data_Pr2Ga5Cu3
_symmetry_space_group_name_H-M   'P 1'
_cell_length_a   4.26521983
_cell_length_b   4.26521983
_cell_length_c   10.18397259
_cell_angle_alpha   90.00000000
_cell_angle_beta   90.00000000
_cell_angle_gamma   90.00000000
_symmetry_Int_Tables_number   1
_chemical_formula_structural   Pr2Ga5Cu3
_chemical_formula_sum   'Pr2 Ga5 Cu3'
_cell_volume   185.26784977
_cell_formula_units_Z   1
loop_
 _symmetry_equiv_pos_site_id
 _symmetry_equiv_pos_as_xyz
  1  'x, y, z'
loop_
 _atom_site_type_symbol
 _atom_site_label
 _atom_site_symmetry_multiplicity
 _atom_site_fract_x
 _atom_site_fract_y
 _atom_site_fract_z
 _atom_site_occupancy
  Pr  Pr0  1  -0.00000000  0.00000000  0.99672941  1
  Pr  Pr1  1  0.50000000  0.50000000  0.50327059  1
  Ga  Ga2  1  0.50000000  0.50000000  0.11759644  1
  Ga  Ga3  1  -0.00000000  -0.00000000  0.62914060  1
  Ga  Ga4  1  0.00000000  0.00000000  0.38240356  1
  Ga  Ga5  1  0.50000000  0.50000000  0.87085940  1
  Ga  Ga6  1  -0.00000000  0.50000000  0.25000000  1
  Cu  Cu7  1  0.50000000  -0.00000000  0.75000000  1
  Cu  Cu8  1  0.50000000  0.00000000  0.25000000  1
  Cu  Cu9  1  0.00000000  0.50000000  0.75000000  1
