# generated using pymatgen
data_NiSb6Ru
_symmetry_space_group_name_H-M   'P 1'
_cell_length_a   8.06348593
_cell_length_b   7.99975836
_cell_length_c   8.06348593
_cell_angle_alpha   70.48073313
_cell_angle_beta   70.34812431
_cell_angle_gamma   109.56395964
_symmetry_Int_Tables_number   1
_chemical_formula_structural   NiSb6Ru
_chemical_formula_sum   'Ni2 Sb12 Ru2'
_cell_volume   398.80932678
_cell_formula_units_Z   2
loop_
 _symmetry_equiv_pos_site_id
 _symmetry_equiv_pos_as_xyz
  1  'x, y, z'
loop_
 _atom_site_type_symbol
 _atom_site_label
 _atom_site_symmetry_multiplicity
 _atom_site_fract_x
 _atom_site_fract_y
 _atom_site_fract_z
 _atom_site_occupancy
  Ni  Ni0  1  0.50000000  0.00000000  0.00000000  1
  Ni  Ni1  1  0.00000000  0.00000000  0.50000000  1
  Sb  Sb2  1  0.66370676  0.50701493  0.15669183  1
  Sb  Sb3  1  0.33629324  0.49298507  0.84330817  1
  Sb  Sb4  1  0.66161144  0.81929209  0.84231936  1
  Sb  Sb5  1  0.33838856  0.18070791  0.15768064  1
  Sb  Sb6  1  0.84116560  0.33610915  0.81955463  1
  Sb  Sb7  1  0.15883440  0.66389085  0.18044537  1
  Sb  Sb8  1  0.15566378  0.33610915  0.50505645  1
  Sb  Sb9  1  0.84433622  0.66389085  0.49494355  1
  Sb  Sb10  1  0.49495125  0.15459197  0.66452668  1
  Sb  Sb11  1  0.50504875  0.84540803  0.33547332  1
  Sb  Sb12  1  0.18088135  0.84540803  0.65964071  1
  Sb  Sb13  1  0.81911865  0.15459197  0.34035929  1
  Ru  Ru14  1  0.00000000  0.50000000  0.00000000  1
  Ru  Ru15  1  0.50000000  0.50000000  0.50000000  1
