# generated using pymatgen
data_NbMoW
_symmetry_space_group_name_H-M   'P 1'
_cell_length_a   2.80181118
_cell_length_b   2.80181118
_cell_length_c   6.99611555
_cell_angle_alpha   97.57272292
_cell_angle_beta   97.57272292
_cell_angle_gamma   109.99078159
_symmetry_Int_Tables_number   1
_chemical_formula_structural   NbMoW
_chemical_formula_sum   'Nb1 Mo1 W1'
_cell_volume   50.23102282
_cell_formula_units_Z   1
loop_
 _symmetry_equiv_pos_site_id
 _symmetry_equiv_pos_as_xyz
  1  'x, y, z'
loop_
 _atom_site_type_symbol
 _atom_site_label
 _atom_site_symmetry_multiplicity
 _atom_site_fract_x
 _atom_site_fract_y
 _atom_site_fract_z
 _atom_site_occupancy
  Nb  Nb0  1  0.66613730  0.66613730  0.33227360  1
  Mo  Mo1  1  0.99730689  0.99730689  0.99461378  1
  W  W2  1  0.33655581  0.33655581  0.67311262  1
