# generated using pymatgen
data_PrH3(SO4)3
_symmetry_space_group_name_H-M   'P 1'
_cell_length_a   5.92048187
_cell_length_b   9.65468197
_cell_length_c   9.65472159
_cell_angle_alpha   60.00004864
_cell_angle_beta   90.00000000
_cell_angle_gamma   90.00000000
_symmetry_Int_Tables_number   1
_chemical_formula_structural   PrH3(SO4)3
_chemical_formula_sum   'Pr2 H6 S6 O24'
_cell_volume   477.93146895
_cell_formula_units_Z   2
loop_
 _symmetry_equiv_pos_site_id
 _symmetry_equiv_pos_as_xyz
  1  'x, y, z'
loop_
 _atom_site_type_symbol
 _atom_site_label
 _atom_site_symmetry_multiplicity
 _atom_site_fract_x
 _atom_site_fract_y
 _atom_site_fract_z
 _atom_site_occupancy
  Pr  Pr0  1  0.75240334  0.33334008  0.33332994  1
  Pr  Pr1  1  0.25240334  0.66665992  0.66667006  1
  H  H2  1  0.63428246  0.05813005  0.77733285  1
  H  H3  1  0.63427983  0.16453375  0.05813472  1
  H  H4  1  0.63427796  0.77733744  0.16453465  1
  H  H5  1  0.13428246  0.94186995  0.22266715  1
  H  H6  1  0.13427983  0.83546625  0.94186528  1
  H  H7  1  0.13427796  0.22266256  0.83546535  1
  S  S8  1  0.74934294  0.90268928  0.69599655  1
  S  S9  1  0.74934235  0.40130959  0.90269378  1
  S  S10  1  0.74933901  0.69599034  0.40131026  1
  S  S11  1  0.24934294  0.09731072  0.30400345  1
  S  S12  1  0.24934235  0.59869041  0.09730622  1
  S  S13  1  0.24933901  0.30400966  0.59868974  1
  O  O14  1  0.45624852  0.55091076  0.19367741  1
  O  O15  1  0.45625144  0.25541687  0.55090510  1
  O  O16  1  0.45624604  0.19368079  0.25541406  1
  O  O17  1  0.95624852  0.44908924  0.80632259  1
  O  O18  1  0.95625144  0.74458313  0.44909490  1
  O  O19  1  0.95624604  0.80631921  0.74458594  1
  O  O20  1  0.54575044  0.45855998  0.80402217  1
  O  O21  1  0.54575059  0.73741276  0.45856342  1
  O  O22  1  0.54575223  0.80401893  0.73741526  1
  O  O23  1  0.04575044  0.54144002  0.19597783  1
  O  O24  1  0.04575059  0.26258724  0.54143658  1
  O  O25  1  0.04575223  0.19598107  0.26258474  1
  O  O26  1  0.75365413  0.97667118  0.81218260  1
  O  O27  1  0.75365571  0.21114426  0.97667602  1
  O  O28  1  0.75365902  0.81218241  0.21114609  1
  O  O29  1  0.25365413  0.02332882  0.18781740  1
  O  O30  1  0.25365571  0.78885574  0.02332398  1
  O  O31  1  0.25365902  0.18781759  0.78885391  1
  O  O32  1  0.74892062  0.03499571  0.53182583  1
  O  O33  1  0.74892164  0.43318462  0.03499311  1
  O  O34  1  0.74892173  0.53182711  0.43317604  1
  O  O35  1  0.24892062  0.96500429  0.46817417  1
  O  O36  1  0.24892164  0.56681538  0.96500689  1
  O  O37  1  0.24892173  0.46817289  0.56682396  1
