# generated using pymatgen
data_Nd3NiSn7
_symmetry_space_group_name_H-M   'P 1'
_cell_length_a   4.59991931
_cell_length_b   4.59676431
_cell_length_c   13.73502386
_cell_angle_alpha   90.00000000
_cell_angle_beta   80.36028549
_cell_angle_gamma   90.00000000
_symmetry_Int_Tables_number   1
_chemical_formula_structural   Nd3NiSn7
_chemical_formula_sum   'Nd3 Ni1 Sn7'
_cell_volume   286.32285446
_cell_formula_units_Z   1
loop_
 _symmetry_equiv_pos_site_id
 _symmetry_equiv_pos_as_xyz
  1  'x, y, z'
loop_
 _atom_site_type_symbol
 _atom_site_label
 _atom_site_symmetry_multiplicity
 _atom_site_fract_x
 _atom_site_fract_y
 _atom_site_fract_z
 _atom_site_occupancy
  Nd  Nd0  1  0.81416197  0.00000000  0.37167607  1
  Nd  Nd1  1  0.18617647  0.00000000  0.62764705  1
  Nd  Nd2  1  0.49988277  0.50000000  0.00023445  1
  Ni  Ni3  1  0.62918719  0.50000000  0.74162561  1
  Sn  Sn4  1  0.72068815  0.50000000  0.55862370  1
  Sn  Sn5  1  0.29046666  0.50000000  0.41906668  1
  Sn  Sn6  1  0.58900523  0.00000000  0.82198954  1
  Sn  Sn7  1  0.40507781  0.00000000  0.18984438  1
  Sn  Sn8  1  0.90535234  0.50000000  0.18929533  1
  Sn  Sn9  1  0.08938886  0.50000000  0.82122228  1
  Sn  Sn10  1  0.99911255  -0.00000000  0.00177490  1
