# generated using pymatgen
data_P3Pb5BrO12
_symmetry_space_group_name_H-M   'P 1'
_cell_length_a   7.43388510
_cell_length_b   10.20294087
_cell_length_c   10.20293873
_cell_angle_alpha   59.99918041
_cell_angle_beta   90.00000000
_cell_angle_gamma   90.00000000
_symmetry_Int_Tables_number   1
_chemical_formula_structural   P3Pb5BrO12
_chemical_formula_sum   'P6 Pb10 Br2 O24'
_cell_volume   670.18320085
_cell_formula_units_Z   2
loop_
 _symmetry_equiv_pos_site_id
 _symmetry_equiv_pos_as_xyz
  1  'x, y, z'
loop_
 _atom_site_type_symbol
 _atom_site_label
 _atom_site_symmetry_multiplicity
 _atom_site_fract_x
 _atom_site_fract_y
 _atom_site_fract_z
 _atom_site_occupancy
  P  P0  1  0.74992317  0.96461853  0.62502887  1
  P  P1  1  0.74992268  0.41035186  0.96461566  1
  P  P2  1  0.74992360  0.62502946  0.41035142  1
  P  P3  1  0.24992317  0.03538147  0.37497113  1
  P  P4  1  0.24992268  0.58964814  0.03538434  1
  P  P5  1  0.24992360  0.37497054  0.58964858  1
  Pb  Pb6  1  0.74929979  0.74644952  0.99163191  1
  Pb  Pb7  1  0.74929890  0.26190086  0.74642142  1
  Pb  Pb8  1  0.74929935  0.99166629  0.26192841  1
  Pb  Pb9  1  0.24929979  0.25355048  0.00836809  1
  Pb  Pb10  1  0.24929890  0.73809914  0.25357858  1
  Pb  Pb11  1  0.24929935  0.00833371  0.73807159  1
  Pb  Pb12  1  0.50371853  0.33336178  0.33331919  1
  Pb  Pb13  1  0.00371853  0.66663822  0.66668081  1
  Pb  Pb14  1  0.49618112  0.66663430  0.66668247  1
  Pb  Pb15  1  0.99618112  0.33336570  0.33331753  1
  Br  Br16  1  0.99039505  0.00000054  0.99999956  1
  Br  Br17  1  0.49039505  0.99999946  0.00000044  1
  O  O18  1  0.58075770  0.90866515  0.72903974  1
  O  O19  1  0.58075263  0.36229921  0.90866426  1
  O  O20  1  0.58074530  0.72903662  0.36229474  1
  O  O21  1  0.08075770  0.09133485  0.27096026  1
  O  O22  1  0.08075263  0.63770079  0.09133574  1
  O  O23  1  0.08074530  0.27096338  0.63770526  1
  O  O24  1  0.41896296  0.09179362  0.27095282  1
  O  O25  1  0.41896549  0.63724843  0.09179330  1
  O  O26  1  0.41896955  0.27095857  0.63725097  1
  O  O27  1  0.91896296  0.90820638  0.72904718  1
  O  O28  1  0.91896549  0.36275157  0.90820670  1
  O  O29  1  0.91896955  0.72904143  0.36274903  1
  O  O30  1  0.74990359  0.87861141  0.53177549  1
  O  O31  1  0.74990261  0.58961549  0.87861232  1
  O  O32  1  0.74990348  0.53176554  0.58961528  1
  O  O33  1  0.24990359  0.12138859  0.46822451  1
  O  O34  1  0.24990261  0.41038451  0.12138768  1
  O  O35  1  0.24990348  0.46823446  0.41038472  1
  O  O36  1  0.75005892  0.13841792  0.51582430  1
  O  O37  1  0.75005856  0.34575975  0.13841280  1
  O  O38  1  0.75005701  0.51582928  0.34575931  1
  O  O39  1  0.25005892  0.86158208  0.48417570  1
  O  O40  1  0.25005856  0.65424025  0.86158720  1
  O  O41  1  0.25005701  0.48417072  0.65424069  1
