# generated using pymatgen
data_NdGaSi
_symmetry_space_group_name_H-M   'P 1'
_cell_length_a   4.21875353
_cell_length_b   4.21875353
_cell_length_c   7.76691712
_cell_angle_alpha   74.24140548
_cell_angle_beta   74.24140548
_cell_angle_gamma   90.00000000
_symmetry_Int_Tables_number   1
_chemical_formula_structural   NdGaSi
_chemical_formula_sum   'Nd2 Ga2 Si2'
_cell_volume   127.63210638
_cell_formula_units_Z   2
loop_
 _symmetry_equiv_pos_site_id
 _symmetry_equiv_pos_as_xyz
  1  'x, y, z'
loop_
 _atom_site_type_symbol
 _atom_site_label
 _atom_site_symmetry_multiplicity
 _atom_site_fract_x
 _atom_site_fract_y
 _atom_site_fract_z
 _atom_site_occupancy
  Nd  Nd0  1  0.87502651  0.62502651  0.24994699  1
  Nd  Nd1  1  0.12502651  0.37502651  0.74994699  1
  Ga  Ga2  1  0.70854466  0.95854466  0.58291067  1
  Ga  Ga3  1  0.45854466  0.20854466  0.08291067  1
  Si  Si4  1  0.29142883  0.04142883  0.41714234  1
  Si  Si5  1  0.54142883  0.79142883  0.91714234  1
