# generated using pymatgen
data_Nd3(GaSi2)2
_symmetry_space_group_name_H-M   'P 1'
_cell_length_a   4.26584535
_cell_length_b   4.15883065
_cell_length_c   21.55496944
_cell_angle_alpha   84.46404573
_cell_angle_beta   95.67886494
_cell_angle_gamma   90.00000000
_symmetry_Int_Tables_number   1
_chemical_formula_structural   Nd3(GaSi2)2
_chemical_formula_sum   'Nd6 Ga4 Si8'
_cell_volume   378.73594718
_cell_formula_units_Z   2
loop_
 _symmetry_equiv_pos_site_id
 _symmetry_equiv_pos_as_xyz
  1  'x, y, z'
loop_
 _atom_site_type_symbol
 _atom_site_label
 _atom_site_symmetry_multiplicity
 _atom_site_fract_x
 _atom_site_fract_y
 _atom_site_fract_z
 _atom_site_occupancy
  Nd  Nd0  1  0.37428087  0.87571913  0.24856173  1
  Nd  Nd1  1  0.03997609  0.21002391  0.57995117  1
  Nd  Nd2  1  0.70537831  0.54462169  0.91075762  1
  Nd  Nd3  1  0.29407895  0.45592105  0.08815691  1
  Nd  Nd4  1  0.95992260  0.79007740  0.41984619  1
  Nd  Nd5  1  0.62590564  0.12409436  0.75181127  1
  Ga  Ga6  1  0.90344085  0.34655915  0.30688170  1
  Ga  Ga7  1  0.56988679  0.68011321  0.63977257  1
  Ga  Ga8  1  0.23604383  0.01395617  0.97208865  1
  Ga  Ga9  1  0.76373339  0.98626661  0.02746578  1
  Si  Si10  1  0.43099696  0.31900304  0.36199493  1
  Si  Si11  1  0.09731213  0.65268787  0.69462426  1
  Si  Si12  1  0.84726585  0.40273415  0.19453270  1
  Si  Si13  1  0.51344272  0.73655728  0.52688543  1
  Si  Si14  1  0.17994059  0.07005941  0.85988017  1
  Si  Si15  1  0.81997480  0.93002520  0.13995061  1
  Si  Si16  1  0.48618696  0.26381304  0.47237391  1
  Si  Si17  1  0.15223269  0.59776731  0.80446438  1
