# generated using pymatgen
data_NbB2W
_symmetry_space_group_name_H-M   'P 1'
_cell_length_a   3.13691958
_cell_length_b   3.24488928
_cell_length_c   4.62751085
_cell_angle_alpha   69.47545402
_cell_angle_beta   90.00000000
_cell_angle_gamma   90.00000000
_symmetry_Int_Tables_number   1
_chemical_formula_structural   NbB2W
_chemical_formula_sum   'Nb1 B2 W1'
_cell_volume   44.11321705
_cell_formula_units_Z   1
loop_
 _symmetry_equiv_pos_site_id
 _symmetry_equiv_pos_as_xyz
  1  'x, y, z'
loop_
 _atom_site_type_symbol
 _atom_site_label
 _atom_site_symmetry_multiplicity
 _atom_site_fract_x
 _atom_site_fract_y
 _atom_site_fract_z
 _atom_site_occupancy
  Nb  Nb0  1  0.75000000  0.85321686  0.29356628  1
  B  B1  1  0.75000000  0.56004949  0.87990103  1
  B  B2  1  0.25000000  0.44357776  0.11284448  1
  W  W3  1  0.25000000  0.14315590  0.71368821  1
