# generated using pymatgen
data_UB6H36(C2N)3
_symmetry_space_group_name_H-M   'P 1'
_cell_length_a   10.38047016
_cell_length_b   11.79787656
_cell_length_c   16.14871558
_cell_angle_alpha   95.81379739
_cell_angle_beta   90.00000000
_cell_angle_gamma   90.00000000
_symmetry_Int_Tables_number   1
_chemical_formula_structural   UB6H36(C2N)3
_chemical_formula_sum   'U4 B24 H144 C24 N12'
_cell_volume   1967.52034431
_cell_formula_units_Z   4
loop_
 _symmetry_equiv_pos_site_id
 _symmetry_equiv_pos_as_xyz
  1  'x, y, z'
loop_
 _atom_site_type_symbol
 _atom_site_label
 _atom_site_symmetry_multiplicity
 _atom_site_fract_x
 _atom_site_fract_y
 _atom_site_fract_z
 _atom_site_occupancy
  U  U0  1  0.34047257  0.33618497  0.26379617  1
  U  U1  1  0.84047257  0.16381503  0.73620383  1
  U  U2  1  0.65952743  0.66381503  0.73620383  1
  U  U3  1  0.15952743  0.83618497  0.26379617  1
  B  B4  1  0.12346076  0.38875908  0.17232149  1
  B  B5  1  0.62346076  0.11124092  0.82767851  1
  B  B6  1  0.87653924  0.61124092  0.82767851  1
  B  B7  1  0.37653924  0.88875908  0.17232149  1
  B  B8  1  0.27613721  0.24060320  0.10294514  1
  B  B9  1  0.77613721  0.25939680  0.89705486  1
  B  B10  1  0.72386279  0.75939680  0.89705486  1
  B  B11  1  0.22386279  0.74060320  0.10294514  1
  B  B12  1  0.52505478  0.50934640  0.26225459  1
  B  B13  1  0.02505478  0.99065360  0.73774541  1
  B  B14  1  0.47494522  0.49065360  0.73774541  1
  B  B15  1  0.97494522  0.00934640  0.26225459  1
  B  B16  1  0.60885850  0.30681668  0.23996850  1
  B  B17  1  0.10885850  0.19318332  0.76003150  1
  B  B18  1  0.39114150  0.69318332  0.76003150  1
  B  B19  1  0.89114150  0.80681668  0.23996850  1
  B  B20  1  0.29523969  0.30969119  0.43364148  1
  B  B21  1  0.79523969  0.19030881  0.56635852  1
  B  B22  1  0.70476031  0.69030881  0.56635852  1
  B  B23  1  0.20476031  0.80969119  0.43364148  1
  B  B24  1  0.28821637  0.12817488  0.33558022  1
  B  B25  1  0.78821637  0.37182512  0.66441978  1
  B  B26  1  0.71178363  0.87182512  0.66441978  1
  B  B27  1  0.21178363  0.62817488  0.33558022  1
  H  H28  1  0.05078146  0.40504962  0.00905999  1
  H  H29  1  0.55078146  0.09495038  0.99094001  1
  H  H30  1  0.94921854  0.59495038  0.99094001  1
  H  H31  1  0.44921854  0.90504962  0.00905999  1
  H  H32  1  0.21999648  0.42909383  0.02250776  1
  H  H33  1  0.71999648  0.07090617  0.97749224  1
  H  H34  1  0.78000352  0.57090617  0.97749224  1
  H  H35  1  0.28000352  0.92909383  0.02250776  1
  H  H36  1  0.16350680  0.30396125  0.96074203  1
  H  H37  1  0.66350680  0.19603875  0.03925797  1
  H  H38  1  0.83649320  0.69603875  0.03925797  1
  H  H39  1  0.33649320  0.80396125  0.96074203  1
  H  H40  1  0.05489788  0.15725110  0.02622645  1
  H  H41  1  0.55489788  0.34274890  0.97377355  1
  H  H42  1  0.94510212  0.84274890  0.97377355  1
  H  H43  1  0.44510212  0.65725110  0.02622645  1
  H  H44  1  0.03366094  0.16901448  0.13690800  1
  H  H45  1  0.53366094  0.33098552  0.86309200  1
  H  H46  1  0.96633906  0.83098552  0.86309200  1
  H  H47  1  0.46633906  0.66901448  0.13690800  1
  H  H48  1  0.94429935  0.25959159  0.07485872  1
  H  H49  1  0.44429935  0.24040841  0.92514128  1
  H  H50  1  0.05570065  0.74040841  0.92514128  1
  H  H51  1  0.55570065  0.75959159  0.07485872  1
  H  H52  1  0.78659307  0.40439447  0.14246022  1
  H  H53  1  0.28659307  0.09560553  0.85753978  1
  H  H54  1  0.21340693  0.59560553  0.85753978  1
  H  H55  1  0.71340693  0.90439447  0.14246022  1
  H  H56  1  0.62706103  0.43788310  0.11023243  1
  H  H57  1  0.12706103  0.06211690  0.88976757  1
  H  H58  1  0.37293897  0.56211690  0.88976757  1
  H  H59  1  0.87293897  0.93788310  0.11023243  1
  H  H60  1  0.72902804  0.54828789  0.15840250  1
  H  H61  1  0.22902804  0.95171211  0.84159750  1
  H  H62  1  0.27097196  0.45171211  0.84159750  1
  H  H63  1  0.77097196  0.04828789  0.15840250  1
  H  H64  1  0.77918829  0.55689591  0.30161540  1
  H  H65  1  0.27918829  0.94310409  0.69838460  1
  H  H66  1  0.22081171  0.44310409  0.69838460  1
  H  H67  1  0.72081171  0.05689591  0.30161540  1
  H  H68  1  0.71800156  0.45333621  0.36492883  1
  H  H69  1  0.21800156  0.04666379  0.63507117  1
  H  H70  1  0.28199844  0.54666379  0.63507117  1
  H  H71  1  0.78199844  0.95333621  0.36492883  1
  H  H72  1  0.83889210  0.41322553  0.28795014  1
  H  H73  1  0.33889210  0.08677447  0.71204986  1
  H  H74  1  0.16110790  0.58677447  0.71204986  1
  H  H75  1  0.66110790  0.91322553  0.28795014  1
  H  H76  1  0.37487642  0.03491265  0.47778622  1
  H  H77  1  0.87487642  0.46508735  0.52221378  1
  H  H78  1  0.62512358  0.96508735  0.52221378  1
  H  H79  1  0.12512358  0.53491265  0.47778622  1
  H  H80  1  0.48063670  0.14510394  0.45032076  1
  H  H81  1  0.98063670  0.35489606  0.54967924  1
  H  H82  1  0.51936330  0.85489606  0.54967924  1
  H  H83  1  0.01936330  0.64510394  0.45032076  1
  H  H84  1  0.38617961  0.16710317  0.54331675  1
  H  H85  1  0.88617961  0.33289683  0.45668325  1
  H  H86  1  0.61382039  0.83289683  0.45668325  1
  H  H87  1  0.11382039  0.66710317  0.54331675  1
  H  H88  1  0.15424015  0.18544009  0.53370816  1
  H  H89  1  0.65424015  0.31455991  0.46629184  1
  H  H90  1  0.84575985  0.81455991  0.46629184  1
  H  H91  1  0.34575985  0.68544009  0.53370816  1
  H  H92  1  0.07784620  0.17863123  0.43381792  1
  H  H93  1  0.57784620  0.32136877  0.56618208  1
  H  H94  1  0.92215380  0.82136877  0.56618208  1
  H  H95  1  0.42215380  0.67863123  0.43381792  1
  H  H96  1  0.14850335  0.05329588  0.46774017  1
  H  H97  1  0.64850335  0.44670412  0.53225983  1
  H  H98  1  0.85149665  0.94670412  0.53225983  1
  H  H99  1  0.35149665  0.55329588  0.46774017  1
  H  H100  1  0.11605974  0.33372315  0.23439289  1
  H  H101  1  0.61605974  0.16627685  0.76560711  1
  H  H102  1  0.88394026  0.66627685  0.76560711  1
  H  H103  1  0.38394026  0.83372315  0.23439289  1
  H  H104  1  0.22055748  0.45097451  0.18002096  1
  H  H105  1  0.72055748  0.04902549  0.81997904  1
  H  H106  1  0.77944252  0.54902549  0.81997904  1
  H  H107  1  0.27944252  0.95097451  0.18002096  1
  H  H108  1  0.02890101  0.44791494  0.16843320  1
  H  H109  1  0.52890101  0.05208506  0.83156680  1
  H  H110  1  0.97109899  0.55208506  0.83156680  1
  H  H111  1  0.47109899  0.94791494  0.16843320  1
  H  H112  1  0.30405172  0.17367759  0.04371981  1
  H  H113  1  0.80405172  0.32632241  0.95628019  1
  H  H114  1  0.69594828  0.82632241  0.95628019  1
  H  H115  1  0.19594828  0.67367759  0.04371981  1
  H  H116  1  0.35979892  0.31610803  0.11426156  1
  H  H117  1  0.85979892  0.18389197  0.88573844  1
  H  H118  1  0.64020108  0.68389197  0.88573844  1
  H  H119  1  0.14020108  0.81610803  0.11426156  1
  H  H120  1  0.27005413  0.18796031  0.16594303  1
  H  H121  1  0.77005413  0.31203969  0.83405697  1
  H  H122  1  0.72994587  0.81203969  0.83405697  1
  H  H123  1  0.22994587  0.68796031  0.16594303  1
  H  H124  1  0.44462327  0.48502066  0.20554373  1
  H  H125  1  0.94462327  0.01497934  0.79445627  1
  H  H126  1  0.55537673  0.51497934  0.79445627  1
  H  H127  1  0.05537673  0.98502066  0.20554373  1
  H  H128  1  0.47989623  0.48161274  0.32876050  1
  H  H129  1  0.97989623  0.01838726  0.67123950  1
  H  H130  1  0.52010377  0.51838726  0.67123950  1
  H  H131  1  0.02010377  0.98161274  0.32876050  1
  H  H132  1  0.54600528  0.61087299  0.26847899  1
  H  H133  1  0.04600528  0.88912701  0.73152101  1
  H  H134  1  0.45399472  0.38912701  0.73152101  1
  H  H135  1  0.95399472  0.11087299  0.26847899  1
  H  H136  1  0.69864434  0.24180672  0.22733869  1
  H  H137  1  0.19864434  0.25819328  0.77266131  1
  H  H138  1  0.30135566  0.75819328  0.77266131  1
  H  H139  1  0.80135566  0.74180672  0.22733869  1
  H  H140  1  0.55771919  0.29440177  0.30814337  1
  H  H141  1  0.05771919  0.20559823  0.69185663  1
  H  H142  1  0.44228081  0.70559823  0.69185663  1
  H  H143  1  0.94228081  0.79440177  0.30814337  1
  H  H144  1  0.52717360  0.28530253  0.18408743  1
  H  H145  1  0.02717360  0.21469747  0.81591257  1
  H  H146  1  0.47282640  0.71469747  0.81591257  1
  H  H147  1  0.97282640  0.78530253  0.18408743  1
  H  H148  1  0.40269239  0.33201464  0.40490831  1
  H  H149  1  0.90269239  0.16798536  0.59509169  1
  H  H150  1  0.59730761  0.66798536  0.59509169  1
  H  H151  1  0.09730761  0.83201464  0.40490831  1
  H  H152  1  0.20931447  0.34498508  0.38899807  1
  H  H153  1  0.70931447  0.15501492  0.61100193  1
  H  H154  1  0.79068553  0.65501492  0.61100193  1
  H  H155  1  0.29068553  0.84498508  0.38899807  1
  H  H156  1  0.28650223  0.35576982  0.50391964  1
  H  H157  1  0.78650223  0.14423018  0.49608036  1
  H  H158  1  0.71349777  0.64423018  0.49608036  1
  H  H159  1  0.21349777  0.85576982  0.50391964  1
  H  H160  1  0.27313004  0.02393220  0.32617970  1
  H  H161  1  0.77313004  0.47606780  0.67382030  1
  H  H162  1  0.72686996  0.97606780  0.67382030  1
  H  H163  1  0.22686996  0.52393220  0.32617970  1
  H  H164  1  0.20348943  0.17547920  0.29768936  1
  H  H165  1  0.70348943  0.32452080  0.70231064  1
  H  H166  1  0.79651057  0.82452080  0.70231064  1
  H  H167  1  0.29651057  0.67547920  0.29768936  1
  H  H168  1  0.39606103  0.14955556  0.30742431  1
  H  H169  1  0.89606103  0.35044444  0.69257569  1
  H  H170  1  0.60393897  0.85044444  0.69257569  1
  H  H171  1  0.10393897  0.64955556  0.30742431  1
  C  C172  1  0.14455796  0.36390563  0.01606350  1
  C  C173  1  0.64455796  0.13609437  0.98393650  1
  C  C174  1  0.85544204  0.63609437  0.98393650  1
  C  C175  1  0.35544204  0.86390563  0.01606350  1
  C  C176  1  0.03688395  0.21649445  0.08216452  1
  C  C177  1  0.53688395  0.28350555  0.91783548  1
  C  C178  1  0.96311605  0.78350555  0.91783548  1
  C  C179  1  0.46311605  0.71649445  0.08216452  1
  C  C180  1  0.70148238  0.45809770  0.15742262  1
  C  C181  1  0.20148238  0.04190230  0.84257738  1
  C  C182  1  0.29851762  0.54190230  0.84257738  1
  C  C183  1  0.79851762  0.95809770  0.15742262  1
  C  C184  1  0.75335011  0.46656323  0.30286173  1
  C  C185  1  0.25335011  0.03343677  0.69713827  1
  C  C186  1  0.24664989  0.53343677  0.69713827  1
  C  C187  1  0.74664989  0.96656323  0.30286173  1
  C  C188  1  0.38786792  0.12758888  0.47866034  1
  C  C189  1  0.88786792  0.37241112  0.52133966  1
  C  C190  1  0.61213208  0.87241112  0.52133966  1
  C  C191  1  0.11213208  0.62758888  0.47866034  1
  C  C192  1  0.15754697  0.14633042  0.46898584  1
  C  C193  1  0.65754697  0.35366958  0.53101416  1
  C  C194  1  0.84245303  0.85366958  0.53101416  1
  C  C195  1  0.34245303  0.64633042  0.46898584  1
  N  N196  1  0.14256147  0.30168740  0.09166999  1
  N  N197  1  0.64256147  0.19831260  0.90833001  1
  N  N198  1  0.85743853  0.69831260  0.90833001  1
  N  N199  1  0.35743853  0.80168740  0.09166999  1
  N  N200  1  0.65065786  0.43616641  0.24032531  1
  N  N201  1  0.15065786  0.06383359  0.75967469  1
  N  N202  1  0.34934214  0.56383359  0.75967469  1
  N  N203  1  0.84934214  0.93616641  0.24032531  1
  N  N204  1  0.28213448  0.17538736  0.43072900  1
  N  N205  1  0.78213448  0.32461264  0.56927100  1
  N  N206  1  0.71786552  0.82461264  0.56927100  1
  N  N207  1  0.21786552  0.67538736  0.43072900  1
