# generated using pymatgen
data_NbNi6Mo
_symmetry_space_group_name_H-M   'P 1'
_cell_length_a   4.24673486
_cell_length_b   4.50952417
_cell_length_c   5.06007740
_cell_angle_alpha   90.00000000
_cell_angle_beta   90.00000000
_cell_angle_gamma   90.00000000
_symmetry_Int_Tables_number   1
_chemical_formula_structural   NbNi6Mo
_chemical_formula_sum   'Nb1 Ni6 Mo1'
_cell_volume   96.90429495
_cell_formula_units_Z   1
loop_
 _symmetry_equiv_pos_site_id
 _symmetry_equiv_pos_as_xyz
  1  'x, y, z'
loop_
 _atom_site_type_symbol
 _atom_site_label
 _atom_site_symmetry_multiplicity
 _atom_site_fract_x
 _atom_site_fract_y
 _atom_site_fract_z
 _atom_site_occupancy
  Nb  Nb0  1  0.25000000  0.65406407  0.25000000  1
  Ni  Ni1  1  0.25000000  0.66666170  0.75000000  1
  Ni  Ni2  1  0.75000000  0.32091908  0.25000000  1
  Ni  Ni3  1  0.75000000  0.84357102  0.99532170  1
  Ni  Ni4  1  0.75000000  0.84357102  0.50467830  1
  Ni  Ni5  1  0.25000000  0.16077258  0.99420164  1
  Ni  Ni6  1  0.25000000  0.16077258  0.50579836  1
  Mo  Mo7  1  0.75000000  0.34966793  0.75000000  1
