# generated using pymatgen
data_Nd2FeSbO7
_symmetry_space_group_name_H-M   'P 1'
_cell_length_a   7.45942669
_cell_length_b   7.42847710
_cell_length_c   7.49945581
_cell_angle_alpha   90.00000000
_cell_angle_beta   59.82232665
_cell_angle_gamma   119.86284500
_symmetry_Int_Tables_number   1
_chemical_formula_structural   Nd2FeSbO7
_chemical_formula_sum   'Nd4 Fe2 Sb2 O14'
_cell_volume   293.66387075
_cell_formula_units_Z   2
loop_
 _symmetry_equiv_pos_site_id
 _symmetry_equiv_pos_as_xyz
  1  'x, y, z'
loop_
 _atom_site_type_symbol
 _atom_site_label
 _atom_site_symmetry_multiplicity
 _atom_site_fract_x
 _atom_site_fract_y
 _atom_site_fract_z
 _atom_site_occupancy
  Nd  Nd0  1  0.50000000  0.50000000  -0.00000000  1
  Nd  Nd1  1  0.50000000  0.00000000  -0.00000000  1
  Nd  Nd2  1  0.00000000  0.00000000  0.50000000  1
  Nd  Nd3  1  0.00000000  0.00000000  -0.00000000  1
  Fe  Fe4  1  0.50000000  0.00000000  0.50000000  1
  Fe  Fe5  1  0.50000000  0.50000000  0.50000000  1
  Sb  Sb6  1  0.00000000  0.50000000  -0.00000000  1
  Sb  Sb7  1  0.00000000  0.50000000  0.50000000  1
  O  O8  1  0.25233318  0.12616659  0.12383341  1
  O  O9  1  0.74766682  0.87383341  0.87616659  1
  O  O10  1  0.66678897  0.83339448  0.41660552  1
  O  O11  1  0.84584812  0.42292406  0.82707594  1
  O  O12  1  0.24949882  0.82467945  0.83518915  1
  O  O13  1  0.24949882  0.42481937  0.41531203  1
  O  O14  1  0.24949882  0.42481937  0.83518915  1
  O  O15  1  0.24949882  0.82467945  0.41531203  1
  O  O16  1  0.33321103  0.16660552  0.58339448  1
  O  O17  1  0.15415188  0.57707594  0.17292406  1
  O  O18  1  0.75050118  0.17532055  0.16481085  1
  O  O19  1  0.75050118  0.57518063  0.58468797  1
  O  O20  1  0.75050118  0.57518063  0.16481085  1
  O  O21  1  0.75050118  0.17532055  0.58468797  1
