# generated using pymatgen
data_Sc36In5Co13
_symmetry_space_group_name_H-M   'P 1'
_cell_length_a   7.80057691
_cell_length_b   7.80057691
_cell_length_c   19.74079081
_cell_angle_alpha   80.17640355
_cell_angle_beta   85.38003661
_cell_angle_gamma   111.37002635
_symmetry_Int_Tables_number   1
_chemical_formula_structural   Sc36In5Co13
_chemical_formula_sum   'Sc36 In5 Co13'
_cell_volume   1088.80534480
_cell_formula_units_Z   1
loop_
 _symmetry_equiv_pos_site_id
 _symmetry_equiv_pos_as_xyz
  1  'x, y, z'
loop_
 _atom_site_type_symbol
 _atom_site_label
 _atom_site_symmetry_multiplicity
 _atom_site_fract_x
 _atom_site_fract_y
 _atom_site_fract_z
 _atom_site_occupancy
  Sc  Sc0  1  0.77013668  0.22333098  0.00653134  1
  Sc  Sc1  1  0.10406679  0.55582766  0.34010655  1
  Sc  Sc2  1  0.45512799  0.87003572  0.67483628  1
  Sc  Sc3  1  0.56319632  0.11000202  0.32680166  1
  Sc  Sc4  1  0.87820501  0.46329728  0.65849672  1
  Sc  Sc5  1  0.22926721  0.77750634  0.99322745  1
  Sc  Sc6  1  0.41957347  0.39810907  0.18231846  1
  Sc  Sc7  1  0.74682343  0.72271175  0.53046482  1
  Sc  Sc8  1  0.08817947  0.06523058  0.84658895  1
  Sc  Sc9  1  0.91376053  0.93522493  0.15101554  1
  Sc  Sc10  1  0.24515353  0.26810242  0.48674405  1
  Sc  Sc11  1  0.58650957  0.61062125  0.80286818  1
  Sc  Sc12  1  0.49320969  0.80589915  0.10457179  1
  Sc  Sc13  1  0.82556862  0.13529674  0.43914914  1
  Sc  Sc14  1  0.15468776  0.47319371  0.77016334  1
  Sc  Sc15  1  0.24380394  0.93111447  0.22876121  1
  Sc  Sc16  1  0.57669005  0.25818410  0.56317066  1
  Sc  Sc17  1  0.90777989  0.59805176  0.89418386  1
  Sc  Sc18  1  0.84012331  0.52743385  0.22876121  1
  Sc  Sc19  1  0.17864624  0.86014029  0.56317066  1
  Sc  Sc20  1  0.50776438  0.19803626  0.89418386  1
  Sc  Sc21  1  0.08952906  0.40221853  0.10457179  1
  Sc  Sc22  1  0.42555311  0.73528124  0.43914914  1
  Sc  Sc23  1  0.75664395  0.07514990  0.77016334  1
  Sc  Sc24  1  0.98506493  0.17466239  0.26999168  1
  Sc  Sc25  1  0.33306438  0.51456248  0.60763563  1
  Sc  Sc26  1  0.65098279  0.84098334  0.93491094  1
  Sc  Sc27  1  0.77798707  0.58838961  0.06334232  1
  Sc  Sc28  1  0.10922827  0.91922772  0.39842206  1
  Sc  Sc29  1  0.45553110  0.27403301  0.72569737  1
  Sc  Sc30  1  0.55534693  0.74494439  0.26999168  1
  Sc  Sc31  1  0.87780190  0.05929999  0.60763563  1
  Sc  Sc32  1  0.22410473  0.41410528  0.93491094  1
  Sc  Sc33  1  0.34826907  0.15867161  0.06334232  1
  Sc  Sc34  1  0.68235021  0.49234966  0.39842206  1
  Sc  Sc35  1  0.00026862  0.81877052  0.72569737  1
  In  In36  1  0.66666700  0.16666700  0.16666700  1
  In  In37  1  0.00014125  0.49973393  0.50012482  1
  In  In38  1  0.33319175  0.83359907  0.83320818  1
  In  In39  1  0.99981438  0.00088600  0.99929962  1
  In  In40  1  0.33351862  0.33244700  0.33403338  1
  Co  Co41  1  0.12185559  0.75530783  0.12283559  1
  Co  Co42  1  0.45563002  0.08804457  0.45632641  1
  Co  Co43  1  0.78905724  0.42202499  0.78891776  1
  Co  Co44  1  0.21147741  0.57802517  0.21049741  1
  Co  Co45  1  0.54427576  0.91130801  0.54441524  1
  Co  Co46  1  0.87770398  0.24528943  0.87700759  1
  Co  Co47  1  0.66666700  0.66666700  0.66666700  1
  Co  Co48  1  0.41950025  0.54195369  0.03854507  1
  Co  Co49  1  0.75202818  0.87647704  0.37149578  1
  Co  Co50  1  0.08953677  0.20378713  0.70667610  1
  Co  Co51  1  0.91383275  0.79137931  0.29478793  1
  Co  Co52  1  0.24379623  0.12954587  0.62665690  1
  Co  Co53  1  0.58130582  0.45685696  0.96183822  1
