# generated using pymatgen
data_Nd2Si2PbSe8
_symmetry_space_group_name_H-M   'P 1'
_cell_length_a   9.46261863
_cell_length_b   9.43888489
_cell_length_c   10.91378235
_cell_angle_alpha   63.26920797
_cell_angle_beta   64.30904192
_cell_angle_gamma   59.91679063
_symmetry_Int_Tables_number   1
_chemical_formula_structural   Nd2Si2PbSe8
_chemical_formula_sum   'Nd4 Si4 Pb2 Se16'
_cell_volume   725.52236695
_cell_formula_units_Z   2
loop_
 _symmetry_equiv_pos_site_id
 _symmetry_equiv_pos_as_xyz
  1  'x, y, z'
loop_
 _atom_site_type_symbol
 _atom_site_label
 _atom_site_symmetry_multiplicity
 _atom_site_fract_x
 _atom_site_fract_y
 _atom_site_fract_z
 _atom_site_occupancy
  Nd  Nd0  1  0.06307133  0.43797460  0.74862653  1
  Nd  Nd1  1  0.43820975  0.75041374  0.75288945  1
  Nd  Nd2  1  0.25032754  0.93797460  0.24862653  1
  Nd  Nd3  1  0.55848705  0.25041374  0.25288945  1
  Si  Si4  1  0.65537151  0.65733678  0.02145047  1
  Si  Si5  1  0.16584125  0.15733678  0.52145047  1
  Si  Si6  1  0.33590259  0.34204175  0.97776092  1
  Si  Si7  1  0.84429474  0.84204175  0.47776092  1
  Pb  Pb8  1  0.74981601  0.07214990  0.74990204  1
  Pb  Pb9  1  0.92813204  0.57214990  0.24990204  1
  Se  Se10  1  0.89680320  0.71329783  0.92713502  1
  Se  Se11  1  0.71630919  0.43803506  0.94307047  1
  Se  Se12  1  0.43346326  0.89570938  0.94599400  1
  Se  Se13  1  0.40258528  0.93803506  0.44307047  1
  Se  Se14  1  0.96276395  0.21329783  0.42713502  1
  Se  Se15  1  0.22483336  0.39570938  0.44599400  1
  Se  Se16  1  0.10444708  0.27570104  0.04911770  1
  Se  Se17  1  0.28272613  0.54995064  0.06423832  1
  Se  Se18  1  0.54459995  0.09883864  0.07022993  1
  Se  Se19  1  0.60308490  0.04995064  0.56423832  1
  Se  Se20  1  0.07073418  0.77570104  0.54911770  1
  Se  Se21  1  0.78633148  0.59883864  0.57022993  1
  Se  Se22  1  0.56588996  0.57529305  0.26649423  1
  Se  Se23  1  0.09232276  0.07529305  0.76649423  1
  Se  Se24  1  0.40613600  0.44325759  0.73309090  1
  Se  Se25  1  0.91751551  0.94325759  0.23309090  1
