# generated using pymatgen
data_Nb3Ag2TeS6
_symmetry_space_group_name_H-M   'P 1'
_cell_length_a   5.78962823
_cell_length_b   5.78962823
_cell_length_c   8.30216134
_cell_angle_alpha   90.00000000
_cell_angle_beta   90.00000000
_cell_angle_gamma   120.09955690
_symmetry_Int_Tables_number   1
_chemical_formula_structural   Nb3Ag2TeS6
_chemical_formula_sum   'Nb3 Ag2 Te1 S6'
_cell_volume   240.76125325
_cell_formula_units_Z   1
loop_
 _symmetry_equiv_pos_site_id
 _symmetry_equiv_pos_as_xyz
  1  'x, y, z'
loop_
 _atom_site_type_symbol
 _atom_site_label
 _atom_site_symmetry_multiplicity
 _atom_site_fract_x
 _atom_site_fract_y
 _atom_site_fract_z
 _atom_site_occupancy
  Nb  Nb0  1  0.96582191  0.30462414  0.50000000  1
  Nb  Nb1  1  0.30462414  0.96582191  0.50000000  1
  Nb  Nb2  1  0.62811701  0.62811701  0.50000000  1
  Ag  Ag3  1  0.33294299  0.64870919  0.00000000  1
  Ag  Ag4  1  0.64870919  0.33294299  0.00000000  1
  Te  Te5  1  0.96450607  0.96450607  0.00000000  1
  S  S6  1  0.63315260  0.30019434  0.69182254  1
  S  S7  1  0.30019434  0.63315260  0.30817746  1
  S  S8  1  0.63315260  0.30019434  0.30817746  1
  S  S9  1  0.30019434  0.63315260  0.69182254  1
  S  S10  1  0.96584240  0.96584240  0.31675822  1
  S  S11  1  0.96584240  0.96584240  0.68324178  1
