# generated using pymatgen
data_Nb6Pd2Se15
_symmetry_space_group_name_H-M   'P 1'
_cell_length_a   8.37924959
_cell_length_b   15.80149966
_cell_length_c   8.37742346
_cell_angle_alpha   95.72540744
_cell_angle_beta   75.76111846
_cell_angle_gamma   103.33573077
_symmetry_Int_Tables_number   1
_chemical_formula_structural   Nb6Pd2Se15
_chemical_formula_sum   'Nb12 Pd4 Se30'
_cell_volume   1045.05389923
_cell_formula_units_Z   2
loop_
 _symmetry_equiv_pos_site_id
 _symmetry_equiv_pos_as_xyz
  1  'x, y, z'
loop_
 _atom_site_type_symbol
 _atom_site_label
 _atom_site_symmetry_multiplicity
 _atom_site_fract_x
 _atom_site_fract_y
 _atom_site_fract_z
 _atom_site_occupancy
  Nb  Nb0  1  0.43332034  0.37764641  0.63782467  1
  Nb  Nb1  1  0.76399241  0.37787773  0.30758190  1
  Nb  Nb2  1  0.09909008  0.37956374  0.97284620  1
  Nb  Nb3  1  0.56757291  0.62039539  0.36047262  1
  Nb  Nb4  1  0.90267887  0.62209585  0.02574582  1
  Nb  Nb5  1  0.23331965  0.62231401  0.69551227  1
  Nb  Nb6  1  0.54384207  0.18174424  0.48418188  1
  Nb  Nb7  1  0.87612385  0.18004431  0.15188756  1
  Nb  Nb8  1  0.21180947  0.18034053  0.81588262  1
  Nb  Nb9  1  0.45486487  0.81970067  0.51743812  1
  Nb  Nb10  1  0.79056442  0.81998484  0.18143538  1
  Nb  Nb11  1  0.12281475  0.81828755  0.84915829  1
  Pd  Pd12  1  0.33333229  -0.00000651  0.66665434  1
  Pd  Pd13  1  0.66650654  0.00025254  0.33376207  1
  Pd  Pd14  1  0.00016101  0.99974615  0.99957476  1
  Pd  Pd15  1  0.33332555  0.49999768  0.16665406  1
  Se  Se16  1  0.22685311  0.09933123  0.52696038  1
  Se  Se17  1  0.55994353  0.09940717  0.19426844  1
  Se  Se18  1  0.89405920  0.09950381  0.86094548  1
  Se  Se19  1  0.77264278  0.90048572  0.47236932  1
  Se  Se20  1  0.10675189  0.90060083  0.13909465  1
  Se  Se21  1  0.43982657  0.90069158  0.80642656  1
  Se  Se22  1  0.16051983  0.13191965  0.11694638  1
  Se  Se23  1  0.49471220  0.13217906  0.78430283  1
  Se  Se24  1  0.82739377  0.13222395  0.45159427  1
  Se  Se25  1  0.83924080  0.86774829  0.88169842  1
  Se  Se26  1  0.17191258  0.86783754  0.54899090  1
  Se  Se27  1  0.50614706  0.86808035  0.21635279  1
  Se  Se28  1  0.44510263  0.29562189  0.34645117  1
  Se  Se29  1  0.77925394  0.29705859  0.01472918  1
  Se  Se30  1  0.11330528  0.29715302  0.68003320  1
  Se  Se31  1  0.55331724  0.70282736  0.65336159  1
  Se  Se32  1  0.88747607  0.70294381  0.31862561  1
  Se  Se33  1  0.22158035  0.70437944  0.98685239  1
  Se  Se34  1  0.30808498  0.49009981  0.48259270  1
  Se  Se35  1  0.64686095  0.49004494  0.14352780  1
  Se  Se36  1  0.97881168  0.49087178  0.81481952  1
  Se  Se37  1  0.68784781  0.50913732  0.51852005  1
  Se  Se38  1  0.01981747  0.50994719  0.18977661  1
  Se  Se39  1  0.35861083  0.50991164  0.85076843  1
  Se  Se40  1  0.71333006  0.32365158  0.60504297  1
  Se  Se41  1  0.04290549  0.32261137  0.27153639  1
  Se  Se42  1  0.37961357  0.32278847  0.93516854  1
  Se  Se43  1  0.28703480  0.67720879  0.39818741  1
  Se  Se44  1  0.62375781  0.67740490  0.06179201  1
  Se  Se45  1  0.95329963  0.67634376  0.72831844  1
