# generated using pymatgen
data_Nb4P2S21
_symmetry_space_group_name_H-M   'P 1'
_cell_length_a   7.79927845
_cell_length_b   13.19404407
_cell_length_c   14.09341235
_cell_angle_alpha   101.93607482
_cell_angle_beta   73.93668715
_cell_angle_gamma   90.00000000
_symmetry_Int_Tables_number   1
_chemical_formula_structural   Nb4P2S21
_chemical_formula_sum   'Nb8 P4 S42'
_cell_volume   1360.98503190
_cell_formula_units_Z   2
loop_
 _symmetry_equiv_pos_site_id
 _symmetry_equiv_pos_as_xyz
  1  'x, y, z'
loop_
 _atom_site_type_symbol
 _atom_site_label
 _atom_site_symmetry_multiplicity
 _atom_site_fract_x
 _atom_site_fract_y
 _atom_site_fract_z
 _atom_site_occupancy
  Nb  Nb0  1  0.41876811  0.42853233  0.28385121  1
  Nb  Nb1  1  0.70261931  0.07146767  0.71614879  1
  Nb  Nb2  1  0.58273155  0.57140288  0.71565842  1
  Nb  Nb3  1  0.29838997  0.92859712  0.28434158  1
  Nb  Nb4  1  0.29566063  0.22006258  0.28285362  1
  Nb  Nb5  1  0.57851425  0.27993742  0.71714638  1
  Nb  Nb6  1  0.70350707  0.77980261  0.71655911  1
  Nb  Nb7  1  0.42006618  0.72019739  0.28344089  1
  P  P8  1  0.00986603  0.05846017  0.21769630  1
  P  P9  1  0.22756233  0.44153983  0.78230370  1
  P  P10  1  0.99032745  0.94025527  0.78208774  1
  P  P11  1  0.77241519  0.55974473  0.21791226  1
  S  S12  1  0.41024723  0.33082255  0.41850308  1
  S  S13  1  0.82875031  0.16917745  0.58149692  1
  S  S14  1  0.58991579  0.66877024  0.58063424  1
  S  S15  1  0.17055003  0.83122976  0.41936576  1
  S  S16  1  0.74558201  0.44901520  0.30010716  1
  S  S17  1  0.04568917  0.05098480  0.69989284  1
  S  S18  1  0.25787701  0.55350050  0.70148551  1
  S  S19  1  0.95936252  0.94649950  0.29851449  1
  S  S20  1  0.55047676  0.26725470  0.14891659  1
  S  S21  1  0.69939335  0.23274530  0.85108341  1
  S  S22  1  0.45009873  0.73285100  0.85067198  1
  S  S23  1  0.30077071  0.76714900  0.14932802  1
  S  S24  1  0.95392122  0.20764309  0.29319520  1
  S  S25  1  0.24711642  0.29235691  0.70680480  1
  S  S26  1  0.04115301  0.79059057  0.70754034  1
  S  S27  1  0.74869335  0.70940943  0.29245966  1
  S  S28  1  0.24070432  0.10364459  0.41476544  1
  S  S29  1  0.65546976  0.39635541  0.58523456  1
  S  S30  1  0.75889346  0.89703741  0.58517179  1
  S  S31  1  0.34406524  0.60296259  0.41482821  1
  S  S32  1  0.16366091  0.37721867  0.41712940  1
  S  S33  1  0.58079032  0.12278133  0.58287060  1
  S  S34  1  0.83674541  0.62290560  0.58187296  1
  S  S35  1  0.41861837  0.87709440  0.41812704  1
  S  S36  1  0.28106699  0.04334904  0.14850456  1
  S  S37  1  0.42957155  0.45665096  0.85149544  1
  S  S38  1  0.71932080  0.95616371  0.85169917  1
  S  S39  1  0.57101997  0.54383629  0.14830083  1
  S  S40  1  0.85625141  0.03459797  0.10938362  1
  S  S41  1  0.96563503  0.46540203  0.89061638  1
  S  S42  1  0.14542502  0.97137067  0.89018604  1
  S  S43  1  0.03561106  0.52862933  0.10981396  1
  S  S44  1  0.30619695  0.32125268  0.14671802  1
  S  S45  1  0.45291497  0.17874732  0.85328198  1
  S  S46  1  0.69419034  0.67847847  0.85263138  1
  S  S47  1  0.54682173  0.82152153  0.14736862  1
  S  S48  1  0.49316523  0.08253245  0.31722026  1
  S  S49  1  0.81038549  0.41746755  0.68277974  1
  S  S50  1  0.50670039  0.91745673  0.68299451  1
  S  S51  1  0.18969489  0.58254327  0.31700549  1
  S  S52  1  0.00173722  0.59257852  0.99458028  1
  S  S53  1  0.99631749  0.90742148  0.00541972  1
