# generated using pymatgen
data_Nb8Co2Sb4Pd
_symmetry_space_group_name_H-M   'P 1'
_cell_length_a   4.94191119
_cell_length_b   7.87519545
_cell_length_c   7.87519545
_cell_angle_alpha   95.64981038
_cell_angle_beta   108.28623498
_cell_angle_gamma   71.71376502
_symmetry_Int_Tables_number   1
_chemical_formula_structural   Nb8Co2Sb4Pd
_chemical_formula_sum   'Nb8 Co2 Sb4 Pd1'
_cell_volume   276.31748477
_cell_formula_units_Z   1
loop_
 _symmetry_equiv_pos_site_id
 _symmetry_equiv_pos_as_xyz
  1  'x, y, z'
loop_
 _atom_site_type_symbol
 _atom_site_label
 _atom_site_symmetry_multiplicity
 _atom_site_fract_x
 _atom_site_fract_y
 _atom_site_fract_z
 _atom_site_occupancy
  Nb  Nb0  1  0.41477630  0.87588604  0.71728988  1
  Nb  Nb1  1  0.57337246  0.12411396  0.28271012  1
  Nb  Nb2  1  0.92662754  0.28271012  0.12411396  1
  Nb  Nb3  1  0.08522370  0.71728988  0.87588604  1
  Nb  Nb4  1  0.70933766  0.71728988  0.12411396  1
  Nb  Nb5  1  0.30251358  0.28271012  0.87588604  1
  Nb  Nb6  1  0.79066234  0.12411396  0.71728988  1
  Nb  Nb7  1  0.19748642  0.87588604  0.28271012  1
  Co  Co8  1  0.25000000  0.00000000  0.00000000  1
  Co  Co9  1  0.75000000  0.00000000  0.00000000  1
  Sb  Sb10  1  0.37396283  0.50000000  0.19611143  1
  Sb  Sb11  1  0.67785141  0.50000000  0.80388857  1
  Sb  Sb12  1  0.82214859  0.80388857  0.50000000  1
  Sb  Sb13  1  0.12603717  0.19611143  0.50000000  1
  Pd  Pd14  1  0.25000000  0.50000000  0.50000000  1
