# generated using pymatgen
data_NaNb4Bi5O18
_symmetry_space_group_name_H-M   'P 1'
_cell_length_a   5.54428101
_cell_length_b   5.60396184
_cell_length_c   12.89972076
_cell_angle_alpha   90.08627674
_cell_angle_beta   77.59038252
_cell_angle_gamma   90.40147839
_symmetry_Int_Tables_number   1
_chemical_formula_structural   NaNb4Bi5O18
_chemical_formula_sum   'Na1 Nb4 Bi5 O18'
_cell_volume   391.41987845
_cell_formula_units_Z   1
loop_
 _symmetry_equiv_pos_site_id
 _symmetry_equiv_pos_as_xyz
  1  'x, y, z'
loop_
 _atom_site_type_symbol
 _atom_site_label
 _atom_site_symmetry_multiplicity
 _atom_site_fract_x
 _atom_site_fract_y
 _atom_site_fract_z
 _atom_site_occupancy
  Na  Na0  1  0.74114366  0.49044784  0.00000000  1
  Nb  Nb1  1  0.66486855  0.96132235  0.16726884  1
  Nb  Nb2  1  0.83213738  0.96132235  0.83273116  1
  Nb  Nb3  1  0.32657933  0.46766827  0.83111248  1
  Nb  Nb4  1  0.15769182  0.46766827  0.16888752  1
  Bi  Bi5  1  0.48074429  0.01362094  0.60057585  1
  Bi  Bi6  1  0.08132013  0.01362094  0.39942415  1
  Bi  Bi7  1  0.52038765  0.51343537  0.39966565  1
  Bi  Bi8  1  0.92005329  0.51343537  0.60033435  1
  Bi  Bi9  1  0.23462479  0.01201155  0.00000000  1
  O  O10  1  0.60417254  0.21805800  0.86974724  1
  O  O11  1  0.47391977  0.21805800  0.13025276  1
  O  O12  1  0.39375179  0.72478903  0.13176004  1
  O  O13  1  0.52551183  0.72478903  0.86823996  1
  O  O14  1  0.52315069  0.93744986  0.31439904  1
  O  O15  1  0.83754972  0.93744986  0.68560096  1
  O  O16  1  0.48034819  0.43208841  0.68552380  1
  O  O17  1  0.16587200  0.43208841  0.31447620  1
  O  O18  1  0.14543892  0.13169324  0.82706333  1
  O  O19  1  0.97250225  0.13169324  0.17293667  1
  O  O20  1  0.86167824  0.63819184  0.17891221  1
  O  O21  1  0.04059046  0.63819184  0.82108779  1
  O  O22  1  0.83311110  0.92002059  0.00000000  1
  O  O23  1  0.18033516  0.40684639  0.00000000  1
  O  O24  1  0.25901431  0.23856555  0.50330799  1
  O  O25  1  0.76232230  0.23856555  0.49669201  1
  O  O26  1  0.74180062  0.73865395  0.49757860  1
  O  O27  1  0.23937922  0.73865395  0.50242140  1
