# generated using pymatgen
data_NaSO3F
_symmetry_space_group_name_H-M   'P 1'
_cell_length_a   5.56767709
_cell_length_b   5.56766552
_cell_length_c   6.79288380
_cell_angle_alpha   89.99637133
_cell_angle_beta   90.00359657
_cell_angle_gamma   119.98606069
_symmetry_Int_Tables_number   1
_chemical_formula_structural   NaSO3F
_chemical_formula_sum   'Na2 S2 O6 F2'
_cell_volume   182.38662093
_cell_formula_units_Z   2
loop_
 _symmetry_equiv_pos_site_id
 _symmetry_equiv_pos_as_xyz
  1  'x, y, z'
loop_
 _atom_site_type_symbol
 _atom_site_label
 _atom_site_symmetry_multiplicity
 _atom_site_fract_x
 _atom_site_fract_y
 _atom_site_fract_z
 _atom_site_occupancy
  Na  Na0  1  0.00000000  -0.00000000  0.50000000  1
  Na  Na1  1  0.00000000  -0.00000000  -0.00000000  1
  S  S2  1  0.66680523  0.33319422  0.71012090  1
  S  S3  1  0.33319477  0.66680578  0.28987910  1
  O  O4  1  0.81397464  0.62797822  0.75563953  1
  O  O5  1  0.81389232  0.18613908  0.75561941  1
  O  O6  1  0.37202262  0.18599239  0.75563931  1
  O  O7  1  0.18602536  0.37202178  0.24436047  1
  O  O8  1  0.18610768  0.81386092  0.24438059  1
  O  O9  1  0.62797738  0.81400761  0.24436069  1
  F  F10  1  0.66667641  0.33332435  0.47061418  1
  F  F11  1  0.33332359  0.66667565  0.52938582  1
