# generated using pymatgen
data_NaSr2(SnAs)6
_symmetry_space_group_name_H-M   'P 1'
_cell_length_a   7.24540572
_cell_length_b   7.24590440
_cell_length_c   9.52130802
_cell_angle_alpha   75.24350846
_cell_angle_beta   97.31732072
_cell_angle_gamma   120.00227183
_symmetry_Int_Tables_number   1
_chemical_formula_structural   NaSr2(SnAs)6
_chemical_formula_sum   'Na1 Sr2 Sn6 As6'
_cell_volume   418.60726549
_cell_formula_units_Z   1
loop_
 _symmetry_equiv_pos_site_id
 _symmetry_equiv_pos_as_xyz
  1  'x, y, z'
loop_
 _atom_site_type_symbol
 _atom_site_label
 _atom_site_symmetry_multiplicity
 _atom_site_fract_x
 _atom_site_fract_y
 _atom_site_fract_z
 _atom_site_occupancy
  Na  Na0  1  0.00000000  0.00000000  -0.00000000  1
  Sr  Sr1  1  0.66692289  0.33346094  0.00000000  1
  Sr  Sr2  1  0.33307711  0.66653906  1.00000000  1
  Sn  Sn3  1  0.33400412  0.87538337  0.37284979  1
  Sn  Sn4  1  0.00000000  0.21031253  0.37285470  1
  Sn  Sn5  1  0.66599588  0.54137824  0.37284979  1
  Sn  Sn6  1  0.66599588  0.12461663  0.62715021  1
  Sn  Sn7  1  0.33400412  0.45862176  0.62715021  1
  Sn  Sn8  1  1.00000000  0.78968747  0.62714530  1
  As  As9  1  0.00000000  0.40596081  0.77773634  1
  As  As10  1  0.66814246  0.74219913  0.77748989  1
  As  As11  1  0.33185754  0.07405767  0.77748989  1
  As  As12  1  1.00000000  0.59403919  0.22226366  1
  As  As13  1  0.66814246  0.92594233  0.22251011  1
  As  As14  1  0.33185754  0.25780087  0.22251011  1
