# generated using pymatgen
data_Na4Sr2TiP4
_symmetry_space_group_name_H-M   'P 1'
_cell_length_a   7.43955515
_cell_length_b   9.39487225
_cell_length_c   9.39540409
_cell_angle_alpha   59.68982461
_cell_angle_beta   89.73378885
_cell_angle_gamma   90.27029522
_symmetry_Int_Tables_number   1
_chemical_formula_structural   Na4Sr2TiP4
_chemical_formula_sum   'Na8 Sr4 Ti2 P8'
_cell_volume   566.89002603
_cell_formula_units_Z   2
loop_
 _symmetry_equiv_pos_site_id
 _symmetry_equiv_pos_as_xyz
  1  'x, y, z'
loop_
 _atom_site_type_symbol
 _atom_site_label
 _atom_site_symmetry_multiplicity
 _atom_site_fract_x
 _atom_site_fract_y
 _atom_site_fract_z
 _atom_site_occupancy
  Na  Na0  1  0.38762748  0.52994385  0.93709233  1
  Na  Na1  1  0.88767240  0.06282463  0.47008664  1
  Na  Na2  1  0.20752767  0.13053308  0.73232414  1
  Na  Na3  1  0.23150041  0.72386452  0.12835853  1
  Na  Na4  1  0.22332036  0.14568029  0.13208021  1
  Na  Na5  1  0.73143877  0.87154627  0.27630036  1
  Na  Na6  1  0.70749389  0.26764124  0.86946706  1
  Na  Na7  1  0.72338341  0.86792440  0.85430682  1
  Sr  Sr8  1  0.39147369  0.94322210  0.53428313  1
  Sr  Sr9  1  0.38965322  0.52190209  0.53682230  1
  Sr  Sr10  1  0.89143284  0.46570847  0.05678154  1
  Sr  Sr11  1  0.88964106  0.46316363  0.47809475  1
  Ti  Ti12  1  0.49805230  0.33753823  0.32658729  1
  Ti  Ti13  1  0.99812315  0.67338825  0.66253523  1
  P  P14  1  0.17507221  0.33485388  0.33730103  1
  P  P15  1  0.67499974  0.66265996  0.66518376  1
  P  P16  1  0.11163719  0.80481797  0.38512025  1
  P  P17  1  0.09393282  0.38561504  0.80589723  1
  P  P18  1  0.09973938  0.80557458  0.80749895  1
  P  P19  1  0.59386608  0.19418086  0.61421545  1
  P  P20  1  0.61157379  0.61480118  0.19519255  1
  P  P21  1  0.59963815  0.19261548  0.19447042  1
