# generated using pymatgen
data_Na3Be3Pb2F13
_symmetry_space_group_name_H-M   'P 1'
_cell_length_a   7.14954226
_cell_length_b   9.55718429
_cell_length_c   9.64725109
_cell_angle_alpha   119.54862944
_cell_angle_beta   90.00000000
_cell_angle_gamma   90.00000000
_symmetry_Int_Tables_number   1
_chemical_formula_structural   Na3Be3Pb2F13
_chemical_formula_sum   'Na6 Be6 Pb4 F26'
_cell_volume   573.45560647
_cell_formula_units_Z   2
loop_
 _symmetry_equiv_pos_site_id
 _symmetry_equiv_pos_as_xyz
  1  'x, y, z'
loop_
 _atom_site_type_symbol
 _atom_site_label
 _atom_site_symmetry_multiplicity
 _atom_site_fract_x
 _atom_site_fract_y
 _atom_site_fract_z
 _atom_site_occupancy
  Na  Na0  1  0.49378890  0.66157843  0.32263587  1
  Na  Na1  1  0.99378890  0.33842157  0.67736413  1
  Na  Na2  1  0.50711390  0.33960446  0.67736536  1
  Na  Na3  1  0.00711390  0.66039554  0.32263464  1
  Na  Na4  1  0.75862503  0.25948391  0.00337379  1
  Na  Na5  1  0.25862503  0.74051609  0.99662621  1
  Be  Be6  1  0.75064003  0.97346563  0.59504829  1
  Be  Be7  1  0.75088584  0.40684637  0.37513607  1
  Be  Be8  1  0.75290384  0.62609443  0.03000032  1
  Be  Be9  1  0.25064003  0.02653437  0.40495171  1
  Be  Be10  1  0.25088584  0.59315363  0.62486393  1
  Be  Be11  1  0.25290384  0.37390557  0.96999968  1
  Pb  Pb12  1  0.75256885  0.00782213  0.24010792  1
  Pb  Pb13  1  0.75374683  0.74939866  0.76407389  1
  Pb  Pb14  1  0.25256885  0.99217787  0.75989208  1
  Pb  Pb15  1  0.25374683  0.25060134  0.23592611  1
  F  F16  1  0.57594940  0.91918633  0.65937067  1
  F  F17  1  0.57841234  0.33799260  0.25866132  1
  F  F18  1  0.57936333  0.74498495  0.07750511  1
  F  F19  1  0.07594940  0.08081367  0.34062933  1
  F  F20  1  0.07841234  0.66200740  0.74133868  1
  F  F21  1  0.07936333  0.25501505  0.92249489  1
  F  F22  1  0.42327459  0.08851960  0.34783628  1
  F  F23  1  0.42500898  0.65352110  0.73767051  1
  F  F24  1  0.42764785  0.25669295  0.91656929  1
  F  F25  1  0.92327459  0.91148040  0.65216372  1
  F  F26  1  0.92500898  0.34647890  0.26232949  1
  F  F27  1  0.92764785  0.74330705  0.08343071  1
  F  F28  1  0.74780200  0.87445279  0.40852732  1
  F  F29  1  0.74697120  0.59432371  0.46339187  1
  F  F30  1  0.74778230  0.53343582  0.12318297  1
  F  F31  1  0.24780200  0.12554721  0.59147268  1
  F  F32  1  0.24697120  0.40567629  0.53660813  1
  F  F33  1  0.24778230  0.46656418  0.87681703  1
  F  F34  1  0.75322522  0.15604460  0.66212567  1
  F  F35  1  0.75161476  0.34164436  0.49481617  1
  F  F36  1  0.75413992  0.51444510  0.84577732  1
  F  F37  1  0.25322522  0.84395540  0.33787433  1
  F  F38  1  0.25161476  0.65835564  0.50518383  1
  F  F39  1  0.25413992  0.48555490  0.15422268  1
  F  F40  1  0.81353490  0.00952203  0.99340855  1
  F  F41  1  0.31353490  0.99047797  0.00659145  1
