# generated using pymatgen
data_NaNi2Mo2H3O10
_symmetry_space_group_name_H-M   'P 1'
_cell_length_a   5.68217028
_cell_length_b   5.68217028
_cell_length_c   7.68024077
_cell_angle_alpha   68.40767544
_cell_angle_beta   68.40767544
_cell_angle_gamma   68.10223253
_symmetry_Int_Tables_number   1
_chemical_formula_structural   NaNi2Mo2H3O10
_chemical_formula_sum   'Na1 Ni2 Mo2 H3 O10'
_cell_volume   206.14132526
_cell_formula_units_Z   1
loop_
 _symmetry_equiv_pos_site_id
 _symmetry_equiv_pos_as_xyz
  1  'x, y, z'
loop_
 _atom_site_type_symbol
 _atom_site_label
 _atom_site_symmetry_multiplicity
 _atom_site_fract_x
 _atom_site_fract_y
 _atom_site_fract_z
 _atom_site_occupancy
  Na  Na0  1  0.50007538  0.49992462  0.50000000  1
  Ni  Ni1  1  0.00539632  0.49800677  0.99961917  1
  Ni  Ni2  1  0.50199323  0.99460368  0.00038083  1
  Mo  Mo3  1  0.92209741  0.92204282  0.28088076  1
  Mo  Mo4  1  0.07795718  0.07790259  0.71911924  1
  H  H5  1  0.68647080  0.68003966  0.77731579  1
  H  H6  1  0.31996034  0.31352920  0.22268421  1
  H  H7  1  0.50537774  0.49462226  0.00000000  1
  O  O8  1  0.35901321  0.34854278  0.07981501  1
  O  O9  1  0.65145722  0.64098679  0.92018499  1
  O  O10  1  0.83303389  0.83048511  0.10922124  1
  O  O11  1  0.16951489  0.16696611  0.89077876  1
  O  O12  1  0.81364689  0.27039386  0.25575696  1
  O  O13  1  0.27018664  0.81083253  0.25656042  1
  O  O14  1  0.18916747  0.72981336  0.74343958  1
  O  O15  1  0.72960614  0.18635311  0.74424304  1
  O  O16  1  0.76314970  0.76410445  0.51571627  1
  O  O17  1  0.23589555  0.23685030  0.48428373  1
