# generated using pymatgen
data_NaSn2Pd3
_symmetry_space_group_name_H-M   'P 1'
_cell_length_a   4.32890851
_cell_length_b   5.82255447
_cell_length_c   5.82255378
_cell_angle_alpha   59.88474440
_cell_angle_beta   89.99998347
_cell_angle_gamma   90.00001646
_symmetry_Int_Tables_number   1
_chemical_formula_structural   NaSn2Pd3
_chemical_formula_sum   'Na1 Sn2 Pd3'
_cell_volume   126.94936951
_cell_formula_units_Z   1
loop_
 _symmetry_equiv_pos_site_id
 _symmetry_equiv_pos_as_xyz
  1  'x, y, z'
loop_
 _atom_site_type_symbol
 _atom_site_label
 _atom_site_symmetry_multiplicity
 _atom_site_fract_x
 _atom_site_fract_y
 _atom_site_fract_z
 _atom_site_occupancy
  Na  Na0  1  0.17095506  0.99999044  0.00000956  1
  Sn  Sn1  1  0.50047014  0.33322516  0.33328909  1
  Sn  Sn2  1  0.50047014  0.66671091  0.66677484  1
  Pd  Pd3  1  0.99936651  0.49999537  0.50000463  1
  Pd  Pd4  1  0.99936907  0.49999134  0.00001322  1
  Pd  Pd5  1  0.99936907  0.99998678  0.50000866  1
