# generated using pymatgen
data_Na7Mn4Fe8(PO4)12
_symmetry_space_group_name_H-M   'P 1'
_cell_length_a   9.34189577
_cell_length_b   12.08585043
_cell_length_c   9.34189577
_cell_angle_alpha   111.01192791
_cell_angle_beta   94.37263807
_cell_angle_gamma   68.98807209
_symmetry_Int_Tables_number   1
_chemical_formula_structural   Na7Mn4Fe8(PO4)12
_chemical_formula_sum   'Na7 Mn4 Fe8 P12 O48'
_cell_volume   917.48085091
_cell_formula_units_Z   1
loop_
 _symmetry_equiv_pos_site_id
 _symmetry_equiv_pos_as_xyz
  1  'x, y, z'
loop_
 _atom_site_type_symbol
 _atom_site_label
 _atom_site_symmetry_multiplicity
 _atom_site_fract_x
 _atom_site_fract_y
 _atom_site_fract_z
 _atom_site_occupancy
  Na  Na0  1  0.25119600  0.24915992  0.75070137  1
  Na  Na1  1  0.74941300  0.75136594  0.24972073  1
  Na  Na2  1  0.00070137  0.50084008  0.00119600  1
  Na  Na3  1  0.49972073  0.99863406  0.49941300  1
  Na  Na4  1  0.13973756  0.87500000  0.88973756  1
  Na  Na5  1  0.85542386  0.13308236  0.12149835  1
  Na  Na6  1  0.37149835  0.61691764  0.60542386  1
  Mn  Mn7  1  0.36101007  0.37500000  0.11101007  1
  Mn  Mn8  1  0.85634100  0.87500000  0.60634100  1
  Mn  Mn9  1  0.14182098  0.12389570  0.39624343  1
  Mn  Mn10  1  0.64624343  0.62610430  0.89182098  1
  Fe  Fe11  1  0.91117854  0.15320381  0.77526842  1
  Fe  Fe12  1  0.40685970  0.65640994  0.27484406  1
  Fe  Fe13  1  0.02526842  0.59679619  0.66117854  1
  Fe  Fe14  1  0.52484406  0.09359006  0.15685970  1
  Fe  Fe15  1  0.59194698  0.34468179  0.71697234  1
  Fe  Fe16  1  0.08977423  0.84582666  0.22708626  1
  Fe  Fe17  1  0.47708626  0.90417334  0.83977423  1
  Fe  Fe18  1  0.96697234  0.40531821  0.34194698  1
  P  P19  1  0.29778764  0.57275140  0.92099501  1
  P  P20  1  0.79126147  0.07692168  0.41963175  1
  P  P21  1  0.17099501  0.17724860  0.04778764  1
  P  P22  1  0.66963175  0.67307832  0.54126147  1
  P  P23  1  0.20683096  0.92009115  0.57868243  1
  P  P24  1  0.70555579  0.42773512  0.07826489  1
  P  P25  1  0.32826489  0.32226488  0.45555579  1
  P  P26  1  0.82868243  0.82990885  0.95683096  1
  P  P27  1  0.90984552  0.37500000  0.65984552  1
  P  P28  1  0.40917574  0.87500000  0.15917574  1
  P  P29  1  0.59060880  0.12672921  0.84007638  1
  P  P30  1  0.09007638  0.62327079  0.34060880  1
  O  O31  1  0.18417502  0.28730564  0.01010958  1
  O  O32  1  0.68758454  0.78500761  0.51162350  1
  O  O33  1  0.26010958  0.46269436  0.93417502  1
  O  O34  1  0.76162350  0.96499239  0.43758454  1
  O  O35  1  0.31435602  0.21112954  0.49029294  1
  O  O36  1  0.81477965  0.71837686  0.99126299  1
  O  O37  1  0.24126299  0.03162314  0.56477965  1
  O  O38  1  0.74029294  0.53887046  0.06435602  1
  O  O39  1  0.05911580  0.11679992  0.94527054  1
  O  O40  1  0.54932137  0.62614843  0.43701063  1
  O  O41  1  0.19527054  0.63320008  0.80911580  1
  O  O42  1  0.68701063  0.12385157  0.29932137  1
  O  O43  1  0.43935656  0.37991296  0.56282215  1
  O  O44  1  0.94340847  0.88684076  0.05411199  1
  O  O45  1  0.30411199  0.86315924  0.69340847  1
  O  O46  1  0.81282215  0.37008704  0.18935656  1
  O  O47  1  0.53410910  0.47324574  0.13829204  1
  O  O48  1  0.03344315  0.96564770  0.63460709  1
  O  O49  1  0.38829204  0.27675426  0.28410910  1
  O  O50  1  0.88460709  0.78435230  0.78344315  1
  O  O51  1  0.95993853  0.04168351  0.36435081  1
  O  O52  1  0.46920068  0.52600397  0.85732483  1
  O  O53  1  0.10732483  0.22399603  0.21920068  1
  O  O54  1  0.61435081  0.70831649  0.70993853  1
  O  O55  1  0.27834459  0.67651994  0.08384627  1
  O  O56  1  0.75858111  0.18609657  0.58177301  1
  O  O57  1  0.33384627  0.07348006  0.02834459  1
  O  O58  1  0.83177301  0.56390343  0.50858111  1
  O  O59  1  0.23634904  0.81285445  0.41593982  1
  O  O60  1  0.73004679  0.32061449  0.91633441  1
  O  O61  1  0.16633441  0.42938551  0.48004679  1
  O  O62  1  0.66593982  0.93714555  0.98634904  1
  O  O63  1  0.98981352  0.27003242  0.72756677  1
  O  O64  1  0.48703446  0.77379857  0.23458166  1
  O  O65  1  0.97756677  0.47996758  0.73981352  1
  O  O66  1  0.48458166  0.97620143  0.23703446  1
  O  O67  1  0.51325756  0.23296913  0.77244385  1
  O  O68  1  0.00984405  0.72358557  0.26820637  1
  O  O69  1  0.51820637  0.02641443  0.75984405  1
  O  O70  1  0.02244385  0.51703087  0.26325756  1
  O  O71  1  0.76894619  0.06489023  0.80676086  1
  O  O72  1  0.26906143  0.56208830  0.30451939  1
  O  O73  1  0.55451939  0.18791170  0.01906143  1
  O  O74  1  0.05676086  0.68510977  0.51894619  1
  O  O75  1  0.73255444  0.43564538  0.69861449  1
  O  O76  1  0.23240905  0.93985951  0.19524962  1
  O  O77  1  0.94861449  0.31435462  0.48255444  1
  O  O78  1  0.44524962  0.81014049  0.98240905  1
