# generated using pymatgen
data_NaLiCdS2
_symmetry_space_group_name_H-M   'P 1'
_cell_length_a   4.15730746
_cell_length_b   4.15728769
_cell_length_c   7.04195449
_cell_angle_alpha   90.00106430
_cell_angle_beta   90.00128981
_cell_angle_gamma   59.99906766
_symmetry_Int_Tables_number   1
_chemical_formula_structural   NaLiCdS2
_chemical_formula_sum   'Na1 Li1 Cd1 S2'
_cell_volume   105.40033450
_cell_formula_units_Z   1
loop_
 _symmetry_equiv_pos_site_id
 _symmetry_equiv_pos_as_xyz
  1  'x, y, z'
loop_
 _atom_site_type_symbol
 _atom_site_label
 _atom_site_symmetry_multiplicity
 _atom_site_fract_x
 _atom_site_fract_y
 _atom_site_fract_z
 _atom_site_occupancy
  Na  Na0  1  -0.00000497  -0.00000908  0.02699717  1
  Li  Li1  1  0.66666762  0.66667084  0.34102235  1
  Cd  Cd2  1  0.33333514  0.33333604  0.61781810  1
  S  S3  1  0.66667607  0.66667288  0.75489134  1
  S  S4  1  0.33332614  0.33332933  0.25927104  1
