# generated using pymatgen
data_Mn2As2O7
_symmetry_space_group_name_H-M   'P 1'
_cell_length_a   4.88648294
_cell_length_b   5.63520651
_cell_length_c   5.62860657
_cell_angle_alpha   104.84540554
_cell_angle_beta   97.89928644
_cell_angle_gamma   97.85906442
_symmetry_Int_Tables_number   1
_chemical_formula_structural   Mn2As2O7
_chemical_formula_sum   'Mn2 As2 O7'
_cell_volume   145.98342356
_cell_formula_units_Z   1
loop_
 _symmetry_equiv_pos_site_id
 _symmetry_equiv_pos_as_xyz
  1  'x, y, z'
loop_
 _atom_site_type_symbol
 _atom_site_label
 _atom_site_symmetry_multiplicity
 _atom_site_fract_x
 _atom_site_fract_y
 _atom_site_fract_z
 _atom_site_occupancy
  Mn  Mn0  1  0.49753846  0.69369141  0.30736394  1
  Mn  Mn1  1  0.49820290  0.30916601  0.69003764  1
  As  As2  1  0.90807950  0.22692545  0.23160421  1
  As  As3  1  0.09927851  0.76770100  0.77308424  1
  O  O4  1  0.71139869  0.07598152  0.39613800  1
  O  O5  1  0.71773903  0.38422681  0.06822392  1
  O  O6  1  0.28555684  0.92980516  0.61151284  1
  O  O7  1  0.29229469  0.59761325  0.92138497  1
  O  O8  1  0.22212143  0.40237007  0.39891526  1
  O  O9  1  0.77644456  0.61227457  0.60980183  1
  O  O10  1  0.03694539  0.98444475  0.03873315  1
