# generated using pymatgen
data_Mn4Zn3(NiO6)2
_symmetry_space_group_name_H-M   'P 1'
_cell_length_a   6.00672553
_cell_length_b   13.35217211
_cell_length_c   6.00672553
_cell_angle_alpha   76.56285052
_cell_angle_beta   90.36387542
_cell_angle_gamma   76.56285052
_symmetry_Int_Tables_number   1
_chemical_formula_structural   Mn4Zn3(NiO6)2
_chemical_formula_sum   'Mn8 Zn6 Ni4 O24'
_cell_volume   454.81330190
_cell_formula_units_Z   2
loop_
 _symmetry_equiv_pos_site_id
 _symmetry_equiv_pos_as_xyz
  1  'x, y, z'
loop_
 _atom_site_type_symbol
 _atom_site_label
 _atom_site_symmetry_multiplicity
 _atom_site_fract_x
 _atom_site_fract_y
 _atom_site_fract_z
 _atom_site_occupancy
  Mn  Mn0  1  0.79166700  0.91666700  0.54166700  1
  Mn  Mn1  1  0.79166700  0.41666700  0.54166700  1
  Mn  Mn2  1  0.79166700  0.41666700  0.04166700  1
  Mn  Mn3  1  0.12571723  0.75056469  0.36818280  1
  Mn  Mn4  1  0.45761577  0.08276831  0.71515020  1
  Mn  Mn5  1  0.61818280  0.25056469  0.87571723  1
  Mn  Mn6  1  0.96515020  0.58276831  0.20761577  1
  Mn  Mn7  1  0.29166700  0.91666700  0.54166700  1
  Zn  Zn8  1  0.23041861  0.50055854  0.75845547  1
  Zn  Zn9  1  0.57487753  0.83277446  0.10291439  1
  Zn  Zn10  1  0.90723428  0.16666700  0.42609972  1
  Zn  Zn11  1  0.00845547  0.00055854  0.98041861  1
  Zn  Zn12  1  0.35291439  0.33277446  0.32487753  1
  Zn  Zn13  1  0.67609972  0.66666700  0.65723428  1
  Ni  Ni14  1  0.12342524  0.24897328  0.87634096  1
  Ni  Ni15  1  0.45990776  0.58435972  0.20699204  1
  Ni  Ni16  1  0.12634096  0.74897328  0.87342524  1
  Ni  Ni17  1  0.45699204  0.08435972  0.20990776  1
  O  O18  1  0.68593307  0.09394962  0.94054388  1
  O  O19  1  0.04253264  0.42920986  0.28397360  1
  O  O20  1  0.35004549  0.75399957  0.60394746  1
  O  O21  1  0.39278912  0.23938338  0.64739993  1
  O  O22  1  0.72938654  0.57933443  0.98328851  1
  O  O23  1  0.04935940  0.90412314  0.29080036  1
  O  O24  1  0.38972337  0.24506826  0.09794196  1
  O  O25  1  0.73013053  0.57360873  0.43654957  1
  O  O26  1  0.04690264  0.91260246  0.75052698  1
  O  O27  1  0.23539104  0.08826474  0.94360963  1
  O  O28  1  0.58280602  0.42073054  0.28643036  1
  O  O29  1  0.89678443  0.75972527  0.60320347  1
  O  O30  1  0.54080036  0.40412314  0.79935940  1
  O  O31  1  0.89739993  0.73938338  0.14278912  1
  O  O32  1  0.23328851  0.07933443  0.47938654  1
  O  O33  1  0.85394746  0.25399957  0.10004549  1
  O  O34  1  0.19054388  0.59394962  0.43593307  1
  O  O35  1  0.53397360  0.92920986  0.79253264  1
  O  O36  1  0.85320347  0.25972527  0.64678443  1
  O  O37  1  0.19360963  0.58826474  0.98539104  1
  O  O38  1  0.53643036  0.92073054  0.33280602  1
  O  O39  1  0.00052698  0.41260246  0.79690264  1
  O  O40  1  0.34794196  0.74506826  0.13972337  1
  O  O41  1  0.68654957  0.07360873  0.48013053  1
