# generated using pymatgen
data_MnCd2TeO6
_symmetry_space_group_name_H-M   'P 1'
_cell_length_a   6.48517328
_cell_length_b   6.51081196
_cell_length_c   6.48922434
_cell_angle_alpha   90.27247696
_cell_angle_beta   90.76743041
_cell_angle_gamma   90.11587107
_symmetry_Int_Tables_number   1
_chemical_formula_structural   MnCd2TeO6
_chemical_formula_sum   'Mn2 Cd4 Te2 O12'
_cell_volume   273.97107366
_cell_formula_units_Z   2
loop_
 _symmetry_equiv_pos_site_id
 _symmetry_equiv_pos_as_xyz
  1  'x, y, z'
loop_
 _atom_site_type_symbol
 _atom_site_label
 _atom_site_symmetry_multiplicity
 _atom_site_fract_x
 _atom_site_fract_y
 _atom_site_fract_z
 _atom_site_occupancy
  Mn  Mn0  1  0.56380954  0.05063100  0.74678065  1
  Mn  Mn1  1  0.04953703  0.74955502  0.56257475  1
  Cd  Cd2  1  0.74951780  0.56589795  0.05154441  1
  Cd  Cd3  1  0.43861110  0.95075340  0.25445464  1
  Cd  Cd4  1  0.95004185  0.25146897  0.43918300  1
  Cd  Cd5  1  0.25292547  0.43572765  0.94893436  1
  Te  Te6  1  0.50209823  0.50566313  0.50678664  1
  Te  Te7  1  0.00077529  0.99654378  0.99483503  1
  O  O8  1  0.91407583  0.03453300  0.70462323  1
  O  O9  1  0.04352705  0.71086873  0.90713476  1
  O  O10  1  0.70773055  0.92759471  0.03277488  1
  O  O11  1  0.07388991  0.93962195  0.28455688  1
  O  O12  1  0.95793812  0.28375439  0.07845432  1
  O  O13  1  0.28892231  0.07134028  0.94357375  1
  O  O14  1  0.43640163  0.79243867  0.57883357  1
  O  O15  1  0.79065720  0.57400426  0.44361220  1
  O  O16  1  0.56741342  0.41997292  0.79106559  1
  O  O17  1  0.56512625  0.21472745  0.44637100  1
  O  O18  1  0.20945081  0.45312949  0.56599494  1
  O  O19  1  0.43755060  0.57177325  0.21791141  1
