# generated using pymatgen
data_MnFeBiO5
_symmetry_space_group_name_H-M   'P 1'
_cell_length_a   5.86376901
_cell_length_b   7.62945784
_cell_length_c   8.73766734
_cell_angle_alpha   90.00000000
_cell_angle_beta   90.00000000
_cell_angle_gamma   90.00000000
_symmetry_Int_Tables_number   1
_chemical_formula_structural   MnFeBiO5
_chemical_formula_sum   'Mn4 Fe4 Bi4 O20'
_cell_volume   390.90033052
_cell_formula_units_Z   4
loop_
 _symmetry_equiv_pos_site_id
 _symmetry_equiv_pos_as_xyz
  1  'x, y, z'
loop_
 _atom_site_type_symbol
 _atom_site_label
 _atom_site_symmetry_multiplicity
 _atom_site_fract_x
 _atom_site_fract_y
 _atom_site_fract_z
 _atom_site_occupancy
  Mn  Mn0  1  0.25278939  0.50000000  0.00000000  1
  Mn  Mn1  1  0.74721061  -0.00000000  0.50000000  1
  Mn  Mn2  1  0.74721061  0.50000000  0.00000000  1
  Mn  Mn3  1  0.25278939  -0.00000000  0.50000000  1
  Fe  Fe4  1  0.50000000  0.88599882  0.14700013  1
  Fe  Fe5  1  0.50000000  0.11400118  0.85299987  1
  Fe  Fe6  1  0.50000000  0.38599882  0.35299987  1
  Fe  Fe7  1  0.50000000  0.61400118  0.64700013  1
  Bi  Bi8  1  -0.00000000  0.64668573  0.33778589  1
  Bi  Bi9  1  -0.00000000  0.35331427  0.66221411  1
  Bi  Bi10  1  -0.00000000  0.14668573  0.16221411  1
  Bi  Bi11  1  -0.00000000  0.85331427  0.83778589  1
  O  O12  1  -0.00000000  0.65469367  0.05718785  1
  O  O13  1  -0.00000000  0.34530633  0.94281215  1
  O  O14  1  -0.00000000  0.15469367  0.44281215  1
  O  O15  1  -0.00000000  0.84530633  0.55718785  1
  O  O16  1  0.28102745  0.50000000  0.50000000  1
  O  O17  1  0.71897255  -0.00000000  0.00000000  1
  O  O18  1  0.71897255  0.50000000  0.50000000  1
  O  O19  1  0.28102745  -0.00000000  0.00000000  1
  O  O20  1  0.50000000  0.64462952  0.07691346  1
  O  O21  1  0.50000000  0.35537048  0.92308654  1
  O  O22  1  0.50000000  0.14462952  0.42308654  1
  O  O23  1  0.50000000  0.85537048  0.57691346  1
  O  O24  1  0.25203509  0.88495369  0.30139124  1
  O  O25  1  0.25203509  0.11504631  0.69860876  1
  O  O26  1  0.74796491  0.38495369  0.19860876  1
  O  O27  1  0.74796491  0.61504631  0.80139124  1
  O  O28  1  0.74796491  0.11504631  0.69860876  1
  O  O29  1  0.74796491  0.88495369  0.30139124  1
  O  O30  1  0.25203509  0.61504631  0.80139124  1
  O  O31  1  0.25203509  0.38495369  0.19860876  1
