# generated using pymatgen
data_Na4Eu2GeP4
_symmetry_space_group_name_H-M   'P 1'
_cell_length_a   7.13289206
_cell_length_b   9.34217889
_cell_length_c   9.40701578
_cell_angle_alpha   59.78315653
_cell_angle_beta   91.30980678
_cell_angle_gamma   90.66111439
_symmetry_Int_Tables_number   1
_chemical_formula_structural   Na4Eu2GeP4
_chemical_formula_sum   'Na8 Eu4 Ge2 P8'
_cell_volume   541.53899193
_cell_formula_units_Z   2
loop_
 _symmetry_equiv_pos_site_id
 _symmetry_equiv_pos_as_xyz
  1  'x, y, z'
loop_
 _atom_site_type_symbol
 _atom_site_label
 _atom_site_symmetry_multiplicity
 _atom_site_fract_x
 _atom_site_fract_y
 _atom_site_fract_z
 _atom_site_occupancy
  Na  Na0  1  0.38289065  0.52899854  0.52716824  1
  Na  Na1  1  0.88291358  0.47100008  0.05617932  1
  Na  Na2  1  0.18843640  0.14138158  0.13542860  1
  Na  Na3  1  0.21241854  0.15069006  0.71572648  1
  Na  Na4  1  0.20363887  0.71443642  0.14892926  1
  Na  Na5  1  0.71245455  0.84929488  0.86640610  1
  Na  Na6  1  0.68847527  0.85858912  0.27683713  1
  Na  Na7  1  0.70366581  0.28558162  0.86331760  1
  Eu  Eu8  1  0.38116802  0.52128950  0.94953935  1
  Eu  Eu9  1  0.37931111  0.94967291  0.51846214  1
  Eu  Eu10  1  0.88114143  0.47873444  0.47083030  1
  Eu  Eu11  1  0.87931984  0.05030726  0.46816717  1
  Ge  Ge12  1  0.49919167  0.33613144  0.33711964  1
  Ge  Ge13  1  0.99922105  0.66386222  0.67322528  1
  P  P14  1  0.15856013  0.32354084  0.33996150  1
  P  P15  1  0.65855102  0.67645839  0.66349546  1
  P  P16  1  0.11581857  0.81251278  0.80214192  1
  P  P17  1  0.09122243  0.80788380  0.38632098  1
  P  P18  1  0.10124164  0.38665721  0.80264719  1
  P  P19  1  0.59129771  0.19204990  0.19419656  1
  P  P20  1  0.61577959  0.18758728  0.61453770  1
  P  P21  1  0.60128214  0.61333972  0.18936206  1
