# generated using pymatgen
data_K3SbI6
_symmetry_space_group_name_H-M   'P 1'
_cell_length_a   9.00712845
_cell_length_b   9.00712901
_cell_length_c   9.00712898
_cell_angle_alpha   59.99999840
_cell_angle_beta   59.99999769
_cell_angle_gamma   59.99999779
_symmetry_Int_Tables_number   1
_chemical_formula_structural   K3SbI6
_chemical_formula_sum   'K3 Sb1 I6'
_cell_volume   516.70671240
_cell_formula_units_Z   1
loop_
 _symmetry_equiv_pos_site_id
 _symmetry_equiv_pos_as_xyz
  1  'x, y, z'
loop_
 _atom_site_type_symbol
 _atom_site_label
 _atom_site_symmetry_multiplicity
 _atom_site_fract_x
 _atom_site_fract_y
 _atom_site_fract_z
 _atom_site_occupancy
  K  K0  1  0.25000000  0.25000000  0.25000000  1
  K  K1  1  0.75000000  0.75000000  0.75000000  1
  K  K2  1  0.50000000  0.50000000  0.50000000  1
  Sb  Sb3  1  -0.00000000  0.00000000  -0.00000000  1
  I  I4  1  0.23707034  0.76292966  0.23707034  1
  I  I5  1  0.76292966  0.76292966  0.23707034  1
  I  I6  1  0.76292966  0.23707034  0.76292966  1
  I  I7  1  0.76292966  0.23707034  0.23707034  1
  I  I8  1  0.23707034  0.76292966  0.76292966  1
  I  I9  1  0.23707034  0.23707034  0.76292966  1
