# generated using pymatgen
data_MgCo2(PO4)2
_symmetry_space_group_name_H-M   'P 1'
_cell_length_a   5.10067873
_cell_length_b   7.69729837
_cell_length_c   8.38814607
_cell_angle_alpha   90.00000000
_cell_angle_beta   90.00000000
_cell_angle_gamma   94.25627079
_symmetry_Int_Tables_number   1
_chemical_formula_structural   MgCo2(PO4)2
_chemical_formula_sum   'Mg2 Co4 P4 O16'
_cell_volume   328.42247293
_cell_formula_units_Z   2
loop_
 _symmetry_equiv_pos_site_id
 _symmetry_equiv_pos_as_xyz
  1  'x, y, z'
loop_
 _atom_site_type_symbol
 _atom_site_label
 _atom_site_symmetry_multiplicity
 _atom_site_fract_x
 _atom_site_fract_y
 _atom_site_fract_z
 _atom_site_occupancy
  Mg  Mg0  1  0.00000000  0.50000000  0.50000000  1
  Mg  Mg1  1  0.50000000  0.00000000  0.00000000  1
  Co  Co2  1  0.40395377  0.88815353  0.64062106  1
  Co  Co3  1  0.90395377  0.38815353  0.85937894  1
  Co  Co4  1  0.59604623  0.11184647  0.35937894  1
  Co  Co5  1  0.09604623  0.61184647  0.14062106  1
  P  P6  1  0.46102941  0.30213975  0.69382060  1
  P  P7  1  0.96102941  0.80213975  0.80617940  1
  P  P8  1  0.53897059  0.69786025  0.30617940  1
  P  P9  1  0.03897059  0.19786025  0.19382060  1
  O  O10  1  0.45210434  0.14258584  0.57850523  1
  O  O11  1  0.95210434  0.64258584  0.92149477  1
  O  O12  1  0.54789566  0.85741416  0.42149477  1
  O  O13  1  0.04789566  0.35741416  0.07850523  1
  O  O14  1  0.55033042  0.24354846  0.86297507  1
  O  O15  1  0.05033042  0.74354846  0.63702493  1
  O  O16  1  0.44966958  0.75645154  0.13702493  1
  O  O17  1  0.94966958  0.25645154  0.36297507  1
  O  O18  1  0.18606565  0.37431225  0.69378173  1
  O  O19  1  0.68606565  0.87431225  0.80621827  1
  O  O20  1  0.81393435  0.62568775  0.30621827  1
  O  O21  1  0.31393435  0.12568775  0.19378173  1
  O  O22  1  0.67483940  0.44299845  0.64034893  1
  O  O23  1  0.17483940  0.94299845  0.85965107  1
  O  O24  1  0.32516060  0.55700155  0.35965107  1
  O  O25  1  0.82516060  0.05700155  0.14034893  1
