# generated using pymatgen
data_Mg6CdIn
_symmetry_space_group_name_H-M   'P 1'
_cell_length_a   5.20036247
_cell_length_b   6.32847535
_cell_length_c   6.32787739
_cell_angle_alpha   59.99687398
_cell_angle_beta   90.00000000
_cell_angle_gamma   90.00000000
_symmetry_Int_Tables_number   1
_chemical_formula_structural   Mg6CdIn
_chemical_formula_sum   'Mg6 Cd1 In1'
_cell_volume   180.34649835
_cell_formula_units_Z   1
loop_
 _symmetry_equiv_pos_site_id
 _symmetry_equiv_pos_as_xyz
  1  'x, y, z'
loop_
 _atom_site_type_symbol
 _atom_site_label
 _atom_site_symmetry_multiplicity
 _atom_site_fract_x
 _atom_site_fract_y
 _atom_site_fract_z
 _atom_site_occupancy
  Mg  Mg0  1  0.75000000  0.16677097  0.16676712  1
  Mg  Mg1  1  0.75000000  0.16676286  0.66647427  1
  Mg  Mg2  1  0.75000000  0.66646191  0.16676712  1
  Mg  Mg3  1  0.25000000  0.83260283  0.83262115  1
  Mg  Mg4  1  0.25000000  0.83261265  0.33477470  1
  Mg  Mg5  1  0.25000000  0.33477601  0.83262115  1
  Cd  Cd6  1  0.75000000  0.66668846  0.66662308  1
  In  In7  1  0.25000000  0.33332430  0.33335139  1
