# generated using pymatgen
data_MgMnB2O5
_symmetry_space_group_name_H-M   'P 1'
_cell_length_a   3.24306191
_cell_length_b   6.26040192
_cell_length_c   9.49036453
_cell_angle_alpha   104.50669780
_cell_angle_beta   90.44328298
_cell_angle_gamma   91.78360895
_symmetry_Int_Tables_number   1
_chemical_formula_structural   MgMnB2O5
_chemical_formula_sum   'Mg2 Mn2 B4 O10'
_cell_volume   186.42423995
_cell_formula_units_Z   2
loop_
 _symmetry_equiv_pos_site_id
 _symmetry_equiv_pos_as_xyz
  1  'x, y, z'
loop_
 _atom_site_type_symbol
 _atom_site_label
 _atom_site_symmetry_multiplicity
 _atom_site_fract_x
 _atom_site_fract_y
 _atom_site_fract_z
 _atom_site_occupancy
  Mg  Mg0  1  0.76773580  0.63072211  0.90044248  1
  Mg  Mg1  1  0.23226420  0.36927789  0.09955752  1
  Mn  Mn2  1  0.25774421  0.78614083  0.63892146  1
  Mn  Mn3  1  0.74225579  0.21385917  0.36107854  1
  B  B4  1  0.31158041  0.32181463  0.65286160  1
  B  B5  1  0.68841959  0.67818537  0.34713840  1
  B  B6  1  0.67030053  0.12303618  0.83411410  1
  B  B7  1  0.32969947  0.87696382  0.16588590  1
  O  O8  1  0.24007032  0.28260275  0.50772486  1
  O  O9  1  0.75992968  0.71739725  0.49227514  1
  O  O10  1  0.73637799  0.30523719  0.94809184  1
  O  O11  1  0.26362201  0.69476281  0.05190816  1
  O  O12  1  0.77842673  0.91057900  0.82352119  1
  O  O13  1  0.22157327  0.08942100  0.17647881  1
  O  O14  1  0.26142895  0.52197932  0.75095319  1
  O  O15  1  0.73857105  0.47802068  0.24904681  1
  O  O16  1  0.45984188  0.14399288  0.70450123  1
  O  O17  1  0.54015812  0.85600712  0.29549877  1
