# generated using pymatgen
data_MoCl6
_symmetry_space_group_name_H-M   'P 1'
_cell_length_a   5.89396295
_cell_length_b   11.17956246
_cell_length_c   11.17962824
_cell_angle_alpha   59.99980359
_cell_angle_beta   89.99999997
_cell_angle_gamma   90.00284563
_symmetry_Int_Tables_number   1
_chemical_formula_structural   MoCl6
_chemical_formula_sum   'Mo3 Cl18'
_cell_volume   637.95396628
_cell_formula_units_Z   3
loop_
 _symmetry_equiv_pos_site_id
 _symmetry_equiv_pos_as_xyz
  1  'x, y, z'
loop_
 _atom_site_type_symbol
 _atom_site_label
 _atom_site_symmetry_multiplicity
 _atom_site_fract_x
 _atom_site_fract_y
 _atom_site_fract_z
 _atom_site_occupancy
  Mo  Mo0  1  0.00000000  0.00000000  -0.00000000  1
  Mo  Mo1  1  0.49568655  0.33330221  0.33334890  1
  Mo  Mo2  1  0.50431345  0.66669779  0.66665110  1
  Cl  Cl3  1  0.22693672  0.80482906  0.09758547  1
  Cl  Cl4  1  0.22693857  0.09758658  0.80482266  1
  Cl  Cl5  1  0.22693857  0.09758658  0.09759076  1
  Cl  Cl6  1  0.77306328  0.19517094  0.90241453  1
  Cl  Cl7  1  0.77306143  0.90241342  0.19517734  1
  Cl  Cl8  1  0.77306143  0.90241342  0.90240924  1
  Cl  Cl9  1  0.72257996  0.52845894  0.23577053  1
  Cl  Cl10  1  0.72257277  0.23577567  0.52845146  1
  Cl  Cl11  1  0.72257277  0.23577567  0.23577286  1
  Cl  Cl12  1  0.27742004  0.47154106  0.76422947  1
  Cl  Cl13  1  0.27742723  0.76422433  0.47154854  1
  Cl  Cl14  1  0.27742723  0.76422433  0.76422714  1
  Cl  Cl15  1  0.26903771  0.13800042  0.43099979  1
  Cl  Cl16  1  0.26905431  0.43100027  0.13800394  1
  Cl  Cl17  1  0.26905431  0.43100027  0.43099579  1
  Cl  Cl18  1  0.73096229  0.86199958  0.56900021  1
  Cl  Cl19  1  0.73094569  0.56899973  0.86199606  1
  Cl  Cl20  1  0.73094569  0.56899973  0.56900421  1
