# generated using pymatgen
data_Li2ZnCdP2
_symmetry_space_group_name_H-M   'P 1'
_cell_length_a   4.20769739
_cell_length_b   4.20769740
_cell_length_c   7.30188736
_cell_angle_alpha   73.25433251
_cell_angle_beta   90.00000000
_cell_angle_gamma   120.00000006
_symmetry_Int_Tables_number   1
_chemical_formula_structural   Li2ZnCdP2
_chemical_formula_sum   'Li2 Zn1 Cd1 P2'
_cell_volume   105.58009405
_cell_formula_units_Z   1
loop_
 _symmetry_equiv_pos_site_id
 _symmetry_equiv_pos_as_xyz
  1  'x, y, z'
loop_
 _atom_site_type_symbol
 _atom_site_label
 _atom_site_symmetry_multiplicity
 _atom_site_fract_x
 _atom_site_fract_y
 _atom_site_fract_z
 _atom_site_occupancy
  Li  Li0  1  0.87375365  0.74750730  0.37873905  1
  Li  Li1  1  0.37558253  0.75116505  0.87325242  1
  Zn  Zn2  1  0.12466052  0.24932103  0.62601845  1
  Cd  Cd3  1  0.62457409  0.24914818  0.12627773  1
  P  P4  1  0.00514623  0.01029246  0.98456131  1
  P  P5  1  0.49628299  0.99256598  0.51115103  1
