# generated using pymatgen
data_MgAsH16NO10
_symmetry_space_group_name_H-M   'P 1'
_cell_length_a   6.23476297
_cell_length_b   7.16728756
_cell_length_c   11.50774721
_cell_angle_alpha   90.53839132
_cell_angle_beta   90.00000000
_cell_angle_gamma   90.00000000
_symmetry_Int_Tables_number   1
_chemical_formula_structural   MgAsH16NO10
_chemical_formula_sum   'Mg2 As2 H32 N2 O20'
_cell_volume   514.21639095
_cell_formula_units_Z   2
loop_
 _symmetry_equiv_pos_site_id
 _symmetry_equiv_pos_as_xyz
  1  'x, y, z'
loop_
 _atom_site_type_symbol
 _atom_site_label
 _atom_site_symmetry_multiplicity
 _atom_site_fract_x
 _atom_site_fract_y
 _atom_site_fract_z
 _atom_site_occupancy
  Mg  Mg0  1  0.37369036  0.50097851  0.12257447  1
  Mg  Mg1  1  0.62630964  0.00097851  0.62257447  1
  As  As2  1  0.99409277  0.49873823  0.49655610  1
  As  As3  1  0.00590723  0.99873823  0.99655610  1
  H  H4  1  0.39577442  0.18033371  0.98411223  1
  H  H5  1  0.39408268  0.82056544  0.98516143  1
  H  H6  1  0.60591732  0.32056544  0.48516143  1
  H  H7  1  0.60422558  0.68033371  0.48411223  1
  H  H8  1  0.22817776  0.50862840  0.71639949  1
  H  H9  1  0.77182224  0.00862840  0.21639949  1
  H  H10  1  0.16661979  0.18127630  0.19594675  1
  H  H11  1  0.17181368  0.82020492  0.19847194  1
  H  H12  1  0.82818632  0.32020492  0.69847194  1
  H  H13  1  0.83338021  0.68127630  0.69594675  1
  H  H14  1  0.63616380  0.25515348  0.99296034  1
  H  H15  1  0.63231030  0.74096107  0.99142345  1
  H  H16  1  0.36768970  0.24096107  0.49142345  1
  H  H17  1  0.36383620  0.75515348  0.49296034  1
  H  H18  1  0.20893431  0.29839121  0.31217453  1
  H  H19  1  0.20473507  0.70125253  0.31318518  1
  H  H20  1  0.79526493  0.20125253  0.81318518  1
  H  H21  1  0.79106569  0.79839121  0.81217453  1
  H  H22  1  0.69952874  0.50042881  0.29997157  1
  H  H23  1  0.30047126  0.00042881  0.79997157  1
  H  H24  1  0.99909470  0.38681757  0.00326785  1
  H  H25  1  0.99714489  0.61254608  0.00393908  1
  H  H26  1  0.00285511  0.11254608  0.50393908  1
  H  H27  1  0.00090530  0.88681757  0.50326785  1
  H  H28  1  0.81161055  0.50030866  0.17494853  1
  H  H29  1  0.18838945  0.00030866  0.67494853  1
  H  H30  1  0.45365088  0.39121696  0.76507063  1
  H  H31  1  0.47546672  0.61837743  0.73466256  1
  H  H32  1  0.52453328  0.11837743  0.23466256  1
  H  H33  1  0.54634912  0.89121696  0.26507063  1
  H  H34  1  0.34034884  0.55206402  0.85127037  1
  H  H35  1  0.65965116  0.05206402  0.35127037  1
  N  N36  1  0.37224616  0.51657531  0.76590802  1
  N  N37  1  0.62775384  0.01657531  0.26590802  1
  O  O38  1  0.67169367  0.50079437  0.21351318  1
  O  O39  1  0.32830633  0.00079437  0.71351318  1
  O  O40  1  0.98100289  0.50025859  0.64671960  1
  O  O41  1  0.01899711  0.00025859  0.14671960  1
  O  O42  1  0.73708656  0.49794895  0.44036874  1
  O  O43  1  0.26291344  0.99794895  0.94036874  1
  O  O44  1  0.12399040  0.30068498  0.44876559  1
  O  O45  1  0.12128099  0.69684667  0.44928994  1
  O  O46  1  0.87871901  0.19684667  0.94928994  1
  O  O47  1  0.87600960  0.80068498  0.94876559  1
  O  O48  1  0.06060903  0.50044344  0.04365592  1
  O  O49  1  0.93939097  0.00044344  0.54365592  1
  O  O50  1  0.48371844  0.29165937  0.00954037  1
  O  O51  1  0.47891533  0.70506592  0.00598205  1
  O  O52  1  0.52108467  0.20506592  0.50598205  1
  O  O53  1  0.51628156  0.79165937  0.50954037  1
  O  O54  1  0.26435788  0.27927799  0.23071163  1
  O  O55  1  0.26634215  0.72220110  0.23364844  1
  O  O56  1  0.73365785  0.22220110  0.73364844  1
  O  O57  1  0.73564212  0.77927799  0.73071163  1
