# generated using pymatgen
data_LaGaSi
_symmetry_space_group_name_H-M   'P 1'
_cell_length_a   4.30802747
_cell_length_b   4.30802747
_cell_length_c   7.86683347
_cell_angle_alpha   74.10892288
_cell_angle_beta   74.10892288
_cell_angle_gamma   90.00000000
_symmetry_Int_Tables_number   1
_chemical_formula_structural   LaGaSi
_chemical_formula_sum   'La2 Ga2 Si2'
_cell_volume   134.61109371
_cell_formula_units_Z   2
loop_
 _symmetry_equiv_pos_site_id
 _symmetry_equiv_pos_as_xyz
  1  'x, y, z'
loop_
 _atom_site_type_symbol
 _atom_site_label
 _atom_site_symmetry_multiplicity
 _atom_site_fract_x
 _atom_site_fract_y
 _atom_site_fract_z
 _atom_site_occupancy
  La  La0  1  0.87534665  0.62534665  0.24930671  1
  La  La1  1  0.12534665  0.37534665  0.74930671  1
  Ga  Ga2  1  0.45828207  0.20828207  0.08343585  1
  Ga  Ga3  1  0.70828207  0.95828207  0.58343585  1
  Si  Si4  1  0.54137128  0.79137128  0.91725744  1
  Si  Si5  1  0.29137128  0.04137128  0.41725744  1
