# generated using pymatgen
data_Mn12Ge4N3
_symmetry_space_group_name_H-M   'P 1'
_cell_length_a   5.22940797
_cell_length_b   5.22940797
_cell_length_c   7.66043194
_cell_angle_alpha   90.00000000
_cell_angle_beta   90.00000000
_cell_angle_gamma   90.00000000
_symmetry_Int_Tables_number   1
_chemical_formula_structural   Mn12Ge4N3
_chemical_formula_sum   'Mn12 Ge4 N3'
_cell_volume   209.48759325
_cell_formula_units_Z   1
loop_
 _symmetry_equiv_pos_site_id
 _symmetry_equiv_pos_as_xyz
  1  'x, y, z'
loop_
 _atom_site_type_symbol
 _atom_site_label
 _atom_site_symmetry_multiplicity
 _atom_site_fract_x
 _atom_site_fract_y
 _atom_site_fract_z
 _atom_site_occupancy
  Mn  Mn0  1  0.31084311  0.18908812  0.50000000  1
  Mn  Mn1  1  0.74810844  0.73671271  0.00000000  1
  Mn  Mn2  1  0.68915689  0.81091188  0.50000000  1
  Mn  Mn3  1  0.25189156  0.26328729  0.00000000  1
  Mn  Mn4  1  0.18908812  0.68915689  0.50000000  1
  Mn  Mn5  1  0.73671271  0.25189156  0.00000000  1
  Mn  Mn6  1  0.81091188  0.31084311  0.50000000  1
  Mn  Mn7  1  0.26328729  0.74810844  0.00000000  1
  Mn  Mn8  1  0.50000000  0.50000000  0.24815035  1
  Mn  Mn9  1  0.00000000  0.00000000  0.75145754  1
  Mn  Mn10  1  -0.00000000  0.00000000  0.24854246  1
  Mn  Mn11  1  0.50000000  0.50000000  0.75184965  1
  Ge  Ge12  1  0.00000000  0.50000000  0.23409048  1
  Ge  Ge13  1  0.50000000  0.00000000  0.76590952  1
  Ge  Ge14  1  0.50000000  0.00000000  0.23409048  1
  Ge  Ge15  1  -0.00000000  0.50000000  0.76590952  1
  N  N16  1  -0.00000000  0.00000000  0.50000000  1
  N  N17  1  -0.00000000  0.00000000  0.00000000  1
  N  N18  1  0.50000000  0.50000000  0.50000000  1
