# generated using pymatgen
data_LiMgAl(MoO4)3
_symmetry_space_group_name_H-M   'P 1'
_cell_length_a   6.79879430
_cell_length_b   6.88410839
_cell_length_c   11.53108743
_cell_angle_alpha   77.67530454
_cell_angle_beta   85.94846855
_cell_angle_gamma   78.13926913
_symmetry_Int_Tables_number   1
_chemical_formula_structural   LiMgAl(MoO4)3
_chemical_formula_sum   'Li2 Mg2 Al2 Mo6 O24'
_cell_volume   515.79937572
_cell_formula_units_Z   2
loop_
 _symmetry_equiv_pos_site_id
 _symmetry_equiv_pos_as_xyz
  1  'x, y, z'
loop_
 _atom_site_type_symbol
 _atom_site_label
 _atom_site_symmetry_multiplicity
 _atom_site_fract_x
 _atom_site_fract_y
 _atom_site_fract_z
 _atom_site_occupancy
  Li  Li0  1  0.67529923  0.43717851  0.58728989  1
  Li  Li1  1  0.32470077  0.56282149  0.41271011  1
  Mg  Mg2  1  0.69873897  0.84054758  0.97774607  1
  Mg  Mg3  1  0.30126103  0.15945242  0.02225393  1
  Al  Al4  1  0.30286224  0.76990745  0.62794434  1
  Al  Al5  1  0.69713776  0.23009255  0.37205566  1
  Mo  Mo6  1  0.20165047  0.28668050  0.68609061  1
  Mo  Mo7  1  0.79834953  0.71331950  0.31390939  1
  Mo  Mo8  1  0.74973933  0.90573879  0.64423904  1
  Mo  Mo9  1  0.25026067  0.09426121  0.35576096  1
  Mo  Mo10  1  0.74418312  0.30184986  0.05426025  1
  Mo  Mo11  1  0.25581688  0.69815014  0.94573975  1
  O  O12  1  0.68223024  0.31195004  0.20855249  1
  O  O13  1  0.31776976  0.68804996  0.79144751  1
  O  O14  1  0.28542806  0.04995708  0.63436186  1
  O  O15  1  0.71457194  0.95004292  0.36563814  1
  O  O16  1  0.70285091  0.54875476  0.96113839  1
  O  O17  1  0.29714909  0.45124524  0.03886161  1
  O  O18  1  0.61216349  0.13711434  0.99895673  1
  O  O19  1  0.38783651  0.86288566  0.00104327  1
  O  O20  1  0.00019937  0.19257080  0.04569145  1
  O  O21  1  0.99980063  0.80742920  0.95430855  1
  O  O22  1  0.68688002  0.94770731  0.78797385  1
  O  O23  1  0.31311998  0.05229269  0.21202615  1
  O  O24  1  0.33225968  0.49296527  0.60428145  1
  O  O25  1  0.66774032  0.50703473  0.39571855  1
  O  O26  1  0.01313748  0.80081310  0.63457145  1
  O  O27  1  0.98686252  0.19918690  0.36542855  1
  O  O28  1  0.24993725  0.24326616  0.83811702  1
  O  O29  1  0.75006275  0.75673384  0.16188298  1
  O  O30  1  0.59751033  0.73198892  0.61455477  1
  O  O31  1  0.40248967  0.26801108  0.38544523  1
  O  O32  1  0.70120635  0.15215377  0.54242044  1
  O  O33  1  0.29879365  0.84784623  0.45757956  1
  O  O34  1  0.94132497  0.36030020  0.66759640  1
  O  O35  1  0.05867503  0.63969980  0.33240360  1
