# generated using pymatgen
data_KNaAs6(PbO3)8
_symmetry_space_group_name_H-M   'P 1'
_cell_length_a   7.50433635
_cell_length_b   10.29612313
_cell_length_c   10.29634015
_cell_angle_alpha   120.00032285
_cell_angle_beta   89.99981407
_cell_angle_gamma   89.99992588
_symmetry_Int_Tables_number   1
_chemical_formula_structural   KNaAs6(PbO3)8
_chemical_formula_sum   'K1 Na1 As6 Pb8 O24'
_cell_volume   688.96652208
_cell_formula_units_Z   1
loop_
 _symmetry_equiv_pos_site_id
 _symmetry_equiv_pos_as_xyz
  1  'x, y, z'
loop_
 _atom_site_type_symbol
 _atom_site_label
 _atom_site_symmetry_multiplicity
 _atom_site_fract_x
 _atom_site_fract_y
 _atom_site_fract_z
 _atom_site_occupancy
  K  K0  1  0.51416021  0.66670255  0.33336855  1
  Na  Na1  1  0.99236601  0.33337513  0.66668918  1
  As  As2  1  0.24459749  0.01943391  0.39352822  1
  As  As3  1  0.24459277  0.60646476  0.62590941  1
  As  As4  1  0.24459284  0.37408530  0.98055502  1
  As  As5  1  0.75006257  0.98557324  0.60870236  1
  As  As6  1  0.75008047  0.39129432  0.37685901  1
  As  As7  1  0.75008059  0.62313771  0.01443096  1
  Pb  Pb8  1  0.75155166  0.25924455  0.00037798  1
  Pb  Pb9  1  0.75155274  0.99962169  0.25887107  1
  Pb  Pb10  1  0.75154937  0.74114597  0.74074001  1
  Pb  Pb11  1  0.24913302  0.73904787  0.99793600  1
  Pb  Pb12  1  0.24913617  0.00207431  0.74111353  1
  Pb  Pb13  1  0.24914476  0.25886846  0.26096544  1
  Pb  Pb14  1  0.01727227  0.66665889  0.33332999  1
  Pb  Pb15  1  0.51591813  0.33335262  0.66667477  1
  O  O16  1  0.23968580  0.69336328  0.52027395  1
  O  O17  1  0.23968758  0.47972642  0.17309492  1
  O  O18  1  0.23969354  0.82689908  0.30663069  1
  O  O19  1  0.75094955  0.30653063  0.48499730  1
  O  O20  1  0.75095542  0.51500360  0.82153525  1
  O  O21  1  0.75094388  0.17846727  0.69346855  1
  O  O22  1  0.57051624  0.33964258  0.25733641  1
  O  O23  1  0.57051454  0.74266354  0.08231278  1
  O  O24  1  0.57051850  0.91768885  0.66035281  1
  O  O25  1  0.06783317  0.65915834  0.74869046  1
  O  O26  1  0.06783458  0.25130121  0.91046269  1
  O  O27  1  0.06783717  0.08951913  0.34082762  1
  O  O28  1  0.43032632  0.65336145  0.73978973  1
  O  O29  1  0.43032314  0.26019975  0.91357454  1
  O  O30  1  0.43032459  0.08641667  0.34661802  1
  O  O31  1  0.93175754  0.34483327  0.25895540  1
  O  O32  1  0.93175448  0.74104271  0.08587871  1
  O  O33  1  0.93174953  0.91412196  0.65516638  1
  O  O34  1  0.24601498  0.10335509  0.58817428  1
  O  O35  1  0.24601102  0.41181192  0.51517985  1
  O  O36  1  0.24600572  0.48481993  0.89664023  1
  O  O37  1  0.75432193  0.90300224  0.41423045  1
  O  O38  1  0.75432149  0.58576906  0.48876917  1
  O  O39  1  0.75432823  0.51122074  0.09698829  1
