# generated using pymatgen
data_K5As4
_symmetry_space_group_name_H-M   'P 1'
_cell_length_a   5.22965754
_cell_length_b   6.47590944
_cell_length_c   10.23097370
_cell_angle_alpha   86.24347315
_cell_angle_beta   75.19206173
_cell_angle_gamma   113.81456823
_symmetry_Int_Tables_number   1
_chemical_formula_structural   K5As4
_chemical_formula_sum   'K5 As4'
_cell_volume   300.83406185
_cell_formula_units_Z   1
loop_
 _symmetry_equiv_pos_site_id
 _symmetry_equiv_pos_as_xyz
  1  'x, y, z'
loop_
 _atom_site_type_symbol
 _atom_site_label
 _atom_site_symmetry_multiplicity
 _atom_site_fract_x
 _atom_site_fract_y
 _atom_site_fract_z
 _atom_site_occupancy
  K  K0  1  0.71010524  0.31732077  0.89711028  1
  K  K1  1  0.29435126  0.68700555  0.09830304  1
  K  K2  1  0.58342936  0.83447233  0.66761361  1
  K  K3  1  0.41034597  0.15125720  0.33056525  1
  K  K4  1  0.99360943  0.47620330  0.48898444  1
  As  As5  1  0.01246049  0.91724291  0.89232192  1
  As  As6  1  0.98914532  0.08521743  0.10692678  1
  As  As7  1  0.26834845  0.22601967  0.68932276  1
  As  As8  1  0.73250446  0.77586084  0.31085192  1
