# generated using pymatgen
data_La2FeNiO6
_symmetry_space_group_name_H-M   'P 1'
_cell_length_a   5.52640561
_cell_length_b   5.56701004
_cell_length_c   7.87539856
_cell_angle_alpha   89.92743524
_cell_angle_beta   90.00000000
_cell_angle_gamma   90.00000000
_symmetry_Int_Tables_number   1
_chemical_formula_structural   La2FeNiO6
_chemical_formula_sum   'La4 Fe2 Ni2 O12'
_cell_volume   242.29081722
_cell_formula_units_Z   2
loop_
 _symmetry_equiv_pos_site_id
 _symmetry_equiv_pos_as_xyz
  1  'x, y, z'
loop_
 _atom_site_type_symbol
 _atom_site_label
 _atom_site_symmetry_multiplicity
 _atom_site_fract_x
 _atom_site_fract_y
 _atom_site_fract_z
 _atom_site_occupancy
  La  La0  1  0.47601369  0.50628534  0.74958473  1
  La  La1  1  0.97601369  0.99371466  0.75041527  1
  La  La2  1  0.52398631  0.49371466  0.25041527  1
  La  La3  1  0.02398631  0.00628534  0.24958473  1
  Fe  Fe4  1  0.50000000  -0.00000000  0.50000000  1
  Fe  Fe5  1  0.00000000  0.50000000  0.00000000  1
  Ni  Ni6  1  0.50000000  -0.00000000  0.00000000  1
  Ni  Ni7  1  0.00000000  0.50000000  0.50000000  1
  O  O8  1  0.51090324  0.07555813  0.74681624  1
  O  O9  1  0.01090324  0.42444187  0.75318376  1
  O  O10  1  0.48909676  0.92444187  0.25318376  1
  O  O11  1  0.98909676  0.57555813  0.24681624  1
  O  O12  1  0.27484265  0.27979090  0.04103876  1
  O  O13  1  0.77484265  0.22020910  0.45896124  1
  O  O14  1  0.72076320  0.72680595  0.54066660  1
  O  O15  1  0.22076320  0.77319405  0.95933340  1
  O  O16  1  0.72515735  0.72020910  0.95896124  1
  O  O17  1  0.22515735  0.77979090  0.54103876  1
  O  O18  1  0.27923680  0.27319405  0.45933340  1
  O  O19  1  0.77923680  0.22680595  0.04066660  1
