# generated using pymatgen
data_LaGd(CuSn)4
_symmetry_space_group_name_H-M   'P 1'
_cell_length_a   4.48964606
_cell_length_b   4.48972071
_cell_length_c   10.63771199
_cell_angle_alpha   89.99033536
_cell_angle_beta   89.99334046
_cell_angle_gamma   89.89338989
_symmetry_Int_Tables_number   1
_chemical_formula_structural   LaGd(CuSn)4
_chemical_formula_sum   'La1 Gd1 Cu4 Sn4'
_cell_volume   214.42671758
_cell_formula_units_Z   1
loop_
 _symmetry_equiv_pos_site_id
 _symmetry_equiv_pos_as_xyz
  1  'x, y, z'
loop_
 _atom_site_type_symbol
 _atom_site_label
 _atom_site_symmetry_multiplicity
 _atom_site_fract_x
 _atom_site_fract_y
 _atom_site_fract_z
 _atom_site_occupancy
  La  La0  1  0.25002568  0.25003628  0.76131705  1
  Gd  Gd1  1  0.74996478  0.74997255  0.23674566  1
  Cu  Cu2  1  0.75000120  0.74997950  0.63489091  1
  Cu  Cu3  1  0.25001680  0.25002531  0.36526382  1
  Cu  Cu4  1  0.75001079  0.24991052  0.00149889  1
  Cu  Cu5  1  0.24995841  0.75006022  0.00155245  1
  Sn  Sn6  1  0.75000348  0.74998902  0.87437431  1
  Sn  Sn7  1  0.24991917  0.24996985  0.12807633  1
  Sn  Sn8  1  0.75002682  0.25006505  0.49815228  1
  Sn  Sn9  1  0.25007287  0.74999169  0.49812830  1
