# generated using pymatgen
data_KAlNiF6
_symmetry_space_group_name_H-M   'P 1'
_cell_length_a   7.12141773
_cell_length_b   7.14011240
_cell_length_c   7.09100681
_cell_angle_alpha   90.00000000
_cell_angle_beta   60.14116168
_cell_angle_gamma   120.08687678
_symmetry_Int_Tables_number   1
_chemical_formula_structural   KAlNiF6
_chemical_formula_sum   'K2 Al2 Ni2 F12'
_cell_volume   255.16355908
_cell_formula_units_Z   2
loop_
 _symmetry_equiv_pos_site_id
 _symmetry_equiv_pos_as_xyz
  1  'x, y, z'
loop_
 _atom_site_type_symbol
 _atom_site_label
 _atom_site_symmetry_multiplicity
 _atom_site_fract_x
 _atom_site_fract_y
 _atom_site_fract_z
 _atom_site_occupancy
  K  K0  1  0.76427495  0.38213747  0.36786253  1
  K  K1  1  0.23572505  0.61786253  0.63213747  1
  Al  Al2  1  -0.00000000  -0.00000000  0.50000000  1
  Al  Al3  1  -0.00000000  -0.00000000  0.00000000  1
  Ni  Ni4  1  0.50000000  0.50000000  0.00000000  1
  Ni  Ni5  1  0.50000000  -0.00000000  0.00000000  1
  F  F6  1  0.89787368  0.94893684  0.30106316  1
  F  F7  1  0.67669576  0.33834788  0.91165212  1
  F  F8  1  0.24342137  0.93993536  0.91828082  1
  F  F9  1  0.24342137  0.30348600  0.33829781  1
  F  F10  1  0.24342137  0.30348600  0.91828082  1
  F  F11  1  0.24342137  0.93993536  0.33829781  1
  F  F12  1  0.10212632  0.05106316  0.69893684  1
  F  F13  1  0.32330424  0.66165212  0.08834788  1
  F  F14  1  0.75657863  0.06006464  0.08171918  1
  F  F15  1  0.75657863  0.69651400  0.66170219  1
  F  F16  1  0.75657863  0.69651400  0.08171918  1
  F  F17  1  0.75657863  0.06006464  0.66170219  1
