# generated using pymatgen
data_KGaAs3H7O13
_symmetry_space_group_name_H-M   'P 1'
_cell_length_a   4.71264818
_cell_length_b   8.72210465
_cell_length_c   14.22174937
_cell_angle_alpha   90.00000000
_cell_angle_beta   94.32632905
_cell_angle_gamma   90.00000000
_symmetry_Int_Tables_number   1
_chemical_formula_structural   KGaAs3H7O13
_chemical_formula_sum   'K2 Ga2 As6 H14 O26'
_cell_volume   582.90808125
_cell_formula_units_Z   2
loop_
 _symmetry_equiv_pos_site_id
 _symmetry_equiv_pos_as_xyz
  1  'x, y, z'
loop_
 _atom_site_type_symbol
 _atom_site_label
 _atom_site_symmetry_multiplicity
 _atom_site_fract_x
 _atom_site_fract_y
 _atom_site_fract_z
 _atom_site_occupancy
  K  K0  1  0.12676356  0.00681261  0.51254999  1
  K  K1  1  0.62676356  0.99318739  0.01254999  1
  Ga  Ga2  1  0.25136740  0.22969044  0.74888144  1
  Ga  Ga3  1  0.75136740  0.77030956  0.24888144  1
  As  As4  1  0.71011227  0.35384270  0.60414963  1
  As  As5  1  0.29485625  0.65671151  0.39423801  1
  As  As6  1  0.79485625  0.34328849  0.89423801  1
  As  As7  1  0.21011227  0.64615730  0.10414963  1
  As  As8  1  0.75000848  0.97347792  0.74872783  1
  As  As9  1  0.25000848  0.02652208  0.24872783  1
  H  H10  1  0.41372074  0.32586860  0.46983386  1
  H  H11  1  0.59810888  0.66544665  0.52781454  1
  H  H12  1  0.09810888  0.33455335  0.02781454  1
  H  H13  1  0.91372074  0.67413140  0.96983386  1
  H  H14  1  0.35466954  0.58964723  0.71138947  1
  H  H15  1  0.64556779  0.40876211  0.28823153  1
  H  H16  1  0.14556779  0.59123789  0.78823153  1
  H  H17  1  0.85466954  0.41035277  0.21138947  1
  H  H18  1  0.48532284  0.77865789  0.80850092  1
  H  H19  1  0.51297813  0.22338881  0.19062298  1
  H  H20  1  0.01297813  0.77661119  0.69062298  1
  H  H21  1  0.98532284  0.22134211  0.30850092  1
  H  H22  1  0.02607677  0.49786052  0.48525293  1
  H  H23  1  0.52607677  0.50213948  0.98525293  1
  O  O24  1  0.53640906  0.25192668  0.50755588  1
  O  O25  1  0.45898321  0.74247055  0.49604555  1
  O  O26  1  0.95898321  0.25752945  0.99604555  1
  O  O27  1  0.03640906  0.74807332  0.00755588  1
  O  O28  1  0.24877312  0.66368706  0.74937547  1
  O  O29  1  0.74877312  0.33631294  0.24937547  1
  O  O30  1  0.63493645  0.85125095  0.83689396  1
  O  O31  1  0.37410337  0.14575107  0.16084985  1
  O  O32  1  0.87410337  0.85424893  0.66084985  1
  O  O33  1  0.13493645  0.14874905  0.33689396  1
  O  O34  1  0.47876219  0.39331753  0.68959029  1
  O  O35  1  0.52794396  0.60626627  0.31299007  1
  O  O36  1  0.02794396  0.39373373  0.81299007  1
  O  O37  1  0.97876219  0.60668247  0.18959029  1
  O  O38  1  0.97626037  0.22655933  0.63588102  1
  O  O39  1  0.02148645  0.78029200  0.36552457  1
  O  O40  1  0.52148645  0.21970800  0.86552457  1
  O  O41  1  0.47626037  0.77344067  0.13588102  1
  O  O42  1  0.46867071  0.06310355  0.68949820  1
  O  O43  1  0.51891365  0.93002916  0.30966800  1
  O  O44  1  0.01891365  0.06997084  0.80966800  1
  O  O45  1  0.96867071  0.93689645  0.18949820  1
  O  O46  1  0.82566067  0.52246987  0.55966093  1
  O  O47  1  0.16764413  0.47926151  0.43160308  1
  O  O48  1  0.66764413  0.52073849  0.93160308  1
  O  O49  1  0.32566067  0.47753013  0.05966093  1
