# generated using pymatgen
data_La6S3(OF4)2
_symmetry_space_group_name_H-M   'P 1'
_cell_length_a   3.97113774
_cell_length_b   13.80195537
_cell_length_c   13.90467818
_cell_angle_alpha   60.22829016
_cell_angle_beta   90.00000000
_cell_angle_gamma   90.00000000
_symmetry_Int_Tables_number   1
_chemical_formula_structural   La6S3(OF4)2
_chemical_formula_sum   'La12 S6 O4 F16'
_cell_volume   661.51790873
_cell_formula_units_Z   2
loop_
 _symmetry_equiv_pos_site_id
 _symmetry_equiv_pos_as_xyz
  1  'x, y, z'
loop_
 _atom_site_type_symbol
 _atom_site_label
 _atom_site_symmetry_multiplicity
 _atom_site_fract_x
 _atom_site_fract_y
 _atom_site_fract_z
 _atom_site_occupancy
  La  La0  1  0.75000000  0.94663960  0.77351925  1
  La  La1  1  0.75000000  0.28023989  0.94518511  1
  La  La2  1  0.75000000  0.76229822  0.28727322  1
  La  La3  1  0.25000000  0.05087298  0.23814649  1
  La  La4  1  0.25000000  0.70924198  0.05279328  1
  La  La5  1  0.25000000  0.23844066  0.70693683  1
  La  La6  1  0.75000000  0.61169915  0.86173455  1
  La  La7  1  0.75000000  0.52676918  0.60317547  1
  La  La8  1  0.75000000  0.86235294  0.52380120  1
  La  La9  1  0.25000000  0.39865000  0.13878652  1
  La  La10  1  0.25000000  0.47507443  0.39837183  1
  La  La11  1  0.25000000  0.14128369  0.46326581  1
  S  S12  1  0.75000000  0.27323283  0.52995418  1
  S  S13  1  0.75000000  0.19514503  0.27849097  1
  S  S14  1  0.75000000  0.52836512  0.18878494  1
  S  S15  1  0.25000000  0.72335368  0.46866573  1
  S  S16  1  0.25000000  0.81415747  0.71959594  1
  S  S17  1  0.25000000  0.46530944  0.81732634  1
  O  O18  1  0.75000000  0.56643119  0.41299778  1
  O  O19  1  0.25000000  0.98265749  0.43525087  1
  O  O20  1  0.25000000  0.58361694  0.97944120  1
  O  O21  1  0.25000000  0.43228975  0.58821174  1
  F  F22  1  0.75000000  0.10535265  0.79919700  1
  F  F23  1  0.75000000  0.09633883  0.10684110  1
  F  F24  1  0.75000000  0.79585285  0.09499349  1
  F  F25  1  0.25000000  0.89407295  0.20270804  1
  F  F26  1  0.25000000  0.90529050  0.89525117  1
  F  F27  1  0.25000000  0.19911679  0.90439143  1
  F  F28  1  0.75000000  0.75381171  0.92751741  1
  F  F29  1  0.75000000  0.31721561  0.75319026  1
  F  F30  1  0.75000000  0.92919297  0.31882363  1
  F  F31  1  0.25000000  0.25120851  0.07148917  1
  F  F32  1  0.25000000  0.68002116  0.24586039  1
  F  F33  1  0.25000000  0.06869636  0.67821841  1
  F  F34  1  0.75000000  0.66678894  0.66671163  1
  F  F35  1  0.25000000  0.33622957  0.33309297  1
  F  F36  1  0.75000000  0.02267711  0.56579772  1
  F  F37  1  0.75000000  0.41001181  0.02420694  1
