# generated using pymatgen
data_La7Ta3(W2O15)2
_symmetry_space_group_name_H-M   'P 1'
_cell_length_a   6.95117578
_cell_length_b   10.23757527
_cell_length_c   10.25392826
_cell_angle_alpha   115.18883537
_cell_angle_beta   103.23334170
_cell_angle_gamma   102.71692632
_symmetry_Int_Tables_number   1
_chemical_formula_structural   La7Ta3(W2O15)2
_chemical_formula_sum   'La7 Ta3 W4 O30'
_cell_volume   599.55830260
_cell_formula_units_Z   1
loop_
 _symmetry_equiv_pos_site_id
 _symmetry_equiv_pos_as_xyz
  1  'x, y, z'
loop_
 _atom_site_type_symbol
 _atom_site_label
 _atom_site_symmetry_multiplicity
 _atom_site_fract_x
 _atom_site_fract_y
 _atom_site_fract_z
 _atom_site_occupancy
  La  La0  1  0.55529335  0.43187414  0.19175594  1
  La  La1  1  0.35716436  0.79935277  0.23425708  1
  La  La2  1  0.11776753  0.75349757  0.56712267  1
  La  La3  1  0.44470665  0.56812586  0.80824406  1
  La  La4  1  0.64283564  0.20064723  0.76574292  1
  La  La5  1  0.88223247  0.24650243  0.43287733  1
  La  La6  1  0.00000000  0.00000000  0.00000000  1
  Ta  Ta7  1  0.50000000  0.00000000  0.00000000  1
  Ta  Ta8  1  0.97730376  0.61569529  0.82960123  1
  Ta  Ta9  1  0.02269624  0.38430471  0.17039877  1
  W  W10  1  0.14719649  0.16687323  0.78796572  1
  W  W11  1  0.35951219  0.21123912  0.37716969  1
  W  W12  1  0.85280351  0.83312677  0.21203428  1
  W  W13  1  0.64048781  0.78876088  0.62283031  1
  O  O14  1  0.98895323  0.77685704  0.05744469  1
  O  O15  1  0.93435651  0.94572534  0.71851556  1
  O  O16  1  0.21582884  0.27585530  0.22495119  1
  O  O17  1  0.01104677  0.22314296  0.94255531  1
  O  O18  1  0.06564349  0.05427466  0.28148444  1
  O  O19  1  0.78417116  0.72414470  0.77504881  1
  O  O20  1  0.22127882  0.61307898  0.95732720  1
  O  O21  1  0.25913919  0.04424668  0.65594421  1
  O  O22  1  0.60342260  0.34620289  0.39179770  1
  O  O23  1  0.77872118  0.38692102  0.04267280  1
  O  O24  1  0.74086081  0.95575332  0.34405579  1
  O  O25  1  0.39657740  0.65379711  0.60820230  1
  O  O26  1  0.73600922  0.45680274  0.79229461  1
  O  O27  1  0.95106672  0.20288041  0.66391495  1
  O  O28  1  0.28611535  0.33411724  0.53702156  1
  O  O29  1  0.26399078  0.54319726  0.20770539  1
  O  O30  1  0.04893328  0.79711959  0.33608505  1
  O  O31  1  0.71388465  0.66588276  0.46297844  1
  O  O32  1  0.03484974  0.51458602  0.64938157  1
  O  O33  1  0.37332976  0.34737315  0.86556126  1
  O  O34  1  0.50963804  0.13367636  0.48031653  1
  O  O35  1  0.96515026  0.48541398  0.35061843  1
  O  O36  1  0.62667024  0.65262685  0.13443874  1
  O  O37  1  0.49036196  0.86632364  0.51968347  1
  O  O38  1  0.39037277  0.03687725  0.17488163  1
  O  O39  1  0.22080029  0.82700828  0.85912083  1
  O  O40  1  0.35556671  0.13975363  0.96292784  1
  O  O41  1  0.60962723  0.96312275  0.82511837  1
  O  O42  1  0.77919971  0.17299172  0.14087917  1
  O  O43  1  0.64443329  0.86024637  0.03707216  1
