# generated using pymatgen
data_K2Ba7(Si2O5)8
_symmetry_space_group_name_H-M   'P 1'
_cell_length_a   7.82850048
_cell_length_b   8.36754608
_cell_length_c   16.70838411
_cell_angle_alpha   99.96235937
_cell_angle_beta   76.45148666
_cell_angle_gamma   90.00000000
_symmetry_Int_Tables_number   1
_chemical_formula_structural   K2Ba7(Si2O5)8
_chemical_formula_sum   'K2 Ba7 Si16 O40'
_cell_volume   1047.04777604
_cell_formula_units_Z   1
loop_
 _symmetry_equiv_pos_site_id
 _symmetry_equiv_pos_as_xyz
  1  'x, y, z'
loop_
 _atom_site_type_symbol
 _atom_site_label
 _atom_site_symmetry_multiplicity
 _atom_site_fract_x
 _atom_site_fract_y
 _atom_site_fract_z
 _atom_site_occupancy
  K  K0  1  0.03903911  0.72507259  0.92192179  1
  K  K1  1  0.96096089  0.27492741  0.07807821  1
  Ba  Ba2  1  0.38591919  0.30989415  0.22816161  1
  Ba  Ba3  1  0.61408081  0.69010585  0.77183839  1
  Ba  Ba4  1  0.27023072  0.10213889  0.45953856  1
  Ba  Ba5  1  0.72976928  0.89786111  0.54046144  1
  Ba  Ba6  1  0.14843222  0.94005973  0.70313557  1
  Ba  Ba7  1  0.85156778  0.05994027  0.29686443  1
  Ba  Ba8  1  0.50000000  0.50000000  0.00000000  1
  Si  Si9  1  0.46534780  0.24620969  0.66487153  1
  Si  Si10  1  0.86978067  0.24620969  0.66487153  1
  Si  Si11  1  0.53465220  0.75379031  0.33512847  1
  Si  Si12  1  0.13021933  0.75379031  0.33512847  1
  Si  Si13  1  0.40849509  0.56522684  0.59845255  1
  Si  Si14  1  0.99305236  0.56522684  0.59845255  1
  Si  Si15  1  0.59150491  0.43477316  0.40154745  1
  Si  Si16  1  0.00694764  0.43477316  0.40154745  1
  Si  Si17  1  0.34297132  0.02335184  0.90813951  1
  Si  Si18  1  0.74888918  0.02335184  0.90813951  1
  Si  Si19  1  0.65702868  0.97664816  0.09186049  1
  Si  Si20  1  0.25111082  0.97664816  0.09186049  1
  Si  Si21  1  0.27478956  0.34323829  0.85120626  1
  Si  Si22  1  0.87400418  0.34323829  0.85120626  1
  Si  Si23  1  0.72521044  0.65676171  0.14879374  1
  Si  Si24  1  0.12599582  0.65676171  0.14879374  1
  O  O25  1  0.33962449  0.79881965  0.32075102  1
  O  O26  1  0.66037551  0.20118035  0.67924898  1
  O  O27  1  0.05841367  0.35961139  0.88317267  1
  O  O28  1  0.94158633  0.64038861  0.11682733  1
  O  O29  1  0.45453052  0.03022787  0.09093895  1
  O  O30  1  0.54546948  0.96977213  0.90906105  1
  O  O31  1  0.19431749  0.55511525  0.61136503  1
  O  O32  1  0.80568251  0.44488475  0.38863497  1
  O  O33  1  0.36023938  0.51566996  0.86700442  1
  O  O34  1  0.77275620  0.51566996  0.86700442  1
  O  O35  1  0.63976062  0.48433004  0.13299558  1
  O  O36  1  0.22724380  0.48433004  0.13299558  1
  O  O37  1  0.46398961  0.74283694  0.63347914  1
  O  O38  1  0.90253125  0.74283694  0.63347914  1
  O  O39  1  0.53601039  0.25716306  0.36652086  1
  O  O40  1  0.09746875  0.25716306  0.36652086  1
  O  O41  1  0.46988383  0.43716525  0.65233173  1
  O  O42  1  0.87778445  0.43716525  0.65233173  1
  O  O43  1  0.53011617  0.56283475  0.34766827  1
  O  O44  1  0.12221555  0.56283475  0.34766827  1
  O  O45  1  0.33600116  0.22357111  0.91061174  1
  O  O46  1  0.75338710  0.22357111  0.91061174  1
  O  O47  1  0.66399884  0.77642889  0.08938826  1
  O  O48  1  0.24661290  0.77642889  0.08938826  1
  O  O49  1  0.41948801  0.11358095  0.59306947  1
  O  O50  1  0.98744252  0.11358095  0.59306947  1
  O  O51  1  0.58051199  0.88641905  0.40693053  1
  O  O52  1  0.01255748  0.88641905  0.40693053  1
  O  O53  1  0.32101405  0.24203460  0.75449319  1
  O  O54  1  0.92449276  0.24203460  0.75449319  1
  O  O55  1  0.67898595  0.75796540  0.24550681  1
  O  O56  1  0.07550724  0.75796540  0.24550681  1
  O  O57  1  0.50000000  0.50000000  0.50000000  1
  O  O58  1  -0.00000000  0.50000000  0.50000000  1
  O  O59  1  0.29170705  0.91095780  0.83132372  1
  O  O60  1  0.87696923  0.91095780  0.83132372  1
  O  O61  1  0.70829295  0.08904220  0.16867628  1
  O  O62  1  0.12303077  0.08904220  0.16867628  1
  O  O63  1  0.21661473  0.00000000  0.00000000  1
  O  O64  1  0.78338527  1.00000000  1.00000000  1
