# generated using pymatgen
data_In2AgS3Cl
_symmetry_space_group_name_H-M   'P 1'
_cell_length_a   7.87677891
_cell_length_b   7.87677891
_cell_length_c   7.75260601
_cell_angle_alpha   90.00000000
_cell_angle_beta   59.46873479
_cell_angle_gamma   120.00000000
_symmetry_Int_Tables_number   1
_chemical_formula_structural   In2AgS3Cl
_chemical_formula_sum   'In4 Ag2 S6 Cl2'
_cell_volume   337.36151033
_cell_formula_units_Z   2
loop_
 _symmetry_equiv_pos_site_id
 _symmetry_equiv_pos_as_xyz
  1  'x, y, z'
loop_
 _atom_site_type_symbol
 _atom_site_label
 _atom_site_symmetry_multiplicity
 _atom_site_fract_x
 _atom_site_fract_y
 _atom_site_fract_z
 _atom_site_occupancy
  In  In0  1  0.75000000  0.37500000  0.87500000  1
  In  In1  1  0.25000000  0.37500000  0.37500000  1
  In  In2  1  0.25000000  0.87500000  0.37500000  1
  In  In3  1  0.75000000  0.37500000  0.37500000  1
  Ag  Ag4  1  0.57857422  0.78928711  0.63213866  1
  Ag  Ag5  1  0.92142578  0.96071289  0.11786134  1
  S  S6  1  0.71938304  0.13363142  0.14698554  1
  S  S7  1  0.71938304  0.58575162  0.14698554  1
  S  S8  1  0.26726284  0.13363142  0.14698554  1
  S  S9  1  0.78061696  0.61636858  0.60301446  1
  S  S10  1  0.78061696  0.16424838  0.60301446  1
  S  S11  1  0.23273716  0.61636858  0.60301446  1
  Cl  Cl12  1  0.24307025  0.12153513  0.63539462  1
  Cl  Cl13  1  0.25692975  0.62846487  0.11460538  1
