# generated using pymatgen
data_KAl3Fe2Si2(HO6)2
_symmetry_space_group_name_H-M   'P 1'
_cell_length_a   5.43152991
_cell_length_b   5.41264414
_cell_length_c   10.40921999
_cell_angle_alpha   94.70486708
_cell_angle_beta   95.85646885
_cell_angle_gamma   119.96879014
_symmetry_Int_Tables_number   1
_chemical_formula_structural   KAl3Fe2Si2(HO6)2
_chemical_formula_sum   'K1 Al3 Fe2 Si2 H2 O12'
_cell_volume   260.56141026
_cell_formula_units_Z   1
loop_
 _symmetry_equiv_pos_site_id
 _symmetry_equiv_pos_as_xyz
  1  'x, y, z'
loop_
 _atom_site_type_symbol
 _atom_site_label
 _atom_site_symmetry_multiplicity
 _atom_site_fract_x
 _atom_site_fract_y
 _atom_site_fract_z
 _atom_site_occupancy
  K  K0  1  0.00090615  0.99831695  0.00010325  1
  Al  Al1  1  0.82669836  0.16816526  0.50010268  1
  Al  Al2  1  0.41738802  0.74610851  0.22790862  1
  Al  Al3  1  0.59599484  0.25543293  0.77117990  1
  Fe  Fe4  1  0.50036168  0.50299849  0.50028792  1
  Fe  Fe5  1  0.17380747  0.83482068  0.50028520  1
  Si  Si6  1  0.74602864  0.40144077  0.22615553  1
  Si  Si7  1  0.24786766  0.57913038  0.77298395  1
  H  H8  1  0.07379031  0.10269882  0.30908836  1
  H  H9  1  0.90096819  0.92093089  0.69356871  1
  O  O10  1  0.10029700  0.13611242  0.40370622  1
  O  O11  1  0.87573616  0.89992524  0.59898300  1
  O  O12  1  0.63018470  0.06637666  0.16487250  1
  O  O13  1  0.04926911  0.62046548  0.17900907  1
  O  O14  1  0.36326448  0.92066676  0.81689345  1
  O  O15  1  0.95895589  0.38250019  0.83611361  1
  O  O16  1  0.50082600  0.82792019  0.40182885  1
  O  O17  1  0.80508491  0.43622051  0.39081963  1
  O  O18  1  0.56686368  0.20882187  0.59696765  1
  O  O19  1  0.16361930  0.49880715  0.60878513  1
  O  O20  1  0.50150834  0.48173445  0.17938879  1
  O  O21  1  0.50057911  0.51040541  0.82096799  1
