# generated using pymatgen
data_K2Cd3SnAs4
_symmetry_space_group_name_H-M   'P 1'
_cell_length_a   4.49359210
_cell_length_b   9.49787933
_cell_length_c   7.81685915
_cell_angle_alpha   65.42616983
_cell_angle_beta   89.98076369
_cell_angle_gamma   103.70318939
_symmetry_Int_Tables_number   1
_chemical_formula_structural   K2Cd3SnAs4
_chemical_formula_sum   'K2 Cd3 Sn1 As4'
_cell_volume   292.91636880
_cell_formula_units_Z   1
loop_
 _symmetry_equiv_pos_site_id
 _symmetry_equiv_pos_as_xyz
  1  'x, y, z'
loop_
 _atom_site_type_symbol
 _atom_site_label
 _atom_site_symmetry_multiplicity
 _atom_site_fract_x
 _atom_site_fract_y
 _atom_site_fract_z
 _atom_site_occupancy
  K  K0  1  0.50644013  0.01304593  0.49470609  1
  K  K1  1  0.00418013  0.00822130  0.99476959  1
  Cd  Cd2  1  0.80442599  0.60893337  0.87385056  1
  Cd  Cd3  1  0.67674983  0.35396463  0.67159072  1
  Cd  Cd4  1  0.18226222  0.36534569  0.13615264  1
  Sn  Sn5  1  0.31293521  0.62468978  0.34341845  1
  As  As6  1  0.63143821  0.26352452  0.03916843  1
  As  As7  1  0.15085088  0.30200887  0.51114358  1
  As  As8  1  0.36750841  0.73489088  0.96464390  1
  As  As9  1  0.86320898  0.72537504  0.47055604  1
