# generated using pymatgen
data_K5BaTaP4
_symmetry_space_group_name_H-M   'P 1'
_cell_length_a   7.99663381
_cell_length_b   10.27040987
_cell_length_c   10.27040987
_cell_angle_alpha   120.51750928
_cell_angle_beta   89.31073232
_cell_angle_gamma   89.31073232
_symmetry_Int_Tables_number   1
_chemical_formula_structural   K5BaTaP4
_chemical_formula_sum   'K10 Ba2 Ta2 P8'
_cell_volume   726.43576550
_cell_formula_units_Z   2
loop_
 _symmetry_equiv_pos_site_id
 _symmetry_equiv_pos_as_xyz
  1  'x, y, z'
loop_
 _atom_site_type_symbol
 _atom_site_label
 _atom_site_symmetry_multiplicity
 _atom_site_fract_x
 _atom_site_fract_y
 _atom_site_fract_z
 _atom_site_occupancy
  K  K0  1  0.49926177  0.53563404  0.47469265  1
  K  K1  1  0.49904795  0.93918363  0.47383295  1
  K  K2  1  0.99926177  0.47469265  0.53563404  1
  K  K3  1  0.99904795  0.47383295  0.93918363  1
  K  K4  1  0.32347804  0.13433733  0.85384925  1
  K  K5  1  0.30436476  0.71108095  0.84597757  1
  K  K6  1  0.33274210  0.14699975  0.28742589  1
  K  K7  1  0.82347804  0.85384925  0.13433733  1
  K  K8  1  0.83274210  0.28742589  0.14699975  1
  K  K9  1  0.80436476  0.84597757  0.71108095  1
  Ba  Ba10  1  0.50438488  0.53548603  0.06716785  1
  Ba  Ba11  1  0.00438488  0.06716785  0.53548603  1
  Ta  Ta12  1  0.60495016  0.33047552  0.66552424  1
  Ta  Ta13  1  0.10495016  0.66552424  0.33047552  1
  P  P14  1  0.30403784  0.32294689  0.66677703  1
  P  P15  1  0.80403784  0.66677703  0.32294689  1
  P  P16  1  0.70770587  0.20611331  0.79691750  1
  P  P17  1  0.68828267  0.59338517  0.80399452  1
  P  P18  1  0.71745397  0.19895448  0.40924344  1
  P  P19  1  0.20770587  0.79691750  0.20611331  1
  P  P20  1  0.21745397  0.40924344  0.19895448  1
  P  P21  1  0.18828267  0.80399452  0.59338517  1
