# generated using pymatgen
data_HoAl3Cu
_symmetry_space_group_name_H-M   'P 1'
_cell_length_a   4.12734358
_cell_length_b   4.13394965
_cell_length_c   6.08788648
_cell_angle_alpha   70.15220661
_cell_angle_beta   70.18525735
_cell_angle_gamma   90.00000000
_symmetry_Int_Tables_number   1
_chemical_formula_structural   HoAl3Cu
_chemical_formula_sum   'Ho1 Al3 Cu1'
_cell_volume   91.13728392
_cell_formula_units_Z   1
loop_
 _symmetry_equiv_pos_site_id
 _symmetry_equiv_pos_as_xyz
  1  'x, y, z'
loop_
 _atom_site_type_symbol
 _atom_site_label
 _atom_site_symmetry_multiplicity
 _atom_site_fract_x
 _atom_site_fract_y
 _atom_site_fract_z
 _atom_site_occupancy
  Ho  Ho0  1  0.99511683  0.99511683  0.00976635  1
  Al  Al1  1  0.40120489  0.40120489  0.19759021  1
  Al  Al2  1  0.74169807  0.24169807  0.51660386  1
  Al  Al3  1  0.24179301  0.74179301  0.51641397  1
  Cu  Cu4  1  0.62018720  0.62018720  0.75962561  1
