# generated using pymatgen
data_K2MgH4(I2O7)2
_symmetry_space_group_name_H-M   'P 1'
_cell_length_a   8.18195024
_cell_length_b   8.05597725
_cell_length_c   8.12898216
_cell_angle_alpha   92.70231616
_cell_angle_beta   59.78421883
_cell_angle_gamma   120.51863698
_symmetry_Int_Tables_number   1
_chemical_formula_structural   K2MgH4(I2O7)2
_chemical_formula_sum   'K2 Mg1 H4 I4 O14'
_cell_volume   382.91783829
_cell_formula_units_Z   1
loop_
 _symmetry_equiv_pos_site_id
 _symmetry_equiv_pos_as_xyz
  1  'x, y, z'
loop_
 _atom_site_type_symbol
 _atom_site_label
 _atom_site_symmetry_multiplicity
 _atom_site_fract_x
 _atom_site_fract_y
 _atom_site_fract_z
 _atom_site_occupancy
  K  K0  1  0.13404409  0.00000000  0.00000000  1
  K  K1  1  0.65528173  0.00000000  0.00000000  1
  Mg  Mg2  1  0.08082885  0.50000000  0.50000000  1
  H  H3  1  0.31739305  0.37672225  0.53856811  1
  H  H4  1  0.47923890  0.62327775  0.46143189  1
  H  H5  1  0.84128664  0.53195076  0.37517261  1
  H  H6  1  0.68450849  0.46804924  0.62482739  1
  I  I7  1  0.65629074  0.48900855  0.97964603  1
  I  I8  1  0.14692823  0.51099145  0.02035397  1
  I  I9  1  0.67433288  0.03933069  0.51773149  1
  I  I10  1  0.15273368  0.96066931  0.48226851  1
  O  O11  1  0.82936675  0.50000000  0.50000000  1
  O  O12  1  0.83146504  0.76279579  0.87901960  1
  O  O13  1  0.94768885  0.23720421  0.12098040  1
  O  O14  1  0.85850650  0.42211378  0.82047264  1
  O  O15  1  0.25686536  0.57788622  0.17952736  1
  O  O16  1  0.72331251  0.85069792  0.41427473  1
  O  O17  1  0.28688933  0.14930208  0.58572527  1
  O  O18  1  0.32907956  0.50000000  0.50000000  1
  O  O19  1  0.92844183  0.18973776  0.52855252  1
  O  O20  1  0.26725660  0.81026224  0.47144748  1
  O  O21  1  0.49310949  0.41412363  0.86484645  1
  O  O22  1  0.94383231  0.58587637  0.13515355  1
  O  O23  1  0.46312999  0.90648565  0.78320427  1
  O  O24  1  0.33984861  0.09351435  0.21679573  1
