# generated using pymatgen
data_Ho5Co19P12
_symmetry_space_group_name_H-M   'P 1'
_cell_length_a   3.65773294
_cell_length_b   11.96187174
_cell_length_c   11.96393638
_cell_angle_alpha   119.99429225
_cell_angle_beta   89.99971454
_cell_angle_gamma   90.00057109
_symmetry_Int_Tables_number   1
_chemical_formula_structural   Ho5Co19P12
_chemical_formula_sum   'Ho5 Co19 P12'
_cell_volume   453.35753372
_cell_formula_units_Z   1
loop_
 _symmetry_equiv_pos_site_id
 _symmetry_equiv_pos_as_xyz
  1  'x, y, z'
loop_
 _atom_site_type_symbol
 _atom_site_label
 _atom_site_symmetry_multiplicity
 _atom_site_fract_x
 _atom_site_fract_y
 _atom_site_fract_z
 _atom_site_occupancy
  Ho  Ho0  1  0.00077154  0.33328053  0.66662889  1
  Ho  Ho1  1  0.00077154  0.66665164  0.33337111  1
  Ho  Ho2  1  0.50190307  0.18745987  0.00000000  1
  Ho  Ho3  1  0.50193031  0.81246471  0.81240299  1
  Ho  Ho4  1  0.50193031  0.00006172  0.18759701  1
  Co  Co5  1  0.50098641  0.12531405  0.48386000  1
  Co  Co6  1  0.50099164  0.35853292  0.87468033  1
  Co  Co7  1  0.50098443  0.51606190  0.64152090  1
  Co  Co8  1  0.50098641  0.64145405  0.51614000  1
  Co  Co9  1  0.50099164  0.48385259  0.12531967  1
  Co  Co10  1  0.50098443  0.87454100  0.35847910  1
  Co  Co11  1  0.00098176  0.55280094  1.00000000  1
  Co  Co12  1  0.00099717  0.44729038  0.44715277  1
  Co  Co13  1  0.00099717  0.00013762  0.55284723  1
  Co  Co14  1  0.00150701  0.19973960  0.37782207  1
  Co  Co15  1  0.00150634  0.17816454  0.80043989  1
  Co  Co16  1  0.00150515  0.62217118  0.82182763  1
  Co  Co17  1  0.00150701  0.82191753  0.62217793  1
  Co  Co18  1  0.00150634  0.37772465  0.19956011  1
  Co  Co19  1  0.00150515  0.80034355  0.17817237  1
  Co  Co20  1  0.50191393  0.71483037  1.00000000  1
  Co  Co21  1  0.50189979  0.28515682  0.28514321  1
  Co  Co22  1  0.50189979  0.00001361  0.71485679  1
  Co  Co23  1  -0.00086264  0.99991354  0.00000000  1
  P  P24  1  0.50123330  0.31416850  0.48045327  1
  P  P25  1  0.50123514  0.16628314  0.68581215  1
  P  P26  1  0.50122495  0.51956998  0.83376930  1
  P  P27  1  0.50123330  0.83371523  0.51954673  1
  P  P28  1  0.50123514  0.48047098  0.31418785  1
  P  P29  1  0.50122495  0.68580068  0.16623070  1
  P  P30  1  0.00163790  0.81906295  0.00000000  1
  P  P31  1  0.00163075  0.18083766  0.18084379  1
  P  P32  1  0.00163075  -0.00000612  0.81915621  1
  P  P33  1  0.00153858  0.36807422  0.00000000  1
  P  P34  1  0.00153977  0.63204974  0.63205601  1
  P  P35  1  0.00153977  -0.00000627  0.36794399  1
