# generated using pymatgen
data_K2NbV(PO5)2
_symmetry_space_group_name_H-M   'P 1'
_cell_length_a   6.55366602
_cell_length_b   10.94595512
_cell_length_c   13.15462492
_cell_angle_alpha   90.00000000
_cell_angle_beta   90.00000000
_cell_angle_gamma   90.00000000
_symmetry_Int_Tables_number   1
_chemical_formula_structural   K2NbV(PO5)2
_chemical_formula_sum   'K8 Nb4 V4 P8 O40'
_cell_volume   943.66193764
_cell_formula_units_Z   4
loop_
 _symmetry_equiv_pos_site_id
 _symmetry_equiv_pos_as_xyz
  1  'x, y, z'
loop_
 _atom_site_type_symbol
 _atom_site_label
 _atom_site_symmetry_multiplicity
 _atom_site_fract_x
 _atom_site_fract_y
 _atom_site_fract_z
 _atom_site_occupancy
  K  K0  1  0.72429999  0.30464339  0.87614952  1
  K  K1  1  0.27570001  0.80464339  0.12385048  1
  K  K2  1  0.22429999  0.80464339  0.62385048  1
  K  K3  1  0.77570001  0.30464339  0.37614952  1
  K  K4  1  0.81551175  0.06823391  0.60271833  1
  K  K5  1  0.18448825  0.56823391  0.39728167  1
  K  K6  1  0.31551175  0.56823391  0.89728167  1
  K  K7  1  0.68448825  0.06823391  0.10271833  1
  Nb  Nb8  1  0.00557027  0.00353388  0.86908606  1
  Nb  Nb9  1  0.99442973  0.50353388  0.13091394  1
  Nb  Nb10  1  0.50557027  0.50353388  0.63091394  1
  Nb  Nb11  1  0.49442973  0.00353388  0.36908606  1
  V  V12  1  0.25112718  0.25124805  0.74622225  1
  V  V13  1  0.74887282  0.75124805  0.25377775  1
  V  V14  1  0.75112718  0.75124805  0.75377775  1
  V  V15  1  0.24887282  0.25124805  0.24622225  1
  P  P16  1  0.99984015  0.50272851  0.68306337  1
  P  P17  1  0.00015985  0.00272851  0.31693663  1
  P  P18  1  0.49984015  0.00272851  0.81693663  1
  P  P19  1  0.50015985  0.50272851  0.18306337  1
  P  P20  1  0.16399071  0.25518196  0.99851970  1
  P  P21  1  0.83600929  0.75518196  0.00148030  1
  P  P22  1  0.66399071  0.75518196  0.50148030  1
  P  P23  1  0.33600929  0.25518196  0.49851970  1
  O  O24  1  0.46202709  0.38186855  0.72703985  1
  O  O25  1  0.53797291  0.88186855  0.27296015  1
  O  O26  1  0.96202709  0.88186855  0.77296015  1
  O  O27  1  0.03797291  0.38186855  0.22703985  1
  O  O28  1  0.03103165  0.37349472  0.01082291  1
  O  O29  1  0.96896835  0.87349472  0.98917709  1
  O  O30  1  0.53103165  0.87349472  0.48917709  1
  O  O31  1  0.46896835  0.37349472  0.51082291  1
  O  O32  1  0.29954741  0.23285479  0.09284923  1
  O  O33  1  0.70045259  0.73285479  0.90715077  1
  O  O34  1  0.79954741  0.73285479  0.40715077  1
  O  O35  1  0.20045259  0.23285479  0.59284923  1
  O  O36  1  0.03392323  0.38770983  0.74767486  1
  O  O37  1  0.96607677  0.88770983  0.25232514  1
  O  O38  1  0.53392323  0.88770983  0.75232514  1
  O  O39  1  0.46607677  0.38770983  0.24767486  1
  O  O40  1  0.53668293  0.62801175  0.72544937  1
  O  O41  1  0.46331707  0.12801175  0.27455063  1
  O  O42  1  0.03668293  0.12801175  0.77455063  1
  O  O43  1  0.96331707  0.62801175  0.22544937  1
  O  O44  1  0.96522449  0.61342433  0.75392779  1
  O  O45  1  0.03477551  0.11342433  0.24607221  1
  O  O46  1  0.46522449  0.11342433  0.74607221  1
  O  O47  1  0.53477551  0.61342433  0.25392779  1
  O  O48  1  0.81319203  0.48155353  0.61027475  1
  O  O49  1  0.18680797  0.98155353  0.38972525  1
  O  O50  1  0.31319203  0.98155353  0.88972525  1
  O  O51  1  0.68680797  0.48155353  0.11027475  1
  O  O52  1  0.30082667  0.27275121  0.90321291  1
  O  O53  1  0.69917333  0.77275121  0.09678709  1
  O  O54  1  0.80082667  0.77275121  0.59678709  1
  O  O55  1  0.19917333  0.27275121  0.40321291  1
  O  O56  1  0.18746541  0.53157076  0.61306141  1
  O  O57  1  0.81253459  0.03157076  0.38693859  1
  O  O58  1  0.68746541  0.03157076  0.88693859  1
  O  O59  1  0.31253459  0.53157076  0.11306141  1
  O  O60  1  0.01118729  0.14659084  0.98457156  1
  O  O61  1  0.98881271  0.64659084  0.01542844  1
  O  O62  1  0.51118729  0.64659084  0.51542844  1
  O  O63  1  0.48881271  0.14659084  0.48457156  1
