# generated using pymatgen
data_K5U(PS4)3
_symmetry_space_group_name_H-M   'P 1'
_cell_length_a   9.86079686
_cell_length_b   14.81198848
_cell_length_c   17.32711830
_cell_angle_alpha   90.00000000
_cell_angle_beta   90.00000000
_cell_angle_gamma   108.98130706
_symmetry_Int_Tables_number   1
_chemical_formula_structural   K5U(PS4)3
_chemical_formula_sum   'K20 U4 P12 S48'
_cell_volume   2393.15344500
_cell_formula_units_Z   4
loop_
 _symmetry_equiv_pos_site_id
 _symmetry_equiv_pos_as_xyz
  1  'x, y, z'
loop_
 _atom_site_type_symbol
 _atom_site_label
 _atom_site_symmetry_multiplicity
 _atom_site_fract_x
 _atom_site_fract_y
 _atom_site_fract_z
 _atom_site_occupancy
  K  K0  1  0.94389012  0.31307234  0.00515608  1
  K  K1  1  0.55610988  0.68692766  0.50515608  1
  K  K2  1  0.05610988  0.68692766  0.99484392  1
  K  K3  1  0.44389012  0.31307234  0.49484392  1
  K  K4  1  0.84374455  0.92438595  0.79632214  1
  K  K5  1  0.65625545  0.07561405  0.29632214  1
  K  K6  1  0.15625545  0.07561405  0.20367786  1
  K  K7  1  0.34374455  0.92438595  0.70367786  1
  K  K8  1  0.21860549  0.55383219  0.79955357  1
  K  K9  1  0.28139451  0.44616781  0.29955357  1
  K  K10  1  0.78139451  0.44616781  0.20044643  1
  K  K11  1  0.71860549  0.55383219  0.70044643  1
  K  K12  1  0.71490247  0.01312731  0.02979669  1
  K  K13  1  0.78509753  0.98687269  0.52979669  1
  K  K14  1  0.28509753  0.98687269  0.97020331  1
  K  K15  1  0.21490247  0.01312731  0.47020331  1
  K  K16  1  0.17373160  0.23062280  0.69362819  1
  K  K17  1  0.32626840  0.76937720  0.19362819  1
  K  K18  1  0.82626840  0.76937720  0.30637181  1
  K  K19  1  0.67373160  0.23062280  0.80637181  1
  U  U20  1  0.39379504  0.33375753  0.99899772  1
  U  U21  1  0.10620496  0.66624247  0.49899772  1
  U  U22  1  0.60620496  0.66624247  0.00100228  1
  U  U23  1  0.89379504  0.33375753  0.50100228  1
  P  P24  1  0.56532489  0.19027445  0.10796605  1
  P  P25  1  0.93467511  0.80972555  0.60796605  1
  P  P26  1  0.43467511  0.80972555  0.89203395  1
  P  P27  1  0.06532489  0.19027445  0.39203395  1
  P  P28  1  0.10234678  0.16362062  0.89699065  1
  P  P29  1  0.39765322  0.83637938  0.39699065  1
  P  P30  1  0.89765322  0.83637938  0.10300935  1
  P  P31  1  0.60234678  0.16362062  0.60300935  1
  P  P32  1  0.72666878  0.48379611  0.90512628  1
  P  P33  1  0.77333122  0.51620389  0.40512628  1
  P  P34  1  0.27333122  0.51620389  0.09487372  1
  P  P35  1  0.22666878  0.48379611  0.59487372  1
  S  S36  1  0.76753506  0.22881554  0.15103804  1
  S  S37  1  0.73246494  0.77118446  0.65103804  1
  S  S38  1  0.23246494  0.77118446  0.84896196  1
  S  S39  1  0.26753506  0.22881554  0.34896196  1
  S  S40  1  0.88824824  0.43684663  0.87273439  1
  S  S41  1  0.61175176  0.56315337  0.37273439  1
  S  S42  1  0.11175176  0.56315337  0.12726561  1
  S  S43  1  0.38824824  0.43684663  0.62726561  1
  S  S44  1  0.66930017  0.47883118  0.02211914  1
  S  S45  1  0.83069983  0.52116882  0.52211914  1
  S  S46  1  0.33069983  0.52116882  0.97788086  1
  S  S47  1  0.16930017  0.47883118  0.47788086  1
  S  S48  1  0.56272016  0.21509091  0.98808101  1
  S  S49  1  0.93727984  0.78490909  0.48808101  1
  S  S50  1  0.43727984  0.78490909  0.01191899  1
  S  S51  1  0.06272016  0.21509091  0.51191899  1
  S  S52  1  0.22042271  0.37340337  0.11952823  1
  S  S53  1  0.27957729  0.62659663  0.61952823  1
  S  S54  1  0.77957729  0.62659663  0.88047177  1
  S  S55  1  0.72042271  0.37340337  0.38047177  1
  S  S56  1  0.18173735  0.08245902  0.82844884  1
  S  S57  1  0.31826265  0.91754098  0.32844884  1
  S  S58  1  0.81826265  0.91754098  0.17155116  1
  S  S59  1  0.68173735  0.08245902  0.67155116  1
  S  S60  1  0.45348135  0.27923832  0.14622411  1
  S  S61  1  0.04651865  0.72076168  0.64622411  1
  S  S62  1  0.54651865  0.72076168  0.85377589  1
  S  S63  1  0.95348135  0.27923832  0.35377589  1
  S  S64  1  0.88709881  0.12990137  0.88500158  1
  S  S65  1  0.61290119  0.87009863  0.38500158  1
  S  S66  1  0.11290119  0.87009863  0.11499842  1
  S  S67  1  0.38709881  0.12990137  0.61499842  1
  S  S68  1  0.45848329  0.05223886  0.13352810  1
  S  S69  1  0.04151671  0.94776114  0.63352810  1
  S  S70  1  0.54151671  0.94776114  0.86647190  1
  S  S71  1  0.95848329  0.05223886  0.36647190  1
  S  S72  1  0.53359883  0.40401203  0.85588885  1
  S  S73  1  0.96640117  0.59598797  0.35588885  1
  S  S74  1  0.46640117  0.59598797  0.14411115  1
  S  S75  1  0.03359883  0.40401203  0.64411115  1
  S  S76  1  0.16014995  0.16096810  0.01280789  1
  S  S77  1  0.33985005  0.83903190  0.51280789  1
  S  S78  1  0.83985005  0.83903190  0.98719211  1
  S  S79  1  0.66014995  0.16096810  0.48719211  1
  S  S80  1  0.20046138  0.30904931  0.87407819  1
  S  S81  1  0.29953862  0.69095069  0.37407819  1
  S  S82  1  0.79953862  0.69095069  0.12592181  1
  S  S83  1  0.70046138  0.30904931  0.62592181  1
