# generated using pymatgen
data_Hf6Al2Fe
_symmetry_space_group_name_H-M   'P 1'
_cell_length_a   3.26598159
_cell_length_b   7.86239475
_cell_length_c   7.86239512
_cell_angle_alpha   60.00463437
_cell_angle_beta   90.00000000
_cell_angle_gamma   90.00000000
_symmetry_Int_Tables_number   1
_chemical_formula_structural   Hf6Al2Fe
_chemical_formula_sum   'Hf6 Al2 Fe1'
_cell_volume   174.85350927
_cell_formula_units_Z   1
loop_
 _symmetry_equiv_pos_site_id
 _symmetry_equiv_pos_as_xyz
  1  'x, y, z'
loop_
 _atom_site_type_symbol
 _atom_site_label
 _atom_site_symmetry_multiplicity
 _atom_site_fract_x
 _atom_site_fract_y
 _atom_site_fract_z
 _atom_site_occupancy
  Hf  Hf0  1  0.50000000  0.60421784  0.39578216  1
  Hf  Hf1  1  0.50000000  0.39575575  0.00006775  1
  Hf  Hf2  1  0.50000000  0.99993225  0.60424425  1
  Hf  Hf3  1  -0.00000000  0.25019511  0.74980489  1
  Hf  Hf4  1  -0.00000000  0.74969452  0.99996099  1
  Hf  Hf5  1  -0.00000000  0.00003901  0.25030548  1
  Al  Al6  1  -0.00000000  0.33317233  0.33345167  1
  Al  Al7  1  -0.00000000  0.66654833  0.66682767  1
  Fe  Fe8  1  0.50000000  0.00034486  0.99965514  1
