# generated using pymatgen
data_In6Te10Pb
_symmetry_space_group_name_H-M   'P 1'
_cell_length_a   10.96871308
_cell_length_b   10.91714113
_cell_length_c   10.96871308
_cell_angle_alpha   89.54822851
_cell_angle_beta   90.91539315
_cell_angle_gamma   90.45177149
_symmetry_Int_Tables_number   1
_chemical_formula_structural   In6Te10Pb
_chemical_formula_sum   'In12 Te20 Pb2'
_cell_volume   1313.22236421
_cell_formula_units_Z   2
loop_
 _symmetry_equiv_pos_site_id
 _symmetry_equiv_pos_as_xyz
  1  'x, y, z'
loop_
 _atom_site_type_symbol
 _atom_site_label
 _atom_site_symmetry_multiplicity
 _atom_site_fract_x
 _atom_site_fract_y
 _atom_site_fract_z
 _atom_site_occupancy
  In  In0  1  0.82456979  0.33285836  0.74318155  1
  In  In1  1  0.66101445  0.74472412  0.17269286  1
  In  In2  1  0.25532191  0.17325575  0.34076353  1
  In  In3  1  0.34076353  0.82674425  0.25532191  1
  In  In4  1  0.74318155  0.66714164  0.82456979  1
  In  In5  1  0.17269286  0.25527588  0.66101445  1
  In  In6  1  0.12412923  0.57650763  0.84323624  1
  In  In7  1  0.42753440  0.84375555  0.87138139  1
  In  In8  1  0.15584336  0.87592581  0.57580138  1
  In  In9  1  0.57580138  0.12407419  0.15584336  1
  In  In10  1  0.84323624  0.42349237  0.12412923  1
  In  In11  1  0.87138139  0.15624445  0.42753440  1
  Te  Te12  1  0.16911459  -0.00000000  0.16911459  1
  Te  Te13  1  0.00442338  0.16831837  0.83061822  1
  Te  Te14  1  0.83061822  0.83168163  0.00442338  1
  Te  Te15  1  0.16495594  0.83693518  0.83622974  1
  Te  Te16  1  0.83622974  0.16306482  0.16495594  1
  Te  Te17  1  0.32659403  0.43629862  0.76735546  1
  Te  Te18  1  0.55782628  0.75713366  0.67509380  1
  Te  Te19  1  0.23505177  0.67449615  0.43542526  1
  Te  Te20  1  0.43542526  0.32550385  0.23505177  1
  Te  Te21  1  0.76735546  0.56370138  0.32659403  1
  Te  Te22  1  0.67509380  0.24286634  0.55782628  1
  Te  Te23  1  0.08995773  0.50000000  0.08995773  1
  Te  Te24  1  0.49605864  0.09308954  0.91162146  1
  Te  Te25  1  0.91162146  0.90691046  0.49605864  1
  Te  Te26  1  0.92931277  0.56834011  0.66942427  1
  Te  Te27  1  0.43027825  0.66799371  0.07002284  1
  Te  Te28  1  0.33439143  0.06970345  0.56997929  1
  Te  Te29  1  0.56997929  0.93029655  0.33439143  1
  Te  Te30  1  0.66942427  0.43165989  0.92931277  1
  Te  Te31  1  0.07002284  0.33200629  0.43027825  1
  Pb  Pb32  1  0.99605237  0.74230812  0.26524240  1
  Pb  Pb33  1  0.26524240  0.25769188  0.99605237  1
