# generated using pymatgen
data_Hf3Ga3Pd2Pt
_symmetry_space_group_name_H-M   'P 1'
_cell_length_a   6.98518199
_cell_length_b   7.18339634
_cell_length_c   7.18348717
_cell_angle_alpha   119.99939972
_cell_angle_beta   90.00000000
_cell_angle_gamma   90.00000000
_symmetry_Int_Tables_number   1
_chemical_formula_structural   Hf3Ga3Pd2Pt
_chemical_formula_sum   'Hf6 Ga6 Pd4 Pt2'
_cell_volume   312.15919601
_cell_formula_units_Z   2
loop_
 _symmetry_equiv_pos_site_id
 _symmetry_equiv_pos_as_xyz
  1  'x, y, z'
loop_
 _atom_site_type_symbol
 _atom_site_label
 _atom_site_symmetry_multiplicity
 _atom_site_fract_x
 _atom_site_fract_y
 _atom_site_fract_z
 _atom_site_occupancy
  Hf  Hf0  1  0.25000000  0.41289148  0.38848898  1
  Hf  Hf1  1  0.25000000  0.97558342  0.58710794  1
  Hf  Hf2  1  0.25000000  0.61151860  0.02441080  1
  Hf  Hf3  1  0.75000000  0.02317916  0.61107105  1
  Hf  Hf4  1  0.75000000  0.38891704  0.41211360  1
  Hf  Hf5  1  0.75000000  0.58788936  0.97681216  1
  Ga  Ga6  1  0.99990585  0.26490504  0.99931346  1
  Ga  Ga7  1  0.99990667  0.73440199  0.73509020  1
  Ga  Ga8  1  0.99990445  0.00068664  0.26560114  1
  Ga  Ga9  1  0.50009415  0.26490504  0.99931346  1
  Ga  Ga10  1  0.50009333  0.73440199  0.73509020  1
  Ga  Ga11  1  0.50009555  0.00068664  0.26560114  1
  Pd  Pd12  1  0.25000000  -0.00000012  0.99999959  1
  Pd  Pd13  1  0.75000000  0.99999822  0.99999820  1
  Pd  Pd14  1  0.03488624  0.33330371  0.66668374  1
  Pd  Pd15  1  0.46511376  0.33330371  0.66668374  1
  Pt  Pt16  1  0.53472709  0.66661405  0.33331030  1
  Pt  Pt17  1  0.96527291  0.66661405  0.33331030  1
