# generated using pymatgen
data_K2P2PdO7
_symmetry_space_group_name_H-M   'P 1'
_cell_length_a   7.08647652
_cell_length_b   9.55548327
_cell_length_c   11.16537770
_cell_angle_alpha   90.00000000
_cell_angle_beta   90.00000000
_cell_angle_gamma   90.00000000
_symmetry_Int_Tables_number   1
_chemical_formula_structural   K2P2PdO7
_chemical_formula_sum   'K8 P8 Pd4 O28'
_cell_volume   756.06028877
_cell_formula_units_Z   4
loop_
 _symmetry_equiv_pos_site_id
 _symmetry_equiv_pos_as_xyz
  1  'x, y, z'
loop_
 _atom_site_type_symbol
 _atom_site_label
 _atom_site_symmetry_multiplicity
 _atom_site_fract_x
 _atom_site_fract_y
 _atom_site_fract_z
 _atom_site_occupancy
  K  K0  1  0.75000000  0.40919617  0.53261155  1
  K  K1  1  0.75000000  0.90919617  0.96738845  1
  K  K2  1  0.25000000  0.59080383  0.46738845  1
  K  K3  1  0.25000000  0.09080383  0.03261155  1
  K  K4  1  0.25000000  0.64964652  0.03192065  1
  K  K5  1  0.25000000  0.14964652  0.46807935  1
  K  K6  1  0.75000000  0.35035348  0.96807935  1
  K  K7  1  0.75000000  0.85035348  0.53192065  1
  P  P8  1  0.46583353  0.36552547  0.23078694  1
  P  P9  1  0.03416647  0.86552547  0.26921306  1
  P  P10  1  0.96583353  0.63447453  0.76921306  1
  P  P11  1  0.53416647  0.13447453  0.73078694  1
  P  P12  1  0.53416647  0.63447453  0.76921306  1
  P  P13  1  0.96583353  0.13447453  0.73078694  1
  P  P14  1  0.03416647  0.36552547  0.23078694  1
  P  P15  1  0.46583353  0.86552547  0.26921306  1
  Pd  Pd16  1  0.75000000  0.61319217  0.24392439  1
  Pd  Pd17  1  0.75000000  0.11319217  0.25607561  1
  Pd  Pd18  1  0.25000000  0.38680783  0.75607561  1
  Pd  Pd19  1  0.25000000  0.88680783  0.74392439  1
  O  O20  1  0.55111696  0.23170224  0.17207339  1
  O  O21  1  0.94888304  0.73170224  0.32792661  1
  O  O22  1  0.05111696  0.76829776  0.82792661  1
  O  O23  1  0.44888304  0.26829776  0.67207339  1
  O  O24  1  0.44888304  0.76829776  0.82792661  1
  O  O25  1  0.05111696  0.26829776  0.67207339  1
  O  O26  1  0.94888304  0.23170224  0.17207339  1
  O  O27  1  0.55111696  0.73170224  0.32792661  1
  O  O28  1  0.53930600  0.49845694  0.16404571  1
  O  O29  1  0.96069400  0.99845694  0.33595429  1
  O  O30  1  0.03930600  0.50154306  0.83595429  1
  O  O31  1  0.46069400  0.00154306  0.66404571  1
  O  O32  1  0.46069400  0.50154306  0.83595429  1
  O  O33  1  0.03930600  0.00154306  0.66404571  1
  O  O34  1  0.96069400  0.49845694  0.16404571  1
  O  O35  1  0.53930600  0.99845694  0.33595429  1
  O  O36  1  0.46943670  0.37080093  0.36520260  1
  O  O37  1  0.03056330  0.87080093  0.13479740  1
  O  O38  1  0.96943670  0.62919907  0.63479740  1
  O  O39  1  0.53056330  0.12919907  0.86520260  1
  O  O40  1  0.53056330  0.62919907  0.63479740  1
  O  O41  1  0.96943670  0.12919907  0.86520260  1
  O  O42  1  0.03056330  0.37080093  0.36520260  1
  O  O43  1  0.46943670  0.87080093  0.13479740  1
  O  O44  1  0.25000000  0.35563001  0.17903665  1
  O  O45  1  0.25000000  0.85563001  0.32096335  1
  O  O46  1  0.75000000  0.64436999  0.82096335  1
  O  O47  1  0.75000000  0.14436999  0.67903665  1
