# generated using pymatgen
data_GaAgGeSe4
_symmetry_space_group_name_H-M   'P 1'
_cell_length_a   5.94012617
_cell_length_b   5.94012617
_cell_length_c   6.77964264
_cell_angle_alpha   64.01820401
_cell_angle_beta   64.01820401
_cell_angle_gamma   90.00000000
_symmetry_Int_Tables_number   1
_chemical_formula_structural   GaAgGeSe4
_chemical_formula_sum   'Ga1 Ag1 Ge1 Se4'
_cell_volume   187.77839682
_cell_formula_units_Z   1
loop_
 _symmetry_equiv_pos_site_id
 _symmetry_equiv_pos_as_xyz
  1  'x, y, z'
loop_
 _atom_site_type_symbol
 _atom_site_label
 _atom_site_symmetry_multiplicity
 _atom_site_fract_x
 _atom_site_fract_y
 _atom_site_fract_z
 _atom_site_occupancy
  Ga  Ga0  1  0.50000000  0.50000000  -0.00000000  1
  Ag  Ag1  1  0.25000000  0.75000000  0.50000000  1
  Ge  Ge2  1  0.75000000  0.25000000  0.50000000  1
  Se  Se3  1  0.65616100  0.61822348  0.23024336  1
  Se  Se4  1  0.11359564  0.15153316  0.23024336  1
  Se  Se5  1  0.84846684  0.34383900  0.76975664  1
  Se  Se6  1  0.38177652  0.88640436  0.76975664  1
