# generated using pymatgen
data_FeSb6Pd
_symmetry_space_group_name_H-M   'P 1'
_cell_length_a   8.04025512
_cell_length_b   8.09514675
_cell_length_c   8.04025512
_cell_angle_alpha   70.65917128
_cell_angle_beta   70.53750974
_cell_angle_gamma   109.33567364
_symmetry_Int_Tables_number   1
_chemical_formula_structural   FeSb6Pd
_chemical_formula_sum   'Fe2 Sb12 Pd2'
_cell_volume   404.20851898
_cell_formula_units_Z   2
loop_
 _symmetry_equiv_pos_site_id
 _symmetry_equiv_pos_as_xyz
  1  'x, y, z'
loop_
 _atom_site_type_symbol
 _atom_site_label
 _atom_site_symmetry_multiplicity
 _atom_site_fract_x
 _atom_site_fract_y
 _atom_site_fract_z
 _atom_site_occupancy
  Fe  Fe0  1  0.00000000  0.50000000  -0.00000000  1
  Fe  Fe1  1  0.50000000  0.50000000  0.50000000  1
  Sb  Sb2  1  0.67204804  0.51063224  0.16141580  1
  Sb  Sb3  1  0.32795196  0.48936776  0.83858420  1
  Sb  Sb4  1  0.65215443  0.80326356  0.84889087  1
  Sb  Sb5  1  0.34784557  0.19673644  0.15110913  1
  Sb  Sb6  1  0.85268562  0.34845231  0.81899738  1
  Sb  Sb7  1  0.14731438  0.65154769  0.18100262  1
  Sb  Sb8  1  0.16744969  0.34845231  0.50423331  1
  Sb  Sb9  1  0.83255031  0.65154769  0.49576669  1
  Sb  Sb10  1  0.49352397  0.16667956  0.65228448  1
  Sb  Sb11  1  0.50647603  0.83332044  0.34771552  1
  Sb  Sb12  1  0.18103596  0.83332044  0.67315559  1
  Sb  Sb13  1  0.81896404  0.16667956  0.32684441  1
  Pd  Pd14  1  0.50000000  0.00000000  -0.00000000  1
  Pd  Pd15  1  0.00000000  0.00000000  0.50000000  1
