# generated using pymatgen
data_ErZnCuP2
_symmetry_space_group_name_H-M   'P 1'
_cell_length_a   3.96546085
_cell_length_b   3.96546071
_cell_length_c   6.49528474
_cell_angle_alpha   90.00055421
_cell_angle_beta   90.00055420
_cell_angle_gamma   60.00031264
_symmetry_Int_Tables_number   1
_chemical_formula_structural   ErZnCuP2
_chemical_formula_sum   'Er1 Zn1 Cu1 P2'
_cell_volume   88.45400706
_cell_formula_units_Z   1
loop_
 _symmetry_equiv_pos_site_id
 _symmetry_equiv_pos_as_xyz
  1  'x, y, z'
loop_
 _atom_site_type_symbol
 _atom_site_label
 _atom_site_symmetry_multiplicity
 _atom_site_fract_x
 _atom_site_fract_y
 _atom_site_fract_z
 _atom_site_occupancy
  Er  Er0  1  0.99999873  0.99999873  0.01555955  1
  Zn  Zn1  1  0.33332595  0.33332595  0.62447062  1
  Cu  Cu2  1  0.66668254  0.66668254  0.36130487  1
  P  P3  1  0.66666348  0.66666348  0.74730727  1
  P  P4  1  0.33332929  0.33332929  0.25135769  1
