# generated using pymatgen
data_Dy2Ga3Cu
_symmetry_space_group_name_H-M   'P 1'
_cell_length_a   4.37049542
_cell_length_b   4.37215468
_cell_length_c   7.19274890
_cell_angle_alpha   90.00000000
_cell_angle_beta   89.99619461
_cell_angle_gamma   59.98744787
_symmetry_Int_Tables_number   1
_chemical_formula_structural   Dy2Ga3Cu
_chemical_formula_sum   'Dy2 Ga3 Cu1'
_cell_volume   119.01364923
_cell_formula_units_Z   1
loop_
 _symmetry_equiv_pos_site_id
 _symmetry_equiv_pos_as_xyz
  1  'x, y, z'
loop_
 _atom_site_type_symbol
 _atom_site_label
 _atom_site_symmetry_multiplicity
 _atom_site_fract_x
 _atom_site_fract_y
 _atom_site_fract_z
 _atom_site_occupancy
  Dy  Dy0  1  0.00002560  0.99998720  0.73097690  1
  Dy  Dy1  1  0.99993134  0.00003433  0.26073708  1
  Ga  Ga2  1  0.66661829  0.66669086  0.47559170  1
  Ga  Ga3  1  0.66657950  0.66671025  0.04549382  1
  Ga  Ga4  1  0.33335095  0.33332452  0.95069088  1
  Cu  Cu5  1  0.33349433  0.33325284  0.53650963  1
