# generated using pymatgen
data_EuSi3Ni
_symmetry_space_group_name_H-M   'P 1'
_cell_length_a   4.13509264
_cell_length_b   4.13509264
_cell_length_c   5.65025616
_cell_angle_alpha   68.53573196
_cell_angle_beta   68.53573196
_cell_angle_gamma   90.00000000
_symmetry_Int_Tables_number   1
_chemical_formula_structural   EuSi3Ni
_chemical_formula_sum   'Eu1 Si3 Ni1'
_cell_volume   82.67126952
_cell_formula_units_Z   1
loop_
 _symmetry_equiv_pos_site_id
 _symmetry_equiv_pos_as_xyz
  1  'x, y, z'
loop_
 _atom_site_type_symbol
 _atom_site_label
 _atom_site_symmetry_multiplicity
 _atom_site_fract_x
 _atom_site_fract_y
 _atom_site_fract_z
 _atom_site_occupancy
  Eu  Eu0  1  0.01290173  0.01290173  0.97419654  1
  Si  Si1  1  0.75915981  0.25915981  0.48168037  1
  Si  Si2  1  0.25915981  0.75915981  0.48168037  1
  Si  Si3  1  0.60354324  0.60354324  0.79291352  1
  Ni  Ni4  1  0.36523540  0.36523540  0.26952920  1
