# generated using pymatgen
data_Eu3DySb3
_symmetry_space_group_name_H-M   'P 1'
_cell_length_a   8.37348463
_cell_length_b   8.29060400
_cell_length_c   8.38968686
_cell_angle_alpha   70.46823889
_cell_angle_beta   70.12954584
_cell_angle_gamma   109.45218471
_symmetry_Int_Tables_number   1
_chemical_formula_structural   Eu3DySb3
_chemical_formula_sum   'Eu6 Dy2 Sb6'
_cell_volume   445.88866073
_cell_formula_units_Z   2
loop_
 _symmetry_equiv_pos_site_id
 _symmetry_equiv_pos_as_xyz
  1  'x, y, z'
loop_
 _atom_site_type_symbol
 _atom_site_label
 _atom_site_symmetry_multiplicity
 _atom_site_fract_x
 _atom_site_fract_y
 _atom_site_fract_z
 _atom_site_occupancy
  Eu  Eu0  1  0.49788505  0.14397812  0.00018393  1
  Eu  Eu1  1  0.64523487  0.49970938  0.50196954  1
  Eu  Eu2  1  0.00010967  0.99834310  0.35455994  1
  Eu  Eu3  1  0.35390692  0.85602188  0.64416205  1
  Eu  Eu4  1  0.14552549  0.50029062  0.50167892  1
  Eu  Eu5  1  0.00176657  0.00165690  0.85290304  1
  Dy  Dy6  1  0.85799736  0.35840643  0.14142313  1
  Dy  Dy7  1  0.49959093  0.64159357  0.99982956  1
  Sb  Sb8  1  0.38671169  0.26258239  0.36188157  1
  Sb  Sb9  1  0.12412931  0.73741761  0.12446396  1
  Sb  Sb10  1  0.86551379  0.61898585  0.76581904  1
  Sb  Sb11  1  0.62734491  0.87958941  0.24336552  1
  Sb  Sb12  1  0.74775550  0.12041059  0.62295493  1
  Sb  Sb13  1  0.24652794  0.38101415  0.88480489  1
