# generated using pymatgen
data_GaHg3AsSCl4
_symmetry_space_group_name_H-M   'P 1'
_cell_length_a   7.51933482
_cell_length_b   7.53321016
_cell_length_c   12.64348897
_cell_angle_alpha   90.04975519
_cell_angle_beta   90.10626835
_cell_angle_gamma   120.01181571
_symmetry_Int_Tables_number   1
_chemical_formula_structural   GaHg3AsSCl4
_chemical_formula_sum   'Ga2 Hg6 As2 S2 Cl8'
_cell_volume   620.15988513
_cell_formula_units_Z   2
loop_
 _symmetry_equiv_pos_site_id
 _symmetry_equiv_pos_as_xyz
  1  'x, y, z'
loop_
 _atom_site_type_symbol
 _atom_site_label
 _atom_site_symmetry_multiplicity
 _atom_site_fract_x
 _atom_site_fract_y
 _atom_site_fract_z
 _atom_site_occupancy
  Ga  Ga0  1  0.00032569  0.00025623  0.25985004  1
  Ga  Ga1  1  0.99934794  0.99939150  0.76460454  1
  Hg  Hg2  1  0.50187412  0.00364621  0.47103910  1
  Hg  Hg3  1  0.50186605  0.49859152  0.47093891  1
  Hg  Hg4  1  0.99686216  0.49861810  0.47085947  1
  Hg  Hg5  1  0.49803002  0.99606804  0.96067880  1
  Hg  Hg6  1  0.49805098  0.50181095  0.96068155  1
  Hg  Hg7  1  0.00370639  0.50179990  0.96080932  1
  As  As8  1  0.66730847  0.33402338  0.57601722  1
  As  As9  1  0.33391304  0.66719495  0.06629145  1
  S  S10  1  0.33341463  0.66683931  0.38170154  1
  S  S11  1  0.66614538  0.33265449  0.87182682  1
  Cl  Cl12  1  0.32202450  0.16088222  0.20882870  1
  Cl  Cl13  1  0.83886478  0.67800628  0.20798973  1
  Cl  Cl14  1  0.83870852  0.16073993  0.20841647  1
  Cl  Cl15  1  0.67748058  0.83869666  0.71234282  1
  Cl  Cl16  1  0.16063230  0.32136698  0.71242364  1
  Cl  Cl17  1  0.16090974  0.83900007  0.71241390  1
  Cl  Cl18  1  0.00034787  0.00029774  0.43661833  1
  Cl  Cl19  1  0.00018685  0.00011556  0.94026764  1
