# generated using pymatgen
data_Er12Ga9Ge11
_symmetry_space_group_name_H-M   'P 1'
_cell_length_a   5.98032949
_cell_length_b   5.98032949
_cell_length_c   18.73256321
_cell_angle_alpha   90.00000000
_cell_angle_beta   90.00000000
_cell_angle_gamma   102.97241976
_symmetry_Int_Tables_number   1
_chemical_formula_structural   Er12Ga9Ge11
_chemical_formula_sum   'Er12 Ga9 Ge11'
_cell_volume   652.85927069
_cell_formula_units_Z   1
loop_
 _symmetry_equiv_pos_site_id
 _symmetry_equiv_pos_as_xyz
  1  'x, y, z'
loop_
 _atom_site_type_symbol
 _atom_site_label
 _atom_site_symmetry_multiplicity
 _atom_site_fract_x
 _atom_site_fract_y
 _atom_site_fract_z
 _atom_site_occupancy
  Er  Er0  1  0.65449653  0.65449653  0.12500000  1
  Er  Er1  1  0.65376007  0.65376007  0.62500000  1
  Er  Er2  1  0.34623646  0.34623646  0.37507246  1
  Er  Er3  1  0.34623646  0.34623646  0.87492754  1
  Er  Er4  1  0.80121272  0.19923830  0.24980007  1
  Er  Er5  1  0.80118283  0.19873710  0.75007050  1
  Er  Er6  1  0.80121272  0.19923830  0.00019993  1
  Er  Er7  1  0.80118283  0.19873710  0.49992950  1
  Er  Er8  1  0.19923830  0.80121272  0.24980007  1
  Er  Er9  1  0.19873710  0.80118283  0.75007050  1
  Er  Er10  1  0.19873710  0.80118283  0.49992950  1
  Er  Er11  1  0.19923830  0.80121272  0.00019993  1
  Ga  Ga12  1  0.31983596  0.31983596  0.02623360  1
  Ga  Ga13  1  0.32268150  0.32268150  0.52514605  1
  Ga  Ga14  1  0.67749505  0.67749505  0.47473185  1
  Ga  Ga15  1  0.67815720  0.67815720  0.97497705  1
  Ga  Ga16  1  0.31983596  0.31983596  0.22376640  1
  Ga  Ga17  1  0.32268150  0.32268150  0.72485395  1
  Ga  Ga18  1  0.67815720  0.67815720  0.27502295  1
  Ga  Ga19  1  0.67749505  0.67749505  0.77526815  1
  Ga  Ga20  1  0.04111761  0.04111761  0.12500000  1
  Ge  Ge21  1  0.08702905  0.49456674  0.12500000  1
  Ge  Ge22  1  0.08734451  0.49486448  0.62500000  1
  Ge  Ge23  1  0.50533452  0.91295385  0.37485652  1
  Ge  Ge24  1  0.50533452  0.91295385  0.87514348  1
  Ge  Ge25  1  0.91295385  0.50533452  0.37485652  1
  Ge  Ge26  1  0.91295385  0.50533452  0.87514348  1
  Ge  Ge27  1  0.49456674  0.08702905  0.12500000  1
  Ge  Ge28  1  0.49486448  0.08734451  0.62500000  1
  Ge  Ge29  1  0.04007199  0.04007199  0.62500000  1
  Ge  Ge30  1  0.96030902  0.96030902  0.37512457  1
  Ge  Ge31  1  0.96030902  0.96030902  0.87487543  1
