# generated using pymatgen
data_CsTiAlO4
_symmetry_space_group_name_H-M   'P 1'
_cell_length_a   5.82163921
_cell_length_b   7.42874143
_cell_length_c   7.42874143
_cell_angle_alpha   93.87645707
_cell_angle_beta   113.06854827
_cell_angle_gamma   66.93145173
_symmetry_Int_Tables_number   1
_chemical_formula_structural   CsTiAlO4
_chemical_formula_sum   'Cs2 Ti2 Al2 O8'
_cell_volume   270.54333069
_cell_formula_units_Z   2
loop_
 _symmetry_equiv_pos_site_id
 _symmetry_equiv_pos_as_xyz
  1  'x, y, z'
loop_
 _atom_site_type_symbol
 _atom_site_label
 _atom_site_symmetry_multiplicity
 _atom_site_fract_x
 _atom_site_fract_y
 _atom_site_fract_z
 _atom_site_occupancy
  Cs  Cs0  1  0.75000000  0.20150723  0.20150723  1
  Cs  Cs1  1  0.25000000  0.79833356  0.79833356  1
  Ti  Ti2  1  0.44924651  0.21930057  0.61779358  1
  Ti  Ti3  1  0.05075349  0.61779358  0.21930057  1
  Al  Al4  1  0.93809706  0.39268763  0.76888175  1
  Al  Al5  1  0.56190294  0.76888175  0.39268763  1
  O  O6  1  0.72728469  0.76928076  0.23454805  1
  O  O7  1  0.23798260  0.76928076  0.23454805  1
  O  O8  1  0.26201740  0.23454805  0.76928076  1
  O  O9  1  0.77271531  0.23454805  0.76928076  1
  O  O10  1  0.99905951  0.49770357  0.99582259  1
  O  O11  1  0.50094049  0.99582259  0.49770357  1
  O  O12  1  0.75000000  0.57492579  0.57492579  1
  O  O13  1  0.25000000  0.42538612  0.42538612  1
