# generated using pymatgen
data_K3(InAu)8
_symmetry_space_group_name_H-M   'P 1'
_cell_length_a   5.89072309
_cell_length_b   13.09640595
_cell_length_c   13.03494864
_cell_angle_alpha   90.00000000
_cell_angle_beta   90.21166484
_cell_angle_gamma   90.00000000
_symmetry_Int_Tables_number   1
_chemical_formula_structural   K3(InAu)8
_chemical_formula_sum   'K6 In16 Au16'
_cell_volume   1005.60424347
_cell_formula_units_Z   2
loop_
 _symmetry_equiv_pos_site_id
 _symmetry_equiv_pos_as_xyz
  1  'x, y, z'
loop_
 _atom_site_type_symbol
 _atom_site_label
 _atom_site_symmetry_multiplicity
 _atom_site_fract_x
 _atom_site_fract_y
 _atom_site_fract_z
 _atom_site_occupancy
  K  K0  1  0.24945831  0.99930001  0.49879744  1
  K  K1  1  0.24945831  0.50069999  0.49879744  1
  K  K2  1  0.75034856  0.00101026  0.99929786  1
  K  K3  1  0.75034856  0.49898974  0.99929786  1
  K  K4  1  0.74963706  0.00075990  0.50130489  1
  K  K5  1  0.74963706  0.49924010  0.50130489  1
  In  In6  1  0.97909149  0.12495384  0.75151559  1
  In  In7  1  0.97909149  0.37504616  0.75151559  1
  In  In8  1  0.47031939  0.75000000  0.12371681  1
  In  In9  1  0.47642016  0.75000000  0.37441211  1
  In  In10  1  0.02817689  0.87585496  0.24827681  1
  In  In11  1  0.02817689  0.62414504  0.24827681  1
  In  In12  1  0.51975760  0.25000000  0.87530425  1
  In  In13  1  0.52577688  0.25000000  0.62521365  1
  In  In14  1  0.63421603  0.62504332  0.75030130  1
  In  In15  1  0.63421603  0.87495668  0.75030130  1
  In  In16  1  0.13738687  0.75000000  0.62615615  1
  In  In17  1  0.14241080  0.75000000  0.87696112  1
  In  In18  1  0.36037613  0.37569381  0.24725873  1
  In  In19  1  0.36037613  0.12430619  0.24725873  1
  In  In20  1  0.86278318  0.25000000  0.37491992  1
  In  In21  1  0.86295639  0.25000000  0.12554029  1
  Au  Au22  1  0.47986045  0.07653580  0.74824588  1
  Au  Au23  1  0.47986045  0.42346420  0.74824588  1
  Au  Au24  1  0.97678083  0.75000000  0.07702303  1
  Au  Au25  1  0.97984498  0.75000000  0.42313420  1
  Au  Au26  1  0.52181071  0.92347845  0.25200973  1
  Au  Au27  1  0.52181071  0.57652155  0.25200973  1
  Au  Au28  1  0.02133498  0.25000000  0.92383960  1
  Au  Au29  1  0.02084939  0.25000000  0.57671652  1
  Au  Au30  1  0.12666968  0.57553943  0.74905333  1
  Au  Au31  1  0.12666968  0.92446057  0.74905333  1
  Au  Au32  1  0.62769780  0.75000000  0.57531043  1
  Au  Au33  1  0.63086291  0.75000000  0.92418078  1
  Au  Au34  1  0.87194175  0.42446152  0.25229297  1
  Au  Au35  1  0.87194175  0.07553848  0.25229297  1
  Au  Au36  1  0.37242357  0.25000000  0.42408464  1
  Au  Au37  1  0.36922011  0.25000000  0.07537749  1
