# generated using pymatgen
data_Eu2Mn(GeO3)4
_symmetry_space_group_name_H-M   'P 1'
_cell_length_a   5.03374802
_cell_length_b   10.16535326
_cell_length_c   10.16535326
_cell_angle_alpha   90.14933093
_cell_angle_beta   90.00000000
_cell_angle_gamma   90.00000000
_symmetry_Int_Tables_number   1
_chemical_formula_structural   Eu2Mn(GeO3)4
_chemical_formula_sum   'Eu4 Mn2 Ge8 O24'
_cell_volume   520.15759960
_cell_formula_units_Z   2
loop_
 _symmetry_equiv_pos_site_id
 _symmetry_equiv_pos_as_xyz
  1  'x, y, z'
loop_
 _atom_site_type_symbol
 _atom_site_label
 _atom_site_symmetry_multiplicity
 _atom_site_fract_x
 _atom_site_fract_y
 _atom_site_fract_z
 _atom_site_occupancy
  Eu  Eu0  1  0.50000000  -0.00000000  0.50000000  1
  Eu  Eu1  1  0.50000000  0.50000000  0.00000000  1
  Eu  Eu2  1  0.50000000  0.75000000  0.75000000  1
  Eu  Eu3  1  0.50000000  0.25000000  0.25000000  1
  Mn  Mn4  1  0.50000000  0.50000000  0.50000000  1
  Mn  Mn5  1  0.50000000  -0.00000000  0.00000000  1
  Ge  Ge6  1  0.99238197  0.74392524  0.47345284  1
  Ge  Ge7  1  0.00761803  0.25607476  0.52654716  1
  Ge  Ge8  1  0.00761803  0.24392524  0.97345284  1
  Ge  Ge9  1  0.99238197  0.75607476  0.02654716  1
  Ge  Ge10  1  0.00761803  0.47345284  0.74392524  1
  Ge  Ge11  1  0.99238197  0.52654716  0.25607476  1
  Ge  Ge12  1  0.99238197  0.97345284  0.24392524  1
  Ge  Ge13  1  0.00761803  0.02654716  0.75607476  1
  O  O14  1  0.27227740  0.54984871  0.65900486  1
  O  O15  1  0.23595139  0.06538715  0.32407134  1
  O  O16  1  0.23595139  0.43461285  0.17592866  1
  O  O17  1  0.27227740  0.95015129  0.84099514  1
  O  O18  1  0.72772260  0.45015129  0.34099514  1
  O  O19  1  0.76404861  0.93461285  0.67592866  1
  O  O20  1  0.76404861  0.56538715  0.82407134  1
  O  O21  1  0.72772260  0.04984871  0.15900486  1
  O  O22  1  0.72772260  0.65900486  0.54984871  1
  O  O23  1  0.76404861  0.32407134  0.06538715  1
  O  O24  1  0.76404861  0.17592866  0.43461285  1
  O  O25  1  0.72772260  0.84099514  0.95015129  1
  O  O26  1  0.27227740  0.34099514  0.45015129  1
  O  O27  1  0.23595139  0.67592866  0.93461285  1
  O  O28  1  0.23595139  0.82407134  0.56538715  1
  O  O29  1  0.27227740  0.15900486  0.04984871  1
  O  O30  1  0.82774942  0.36975105  0.63024895  1
  O  O31  1  0.83519389  0.86816380  0.36816380  1
  O  O32  1  0.83519389  0.63183620  0.13183620  1
  O  O33  1  0.82774942  0.13024895  0.86975105  1
  O  O34  1  0.17225058  0.63024895  0.36975105  1
  O  O35  1  0.16480611  0.13183620  0.63183620  1
  O  O36  1  0.16480611  0.36816380  0.86816380  1
  O  O37  1  0.17225058  0.86975105  0.13024895  1
