# generated using pymatgen
data_DyGa2Ni3
_symmetry_space_group_name_H-M   'P 1'
_cell_length_a   4.10148111
_cell_length_b   8.72622157
_cell_length_c   8.72622222
_cell_angle_alpha   59.99995380
_cell_angle_beta   90.00000000
_cell_angle_gamma   90.00000000
_symmetry_Int_Tables_number   1
_chemical_formula_structural   DyGa2Ni3
_chemical_formula_sum   'Dy3 Ga6 Ni9'
_cell_volume   270.47283273
_cell_formula_units_Z   3
loop_
 _symmetry_equiv_pos_site_id
 _symmetry_equiv_pos_as_xyz
  1  'x, y, z'
loop_
 _atom_site_type_symbol
 _atom_site_label
 _atom_site_symmetry_multiplicity
 _atom_site_fract_x
 _atom_site_fract_y
 _atom_site_fract_z
 _atom_site_occupancy
  Dy  Dy0  1  0.50000000  0.33320571  0.33331453  1
  Dy  Dy1  1  0.50000000  0.66668547  0.66679429  1
  Dy  Dy2  1  -0.00000000  0.00006414  -0.00006414  1
  Ga  Ga3  1  0.00000000  0.51501061  0.48498939  1
  Ga  Ga4  1  -0.00000000  0.48492081  -0.00002085  1
  Ga  Ga5  1  -0.00000000  0.00002085  0.51507919  1
  Ga  Ga6  1  0.50000000  0.27031322  0.72968678  1
  Ga  Ga7  1  0.50000000  0.72920754  -0.00007765  1
  Ga  Ga8  1  0.50000000  0.00007765  0.27079246  1
  Ni  Ni9  1  -0.00000000  0.17585831  0.19498221  1
  Ni  Ni10  1  0.00000000  0.19488122  0.62921469  1
  Ni  Ni11  1  0.00000000  0.62911272  0.17578387  1
  Ni  Ni12  1  -0.00000000  0.80501779  0.82414169  1
  Ni  Ni13  1  0.00000000  0.37078531  0.80511878  1
  Ni  Ni14  1  0.00000000  0.82421613  0.37088728  1
  Ni  Ni15  1  0.50000000  0.70430931  0.29569069  1
  Ni  Ni16  1  0.50000000  0.29610717  0.99989396  1
  Ni  Ni17  1  0.50000000  0.00010604  0.70389283  1
