# generated using pymatgen
data_CsCoCuF6
_symmetry_space_group_name_H-M   'P 1'
_cell_length_a   7.34758667
_cell_length_b   7.49515871
_cell_length_c   7.28540616
_cell_angle_alpha   90.00000000
_cell_angle_beta   60.27955158
_cell_angle_gamma   120.66664146
_symmetry_Int_Tables_number   1
_chemical_formula_structural   CsCoCuF6
_chemical_formula_sum   'Cs2 Co2 Cu2 F12'
_cell_volume   282.01599129
_cell_formula_units_Z   2
loop_
 _symmetry_equiv_pos_site_id
 _symmetry_equiv_pos_as_xyz
  1  'x, y, z'
loop_
 _atom_site_type_symbol
 _atom_site_label
 _atom_site_symmetry_multiplicity
 _atom_site_fract_x
 _atom_site_fract_y
 _atom_site_fract_z
 _atom_site_occupancy
  Cs  Cs0  1  0.75282565  0.37641283  0.37358717  1
  Cs  Cs1  1  0.24717435  0.62358717  0.62641283  1
  Co  Co2  1  -0.00000000  0.00000000  0.50000000  1
  Co  Co3  1  0.00000000  0.00000000  -0.00000000  1
  Cu  Cu4  1  0.50000000  0.50000000  -0.00000000  1
  Cu  Cu5  1  0.50000000  0.00000000  -0.00000000  1
  F  F6  1  0.85873130  0.92936565  0.32063435  1
  F  F7  1  0.63776343  0.31888172  0.93111828  1
  F  F8  1  0.24994052  0.93170143  0.93106234  1
  F  F9  1  0.24994052  0.31823909  0.31899714  1
  F  F10  1  0.24994052  0.31823909  0.93106234  1
  F  F11  1  0.24994052  0.93170143  0.31899714  1
  F  F12  1  0.14126870  0.07063435  0.67936565  1
  F  F13  1  0.36223657  0.68111828  0.06888172  1
  F  F14  1  0.75005948  0.06829857  0.06893766  1
  F  F15  1  0.75005948  0.68176091  0.68100286  1
  F  F16  1  0.75005948  0.68176091  0.06893766  1
  F  F17  1  0.75005948  0.06829857  0.68100286  1
