# generated using pymatgen
data_Co4Cu3(NiSe6)2
_symmetry_space_group_name_H-M   'P 1'
_cell_length_a   7.13509360
_cell_length_b   7.13659037
_cell_length_c   17.50689256
_cell_angle_alpha   90.02381342
_cell_angle_beta   90.00000000
_cell_angle_gamma   119.99306237
_symmetry_Int_Tables_number   1
_chemical_formula_structural   Co4Cu3(NiSe6)2
_chemical_formula_sum   'Co8 Cu6 Ni4 Se24'
_cell_volume   772.07670498
_cell_formula_units_Z   2
loop_
 _symmetry_equiv_pos_site_id
 _symmetry_equiv_pos_as_xyz
  1  'x, y, z'
loop_
 _atom_site_type_symbol
 _atom_site_label
 _atom_site_symmetry_multiplicity
 _atom_site_fract_x
 _atom_site_fract_y
 _atom_site_fract_z
 _atom_site_occupancy
  Co  Co0  1  0.50008045  0.50016089  0.50002670  1
  Co  Co1  1  0.16658655  0.83317211  0.83330630  1
  Co  Co2  1  0.83333300  0.66666700  0.16666700  1
  Co  Co3  1  0.49966107  0.99988046  0.50018224  1
  Co  Co4  1  0.16700593  0.33345254  0.83315076  1
  Co  Co5  1  0.33333300  0.66666700  0.16666700  1
  Co  Co6  1  0.00021939  0.99988046  0.50018224  1
  Co  Co7  1  0.66644761  0.33345254  0.83315076  1
  Cu  Cu8  1  0.66672268  0.83344436  0.70809644  1
  Cu  Cu9  1  0.33312228  0.16624556  0.04148027  1
  Cu  Cu10  1  0.99995224  0.49990449  0.37478254  1
  Cu  Cu11  1  0.66671476  0.83342851  0.95855046  1
  Cu  Cu12  1  0.33354372  0.16708844  0.29185373  1
  Cu  Cu13  1  0.99994432  0.49988864  0.62523656  1
  Ni  Ni14  1  0.00012984  0.50025969  0.99993988  1
  Ni  Ni15  1  0.66653716  0.83307331  0.33339312  1
  Ni  Ni16  1  0.33333300  0.16666700  0.66666700  1
  Ni  Ni17  1  0.83333300  0.16666700  0.16666700  1
  Se  Se18  1  0.48340137  0.46680173  0.75541167  1
  Se  Se19  1  0.14999806  0.79999712  0.08856757  1
  Se  Se20  1  0.81651569  0.13303137  0.42224225  1
  Se  Se21  1  0.33345837  0.16691774  0.90376487  1
  Se  Se22  1  0.00145330  0.50290660  0.23723469  1
  Se  Se23  1  0.66671055  0.83342011  0.57032809  1
  Se  Se24  1  0.03326770  0.01655604  0.75540355  1
  Se  Se25  1  0.69941033  0.35158822  0.08807241  1
  Se  Se26  1  0.36693475  0.68341401  0.42192479  1
  Se  Se27  1  0.48328934  0.01655604  0.75540355  1
  Se  Se28  1  0.15217689  0.35158822  0.08807241  1
  Se  Se29  1  0.81647926  0.68341401  0.42192479  1
  Se  Se30  1  0.85015131  0.20030163  0.91109075  1
  Se  Se31  1  0.51666794  0.53333688  0.24476643  1
  Se  Se32  1  0.18326563  0.86653127  0.57792133  1
  Se  Se33  1  0.99995645  0.49991289  0.76300491  1
  Se  Se34  1  0.66521370  0.83042640  0.09609831  1
  Se  Se35  1  0.33320763  0.16641626  0.42956913  1
  Se  Se36  1  0.29973225  0.64991899  0.91140821  1
  Se  Se37  1  0.96725567  0.98174578  0.24526159  1
  Se  Se38  1  0.63339930  0.31677696  0.57792945  1
  Se  Se39  1  0.85018774  0.64991899  0.91140821  1
  Se  Se40  1  0.51448911  0.98174578  0.24526159  1
  Se  Se41  1  0.18337766  0.31677696  0.57792945  1
