# generated using pymatgen
data_Er4LuNi10(B2C)5
_symmetry_space_group_name_H-M   'P 1'
_cell_length_a   3.49788065
_cell_length_b   12.56209169
_cell_length_c   7.60297459
_cell_angle_alpha   100.54732122
_cell_angle_beta   103.29905870
_cell_angle_gamma   90.00000009
_symmetry_Int_Tables_number   1
_chemical_formula_structural   Er4LuNi10(B2C)5
_chemical_formula_sum   'Er4 Lu1 Ni10 B10 C5'
_cell_volume   319.31793974
_cell_formula_units_Z   1
loop_
 _symmetry_equiv_pos_site_id
 _symmetry_equiv_pos_as_xyz
  1  'x, y, z'
loop_
 _atom_site_type_symbol
 _atom_site_label
 _atom_site_symmetry_multiplicity
 _atom_site_fract_x
 _atom_site_fract_y
 _atom_site_fract_z
 _atom_site_occupancy
  Er  Er0  1  0.40002554  0.40003846  0.80005108  1
  Er  Er1  1  0.80020724  0.80021861  0.60041447  1
  Er  Er2  1  0.19979276  0.19978139  0.39958553  1
  Er  Er3  1  0.59997446  0.59996154  0.19994892  1
  Lu  Lu4  1  0.00000000  0.00000000  -0.00000000  1
  Ni  Ni5  1  0.80001088  0.54988559  0.60002175  1
  Ni  Ni6  1  0.59993612  0.34968519  0.19987224  1
  Ni  Ni7  1  0.40007906  0.14970692  0.80015812  1
  Ni  Ni8  1  0.19988973  0.94986554  0.39977946  1
  Ni  Ni9  1  0.00005322  0.75019637  0.00010644  1
  Ni  Ni10  1  0.19998912  0.45011441  0.39997825  1
  Ni  Ni11  1  0.99994678  0.24980363  0.99989356  1
  Ni  Ni12  1  0.80011027  0.05013446  0.60022054  1
  Ni  Ni13  1  0.59992094  0.85029308  0.19984188  1
  Ni  Ni14  1  0.40006388  0.65031481  0.80012776  1
  B  B15  1  0.74302177  0.38543555  0.48604354  1
  B  B16  1  0.54295036  0.18536060  0.08590071  1
  B  B17  1  0.34319836  0.98546935  0.68639673  1
  B  B18  1  0.14313392  0.78545989  0.28626783  1
  B  B19  1  0.94303152  0.58545783  0.88606304  1
  B  B20  1  0.25697823  0.61456445  0.51395646  1
  B  B21  1  0.05696848  0.41454217  0.11393696  1
  B  B22  1  0.85686608  0.21454011  0.71373217  1
  B  B23  1  0.65680164  0.01453065  0.31360327  1
  B  B24  1  0.45704964  0.81463940  0.91409929  1
  C  C25  1  0.79996536  0.29998061  0.59993073  1
  C  C26  1  0.59868411  0.09873426  0.19736823  1
  C  C27  1  0.40131589  0.90126574  0.80263177  1
  C  C28  1  0.20003464  0.70001939  0.40006927  1
  C  C29  1  0.00000000  0.50000000  -0.00000000  1
