# generated using pymatgen
data_Cs2ZrMn(MoO4)4
_symmetry_space_group_name_H-M   'P 1'
_cell_length_a   5.95946281
_cell_length_b   10.18235581
_cell_length_c   10.19345594
_cell_angle_alpha   71.59195261
_cell_angle_beta   73.00809617
_cell_angle_gamma   107.01874988
_symmetry_Int_Tables_number   1
_chemical_formula_structural   Cs2ZrMn(MoO4)4
_chemical_formula_sum   'Cs2 Zr1 Mn1 Mo4 O16'
_cell_volume   508.26656455
_cell_formula_units_Z   1
loop_
 _symmetry_equiv_pos_site_id
 _symmetry_equiv_pos_as_xyz
  1  'x, y, z'
loop_
 _atom_site_type_symbol
 _atom_site_label
 _atom_site_symmetry_multiplicity
 _atom_site_fract_x
 _atom_site_fract_y
 _atom_site_fract_z
 _atom_site_occupancy
  Cs  Cs0  1  0.99857364  0.24730761  0.25016439  1
  Cs  Cs1  1  0.00142636  0.75269239  0.74983561  1
  Zr  Zr2  1  -0.00000000  0.50000000  0.50000000  1
  Mn  Mn3  1  -0.00000000  -0.00000000  0.00000000  1
  Mo  Mo4  1  0.33324136  0.44436118  0.77793557  1
  Mo  Mo5  1  0.33398529  0.94506014  0.27714770  1
  Mo  Mo6  1  0.66675864  0.55563882  0.22206443  1
  Mo  Mo7  1  0.66601471  0.05493986  0.72285230  1
  O  O8  1  0.33271937  0.54961403  0.88427250  1
  O  O9  1  0.33406995  0.05134485  0.38330050  1
  O  O10  1  0.66728063  0.45038597  0.11572750  1
  O  O11  1  0.66593005  0.94865515  0.61669950  1
  O  O12  1  0.16403894  0.49350305  0.65904624  1
  O  O13  1  0.16890974  0.99439263  0.16169462  1
  O  O14  1  0.16959225  0.24830017  0.90911420  1
  O  O15  1  0.16230033  0.73750662  0.41292573  1
  O  O16  1  0.67044990  0.49350171  0.65904549  1
  O  O17  1  0.66382391  0.99439662  0.16168219  1
  O  O18  1  0.83596106  0.50649695  0.34095376  1
  O  O19  1  0.83109026  0.00560737  0.83830538  1
  O  O20  1  0.83040775  0.75169983  0.09088580  1
  O  O21  1  0.83769967  0.26249338  0.58707427  1
  O  O22  1  0.32955010  0.50649829  0.34095451  1
  O  O23  1  0.33617609  0.00560338  0.83831781  1
