# generated using pymatgen
data_Cs3H(SF6)2
_symmetry_space_group_name_H-M   'P 1'
_cell_length_a   6.65168766
_cell_length_b   10.20959127
_cell_length_c   10.80207575
_cell_angle_alpha   90.00000000
_cell_angle_beta   90.00000000
_cell_angle_gamma   90.00000000
_symmetry_Int_Tables_number   1
_chemical_formula_structural   Cs3H(SF6)2
_chemical_formula_sum   'Cs6 H2 S4 F24'
_cell_volume   733.57989874
_cell_formula_units_Z   2
loop_
 _symmetry_equiv_pos_site_id
 _symmetry_equiv_pos_as_xyz
  1  'x, y, z'
loop_
 _atom_site_type_symbol
 _atom_site_label
 _atom_site_symmetry_multiplicity
 _atom_site_fract_x
 _atom_site_fract_y
 _atom_site_fract_z
 _atom_site_occupancy
  Cs  Cs0  1  0.99565921  0.50000000  0.50000000  1
  Cs  Cs1  1  0.99565921  -0.00000000  0.00000000  1
  Cs  Cs2  1  0.50028079  0.30275589  0.19941619  1
  Cs  Cs3  1  0.50028079  0.19724411  0.69941619  1
  Cs  Cs4  1  0.50028079  0.69724411  0.80058381  1
  Cs  Cs5  1  0.50028079  0.80275589  0.30058381  1
  H  H6  1  0.50928559  0.50000000  0.50000000  1
  H  H7  1  0.50928559  -0.00000000  0.00000000  1
  S  S8  1  0.00081311  0.11529770  0.38424570  1
  S  S9  1  0.00081311  0.38470230  0.88424570  1
  S  S10  1  0.00081311  0.88470230  0.61575430  1
  S  S11  1  0.00081311  0.61529770  0.11575430  1
  F  F12  1  0.81180155  0.04052926  0.29766507  1
  F  F13  1  0.81180155  0.45947074  0.79766507  1
  F  F14  1  0.81180155  0.95947074  0.70233493  1
  F  F15  1  0.81180155  0.54052926  0.20233493  1
  F  F16  1  0.19588117  0.70963276  0.04326029  1
  F  F17  1  0.19588117  0.79036724  0.54326029  1
  F  F18  1  0.19588117  0.29036724  0.95673971  1
  F  F19  1  0.19588117  0.20963276  0.45673971  1
  F  F20  1  0.81405739  0.21425903  0.45910208  1
  F  F21  1  0.81405739  0.28574097  0.95910208  1
  F  F22  1  0.81405739  0.78574097  0.54089792  1
  F  F23  1  0.81405739  0.71425903  0.04089792  1
  F  F24  1  0.18095927  0.53855958  0.20896136  1
  F  F25  1  0.18095927  0.96144042  0.70896136  1
  F  F26  1  0.18095927  0.46144042  0.79103864  1
  F  F27  1  0.18095927  0.03855958  0.29103864  1
  F  F28  1  0.00012343  0.22919581  0.27912175  1
  F  F29  1  0.00012343  0.27080419  0.77912175  1
  F  F30  1  0.00012343  0.77080419  0.72087825  1
  F  F31  1  0.00012343  0.72919581  0.22087825  1
  F  F32  1  0.51051091  0.02118634  0.10400046  1
  F  F33  1  0.51051091  0.47881366  0.60400046  1
  F  F34  1  0.51051091  0.97881366  0.89599954  1
  F  F35  1  0.51051091  0.52118634  0.39599954  1
