# generated using pymatgen
data_DyP2(HO2)5
_symmetry_space_group_name_H-M   'P 1'
_cell_length_a   6.45267874
_cell_length_b   6.95170955
_cell_length_c   10.00202795
_cell_angle_alpha   81.50287534
_cell_angle_beta   81.34083454
_cell_angle_gamma   88.80294904
_symmetry_Int_Tables_number   1
_chemical_formula_structural   DyP2(HO2)5
_chemical_formula_sum   'Dy2 P4 H10 O20'
_cell_volume   438.67921790
_cell_formula_units_Z   2
loop_
 _symmetry_equiv_pos_site_id
 _symmetry_equiv_pos_as_xyz
  1  'x, y, z'
loop_
 _atom_site_type_symbol
 _atom_site_label
 _atom_site_symmetry_multiplicity
 _atom_site_fract_x
 _atom_site_fract_y
 _atom_site_fract_z
 _atom_site_occupancy
  Dy  Dy0  1  0.63125351  0.73920412  0.54117646  1
  Dy  Dy1  1  0.36971930  0.26028339  0.45916733  1
  P  P2  1  0.19535515  0.76675873  0.43484324  1
  P  P3  1  0.80541230  0.23221373  0.56530013  1
  P  P4  1  0.94286671  0.86104570  0.20978268  1
  P  P5  1  0.05848905  0.13942534  0.79009463  1
  H  H6  1  0.27976426  0.51473260  0.73585997  1
  H  H7  1  0.72451728  0.48483690  0.26546628  1
  H  H8  1  0.23262145  0.73383729  0.76371200  1
  H  H9  1  0.76784697  0.26615352  0.23607181  1
  H  H10  1  0.02362891  0.82419703  0.98815376  1
  H  H11  1  0.97810879  0.17596474  0.01205557  1
  H  H12  1  0.84912555  0.79589995  0.78828770  1
  H  H13  1  0.15126058  0.20643674  0.21321541  1
  H  H14  1  0.61688422  0.71603778  0.84342282  1
  H  H15  1  0.37503131  0.30593497  0.15695755  1
  O  O16  1  0.15647028  0.81961465  0.27697447  1
  O  O17  1  0.84504985  0.17866789  0.72283470  1
  O  O18  1  0.97985563  0.74865477  0.08355749  1
  O  O19  1  0.01945149  0.25163213  0.91630512  1
  O  O20  1  0.33977152  0.58798701  0.44102420  1
  O  O21  1  0.66171923  0.41144162  0.55960848  1
  O  O22  1  0.34348900  0.64269857  0.73250523  1
  O  O23  1  0.65859514  0.35802236  0.26836671  1
  O  O24  1  0.33393385  0.93002652  0.46359355  1
  O  O25  1  0.66589018  0.06931132  0.53700427  1
  O  O26  1  0.75782137  0.76955858  0.30855516  1
  O  O27  1  0.24308092  0.23243895  0.69165418  1
  O  O28  1  0.98662653  0.74191881  0.52622938  1
  O  O29  1  0.01406352  0.25604867  0.47405528  1
  O  O30  1  0.93510011  0.08134600  0.16544868  1
  O  O31  1  0.06843684  0.91925901  0.83428846  1
  O  O32  1  0.72751528  0.73016682  0.76504961  1
  O  O33  1  0.27101922  0.27329097  0.23786804  1
  O  O34  1  0.49717119  0.01278231  0.97482251  1
  O  O35  1  0.50465351  0.19057054  0.97028714  1
