# generated using pymatgen
data_CsMn2(PO3)6
_symmetry_space_group_name_H-M   'P 1'
_cell_length_a   5.22992057
_cell_length_b   9.22360033
_cell_length_c   9.39178057
_cell_angle_alpha   87.60448641
_cell_angle_beta   75.11887529
_cell_angle_gamma   74.29513230
_symmetry_Int_Tables_number   1
_chemical_formula_structural   CsMn2(PO3)6
_chemical_formula_sum   'Cs1 Mn2 P6 O18'
_cell_volume   421.31971518
_cell_formula_units_Z   1
loop_
 _symmetry_equiv_pos_site_id
 _symmetry_equiv_pos_as_xyz
  1  'x, y, z'
loop_
 _atom_site_type_symbol
 _atom_site_label
 _atom_site_symmetry_multiplicity
 _atom_site_fract_x
 _atom_site_fract_y
 _atom_site_fract_z
 _atom_site_occupancy
  Cs  Cs0  1  0.50751012  0.98269923  0.47780427  1
  Mn  Mn1  1  0.00061979  0.49888606  0.50014053  1
  Mn  Mn2  1  0.00070962  0.00002339  0.99831366  1
  P  P3  1  0.43111589  0.45401025  0.71165328  1
  P  P4  1  0.56862803  0.54573164  0.28818275  1
  P  P5  1  -0.00045618  0.74666615  0.75348060  1
  P  P6  1  0.00040191  0.25346824  0.24633958  1
  P  P7  1  0.58608638  0.77545190  0.04385184  1
  P  P8  1  0.41362730  0.22443356  0.95587454  1
  O  O9  1  0.73696599  0.43577405  0.67130241  1
  O  O10  1  0.26268126  0.56448691  0.32900344  1
  O  O11  1  0.28053020  0.62438222  0.76601956  1
  O  O12  1  0.71877222  0.37549181  0.23429143  1
  O  O13  1  0.77491572  0.70074276  0.88761746  1
  O  O14  1  0.22418996  0.29966806  0.11222912  1
  O  O15  1  0.93252450  0.71965947  0.61231111  1
  O  O16  1  0.06835077  0.28052544  0.38715277  1
  O  O17  1  0.69120156  0.89455515  0.09642813  1
  O  O18  1  0.30887281  0.10488290  0.90464199  1
  O  O19  1  0.03406797  0.89806835  0.78153309  1
  O  O20  1  0.96645820  0.10164360  0.21876742  1
  O  O21  1  0.31490878  0.40242231  0.59779522  1
  O  O22  1  0.68538364  0.59825299  0.40157214  1
  O  O23  1  0.65268233  0.62699105  0.13763731  1
  O  O24  1  0.34690427  0.37273181  0.86209508  1
  O  O25  1  0.28963497  0.81469082  0.04179204  1
  O  O26  1  0.70971398  0.18565885  0.95877023  1
