# generated using pymatgen
data_CeNd3Si8
_symmetry_space_group_name_H-M   'P 1'
_cell_length_a   4.12568378
_cell_length_b   4.14666621
_cell_length_c   14.32710279
_cell_angle_alpha   90.00000000
_cell_angle_beta   90.00000000
_cell_angle_gamma   90.00000000
_symmetry_Int_Tables_number   1
_chemical_formula_structural   CeNd3Si8
_chemical_formula_sum   'Ce1 Nd3 Si8'
_cell_volume   245.10568941
_cell_formula_units_Z   1
loop_
 _symmetry_equiv_pos_site_id
 _symmetry_equiv_pos_as_xyz
  1  'x, y, z'
loop_
 _atom_site_type_symbol
 _atom_site_label
 _atom_site_symmetry_multiplicity
 _atom_site_fract_x
 _atom_site_fract_y
 _atom_site_fract_z
 _atom_site_occupancy
  Ce  Ce0  1  0.25000000  0.00000000  0.37571925  1
  Nd  Nd1  1  0.75000000  0.50000000  0.87637528  1
  Nd  Nd2  1  0.25000000  0.50000000  0.12395013  1
  Nd  Nd3  1  0.75000000  -0.00000000  0.62356708  1
  Si  Si4  1  0.75000000  0.50000000  0.29184768  1
  Si  Si5  1  0.25000000  0.00000000  0.79102803  1
  Si  Si6  1  0.75000000  -0.00000000  0.21025464  1
  Si  Si7  1  0.25000000  0.50000000  0.70780113  1
  Si  Si8  1  0.75000000  0.50000000  0.45647568  1
  Si  Si9  1  0.25000000  -0.00000000  0.95814052  1
  Si  Si10  1  0.75000000  0.00000000  0.04375648  1
  Si  Si11  1  0.25000000  0.50000000  0.54108409  1
