# generated using pymatgen
data_CePtRh
_symmetry_space_group_name_H-M   'P 1'
_cell_length_a   5.43440304
_cell_length_b   5.43440304
_cell_length_c   5.38723346
_cell_angle_alpha   60.28671279
_cell_angle_beta   119.71328721
_cell_angle_gamma   119.45624785
_symmetry_Int_Tables_number   1
_chemical_formula_structural   CePtRh
_chemical_formula_sum   'Ce2 Pt2 Rh2'
_cell_volume   113.44659484
_cell_formula_units_Z   2
loop_
 _symmetry_equiv_pos_site_id
 _symmetry_equiv_pos_as_xyz
  1  'x, y, z'
loop_
 _atom_site_type_symbol
 _atom_site_label
 _atom_site_symmetry_multiplicity
 _atom_site_fract_x
 _atom_site_fract_y
 _atom_site_fract_z
 _atom_site_occupancy
  Ce  Ce0  1  0.24859568  0.75140432  0.74859568  1
  Ce  Ce1  1  0.00140432  0.99859568  0.00140432  1
  Pt  Pt2  1  0.62500000  0.37500000  0.87500000  1
  Pt  Pt3  1  0.62500000  0.37500000  0.37500000  1
  Rh  Rh4  1  0.62500000  0.87500000  0.37500000  1
  Rh  Rh5  1  0.12500000  0.37500000  0.37500000  1
