# generated using pymatgen
data_CeUO4
_symmetry_space_group_name_H-M   'P 1'
_cell_length_a   3.86466094
_cell_length_b   3.86466094
_cell_length_c   6.63796714
_cell_angle_alpha   73.07601257
_cell_angle_beta   90.00000000
_cell_angle_gamma   120.00000000
_symmetry_Int_Tables_number   1
_chemical_formula_structural   CeUO4
_chemical_formula_sum   'Ce1 U1 O4'
_cell_volume   80.86364916
_cell_formula_units_Z   1
loop_
 _symmetry_equiv_pos_site_id
 _symmetry_equiv_pos_as_xyz
  1  'x, y, z'
loop_
 _atom_site_type_symbol
 _atom_site_label
 _atom_site_symmetry_multiplicity
 _atom_site_fract_x
 _atom_site_fract_y
 _atom_site_fract_z
 _atom_site_occupancy
  Ce  Ce0  1  0.00000000  0.00000000  0.00000000  1
  U  U1  1  0.50000000  0.00000000  0.50000000  1
  O  O2  1  0.61941040  0.23882080  0.14176880  1
  O  O3  1  0.12968965  0.25937930  0.61093106  1
  O  O4  1  0.87031035  0.74062070  0.38906894  1
  O  O5  1  0.38058960  0.76117920  0.85823120  1
