# generated using pymatgen
data_Ce4UO10
_symmetry_space_group_name_H-M   'P 1'
_cell_length_a   3.87388391
_cell_length_b   3.87388391
_cell_length_c   15.82979517
_cell_angle_alpha   97.02835447
_cell_angle_beta   82.97164553
_cell_angle_gamma   120.00000000
_symmetry_Int_Tables_number   1
_chemical_formula_structural   Ce4UO10
_chemical_formula_sum   'Ce4 U1 O10'
_cell_volume   203.66688054
_cell_formula_units_Z   1
loop_
 _symmetry_equiv_pos_site_id
 _symmetry_equiv_pos_as_xyz
  1  'x, y, z'
loop_
 _atom_site_type_symbol
 _atom_site_label
 _atom_site_symmetry_multiplicity
 _atom_site_fract_x
 _atom_site_fract_y
 _atom_site_fract_z
 _atom_site_occupancy
  Ce  Ce0  1  0.59995778  0.40004222  0.20012667  1
  Ce  Ce1  1  0.19985134  0.80014866  0.40044599  1
  Ce  Ce2  1  0.80014866  0.19985134  0.59955401  1
  Ce  Ce3  1  0.40004222  0.59995778  0.79987333  1
  U  U4  1  -0.00000000  0.00000000  0.00000000  1
  O  O5  1  0.04557899  0.95442101  0.86326302  1
  O  O6  1  0.85004148  0.14995852  0.44987555  1
  O  O7  1  0.44910501  0.55089499  0.65268497  1
  O  O8  1  0.65272478  0.34727522  0.04182567  1
  O  O9  1  0.25216362  0.74783638  0.24350914  1
  O  O10  1  0.34727522  0.65272478  0.95817433  1
  O  O11  1  0.14995852  0.85004148  0.55012445  1
  O  O12  1  0.74783638  0.25216362  0.75649086  1
  O  O13  1  0.95442101  0.04557899  0.13673698  1
  O  O14  1  0.55089499  0.44910501  0.34731503  1
