# generated using pymatgen
data_CeN2
_symmetry_space_group_name_H-M   'P 1'
_cell_length_a   4.77209111
_cell_length_b   6.39509882
_cell_length_c   5.90748482
_cell_angle_alpha   65.09182495
_cell_angle_beta   90.00893288
_cell_angle_gamma   111.91597228
_symmetry_Int_Tables_number   1
_chemical_formula_structural   CeN2
_chemical_formula_sum   'Ce3 N6'
_cell_volume   149.03287952
_cell_formula_units_Z   3
loop_
 _symmetry_equiv_pos_site_id
 _symmetry_equiv_pos_as_xyz
  1  'x, y, z'
loop_
 _atom_site_type_symbol
 _atom_site_label
 _atom_site_symmetry_multiplicity
 _atom_site_fract_x
 _atom_site_fract_y
 _atom_site_fract_z
 _atom_site_occupancy
  Ce  Ce0  1  0.62978151  0.25955763  0.09860049  1
  Ce  Ce1  1  0.83529658  0.67065767  0.46481419  1
  Ce  Ce2  1  0.41106531  0.82189735  0.84667256  1
  N  N3  1  0.84832786  0.69667798  0.83561007  1
  N  N4  1  0.38454503  0.76906988  0.26315750  1
  N  N5  1  0.18023604  0.36044136  0.06529530  1
  N  N6  1  0.62830462  0.25682769  0.73004499  1
  N  N7  1  0.39562047  0.79128627  0.47143189  1
  N  N8  1  0.06427259  0.12858416  0.18022301  1
