# generated using pymatgen
data_CaNdAl3O7
_symmetry_space_group_name_H-M   'P 1'
_cell_length_a   5.16375931
_cell_length_b   7.82002775
_cell_length_c   7.82002775
_cell_angle_alpha   89.17675938
_cell_angle_beta   90.00000000
_cell_angle_gamma   90.00000000
_symmetry_Int_Tables_number   1
_chemical_formula_structural   CaNdAl3O7
_chemical_formula_sum   'Ca2 Nd2 Al6 O14'
_cell_volume   315.74592091
_cell_formula_units_Z   2
loop_
 _symmetry_equiv_pos_site_id
 _symmetry_equiv_pos_as_xyz
  1  'x, y, z'
loop_
 _atom_site_type_symbol
 _atom_site_label
 _atom_site_symmetry_multiplicity
 _atom_site_fract_x
 _atom_site_fract_y
 _atom_site_fract_z
 _atom_site_occupancy
  Ca  Ca0  1  0.51609223  0.34027522  0.15972478  1
  Ca  Ca1  1  0.51609223  0.65972478  0.84027522  1
  Nd  Nd2  1  0.49052081  0.16341390  0.66341390  1
  Nd  Nd3  1  0.49052081  0.83658610  0.33658610  1
  Al  Al4  1  0.95916601  0.14536058  0.35463942  1
  Al  Al5  1  0.04241581  0.35834196  0.85834196  1
  Al  Al6  1  0.95916601  0.85463942  0.64536058  1
  Al  Al7  1  0.04241581  0.64165804  0.14165804  1
  Al  Al8  1  0.99582143  0.50000000  0.50000000  1
  Al  Al9  1  0.99582143  0.00000000  -0.00000000  1
  O  O10  1  0.80049517  0.33666700  0.41389188  1
  O  O11  1  0.19617942  0.15963197  0.90712234  1
  O  O12  1  0.80049517  0.66333300  0.58610812  1
  O  O13  1  0.19617942  0.84036803  0.09287766  1
  O  O14  1  0.19617942  0.59287766  0.34036803  1
  O  O15  1  0.80049517  0.91389188  0.83666700  1
  O  O16  1  0.19617942  0.40712234  0.65963197  1
  O  O17  1  0.80049517  0.08610812  0.16333300  1
  O  O18  1  0.29758128  0.13694578  0.36305422  1
  O  O19  1  0.70513282  0.35495736  0.85495736  1
  O  O20  1  0.29758128  0.86305422  0.63694578  1
  O  O21  1  0.70513282  0.64504264  0.14504264  1
  O  O22  1  0.18883648  0.50000000  -0.00000000  1
  O  O23  1  0.81100438  0.00000000  0.50000000  1
