# generated using pymatgen
data_BaGa2SiS6
_symmetry_space_group_name_H-M   'P 1'
_cell_length_a   6.22137384
_cell_length_b   6.43754381
_cell_length_c   6.33153770
_cell_angle_alpha   100.10703254
_cell_angle_beta   98.72468381
_cell_angle_gamma   102.67223761
_symmetry_Int_Tables_number   1
_chemical_formula_structural   BaGa2SiS6
_chemical_formula_sum   'Ba1 Ga2 Si1 S6'
_cell_volume   238.74180937
_cell_formula_units_Z   1
loop_
 _symmetry_equiv_pos_site_id
 _symmetry_equiv_pos_as_xyz
  1  'x, y, z'
loop_
 _atom_site_type_symbol
 _atom_site_label
 _atom_site_symmetry_multiplicity
 _atom_site_fract_x
 _atom_site_fract_y
 _atom_site_fract_z
 _atom_site_occupancy
  Ba  Ba0  1  0.54032464  0.55098972  0.54502014  1
  Ga  Ga1  1  0.00077646  0.73530754  0.15430937  1
  Ga  Ga2  1  0.73389305  0.14215030  0.01078366  1
  Si  Si3  1  0.15270242  0.00479539  0.72923383  1
  S  S4  1  0.96013821  0.41989180  0.28004023  1
  S  S5  1  0.40670745  0.26432130  0.94815440  1
  S  S6  1  0.28216060  0.97202599  0.43235734  1
  S  S7  1  0.10754587  0.69397636  0.81628351  1
  S  S8  1  0.65894892  0.80714989  0.09372506  1
  S  S9  1  0.84075839  0.09334771  0.67404845  1
