# generated using pymatgen
data_BaLa2Fe2O7
_symmetry_space_group_name_H-M   'P 1'
_cell_length_a   4.00068846
_cell_length_b   4.00068846
_cell_length_c   10.75749903
_cell_angle_alpha   79.28354442
_cell_angle_beta   79.28354442
_cell_angle_gamma   90.00000000
_symmetry_Int_Tables_number   1
_chemical_formula_structural   BaLa2Fe2O7
_chemical_formula_sum   'Ba1 La2 Fe2 O7'
_cell_volume   166.11915692
_cell_formula_units_Z   1
loop_
 _symmetry_equiv_pos_site_id
 _symmetry_equiv_pos_as_xyz
  1  'x, y, z'
loop_
 _atom_site_type_symbol
 _atom_site_label
 _atom_site_symmetry_multiplicity
 _atom_site_fract_x
 _atom_site_fract_y
 _atom_site_fract_z
 _atom_site_occupancy
  Ba  Ba0  1  0.50000000  0.50000000  -0.00000000  1
  La  La1  1  0.31770749  0.31770749  0.36458502  1
  La  La2  1  0.68229251  0.68229251  0.63541498  1
  Fe  Fe3  1  0.09757451  0.09757451  0.80485099  1
  Fe  Fe4  1  0.90242549  0.90242549  0.19514901  1
  O  O5  1  0.20591791  0.20591791  0.58816418  1
  O  O6  1  0.79408209  0.79408209  0.41183582  1
  O  O7  1  0.60704694  0.10704694  0.78590611  1
  O  O8  1  0.10704694  0.60704694  0.78590611  1
  O  O9  1  0.39295306  0.89295306  0.21409389  1
  O  O10  1  0.89295306  0.39295306  0.21409389  1
  O  O11  1  0.00000000  -0.00000000  -0.00000000  1
