# generated using pymatgen
data_Ca2LaSbO6
_symmetry_space_group_name_H-M   'P 1'
_cell_length_a   5.72494804
_cell_length_b   5.93395087
_cell_length_c   8.26259176
_cell_angle_alpha   90.00000000
_cell_angle_beta   89.96365629
_cell_angle_gamma   90.00000000
_symmetry_Int_Tables_number   1
_chemical_formula_structural   Ca2LaSbO6
_chemical_formula_sum   'Ca4 La2 Sb2 O12'
_cell_volume   280.69307864
_cell_formula_units_Z   2
loop_
 _symmetry_equiv_pos_site_id
 _symmetry_equiv_pos_as_xyz
  1  'x, y, z'
loop_
 _atom_site_type_symbol
 _atom_site_label
 _atom_site_symmetry_multiplicity
 _atom_site_fract_x
 _atom_site_fract_y
 _atom_site_fract_z
 _atom_site_occupancy
  Ca  Ca0  1  0.51334735  0.94965794  0.24779615  1
  Ca  Ca1  1  0.01334735  0.55034206  0.74779615  1
  Ca  Ca2  1  0.99939879  0.99670970  0.49908821  1
  Ca  Ca3  1  0.49939879  0.50329030  0.99908821  1
  La  La4  1  0.48565208  0.05135599  0.75204553  1
  La  La5  1  0.98565208  0.44864401  0.25204553  1
  Sb  Sb6  1  0.49969647  0.50040940  0.50086879  1
  Sb  Sb7  1  0.99969647  0.99959060  0.00086879  1
  O  O8  1  0.82565049  0.71633588  0.06511209  1
  O  O9  1  0.32565049  0.78366412  0.56511209  1
  O  O10  1  0.17516550  0.28228284  0.93451479  1
  O  O11  1  0.67516550  0.21771716  0.43451479  1
  O  O12  1  0.78557138  0.68118922  0.44611793  1
  O  O13  1  0.28557138  0.81881078  0.94611793  1
  O  O14  1  0.21329081  0.31910078  0.55405928  1
  O  O15  1  0.71329081  0.18089922  0.05405928  1
  O  O16  1  0.38794374  0.55119214  0.27062355  1
  O  O17  1  0.88794374  0.94880786  0.77062355  1
  O  O18  1  0.61428339  0.45227668  0.72977368  1
  O  O19  1  0.11428339  0.04772332  0.22977368  1
