# generated using pymatgen
data_Ca(B2Pt3)2
_symmetry_space_group_name_H-M   'P 1'
_cell_length_a   5.35512486
_cell_length_b   6.11104498
_cell_length_c   6.11104498
_cell_angle_alpha   119.77483610
_cell_angle_beta   89.98818819
_cell_angle_gamma   90.01181181
_symmetry_Int_Tables_number   1
_chemical_formula_structural   Ca(B2Pt3)2
_chemical_formula_sum   'Ca1 B4 Pt6'
_cell_volume   173.58495746
_cell_formula_units_Z   1
loop_
 _symmetry_equiv_pos_site_id
 _symmetry_equiv_pos_as_xyz
  1  'x, y, z'
loop_
 _atom_site_type_symbol
 _atom_site_label
 _atom_site_symmetry_multiplicity
 _atom_site_fract_x
 _atom_site_fract_y
 _atom_site_fract_z
 _atom_site_occupancy
  Ca  Ca0  1  0.50000000  -0.00000000  -0.00000000  1
  B  B1  1  0.56818575  0.66705897  0.33294103  1
  B  B2  1  0.43181425  0.33294103  0.66705897  1
  B  B3  1  0.06582736  0.33281739  0.66718261  1
  B  B4  1  0.93417264  0.66718261  0.33281739  1
  Pt  Pt5  1  0.75031159  0.48401923  0.96882172  1
  Pt  Pt6  1  0.75033382  0.48451164  0.51548836  1
  Pt  Pt7  1  0.75031159  0.03117828  0.51598077  1
  Pt  Pt8  1  0.24968841  0.51598077  0.03117828  1
  Pt  Pt9  1  0.24966618  0.51548836  0.48451164  1
  Pt  Pt10  1  0.24968841  0.96882172  0.48401923  1
