# generated using pymatgen
data_RbAuF3
_symmetry_space_group_name_H-M   'P 1'
_cell_length_a   6.38433316
_cell_length_b   6.38433328
_cell_length_c   6.38433327
_cell_angle_alpha   59.99999954
_cell_angle_beta   59.99999928
_cell_angle_gamma   59.99999939
_symmetry_Int_Tables_number   1
_chemical_formula_structural   RbAuF3
_chemical_formula_sum   'Rb2 Au2 F6'
_cell_volume   184.00585349
_cell_formula_units_Z   2
loop_
 _symmetry_equiv_pos_site_id
 _symmetry_equiv_pos_as_xyz
  1  'x, y, z'
loop_
 _atom_site_type_symbol
 _atom_site_label
 _atom_site_symmetry_multiplicity
 _atom_site_fract_x
 _atom_site_fract_y
 _atom_site_fract_z
 _atom_site_occupancy
  Rb  Rb0  1  0.25000000  0.25000000  0.25000000  1
  Rb  Rb1  1  0.75000000  0.75000000  0.75000000  1
  Au  Au2  1  0.50000000  0.50000000  0.50000000  1
  Au  Au3  1  0.00000000  0.00000000  -0.00000000  1
  F  F4  1  0.24992570  0.75007430  0.24992570  1
  F  F5  1  0.75007430  0.75007430  0.24992570  1
  F  F6  1  0.75007430  0.24992570  0.75007430  1
  F  F7  1  0.75007430  0.24992570  0.24992570  1
  F  F8  1  0.24992570  0.75007430  0.75007430  1
  F  F9  1  0.24992570  0.24992570  0.75007430  1
