# generated using pymatgen
data_Ca(BiAu3)2
_symmetry_space_group_name_H-M   'P 1'
_cell_length_a   5.70269447
_cell_length_b   5.70269447
_cell_length_c   14.07125425
_cell_angle_alpha   90.00000000
_cell_angle_beta   90.00000000
_cell_angle_gamma   120.00000000
_symmetry_Int_Tables_number   1
_chemical_formula_structural   Ca(BiAu3)2
_chemical_formula_sum   'Ca2 Bi4 Au12'
_cell_volume   396.29961495
_cell_formula_units_Z   2
loop_
 _symmetry_equiv_pos_site_id
 _symmetry_equiv_pos_as_xyz
  1  'x, y, z'
loop_
 _atom_site_type_symbol
 _atom_site_label
 _atom_site_symmetry_multiplicity
 _atom_site_fract_x
 _atom_site_fract_y
 _atom_site_fract_z
 _atom_site_occupancy
  Ca  Ca0  1  0.66666700  0.33333300  0.58375605  1
  Ca  Ca1  1  0.33333300  0.66666700  0.91349629  1
  Bi  Bi2  1  0.33333300  0.66666700  0.66568883  1
  Bi  Bi3  1  0.00000000  0.00000000  0.00622455  1
  Bi  Bi4  1  0.66666700  0.33333300  0.32871406  1
  Bi  Bi5  1  -0.00000000  0.00000000  0.25172491  1
  Au  Au6  1  0.49940049  0.50059951  0.12307564  1
  Au  Au7  1  0.16668361  0.83331639  0.45913562  1
  Au  Au8  1  0.83323325  0.16676675  0.79325941  1
  Au  Au9  1  0.49940049  0.99879998  0.12307564  1
  Au  Au10  1  0.16668361  0.33336822  0.45913562  1
  Au  Au11  1  0.83323325  0.66646651  0.79325941  1
  Au  Au12  1  0.33333300  0.66666700  0.29195818  1
  Au  Au13  1  0.00000000  -0.00000000  0.62441745  1
  Au  Au14  1  0.66666700  0.33333300  0.95760766  1
  Au  Au15  1  0.00120002  0.50059951  0.12307564  1
  Au  Au16  1  0.66663178  0.83331639  0.45913562  1
  Au  Au17  1  0.33353349  0.16676675  0.79325941  1
