# generated using pymatgen
data_Ce4Ni4Bi3Sb5
_symmetry_space_group_name_H-M   'P 1'
_cell_length_a   4.49455767
_cell_length_b   4.49141427
_cell_length_c   19.21027289
_cell_angle_alpha   90.01761360
_cell_angle_beta   90.02183831
_cell_angle_gamma   90.00157209
_symmetry_Int_Tables_number   1
_chemical_formula_structural   Ce4Ni4Bi3Sb5
_chemical_formula_sum   'Ce4 Ni4 Bi3 Sb5'
_cell_volume   387.79620453
_cell_formula_units_Z   1
loop_
 _symmetry_equiv_pos_site_id
 _symmetry_equiv_pos_as_xyz
  1  'x, y, z'
loop_
 _atom_site_type_symbol
 _atom_site_label
 _atom_site_symmetry_multiplicity
 _atom_site_fract_x
 _atom_site_fract_y
 _atom_site_fract_z
 _atom_site_occupancy
  Ce  Ce0  1  0.74999144  0.75000220  0.36180588  1
  Ce  Ce1  1  0.74998161  0.74992585  0.86471225  1
  Ce  Ce2  1  0.24984238  0.24994733  0.13481980  1
  Ce  Ce3  1  0.25002507  0.25002104  0.63845597  1
  Ni  Ni4  1  0.75005844  0.24988799  0.25011760  1
  Ni  Ni5  1  0.75007178  0.24991104  0.74977873  1
  Ni  Ni6  1  0.24996693  0.75011238  0.24998719  1
  Ni  Ni7  1  0.24995441  0.75009066  0.74985976  1
  Bi  Bi8  1  0.75003165  0.25000093  0.50015603  1
  Bi  Bi9  1  0.24998305  0.75003803  0.00026430  1
  Bi  Bi10  1  0.24999603  0.75005733  0.50014582  1
  Sb  Sb11  1  0.75001053  0.75000777  0.18021699  1
  Sb  Sb12  1  0.75001180  0.75001741  0.68035125  1
  Sb  Sb13  1  0.25001732  0.25000435  0.31950936  1
  Sb  Sb14  1  0.25001829  0.24998538  0.81957842  1
  Sb  Sb15  1  0.75003927  0.24999031  0.00024064  1
