# generated using pymatgen
data_Ba5P3O12F
_symmetry_space_group_name_H-M   'P 1'
_cell_length_a   7.83784380
_cell_length_b   10.31523567
_cell_length_c   10.31526175
_cell_angle_alpha   59.99966895
_cell_angle_beta   90.00000000
_cell_angle_gamma   90.00000000
_symmetry_Int_Tables_number   1
_chemical_formula_structural   Ba5P3O12F
_chemical_formula_sum   'Ba10 P6 O24 F2'
_cell_volume   722.24608165
_cell_formula_units_Z   2
loop_
 _symmetry_equiv_pos_site_id
 _symmetry_equiv_pos_as_xyz
  1  'x, y, z'
loop_
 _atom_site_type_symbol
 _atom_site_label
 _atom_site_symmetry_multiplicity
 _atom_site_fract_x
 _atom_site_fract_y
 _atom_site_fract_z
 _atom_site_occupancy
  Ba  Ba0  1  0.50110709  0.66663903  0.66667927  1
  Ba  Ba1  1  0.00110709  0.33336097  0.33332073  1
  Ba  Ba2  1  0.49885205  0.33336204  0.33332013  1
  Ba  Ba3  1  0.99885205  0.66663796  0.66667987  1
  Ba  Ba4  1  0.74998617  0.24035390  0.74130420  1
  Ba  Ba5  1  0.74998793  0.01833008  0.24037362  1
  Ba  Ba6  1  0.74998515  0.74131550  0.01832185  1
  Ba  Ba7  1  0.24998617  0.75964610  0.25869580  1
  Ba  Ba8  1  0.24998793  0.98166992  0.75962638  1
  Ba  Ba9  1  0.24998515  0.25868450  0.98167815  1
  P  P10  1  0.75011714  0.40178220  0.96768789  1
  P  P11  1  0.75011747  0.63053150  0.40178185  1
  P  P12  1  0.75011734  0.96768664  0.63052774  1
  P  P13  1  0.25011714  0.59821780  0.03231211  1
  P  P14  1  0.25011747  0.36946850  0.59821815  1
  P  P15  1  0.25011734  0.03231336  0.36947226  1
  O  O16  1  0.75000833  0.34066194  0.14019075  1
  O  O17  1  0.75000944  0.51915181  0.34065740  1
  O  O18  1  0.75000878  0.14018901  0.51914594  1
  O  O19  1  0.25000833  0.65933806  0.85980925  1
  O  O20  1  0.25000944  0.48084819  0.65934260  1
  O  O21  1  0.25000878  0.85981099  0.48085406  1
  O  O22  1  0.74986884  0.57671568  0.88230748  1
  O  O23  1  0.74986894  0.54097111  0.57671719  1
  O  O24  1  0.74986893  0.88229860  0.54098429  1
  O  O25  1  0.24986884  0.42328432  0.11769252  1
  O  O26  1  0.24986894  0.45902889  0.42328281  1
  O  O27  1  0.24986893  0.11770140  0.45901571  1
  O  O28  1  0.58869016  0.34645565  0.92105615  1
  O  O29  1  0.58868913  0.73248721  0.34645563  1
  O  O30  1  0.58869273  0.92105755  0.73248754  1
  O  O31  1  0.08869016  0.65354435  0.07894385  1
  O  O32  1  0.08868913  0.26751279  0.65354437  1
  O  O33  1  0.08869273  0.07894245  0.26751246  1
  O  O34  1  0.41153420  0.65296237  0.07921947  1
  O  O35  1  0.41153705  0.26781950  0.65296416  1
  O  O36  1  0.41153439  0.07921694  0.26781835  1
  O  O37  1  0.91153420  0.34703763  0.92078053  1
  O  O38  1  0.91153705  0.73218050  0.34703584  1
  O  O39  1  0.91153439  0.92078306  0.73218165  1
  F  F40  1  0.78061874  0.00000107  0.00000107  1
  F  F41  1  0.28061874  -0.00000107  0.99999893  1
