# generated using pymatgen
data_Ba6Na2Nb2V2O17
_symmetry_space_group_name_H-M   'P 1'
_cell_length_a   5.97212656
_cell_length_b   5.97214487
_cell_length_c   15.05547030
_cell_angle_alpha   90.18756717
_cell_angle_beta   90.18745622
_cell_angle_gamma   59.86151871
_symmetry_Int_Tables_number   1
_chemical_formula_structural   Ba6Na2Nb2V2O17
_chemical_formula_sum   'Ba6 Na2 Nb2 V2 O17'
_cell_volume   464.37996831
_cell_formula_units_Z   1
loop_
 _symmetry_equiv_pos_site_id
 _symmetry_equiv_pos_as_xyz
  1  'x, y, z'
loop_
 _atom_site_type_symbol
 _atom_site_label
 _atom_site_symmetry_multiplicity
 _atom_site_fract_x
 _atom_site_fract_y
 _atom_site_fract_z
 _atom_site_occupancy
  Ba  Ba0  1  0.66629997  0.66668553  0.34926561  1
  Ba  Ba1  1  0.33331496  0.33369831  0.65073680  1
  Ba  Ba2  1  0.33240580  0.33402631  0.18634898  1
  Ba  Ba3  1  0.66596535  0.66759982  0.81365921  1
  Ba  Ba4  1  0.00000608  0.99999344  0.49999788  1
  Ba  Ba5  1  0.00845367  0.99155158  0.00000670  1
  Na  Na6  1  0.99933011  0.00031913  0.25180596  1
  Na  Na7  1  0.99968128  0.00067337  0.74818299  1
  Nb  Nb8  1  0.33331967  0.33326679  0.41333761  1
  Nb  Nb9  1  0.66673547  0.66667743  0.58666291  1
  V  V10  1  0.66028845  0.66987125  0.10400125  1
  V  V11  1  0.33012401  0.33971842  0.89599627  1
  O  O12  1  0.82156156  0.82564104  0.14462248  1
  O  O13  1  0.34902547  0.82685845  0.14988397  1
  O  O14  1  0.82354391  0.35203026  0.14429186  1
  O  O15  1  0.17434467  0.17845147  0.85537900  1
  O  O16  1  0.64796062  0.17645239  0.85571068  1
  O  O17  1  0.17315076  0.65097570  0.85011578  1
  O  O18  1  0.49993429  0.50006449  0.50000006  1
  O  O19  1  0.00004250  0.50001435  0.50003475  1
  O  O20  1  0.49998666  0.99995718  0.49996452  1
  O  O21  1  0.17731124  0.17772520  0.34266990  1
  O  O22  1  0.64500334  0.17718827  0.34275821  1
  O  O23  1  0.17711583  0.64474387  0.34270126  1
  O  O24  1  0.82227221  0.82269267  0.65732892  1
  O  O25  1  0.35525497  0.82288506  0.65729667  1
  O  O26  1  0.82281135  0.35499746  0.65724047  1
  O  O27  1  0.63637452  0.68472058  0.98965528  1
  O  O28  1  0.31528126  0.36362019  0.01034400  1
