# generated using pymatgen
data_Ba3NdIrRuO9
_symmetry_space_group_name_H-M   'P 1'
_cell_length_a   6.00190450
_cell_length_b   5.99895737
_cell_length_c   14.99522915
_cell_angle_alpha   90.00000000
_cell_angle_beta   90.00000000
_cell_angle_gamma   60.01623717
_symmetry_Int_Tables_number   1
_chemical_formula_structural   Ba3NdIrRuO9
_chemical_formula_sum   'Ba6 Nd2 Ir2 Ru2 O18'
_cell_volume   467.64859032
_cell_formula_units_Z   2
loop_
 _symmetry_equiv_pos_site_id
 _symmetry_equiv_pos_as_xyz
  1  'x, y, z'
loop_
 _atom_site_type_symbol
 _atom_site_label
 _atom_site_symmetry_multiplicity
 _atom_site_fract_x
 _atom_site_fract_y
 _atom_site_fract_z
 _atom_site_occupancy
  Ba  Ba0  1  0.33329013  0.33335493  0.39905411  1
  Ba  Ba1  1  0.66671603  0.66664199  0.60178787  1
  Ba  Ba2  1  0.66670987  0.66664507  0.89905411  1
  Ba  Ba3  1  0.33328397  0.33335801  0.10178787  1
  Ba  Ba4  1  0.00002556  -0.00001278  0.74969259  1
  Ba  Ba5  1  -0.00002556  0.00001278  0.24969259  1
  Nd  Nd6  1  0.00015175  -0.00007587  0.50166234  1
  Nd  Nd7  1  -0.00015175  0.00007587  0.00166234  1
  Ir  Ir8  1  0.33305729  0.33347136  0.66682373  1
  Ir  Ir9  1  0.66694271  0.66652864  0.16682373  1
  Ru  Ru10  1  0.66702921  0.66648540  0.33432743  1
  Ru  Ru11  1  0.33297079  0.33351460  0.83432743  1
  O  O12  1  0.17857217  0.64289810  0.90716023  1
  O  O13  1  0.64324284  0.17837858  0.90734772  1
  O  O14  1  0.17857217  0.17852973  0.90716023  1
  O  O15  1  0.82260558  0.35480419  0.09081801  1
  O  O16  1  0.35454257  0.82272871  0.09078570  1
  O  O17  1  0.82260558  0.82259023  0.09081801  1
  O  O18  1  0.82142783  0.35710190  0.40716023  1
  O  O19  1  0.35675716  0.82162142  0.40734772  1
  O  O20  1  0.82142783  0.82147027  0.40716023  1
  O  O21  1  0.17739442  0.64519581  0.59081801  1
  O  O22  1  0.64545743  0.17727129  0.59078570  1
  O  O23  1  0.17739442  0.17740977  0.59081801  1
  O  O24  1  0.49052943  0.01893603  0.75084284  1
  O  O25  1  0.01878502  0.49060749  0.75087636  1
  O  O26  1  0.49052943  0.49053454  0.75084284  1
  O  O27  1  0.50947057  0.98106397  0.25084284  1
  O  O28  1  0.98121498  0.50939251  0.25087636  1
  O  O29  1  0.50947057  0.50946546  0.25084284  1
