# generated using pymatgen
data_Ba3DyIrRuO9
_symmetry_space_group_name_H-M   'P 1'
_cell_length_a   5.94865737
_cell_length_b   5.94884553
_cell_length_c   14.73417403
_cell_angle_alpha   90.00000000
_cell_angle_beta   90.00000000
_cell_angle_gamma   59.99895374
_symmetry_Int_Tables_number   1
_chemical_formula_structural   Ba3DyIrRuO9
_chemical_formula_sum   'Ba6 Dy2 Ir2 Ru2 O18'
_cell_volume   451.54755553
_cell_formula_units_Z   2
loop_
 _symmetry_equiv_pos_site_id
 _symmetry_equiv_pos_as_xyz
  1  'x, y, z'
loop_
 _atom_site_type_symbol
 _atom_site_label
 _atom_site_symmetry_multiplicity
 _atom_site_fract_x
 _atom_site_fract_y
 _atom_site_fract_z
 _atom_site_occupancy
  Ba  Ba0  1  0.00000168  0.99999916  0.74980677  1
  Ba  Ba1  1  0.99999832  0.00000084  0.24980677  1
  Ba  Ba2  1  0.33333567  0.33333217  0.40437761  1
  Ba  Ba3  1  0.66664865  0.66667568  0.59648985  1
  Ba  Ba4  1  0.66666433  0.66666783  0.90437761  1
  Ba  Ba5  1  0.33335135  0.33332432  0.09648985  1
  Dy  Dy6  1  0.99998506  0.00000747  0.50117156  1
  Dy  Dy7  1  0.00001494  0.99999253  0.00117156  1
  Ir  Ir8  1  0.33332342  0.33333829  0.66475036  1
  Ir  Ir9  1  0.66667658  0.66666171  0.16475036  1
  Ru  Ru10  1  0.66666819  0.66666591  0.33670596  1
  Ru  Ru11  1  0.33333181  0.33333409  0.83670596  1
  O  O12  1  0.49062677  0.01878062  0.75070551  1
  O  O13  1  0.01880758  0.49059621  0.75070603  1
  O  O14  1  0.49062677  0.49059261  0.75070551  1
  O  O15  1  0.50937323  0.98121938  0.25070551  1
  O  O16  1  0.98119242  0.50940379  0.25070603  1
  O  O17  1  0.50937323  0.50940739  0.25070551  1
  O  O18  1  0.17573899  0.64858151  0.91064612  1
  O  O19  1  0.64850999  0.17574501  0.91063776  1
  O  O20  1  0.17573899  0.17567950  0.91064612  1
  O  O21  1  0.82479748  0.35039496  0.08755109  1
  O  O22  1  0.35038997  0.82480501  0.08754866  1
  O  O23  1  0.82479748  0.82480756  0.08755109  1
  O  O24  1  0.82426101  0.35141849  0.41064612  1
  O  O25  1  0.35149001  0.82425499  0.41063776  1
  O  O26  1  0.82426101  0.82432050  0.41064612  1
  O  O27  1  0.17520252  0.64960504  0.58755109  1
  O  O28  1  0.64961003  0.17519499  0.58754866  1
  O  O29  1  0.17520252  0.17519244  0.58755109  1
