# generated using pymatgen
data_Ba3Dy2MoO9
_symmetry_space_group_name_H-M   'P 1'
_cell_length_a   6.09958576
_cell_length_b   8.64904497
_cell_length_c   10.57306066
_cell_angle_alpha   65.85713079
_cell_angle_beta   73.23485695
_cell_angle_gamma   90.00000000
_symmetry_Int_Tables_number   1
_chemical_formula_structural   Ba3Dy2MoO9
_chemical_formula_sum   'Ba6 Dy4 Mo2 O18'
_cell_volume   482.89922431
_cell_formula_units_Z   2
loop_
 _symmetry_equiv_pos_site_id
 _symmetry_equiv_pos_as_xyz
  1  'x, y, z'
loop_
 _atom_site_type_symbol
 _atom_site_label
 _atom_site_symmetry_multiplicity
 _atom_site_fract_x
 _atom_site_fract_y
 _atom_site_fract_z
 _atom_site_occupancy
  Ba  Ba0  1  0.50000000  0.26460441  1.00000000  1
  Ba  Ba1  1  0.83913356  0.58020401  0.32173187  1
  Ba  Ba2  1  0.16086644  0.90193688  0.67826813  1
  Ba  Ba3  1  0.50000000  0.73539559  0.00000000  1
  Ba  Ba4  1  0.83913356  0.09806312  0.32173187  1
  Ba  Ba5  1  0.16086644  0.41979599  0.67826813  1
  Dy  Dy6  1  -0.00000000  0.00000000  -0.00000000  1
  Dy  Dy7  1  0.32804608  0.32804608  0.34390684  1
  Dy  Dy8  1  0.67195392  0.67195392  0.65609316  1
  Dy  Dy9  1  -0.00000000  0.50000000  -0.00000000  1
  Mo  Mo10  1  0.33412739  0.83412739  0.33174422  1
  Mo  Mo11  1  0.66587261  0.16587261  0.66825578  1
  O  O12  1  1.00000000  0.24679947  0.00000000  1
  O  O13  1  0.32994040  0.60141551  0.34011820  1
  O  O14  1  0.67005960  0.94153471  0.65988180  1
  O  O15  1  0.16086300  0.41036914  0.17926072  1
  O  O16  1  0.48942355  0.76004439  0.47991221  1
  O  O17  1  0.81814106  0.08975266  0.82049469  1
  O  O18  1  0.34012472  0.58963086  0.82073928  1
  O  O19  1  0.63863575  0.91024734  0.17950531  1
  O  O20  1  0.96933476  0.23995561  0.52008779  1
  O  O21  1  0.00000000  0.75320053  1.00000000  1
  O  O22  1  0.32994040  0.05846529  0.34011820  1
  O  O23  1  0.67005960  0.39858449  0.65988180  1
  O  O24  1  0.83913700  0.58963086  0.82073928  1
  O  O25  1  0.18185894  0.91024734  0.17950531  1
  O  O26  1  0.51057645  0.23995561  0.52008779  1
  O  O27  1  0.65987528  0.41036914  0.17926072  1
  O  O28  1  0.03066524  0.76004439  0.47991221  1
  O  O29  1  0.36136425  0.08975266  0.82049469  1
