# generated using pymatgen
data_Cs3(Cr5Se8)4
_symmetry_space_group_name_H-M   'P 1'
_cell_length_a   11.03689232
_cell_length_b   11.80694485
_cell_length_c   11.66538623
_cell_angle_alpha   111.15683471
_cell_angle_beta   62.67075087
_cell_angle_gamma   98.47323789
_symmetry_Int_Tables_number   1
_chemical_formula_structural   Cs3(Cr5Se8)4
_chemical_formula_sum   'Cs3 Cr20 Se32'
_cell_volume   1259.13021579
_cell_formula_units_Z   1
loop_
 _symmetry_equiv_pos_site_id
 _symmetry_equiv_pos_as_xyz
  1  'x, y, z'
loop_
 _atom_site_type_symbol
 _atom_site_label
 _atom_site_symmetry_multiplicity
 _atom_site_fract_x
 _atom_site_fract_y
 _atom_site_fract_z
 _atom_site_occupancy
  Cs  Cs0  1  0.39432202  0.10425973  0.60612457  1
  Cs  Cs1  1  0.12500000  0.37500000  0.87500000  1
  Cs  Cs2  1  0.85567798  0.64574027  0.14387543  1
  Cr  Cr3  1  0.58217882  0.75233540  0.73617764  1
  Cr  Cr4  1  0.33400376  0.00253657  0.98492883  1
  Cr  Cr5  1  0.08142606  0.25285724  0.23578610  1
  Cr  Cr6  1  0.83029227  0.50353268  0.48575559  1
  Cr  Cr7  1  0.41970773  0.24646632  0.26424441  1
  Cr  Cr8  1  0.16857394  0.49714276  0.51421390  1
  Cr  Cr9  1  0.91599524  0.74746343  0.76507117  1
  Cr  Cr10  1  0.66782118  -0.00233540  0.01382236  1
  Cr  Cr11  1  0.96441402  0.11185632  0.44641813  1
  Cr  Cr12  1  0.71473343  0.36081452  0.69542192  1
  Cr  Cr13  1  0.46408342  0.61151478  0.94609399  1
  Cr  Cr14  1  0.21369904  0.86254823  0.19701986  1
  Cr  Cr15  1  0.03629996  0.88745077  0.55298114  1
  Cr  Cr16  1  0.78591558  0.13848422  0.80390701  1
  Cr  Cr17  1  0.53526557  0.38918448  0.05457908  1
  Cr  Cr18  1  0.28558498  0.63814368  0.30358287  1
  Cr  Cr19  1  0.99918570  -0.00005057  0.00089687  1
  Cr  Cr20  1  0.75002607  0.24913631  0.24993105  1
  Cr  Cr21  1  0.49997393  0.50086369  0.50006895  1
  Cr  Cr22  1  0.25081430  0.75005057  0.74910313  1
  Se  Se23  1  0.77904559  0.89890678  0.74134949  1
  Se  Se24  1  0.52966264  0.14958268  0.99178703  1
  Se  Se25  1  0.27944115  0.39906733  0.24221435  1
  Se  Se26  1  0.02884060  0.64842314  0.49149812  1
  Se  Se27  1  0.22115840  0.10157586  0.25850288  1
  Se  Se28  1  0.97055785  0.35093267  0.50778665  1
  Se  Se29  1  0.72033636  0.60041632  0.75821397  1
  Se  Se30  1  0.47095341  0.85109222  0.00865151  1
  Se  Se31  1  0.10704283  0.89503683  0.74167716  1
  Se  Se32  1  0.85826885  0.14611005  0.99152147  1
  Se  Se33  1  0.60845759  0.39610089  0.24121709  1
  Se  Se34  1  0.35811647  0.64589881  0.49084431  1
  Se  Se35  1  0.89188353  0.10410119  0.25915569  1
  Se  Se36  1  0.64154241  0.35389911  0.50878291  1
  Se  Se37  1  0.39173115  0.60388995  0.75847853  1
  Se  Se38  1  0.14295717  0.85496317  0.00832284  1
  Se  Se39  1  0.02936744  0.11468090  0.62651096  1
  Se  Se40  1  0.77850124  0.36571720  0.87672198  1
  Se  Se41  1  0.52762955  0.61575466  0.12663106  1
  Se  Se42  1  0.27886598  0.86420995  0.37547104  1
  Se  Se43  1  0.97113402  0.88579005  0.37452896  1
  Se  Se44  1  0.72237045  0.13424534  0.62336894  1
  Se  Se45  1  0.47149876  0.38428280  0.87327802  1
  Se  Se46  1  0.22063256  0.63531910  0.12348904  1
  Se  Se47  1  0.30763577  0.35033483  0.51631542  1
  Se  Se48  1  0.05601163  0.60156050  0.76664867  1
  Se  Se49  1  0.80522667  0.85241455  0.01658172  1
  Se  Se50  1  0.55855872  0.09920864  0.26470722  1
  Se  Se51  1  0.69144028  0.65079036  0.48529378  1
  Se  Se52  1  0.44477233  0.89758545  0.73341928  1
  Se  Se53  1  0.19398737  0.14843850  0.98335233  1
  Se  Se54  1  0.94236323  0.39966417  0.23368558  1
