# generated using pymatgen
data_Ba7Sr5(MoN4)4
_symmetry_space_group_name_H-M   'P 1'
_cell_length_a   10.08739676
_cell_length_b   10.71549554
_cell_length_c   12.11085220
_cell_angle_alpha   90.00000000
_cell_angle_beta   89.87273545
_cell_angle_gamma   90.00000000
_symmetry_Int_Tables_number   1
_chemical_formula_structural   Ba7Sr5(MoN4)4
_chemical_formula_sum   'Ba14 Sr10 Mo8 N32'
_cell_volume   1309.07640557
_cell_formula_units_Z   2
loop_
 _symmetry_equiv_pos_site_id
 _symmetry_equiv_pos_as_xyz
  1  'x, y, z'
loop_
 _atom_site_type_symbol
 _atom_site_label
 _atom_site_symmetry_multiplicity
 _atom_site_fract_x
 _atom_site_fract_y
 _atom_site_fract_z
 _atom_site_occupancy
  Ba  Ba0  1  0.30844285  0.77408779  0.38284880  1
  Ba  Ba1  1  0.19155715  0.27408779  0.61715120  1
  Ba  Ba2  1  0.80453311  0.22550827  0.11900226  1
  Ba  Ba3  1  0.69546689  0.72550827  0.88099774  1
  Ba  Ba4  1  0.69453338  0.22742889  0.61703785  1
  Ba  Ba5  1  0.80546662  0.72742889  0.38296215  1
  Ba  Ba6  1  0.19313192  0.77418264  0.88317208  1
  Ba  Ba7  1  0.30686808  0.27418264  0.11682792  1
  Ba  Ba8  1  0.12613936  0.97160410  0.14673722  1
  Ba  Ba9  1  0.37386064  0.47160410  0.85326278  1
  Ba  Ba10  1  0.37310439  0.97137703  0.64602623  1
  Ba  Ba11  1  0.12689561  0.47137703  0.35397377  1
  Ba  Ba12  1  0.87239848  0.02848446  0.85451359  1
  Ba  Ba13  1  0.62760152  0.52848446  0.14548641  1
  Sr  Sr14  1  0.96719256  0.12397068  0.39607484  1
  Sr  Sr15  1  0.53280744  0.62397068  0.60392516  1
  Sr  Sr16  1  0.46898969  0.87683965  0.10456415  1
  Sr  Sr17  1  0.03101031  0.37683965  0.89543585  1
  Sr  Sr18  1  0.03192336  0.87606242  0.60324240  1
  Sr  Sr19  1  0.46807664  0.37606242  0.39675760  1
  Sr  Sr20  1  0.53241520  0.12375314  0.89591429  1
  Sr  Sr21  1  0.96758480  0.62375314  0.10408571  1
  Sr  Sr22  1  0.62150548  0.03465194  0.36240561  1
  Sr  Sr23  1  0.87849452  0.53465194  0.63759439  1
  Mo  Mo24  1  0.30119518  0.09623302  0.38450490  1
  Mo  Mo25  1  0.19880482  0.59623302  0.61549510  1
  Mo  Mo26  1  0.79557085  0.90358408  0.11698176  1
  Mo  Mo27  1  0.70442915  0.40358408  0.88301824  1
  Mo  Mo28  1  0.70270939  0.90218214  0.61232178  1
  Mo  Mo29  1  0.79729061  0.40218214  0.38767822  1
  Mo  Mo30  1  0.20266159  0.09682958  0.88467500  1
  Mo  Mo31  1  0.29733841  0.59682958  0.11532500  1
  N  N32  1  0.20097555  0.22431905  0.31873504  1
  N  N33  1  0.29902445  0.72431905  0.68126496  1
  N  N34  1  0.69729075  0.77366105  0.18125300  1
  N  N35  1  0.80270925  0.27366105  0.81874700  1
  N  N36  1  0.80067602  0.76960992  0.67553168  1
  N  N37  1  0.69932398  0.26960992  0.32446832  1
  N  N38  1  0.30187853  0.22554153  0.81846893  1
  N  N39  1  0.19812147  0.72554153  0.18153107  1
  N  N40  1  0.43085162  0.15937831  0.48206417  1
  N  N41  1  0.06914838  0.65937831  0.51793583  1
  N  N42  1  0.92707870  0.84086547  0.01978434  1
  N  N43  1  0.57292130  0.34086547  0.98021566  1
  N  N44  1  0.57210793  0.84220834  0.51418147  1
  N  N45  1  0.92789207  0.34220834  0.48581853  1
  N  N46  1  0.07264115  0.15979070  0.98231473  1
  N  N47  1  0.42735885  0.65979070  0.01768527  1
  N  N48  1  0.18219378  0.99349245  0.46462225  1
  N  N49  1  0.31780622  0.49349245  0.53537775  1
  N  N50  1  0.67960473  0.00573493  0.03412810  1
  N  N51  1  0.82039527  0.50573493  0.96587190  1
  N  N52  1  0.81845854  0.00618750  0.53075067  1
  N  N53  1  0.68154146  0.50618750  0.46924933  1
  N  N54  1  0.31994906  0.99430449  0.96586350  1
  N  N55  1  0.18005094  0.49430449  0.03413650  1
  N  N56  1  0.38696209  0.99568489  0.27865921  1
  N  N57  1  0.11303791  0.49568489  0.72134079  1
  N  N58  1  0.87334470  0.00502515  0.22621983  1
  N  N59  1  0.62665530  0.50502515  0.77378017  1
  N  N60  1  0.62369409  0.00240683  0.72197513  1
  N  N61  1  0.87630591  0.50240683  0.27802487  1
  N  N62  1  0.12244659  0.99500957  0.77684436  1
  N  N63  1  0.37755341  0.49500957  0.22315564  1
