# generated using pymatgen
data_Ba3Fe4P8PbO28
_symmetry_space_group_name_H-M   'P 1'
_cell_length_a   5.59076924
_cell_length_b   8.53485884
_cell_length_c   13.01129469
_cell_angle_alpha   90.44934170
_cell_angle_beta   90.93254458
_cell_angle_gamma   89.93938492
_symmetry_Int_Tables_number   1
_chemical_formula_structural   Ba3Fe4P8PbO28
_chemical_formula_sum   'Ba3 Fe4 P8 Pb1 O28'
_cell_volume   620.75089283
_cell_formula_units_Z   1
loop_
 _symmetry_equiv_pos_site_id
 _symmetry_equiv_pos_as_xyz
  1  'x, y, z'
loop_
 _atom_site_type_symbol
 _atom_site_label
 _atom_site_symmetry_multiplicity
 _atom_site_fract_x
 _atom_site_fract_y
 _atom_site_fract_z
 _atom_site_occupancy
  Ba  Ba0  1  0.78030458  0.64338056  0.21758920  1
  Ba  Ba1  1  0.71936511  0.14291691  0.28188602  1
  Ba  Ba2  1  0.22008846  0.35559226  0.78189826  1
  Fe  Fe3  1  0.81481454  0.65756358  0.89141653  1
  Fe  Fe4  1  0.31494227  0.84335666  0.39218468  1
  Fe  Fe5  1  0.18706707  0.34383641  0.10920080  1
  Fe  Fe6  1  0.68430654  0.15608852  0.60918212  1
  P  P7  1  0.75699206  0.04437498  0.83797279  1
  P  P8  1  0.25667896  0.45232606  0.34021311  1
  P  P9  1  0.24347106  0.95194894  0.16007742  1
  P  P10  1  0.74329814  0.55247703  0.66025517  1
  P  P11  1  0.31226139  0.69144771  0.01544485  1
  P  P12  1  0.81215188  0.80961924  0.51780776  1
  P  P13  1  0.68872255  0.30814007  0.98330871  1
  P  P14  1  0.18747453  0.19143279  0.48427191  1
  Pb  Pb15  1  0.28664126  0.84898315  0.71804196  1
  O  O16  1  0.19633024  0.67498721  0.90768638  1
  O  O17  1  0.70011602  0.82507759  0.40939692  1
  O  O18  1  0.80542688  0.32381989  0.09089450  1
  O  O19  1  0.30409242  0.17751371  0.59139147  1
  O  O20  1  0.58405175  0.66757229  0.01838501  1
  O  O21  1  0.08485720  0.83323339  0.52305319  1
  O  O22  1  0.41644020  0.33096602  0.98175480  1
  O  O23  1  0.91544065  0.16850309  0.48184238  1
  O  O24  1  0.49008601  0.58575746  0.69820123  1
  O  O25  1  0.99124564  0.92316537  0.19773545  1
  O  O26  1  0.50854687  0.42355875  0.30181979  1
  O  O27  1  0.01135367  0.06782051  0.79994956  1
  O  O28  1  0.68876794  0.87247084  0.85365334  1
  O  O29  1  0.19656098  0.62611421  0.35544978  1
  O  O30  1  0.30441379  0.12488460  0.14534624  1
  O  O31  1  0.79706265  0.37771179  0.64717380  1
  O  O32  1  0.74089960  0.12700609  0.95095011  1
  O  O33  1  0.23705399  0.37277444  0.45255276  1
  O  O34  1  0.26261814  0.87284946  0.04678820  1
  O  O35  1  0.76297770  0.62758896  0.54697778  1
  O  O36  1  0.56632254  0.12252773  0.76781377  1
  O  O37  1  0.06536813  0.37700341  0.26844616  1
  O  O38  1  0.43381152  0.87536014  0.23125648  1
  O  O39  1  0.93758668  0.62833062  0.73069710  1
  O  O40  1  0.18906914  0.58925187  0.09681919  1
  O  O41  1  0.68130978  0.91134099  0.59814297  1
  O  O42  1  0.80947299  0.41214193  0.90238043  1
  O  O43  1  0.31013647  0.08718272  0.40268990  1
