# generated using pymatgen
data_Ba4MgTa10O30
_symmetry_space_group_name_H-M   'P 1'
_cell_length_a   7.92004225
_cell_length_b   10.03801658
_cell_length_c   10.03801658
_cell_angle_alpha   117.81853483
_cell_angle_beta   113.23493816
_cell_angle_gamma   66.76506184
_symmetry_Int_Tables_number   1
_chemical_formula_structural   Ba4MgTa10O30
_chemical_formula_sum   'Ba4 Mg1 Ta10 O30'
_cell_volume   626.45228253
_cell_formula_units_Z   1
loop_
 _symmetry_equiv_pos_site_id
 _symmetry_equiv_pos_as_xyz
  1  'x, y, z'
loop_
 _atom_site_type_symbol
 _atom_site_label
 _atom_site_symmetry_multiplicity
 _atom_site_fract_x
 _atom_site_fract_y
 _atom_site_fract_z
 _atom_site_occupancy
  Ba  Ba0  1  0.54911914  0.20088086  0.79911914  1
  Ba  Ba1  1  0.03926594  0.21073406  0.78926594  1
  Ba  Ba2  1  0.45024899  0.79975101  0.20024899  1
  Ba  Ba3  1  0.94787874  0.80212126  0.19787874  1
  Mg  Mg4  1  0.77193567  0.47806433  0.52193567  1
  Ta  Ta5  1  0.12809405  0.18855481  0.43938205  1
  Ta  Ta6  1  0.62273318  0.18855481  0.43938205  1
  Ta  Ta7  1  0.12809405  0.56061795  0.81144519  1
  Ta  Ta8  1  0.62273318  0.56061795  0.81144519  1
  Ta  Ta9  1  0.49575504  0.00483954  0.99516046  1
  Ta  Ta10  1  0.99456587  0.00483954  0.99516046  1
  Ta  Ta11  1  0.37296611  0.44486400  0.19106705  1
  Ta  Ta12  1  0.87323694  0.44486400  0.19106705  1
  Ta  Ta13  1  0.87323694  0.80893295  0.55513600  1
  Ta  Ta14  1  0.37296611  0.80893295  0.55513600  1
  O  O15  1  0.07941423  0.04065887  0.22087106  1
  O  O16  1  0.60079796  0.04065887  0.22087106  1
  O  O17  1  0.07941423  0.77912894  0.95934113  1
  O  O18  1  0.60079796  0.77912894  0.95934113  1
  O  O19  1  0.36846517  0.19194523  0.42887558  1
  O  O20  1  0.87711486  0.22493949  0.47916921  1
  O  O21  1  0.36846517  0.57112442  0.80805477  1
  O  O22  1  0.87711486  0.52083079  0.77506051  1
  O  O23  1  0.89976247  0.23106553  0.03048605  1
  O  O24  1  0.39965806  0.23106553  0.03048605  1
  O  O25  1  0.89976247  0.96951395  0.76893447  1
  O  O26  1  0.39965806  0.96951395  0.76893447  1
  O  O27  1  0.64284390  0.33541544  0.66458456  1
  O  O28  1  0.18632521  0.33541544  0.66458456  1
  O  O29  1  0.31984813  0.67578082  0.32421918  1
  O  O30  1  0.82859023  0.67578082  0.32421918  1
  O  O31  1  0.53133389  0.37228231  0.36151505  1
  O  O32  1  0.95789885  0.37228231  0.36151505  1
  O  O33  1  0.95789885  0.63848495  0.62771769  1
  O  O34  1  0.53133389  0.63848495  0.62771769  1
  O  O35  1  0.12124408  0.45005488  0.19254304  1
  O  O36  1  0.60151304  0.47141786  0.17444394  1
  O  O37  1  0.12124408  0.80745696  0.54994512  1
  O  O38  1  0.60151304  0.82555606  0.52858214  1
  O  O39  1  0.23390859  0.50405416  0.99206569  1
  O  O40  1  0.75410294  0.50405416  0.99206569  1
  O  O41  1  0.23390859  0.00793431  0.49594584  1
  O  O42  1  0.75410294  0.00793431  0.49594584  1
  O  O43  1  0.74178680  0.00821320  0.99178680  1
  O  O44  1  0.24964750  0.00035250  0.99964750  1
