# generated using pymatgen
data_Ca19Mg2(PO4)14
_symmetry_space_group_name_H-M   'P 1'
_cell_length_a   10.44093377
_cell_length_b   10.44093389
_cell_length_c   13.86226092
_cell_angle_alpha   90.00000000
_cell_angle_beta   67.87703231
_cell_angle_gamma   120.00000040
_symmetry_Int_Tables_number   1
_chemical_formula_structural   Ca19Mg2(PO4)14
_chemical_formula_sum   'Ca19 Mg2 P14 O56'
_cell_volume   1178.49377683
_cell_formula_units_Z   1
loop_
 _symmetry_equiv_pos_site_id
 _symmetry_equiv_pos_as_xyz
  1  'x, y, z'
loop_
 _atom_site_type_symbol
 _atom_site_label
 _atom_site_symmetry_multiplicity
 _atom_site_fract_x
 _atom_site_fract_y
 _atom_site_fract_z
 _atom_site_occupancy
  Ca  Ca0  1  0.06081694  0.04476745  0.48347878  1
  Ca  Ca1  1  0.50047173  0.45570428  0.48347878  1
  Ca  Ca2  1  0.47175377  0.01604949  0.48347878  1
  Ca  Ca3  1  0.46899194  0.93358044  0.97332117  1
  Ca  Ca4  1  0.49126734  0.55768689  0.97332117  1
  Ca  Ca5  1  0.09309839  0.53541150  0.97332117  1
  Ca  Ca6  1  0.71227731  0.65652698  0.19810689  1
  Ca  Ca7  1  0.74614277  0.08961579  0.19810689  1
  Ca  Ca8  1  0.14536613  0.05575034  0.19810689  1
  Ca  Ca9  1  0.16140019  0.59508804  0.68947697  1
  Ca  Ca10  1  0.74421087  0.14912283  0.68947697  1
  Ca  Ca11  1  0.71543499  0.56631216  0.68947697  1
  Ca  Ca12  1  0.27725341  0.34334122  0.79810803  1
  Ca  Ca13  1  0.26797978  0.92463856  0.79810803  1
  Ca  Ca14  1  0.85855075  0.93391219  0.79810803  1
  Ca  Ca15  1  0.86015217  0.42406036  0.30022038  1
  Ca  Ca16  1  0.26368780  0.83962744  0.30022038  1
  Ca  Ca17  1  0.27571926  0.43609182  0.30022038  1
  Ca  Ca18  1  0.62260682  0.31130341  0.06608977  1
  Mg  Mg19  1  0.99808749  0.49904375  0.50286876  1
  Mg  Mg20  1  0.99821051  0.99910525  0.00268424  1
  P  P21  1  0.47147656  0.23573828  0.29278516  1
  P  P22  1  0.47174754  0.73587377  0.79237869  1
  P  P23  1  0.86561453  0.67365827  0.90575175  1
  P  P24  1  0.90229198  0.22863371  0.90575175  1
  P  P25  1  0.42058998  0.19195626  0.90575175  1
  P  P26  1  0.41485445  0.72526567  0.40582892  1
  P  P27  1  0.90458231  0.17931664  0.40582892  1
  P  P28  1  0.86890541  0.68958877  0.40582892  1
  P  P29  1  0.08898240  0.81351228  0.59467866  1
  P  P30  1  0.12985122  0.31633894  0.59467866  1
  P  P31  1  0.59180907  0.27547013  0.59467866  1
  P  P32  1  0.59230678  0.81819328  0.09454400  1
  P  P33  1  0.13134250  0.31314922  0.09454400  1
  P  P34  1  0.08726272  0.77411350  0.09454400  1
  O  O35  1  0.77296027  0.66563950  0.83783015  1
  O  O36  1  0.05484907  0.38920958  0.83783015  1
  O  O37  1  0.49653035  0.10732077  0.83783015  1
  O  O38  1  0.49802329  0.88813064  0.33659534  1
  O  O39  1  0.05351201  0.16538137  0.33659534  1
  O  O40  1  0.77527402  0.60989265  0.33659534  1
  O  O41  1  0.19830266  0.86928382  0.65495505  1
  O  O42  1  0.01602612  0.14674230  0.65495505  1
  O  O43  1  0.47576113  0.32901884  0.65495505  1
  O  O44  1  0.47574850  0.64823527  0.15331697  1
  O  O45  1  0.01916980  0.37093453  0.15331697  1
  O  O46  1  0.19844776  0.82751323  0.15331697  1
  O  O47  1  0.00243689  0.63708921  0.61353873  1
  O  O48  1  0.02111359  0.38402438  0.61353873  1
  O  O49  1  0.74937205  0.36534768  0.61353873  1
  O  O50  1  0.74898578  0.88439718  0.11484727  1
  O  O51  1  0.02056412  0.13616695  0.11484727  1
  O  O52  1  0.00075555  0.86458861  0.11484727  1
  O  O53  1  0.97259608  0.84751794  0.90226421  1
  O  O54  1  0.97265765  0.12513970  0.90226421  1
  O  O55  1  0.25021784  0.12507814  0.90226421  1
  O  O56  1  0.24855428  0.62520355  0.39576386  1
  O  O57  1  0.98088541  0.35568187  0.39576386  1
  O  O58  1  0.97903260  0.62335073  0.39576386  1
  O  O59  1  0.39024914  0.19512457  0.41462628  1
  O  O60  1  0.38802030  0.69401015  0.91796955  1
  O  O61  1  0.97887434  0.61288283  0.86418301  1
  O  O62  1  0.76982549  0.15694266  0.86418301  1
  O  O63  1  0.52293416  0.36599150  0.86418301  1
  O  O64  1  0.51522909  0.65094033  0.36243822  1
  O  O65  1  0.77327302  0.12233269  0.36243822  1
  O  O66  1  0.98662146  0.86428877  0.36243822  1
  O  O67  1  0.64283219  0.25263427  0.24380102  1
  O  O68  1  0.36600107  0.11336679  0.24380102  1
  O  O69  1  0.50356471  0.39019791  0.24380102  1
  O  O70  1  0.49646879  0.60586653  0.75650132  1
  O  O71  1  0.35289642  0.74702989  0.75650132  1
  O  O72  1  0.63763215  0.89060226  0.75650132  1
  O  O73  1  0.19959001  0.89263681  0.47422134  1
  O  O74  1  0.21882546  0.32618865  0.47422134  1
  O  O75  1  0.63314185  0.30695320  0.47422134  1
  O  O76  1  0.63696320  0.82833942  0.97367292  1
  O  O77  1  0.21770330  0.38936387  0.97367292  1
  O  O78  1  0.19798765  0.80862378  0.97367292  1
  O  O79  1  0.72801557  0.57588171  0.02127798  1
  O  O80  1  0.82658816  0.25070646  0.02127798  1
  O  O81  1  0.40284032  0.15213386  0.02127798  1
  O  O82  1  0.38404324  0.74207671  0.52112179  1
  O  O83  1  0.83691168  0.09483497  0.52112179  1
  O  O84  1  0.73680150  0.64196653  0.52112179  1
  O  O85  1  0.95424330  0.85130814  0.63381472  1
  O  O86  1  0.26325011  0.41194198  0.63381472  1
  O  O87  1  0.51487714  0.10293516  0.63381472  1
  O  O88  1  0.51636119  0.91506948  0.13073973  1
  O  O89  1  0.26796857  0.35289908  0.13073973  1
  O  O90  1  0.95419079  0.60129171  0.13073973  1
