# generated using pymatgen
data_Ba3BiIrRuO9
_symmetry_space_group_name_H-M   'P 1'
_cell_length_a   6.01063807
_cell_length_b   6.01063807
_cell_length_c   14.95237666
_cell_angle_alpha   91.28671540
_cell_angle_beta   91.28671540
_cell_angle_gamma   119.77961949
_symmetry_Int_Tables_number   1
_chemical_formula_structural   Ba3BiIrRuO9
_chemical_formula_sum   'Ba6 Bi2 Ir2 Ru2 O18'
_cell_volume   468.38896507
_cell_formula_units_Z   2
loop_
 _symmetry_equiv_pos_site_id
 _symmetry_equiv_pos_as_xyz
  1  'x, y, z'
loop_
 _atom_site_type_symbol
 _atom_site_label
 _atom_site_symmetry_multiplicity
 _atom_site_fract_x
 _atom_site_fract_y
 _atom_site_fract_z
 _atom_site_occupancy
  Ba  Ba0  1  0.32654304  0.65914101  0.40706711  1
  Ba  Ba1  1  0.34462595  0.67446328  0.09547750  1
  Ba  Ba2  1  0.67446328  0.34462595  0.59547750  1
  Ba  Ba3  1  0.65914101  0.32654304  0.90706711  1
  Ba  Ba4  1  0.99232025  0.00595772  0.25033296  1
  Ba  Ba5  1  0.00595772  0.99232025  0.75033296  1
  Bi  Bi6  1  0.00110186  0.00217116  0.50154353  1
  Bi  Bi7  1  0.00217116  0.00110186  0.00154353  1
  Ir  Ir8  1  0.35304257  0.68513246  0.66600208  1
  Ir  Ir9  1  0.68513246  0.35304257  0.16600208  1
  Ru  Ru10  1  0.31432257  0.64684865  0.83548827  1
  Ru  Ru11  1  0.64684865  0.31432257  0.33548827  1
  O  O12  1  0.77447272  0.59217827  0.42741040  1
  O  O13  1  0.40780597  0.22345110  0.06925218  1
  O  O14  1  0.22345110  0.40780597  0.56925218  1
  O  O15  1  0.59217827  0.77447272  0.92741040  1
  O  O16  1  0.31696231  0.12585974  0.39531248  1
  O  O17  1  0.87525580  0.68590071  0.10287838  1
  O  O18  1  0.68590071  0.87525580  0.60287838  1
  O  O19  1  0.12585974  0.31696231  0.89531248  1
  O  O20  1  0.78298263  0.12823612  0.40397248  1
  O  O21  1  0.87083722  0.21697870  0.09282998  1
  O  O22  1  0.21697870  0.87083722  0.59282998  1
  O  O23  1  0.12823612  0.78298263  0.90397248  1
  O  O24  1  0.51009382  0.48844772  0.25099571  1
  O  O25  1  0.48844772  0.51009382  0.75099571  1
  O  O26  1  0.50864023  0.02899818  0.23679341  1
  O  O27  1  0.96951737  0.48771087  0.26464352  1
  O  O28  1  0.48771087  0.96951737  0.76464352  1
  O  O29  1  0.02899818  0.50864023  0.73679341  1
