# generated using pymatgen
data_Ba3UFe2O9
_symmetry_space_group_name_H-M   'P 1'
_cell_length_a   5.87584974
_cell_length_b   8.41795004
_cell_length_c   10.22383001
_cell_angle_alpha   65.68940638
_cell_angle_beta   73.30000619
_cell_angle_gamma   90.00000000
_symmetry_Int_Tables_number   1
_chemical_formula_structural   Ba3UFe2O9
_chemical_formula_sum   'Ba6 U2 Fe4 O18'
_cell_volume   437.34521205
_cell_formula_units_Z   2
loop_
 _symmetry_equiv_pos_site_id
 _symmetry_equiv_pos_as_xyz
  1  'x, y, z'
loop_
 _atom_site_type_symbol
 _atom_site_label
 _atom_site_symmetry_multiplicity
 _atom_site_fract_x
 _atom_site_fract_y
 _atom_site_fract_z
 _atom_site_occupancy
  Ba  Ba0  1  0.50000000  0.22853799  1.00000000  1
  Ba  Ba1  1  0.84366140  0.60552335  0.31267619  1
  Ba  Ba2  1  0.15633860  0.91820054  0.68732381  1
  Ba  Ba3  1  0.50000000  0.77146201  0.00000000  1
  Ba  Ba4  1  0.84366140  0.08179946  0.31267619  1
  Ba  Ba5  1  0.15633860  0.39447665  0.68732381  1
  U  U6  1  0.33212600  0.33212600  0.33574700  1
  U  U7  1  0.66787400  0.66787400  0.66425300  1
  Fe  Fe8  1  0.00000000  0.50000000  -0.00000000  1
  Fe  Fe9  1  0.33812450  0.83812450  0.32374999  1
  Fe  Fe10  1  0.66187550  0.16187550  0.67625001  1
  Fe  Fe11  1  0.00000000  0.00000000  -0.00000000  1
  O  O12  1  0.00000000  0.25569619  1.00000000  1
  O  O13  1  0.33358399  0.58319525  0.33283101  1
  O  O14  1  0.66641601  0.91602726  0.66716899  1
  O  O15  1  0.16523804  0.41577250  0.16845500  1
  O  O16  1  0.49974548  0.75131626  0.49736649  1
  O  O17  1  0.83464231  0.08429100  0.83141900  1
  O  O18  1  0.33369303  0.58422750  0.83154500  1
  O  O19  1  0.66606031  0.91570900  0.16858100  1
  O  O20  1  0.99711297  0.24868374  0.50263351  1
  O  O21  1  1.00000000  0.74430381  0.00000000  1
  O  O22  1  0.33358399  0.08397274  0.33283101  1
  O  O23  1  0.66641601  0.41680475  0.66716899  1
  O  O24  1  0.83476196  0.58422750  0.83154500  1
  O  O25  1  0.16535769  0.91570900  0.16858100  1
  O  O26  1  0.50025452  0.24868374  0.50263351  1
  O  O27  1  0.66630697  0.41577250  0.16845500  1
  O  O28  1  0.00288703  0.75131626  0.49736649  1
  O  O29  1  0.33393969  0.08429100  0.83141900  1
