# generated using pymatgen
data_Ba5V3HO13
_symmetry_space_group_name_H-M   'P 1'
_cell_length_a   7.96744925
_cell_length_b   10.68007415
_cell_length_c   10.68008290
_cell_angle_alpha   120.00081028
_cell_angle_beta   90.00000000
_cell_angle_gamma   90.00000000
_symmetry_Int_Tables_number   1
_chemical_formula_structural   Ba5V3HO13
_chemical_formula_sum   'Ba10 V6 H2 O26'
_cell_volume   787.03724150
_cell_formula_units_Z   2
loop_
 _symmetry_equiv_pos_site_id
 _symmetry_equiv_pos_as_xyz
  1  'x, y, z'
loop_
 _atom_site_type_symbol
 _atom_site_label
 _atom_site_symmetry_multiplicity
 _atom_site_fract_x
 _atom_site_fract_y
 _atom_site_fract_z
 _atom_site_occupancy
  Ba  Ba0  1  0.50075465  0.66662955  0.33331526  1
  Ba  Ba1  1  0.00075465  0.33337045  0.66668474  1
  Ba  Ba2  1  0.49923611  0.33337057  0.66668436  1
  Ba  Ba3  1  0.99923611  0.66662943  0.33331564  1
  Ba  Ba4  1  0.74892172  0.24730635  0.98895685  1
  Ba  Ba5  1  0.74892164  0.01103421  0.25835850  1
  Ba  Ba6  1  0.74892174  0.74166150  0.75268352  1
  Ba  Ba7  1  0.24892172  0.75269365  0.01104315  1
  Ba  Ba8  1  0.24892164  0.98896579  0.74164150  1
  Ba  Ba9  1  0.24892174  0.25833850  0.24731648  1
  V  V10  1  0.74974017  0.96664222  0.59926454  1
  V  V11  1  0.74974303  0.40072401  0.36735988  1
  V  V12  1  0.74974341  0.63262997  0.03335059  1
  V  V13  1  0.24974017  0.03335778  0.40073546  1
  V  V14  1  0.24974303  0.59927599  0.63264012  1
  V  V15  1  0.24974341  0.36737003  0.96664941  1
  H  H16  1  0.57187146  0.00000009  0.00000058  1
  H  H17  1  0.07187146  0.99999991  0.99999942  1
  O  O18  1  0.75005252  0.87365577  0.40953533  1
  O  O19  1  0.75005384  0.59046314  0.46412459  1
  O  O20  1  0.75005348  0.53587199  0.12633076  1
  O  O21  1  0.25005252  0.12634423  0.59046467  1
  O  O22  1  0.25005384  0.40953686  0.53587541  1
  O  O23  1  0.25005348  0.46412801  0.87366924  1
  O  O24  1  0.57467446  0.90782214  0.65272006  1
  O  O25  1  0.57466912  0.34728988  0.25510848  1
  O  O26  1  0.57466905  0.74489303  0.09217320  1
  O  O27  1  0.07467446  0.09217786  0.34727994  1
  O  O28  1  0.07466912  0.65271012  0.74489152  1
  O  O29  1  0.07466905  0.25510697  0.90782680  1
  O  O30  1  0.42455952  0.09162012  0.34570069  1
  O  O31  1  0.42456785  0.65428938  0.74591322  1
  O  O32  1  0.42456906  0.25408442  0.90838367  1
  O  O33  1  0.92455952  0.90837988  0.65429931  1
  O  O34  1  0.92456785  0.34571062  0.25408678  1
  O  O35  1  0.92456906  0.74591558  0.09161633  1
  O  O36  1  0.74979117  0.15484245  0.67327203  1
  O  O37  1  0.74979221  0.32673504  0.48157797  1
  O  O38  1  0.74979235  0.51842953  0.84515304  1
  O  O39  1  0.24979117  0.84515755  0.32672797  1
  O  O40  1  0.24979221  0.67326496  0.51842203  1
  O  O41  1  0.24979235  0.48157047  0.15484696  1
  O  O42  1  0.69410147  0.00000112  0.00000159  1
  O  O43  1  0.19410147  0.99999888  0.99999841  1
