# generated using pymatgen
data_Ba3Tb2WO9
_symmetry_space_group_name_H-M   'P 1'
_cell_length_a   6.11781677
_cell_length_b   10.59212174
_cell_length_c   8.66724228
_cell_angle_alpha   65.76616471
_cell_angle_beta   89.72475694
_cell_angle_gamma   106.51399052
_symmetry_Int_Tables_number   1
_chemical_formula_structural   Ba3Tb2WO9
_chemical_formula_sum   'Ba6 Tb4 W2 O18'
_cell_volume   486.26074044
_cell_formula_units_Z   2
loop_
 _symmetry_equiv_pos_site_id
 _symmetry_equiv_pos_as_xyz
  1  'x, y, z'
loop_
 _atom_site_type_symbol
 _atom_site_label
 _atom_site_symmetry_multiplicity
 _atom_site_fract_x
 _atom_site_fract_y
 _atom_site_fract_z
 _atom_site_occupancy
  Ba  Ba0  1  0.49471077  0.49186343  0.24966593  1
  Ba  Ba1  1  0.17470059  0.83981700  0.57152226  1
  Ba  Ba2  1  0.82181420  0.16682825  0.92225484  1
  Ba  Ba3  1  0.17195623  0.84146957  0.08366707  1
  Ba  Ba4  1  0.84485280  0.16650475  0.41107816  1
  Ba  Ba5  1  0.49196541  0.49351700  0.76181174  1
  Tb  Tb6  1  0.00020306  0.50451988  0.99781747  1
  Tb  Tb7  1  0.66646394  0.82881312  0.33551553  1
  Tb  Tb8  1  0.33333300  0.16666700  0.66666700  1
  Tb  Tb9  1  0.33333300  0.16666700  0.16666700  1
  W  W10  1  0.99641628  0.49776156  0.50189200  1
  W  W11  1  0.67025072  0.83557144  0.83144100  1
  O  O12  1  0.54388576  0.01209333  0.28002901  1
  O  O13  1  0.17291503  0.35926033  0.59910059  1
  O  O14  1  0.86008724  0.70690950  0.91892067  1
  O  O15  1  0.12278024  0.32124067  0.05330499  1
  O  O16  1  0.80657976  0.62642350  0.41441233  1
  O  O17  1  0.49375197  0.97407267  0.73423241  1
  O  O18  1  0.28434499  0.66282812  0.41475837  1
  O  O19  1  0.95738187  0.00260016  0.74791166  1
  O  O20  1  0.64594552  0.37039265  0.06414883  1
  O  O21  1  0.64798282  0.84607902  0.05440685  1
  O  O22  1  0.29757614  0.19294126  0.40717328  1
  O  O23  1  0.98586756  0.52256140  0.71566914  1
  O  O24  1  0.38232101  0.67050588  0.91857563  1
  O  O25  1  0.02072148  0.96294035  0.26918417  1
  O  O26  1  0.70928513  0.33073284  0.58542134  1
  O  O27  1  0.01868418  0.48725398  0.27892615  1
  O  O28  1  0.68079844  0.81077260  0.61766486  1
  O  O29  1  0.36909086  0.14039174  0.92615972  1
