# generated using pymatgen
data_Bi13Mo6(AsO14)3
_symmetry_space_group_name_H-M   'P 1'
_cell_length_a   5.67655689
_cell_length_b   12.97674962
_cell_length_c   28.48197025
_cell_angle_alpha   100.93548855
_cell_angle_beta   90.00000000
_cell_angle_gamma   90.00000000
_symmetry_Int_Tables_number   1
_chemical_formula_structural   Bi13Mo6(AsO14)3
_chemical_formula_sum   'Bi26 Mo12 As6 O84'
_cell_volume   2059.97660797
_cell_formula_units_Z   2
loop_
 _symmetry_equiv_pos_site_id
 _symmetry_equiv_pos_as_xyz
  1  'x, y, z'
loop_
 _atom_site_type_symbol
 _atom_site_label
 _atom_site_symmetry_multiplicity
 _atom_site_fract_x
 _atom_site_fract_y
 _atom_site_fract_z
 _atom_site_occupancy
  Bi  Bi0  1  0.48226120  0.59679423  0.57458255  1
  Bi  Bi1  1  0.01773880  0.09679423  0.07458255  1
  Bi  Bi2  1  0.51875464  0.40234093  0.42549700  1
  Bi  Bi3  1  0.98124536  0.90234093  0.92549700  1
  Bi  Bi4  1  0.99471204  0.80064958  0.61266432  1
  Bi  Bi5  1  0.50528796  0.30064958  0.11266432  1
  Bi  Bi6  1  0.00957474  0.20279637  0.38847679  1
  Bi  Bi7  1  0.49042526  0.70279637  0.88847679  1
  Bi  Bi8  1  0.48673877  0.32399458  0.62190597  1
  Bi  Bi9  1  0.01326123  0.82399458  0.12190597  1
  Bi  Bi10  1  0.50974594  0.67490564  0.37716200  1
  Bi  Bi11  1  0.99025406  0.17490564  0.87716200  1
  Bi  Bi12  1  0.98677839  0.09833028  0.57349768  1
  Bi  Bi13  1  0.51322161  0.59833028  0.07349768  1
  Bi  Bi14  1  0.01539859  0.90019752  0.42792579  1
  Bi  Bi15  1  0.48460141  0.40019752  0.92792579  1
  Bi  Bi16  1  0.54535101  0.75435542  0.69931740  1
  Bi  Bi17  1  0.95464899  0.25435542  0.19931740  1
  Bi  Bi18  1  0.45245667  0.23755684  0.30099449  1
  Bi  Bi19  1  0.04754333  0.73755684  0.80099449  1
  Bi  Bi20  1  0.04629422  0.53884746  0.66072620  1
  Bi  Bi21  1  0.45370578  0.03884746  0.16072620  1
  Bi  Bi22  1  0.94515054  0.46416374  0.33825602  1
  Bi  Bi23  1  0.55484946  0.96416374  0.83825602  1
  Bi  Bi24  1  0.51203482  0.53099013  0.75752200  1
  Bi  Bi25  1  0.98796518  0.03099013  0.25752200  1
  Mo  Mo26  1  0.50997127  0.13117473  0.48038672  1
  Mo  Mo27  1  0.99002873  0.63117473  0.98038672  1
  Mo  Mo28  1  0.49039596  0.86875219  0.51966901  1
  Mo  Mo29  1  0.00960404  0.36875219  0.01966901  1
  Mo  Mo30  1  0.00667369  0.35897265  0.52677276  1
  Mo  Mo31  1  0.49332631  0.85897265  0.02677276  1
  Mo  Mo32  1  0.99393530  0.64125550  0.47340039  1
  Mo  Mo33  1  0.50606470  0.14125550  0.97340039  1
  Mo  Mo34  1  0.50204865  0.96788778  0.34792464  1
  Mo  Mo35  1  0.99795135  0.46788778  0.84792464  1
  Mo  Mo36  1  0.49607695  0.03163527  0.65252322  1
  Mo  Mo37  1  0.00392305  0.53163527  0.15252322  1
  As  As38  1  0.93861646  0.28558819  0.69078700  1
  As  As39  1  0.56138354  0.78558819  0.19078700  1
  As  As40  1  0.06333933  0.71347608  0.30941935  1
  As  As41  1  0.43666067  0.21347608  0.80941935  1
  As  As42  1  0.50451562  0.43845770  0.24248302  1
  As  As43  1  0.99548438  0.93845770  0.74248302  1
  O  O44  1  0.14668711  0.25675138  0.55359187  1
  O  O45  1  0.35331289  0.75675138  0.05359187  1
  O  O46  1  0.85448321  0.74380453  0.44673339  1
  O  O47  1  0.64551679  0.24380453  0.94673339  1
  O  O48  1  0.27118962  0.04517641  0.48940871  1
  O  O49  1  0.22881038  0.54517641  0.98940871  1
  O  O50  1  0.72870684  0.95465610  0.51042286  1
  O  O51  1  0.77129316  0.45465610  0.01042286  1
  O  O52  1  0.68567715  0.87096475  0.36995623  1
  O  O53  1  0.81432285  0.37096475  0.86995623  1
  O  O54  1  0.31237007  0.12902921  0.62953680  1
  O  O55  1  0.18762993  0.62902921  0.12953680  1
  O  O56  1  0.74274874  0.63515382  0.72925650  1
  O  O57  1  0.75725126  0.13515382  0.22925650  1
  O  O58  1  0.28332916  0.36259232  0.26755288  1
  O  O59  1  0.21667084  0.86259232  0.76755288  1
  O  O60  1  0.86417407  0.31344126  0.46986005  1
  O  O61  1  0.63582593  0.81344126  0.96986005  1
  O  O62  1  0.13482948  0.68740646  0.53063144  1
  O  O63  1  0.36517052  0.18740646  0.03063144  1
  O  O64  1  0.24030303  0.01127717  0.38389316  1
  O  O65  1  0.25969697  0.51127717  0.88389316  1
  O  O66  1  0.76018051  0.98911357  0.61598076  1
  O  O67  1  0.73981949  0.48911357  0.11598076  1
  O  O68  1  0.39295804  0.49037814  0.62381745  1
  O  O69  1  0.10704196  0.99037814  0.12381745  1
  O  O70  1  0.60945325  0.50974738  0.37648575  1
  O  O71  1  0.89054675  0.00974738  0.87648575  1
  O  O72  1  0.24115313  0.60813615  0.72365397  1
  O  O73  1  0.25884687  0.10813615  0.22365397  1
  O  O74  1  0.75029891  0.38985887  0.27476405  1
  O  O75  1  0.74970109  0.88985887  0.77476405  1
  O  O76  1  0.23415916  0.68062096  0.62952043  1
  O  O77  1  0.26584084  0.18062096  0.12952043  1
  O  O78  1  0.76569473  0.31947071  0.37038293  1
  O  O79  1  0.73430527  0.81947071  0.87038293  1
  O  O80  1  0.71088147  0.06909383  0.43505275  1
  O  O81  1  0.78911853  0.56909383  0.93505275  1
  O  O82  1  0.28618027  0.93010404  0.56455063  1
  O  O83  1  0.21381973  0.43010404  0.06455063  1
  O  O84  1  0.83650376  0.21221916  0.63325732  1
  O  O85  1  0.66349624  0.71221916  0.13325732  1
  O  O86  1  0.16246976  0.79047028  0.36684849  1
  O  O87  1  0.33753024  0.29047028  0.86684849  1
  O  O88  1  0.66681478  0.18000340  0.53665399  1
  O  O89  1  0.83318522  0.68000340  0.03665399  1
  O  O90  1  0.33249345  0.82020773  0.46334786  1
  O  O91  1  0.16750655  0.32020773  0.96334786  1
  O  O92  1  0.39426141  0.66212175  0.81217247  1
  O  O93  1  0.10573859  0.16212175  0.31217247  1
  O  O94  1  0.59835408  0.33691559  0.19099264  1
  O  O95  1  0.90164592  0.83691559  0.69099264  1
  O  O96  1  0.17201327  0.36603179  0.67211753  1
  O  O97  1  0.32798673  0.86603179  0.17211753  1
  O  O98  1  0.82960299  0.63426853  0.32889485  1
  O  O99  1  0.67039701  0.13426853  0.82889485  1
  O  O100  1  0.40288126  0.91155104  0.29027343  1
  O  O101  1  0.09711874  0.41155104  0.79027343  1
  O  O102  1  0.59275004  0.09044571  0.70938262  1
  O  O103  1  0.90724996  0.59044571  0.20938262  1
  O  O104  1  0.72965753  0.68236585  0.62871802  1
  O  O105  1  0.77034247  0.18236585  0.12871802  1
  O  O106  1  0.27122423  0.32063484  0.37173064  1
  O  O107  1  0.22877577  0.82063484  0.87173064  1
  O  O108  1  0.67402248  0.07949752  0.33675076  1
  O  O109  1  0.82597752  0.57949752  0.83675076  1
  O  O110  1  0.33203245  0.91753855  0.66172635  1
  O  O111  1  0.16796755  0.41753855  0.16172635  1
  O  O112  1  0.23125327  0.44915949  0.51796097  1
  O  O113  1  0.26874673  0.94915949  0.01796097  1
  O  O114  1  0.76879000  0.55163490  0.48217512  1
  O  O115  1  0.73121000  0.05163490  0.98217512  1
  O  O116  1  0.80315838  0.42756265  0.57075312  1
  O  O117  1  0.69684162  0.92756265  0.07075312  1
  O  O118  1  0.19455950  0.57211202  0.42890362  1
  O  O119  1  0.30544050  0.07211202  0.92890362  1
  O  O120  1  0.37430100  0.23539730  0.45630764  1
  O  O121  1  0.12569900  0.73539730  0.95630764  1
  O  O122  1  0.62638722  0.76480877  0.54362906  1
  O  O123  1  0.87361278  0.26480877  0.04362906  1
  O  O124  1  0.70867854  0.38353015  0.68795497  1
  O  O125  1  0.79132146  0.88353015  0.18795497  1
  O  O126  1  0.28849268  0.61692307  0.31316158  1
  O  O127  1  0.21150732  0.11692307  0.81316158  1
