# generated using pymatgen
data_AgAu(IO3)4
_symmetry_space_group_name_H-M   'P 1'
_cell_length_a   5.84361255
_cell_length_b   8.12001679
_cell_length_c   13.08254676
_cell_angle_alpha   107.26456579
_cell_angle_beta   90.00000000
_cell_angle_gamma   90.00000000
_symmetry_Int_Tables_number   1
_chemical_formula_structural   AgAu(IO3)4
_chemical_formula_sum   'Ag2 Au2 I8 O24'
_cell_volume   592.80079844
_cell_formula_units_Z   2
loop_
 _symmetry_equiv_pos_site_id
 _symmetry_equiv_pos_as_xyz
  1  'x, y, z'
loop_
 _atom_site_type_symbol
 _atom_site_label
 _atom_site_symmetry_multiplicity
 _atom_site_fract_x
 _atom_site_fract_y
 _atom_site_fract_z
 _atom_site_occupancy
  Ag  Ag0  1  0.61425440  0.96816870  0.96921237  1
  Ag  Ag1  1  0.88574560  0.96816870  0.46921237  1
  Au  Au2  1  0.50109236  0.50043941  0.00089247  1
  Au  Au3  1  0.99890764  0.50043941  0.50089247  1
  I  I4  1  0.18169944  0.68667975  0.84152678  1
  I  I5  1  0.68301679  0.31000236  0.65784348  1
  I  I6  1  0.81698321  0.31000236  0.15784348  1
  I  I7  1  0.31830056  0.68667975  0.34152678  1
  I  I8  1  0.86630719  0.80246595  0.17131888  1
  I  I9  1  0.35652880  0.19895161  0.32902271  1
  I  I10  1  0.14347120  0.19895161  0.82902271  1
  I  I11  1  0.63369281  0.80246595  0.67131888  1
  O  O12  1  0.45797687  0.57402716  0.86691286  1
  O  O13  1  0.95532423  0.43025443  0.63577332  1
  O  O14  1  0.54467577  0.43025443  0.13577332  1
  O  O15  1  0.04202313  0.57402716  0.36691286  1
  O  O16  1  0.34271318  0.87839413  0.82437857  1
  O  O17  1  0.83797031  0.11925297  0.67394982  1
  O  O18  1  0.66202969  0.11925297  0.17394982  1
  O  O19  1  0.15728682  0.87839413  0.32437857  1
  O  O20  1  0.68122197  0.83048695  0.28864171  1
  O  O21  1  0.17278078  0.17317793  0.21321393  1
  O  O22  1  0.32721922  0.17317793  0.71321393  1
  O  O23  1  0.81877803  0.83048695  0.78864171  1
  O  O24  1  0.99814199  0.59010627  0.14750623  1
  O  O25  1  0.49493145  0.41002528  0.35172943  1
  O  O26  1  0.00506855  0.41002528  0.85172943  1
  O  O27  1  0.50185801  0.59010627  0.64750623  1
  O  O28  1  0.08950925  0.78643809  0.97667839  1
  O  O29  1  0.60678808  0.20716497  0.51927029  1
  O  O30  1  0.89321192  0.20716497  0.01927029  1
  O  O31  1  0.41049075  0.78643809  0.47667839  1
  O  O32  1  0.62315290  0.74352191  0.06716036  1
  O  O33  1  0.11954421  0.25792213  0.43482841  1
  O  O34  1  0.38045579  0.25792213  0.93482841  1
  O  O35  1  0.87684710  0.74352191  0.56716036  1
