# generated using pymatgen
data_Ba12MnRu5(ClO6)4
_symmetry_space_group_name_H-M   'P 1'
_cell_length_a   5.91641023
_cell_length_b   5.91640989
_cell_length_c   30.10253666
_cell_angle_alpha   90.01076720
_cell_angle_beta   90.01076719
_cell_angle_gamma   60.01769098
_symmetry_Int_Tables_number   1
_chemical_formula_structural   Ba12MnRu5(ClO6)4
_chemical_formula_sum   'Ba12 Mn1 Ru5 Cl4 O24'
_cell_volume   912.69914023
_cell_formula_units_Z   1
loop_
 _symmetry_equiv_pos_site_id
 _symmetry_equiv_pos_as_xyz
  1  'x, y, z'
loop_
 _atom_site_type_symbol
 _atom_site_label
 _atom_site_symmetry_multiplicity
 _atom_site_fract_x
 _atom_site_fract_y
 _atom_site_fract_z
 _atom_site_occupancy
  Ba  Ba0  1  0.33333055  0.33333055  0.10683772  1
  Ba  Ba1  1  0.33335326  0.33335326  0.60493263  1
  Ba  Ba2  1  0.66664674  0.66664674  0.39506737  1
  Ba  Ba3  1  0.66666945  0.66666945  0.89316228  1
  Ba  Ba4  1  0.33331035  0.33331035  0.31795795  1
  Ba  Ba5  1  0.33335727  0.33335727  0.81831844  1
  Ba  Ba6  1  0.66664273  0.66664273  0.18168156  1
  Ba  Ba7  1  0.66668965  0.66668965  0.68204205  1
  Ba  Ba8  1  0.33332277  0.33332277  0.46164400  1
  Ba  Ba9  1  0.33328091  0.33328091  0.96036771  1
  Ba  Ba10  1  0.66671909  0.66671909  0.03963229  1
  Ba  Ba11  1  0.66667723  0.66667723  0.53835600  1
  Mn  Mn12  1  -0.00000000  -0.00000000  0.50000000  1
  Ru  Ru13  1  0.99984722  0.99984722  0.08762800  1
  Ru  Ru14  1  0.00000076  0.00000076  0.58933592  1
  Ru  Ru15  1  0.99999924  0.99999924  0.41066408  1
  Ru  Ru16  1  0.00015278  0.00015278  0.91237200  1
  Ru  Ru17  1  -0.00000000  -0.00000000  -0.00000000  1
  Cl  Cl18  1  0.33331849  0.33331849  0.21098013  1
  Cl  Cl19  1  0.33330899  0.33330899  0.71060719  1
  Cl  Cl20  1  0.66669101  0.66669101  0.28939281  1
  Cl  Cl21  1  0.66668151  0.66668151  0.78901987  1
  O  O22  1  0.84110437  0.84110437  0.12040836  1
  O  O23  1  0.83934343  0.83934343  0.62049206  1
  O  O24  1  0.31759892  0.84124584  0.12036158  1
  O  O25  1  0.32129869  0.83937095  0.62049778  1
  O  O26  1  0.84124584  0.31759892  0.12036158  1
  O  O27  1  0.83937095  0.32129869  0.62049778  1
  O  O28  1  0.16065657  0.16065657  0.37950794  1
  O  O29  1  0.15889563  0.15889563  0.87959164  1
  O  O30  1  0.67870131  0.16062905  0.37950222  1
  O  O31  1  0.68240108  0.15875416  0.87963842  1
  O  O32  1  0.16062905  0.67870131  0.37950222  1
  O  O33  1  0.15875416  0.68240108  0.87963842  1
  O  O34  1  0.85133678  0.85133678  0.45951538  1
  O  O35  1  0.84530182  0.84530182  0.95864445  1
  O  O36  1  0.29726243  0.85140225  0.45952782  1
  O  O37  1  0.31008543  0.84457554  0.95853134  1
  O  O38  1  0.85140225  0.29726243  0.45952782  1
  O  O39  1  0.84457554  0.31008543  0.95853134  1
  O  O40  1  0.15469818  0.15469818  0.04135555  1
  O  O41  1  0.14866322  0.14866322  0.54048462  1
  O  O42  1  0.68991457  0.15542446  0.04146866  1
  O  O43  1  0.70273757  0.14859775  0.54047218  1
  O  O44  1  0.15542446  0.68991457  0.04146866  1
  O  O45  1  0.14859775  0.70273757  0.54047218  1
