# generated using pymatgen
data_AsRhS
_symmetry_space_group_name_H-M   'P 1'
_cell_length_a   5.85166230
_cell_length_b   5.85166230
_cell_length_c   5.85166230
_cell_angle_alpha   90.00000000
_cell_angle_beta   90.00000000
_cell_angle_gamma   90.00000000
_symmetry_Int_Tables_number   1
_chemical_formula_structural   AsRhS
_chemical_formula_sum   'As4 Rh4 S4'
_cell_volume   200.37233768
_cell_formula_units_Z   4
loop_
 _symmetry_equiv_pos_site_id
 _symmetry_equiv_pos_as_xyz
  1  'x, y, z'
loop_
 _atom_site_type_symbol
 _atom_site_label
 _atom_site_symmetry_multiplicity
 _atom_site_fract_x
 _atom_site_fract_y
 _atom_site_fract_z
 _atom_site_occupancy
  As  As0  1  0.88378108  0.38378108  0.11621892  1
  As  As1  1  0.38378108  0.11621892  0.88378108  1
  As  As2  1  0.11621892  0.88378108  0.38378108  1
  As  As3  1  0.61621892  0.61621892  0.61621892  1
  Rh  Rh4  1  0.50309308  0.00309308  0.49690692  1
  Rh  Rh5  1  0.00309308  0.49690692  0.50309308  1
  Rh  Rh6  1  0.49690692  0.50309308  0.00309308  1
  Rh  Rh7  1  0.99690692  0.99690692  0.99690692  1
  S  S8  1  0.11323109  0.61323109  0.88676891  1
  S  S9  1  0.61323109  0.88676891  0.11323109  1
  S  S10  1  0.88676891  0.11323109  0.61323109  1
  S  S11  1  0.38676891  0.38676891  0.38676891  1
