# generated using pymatgen
data_Ba10IBr4N5
_symmetry_space_group_name_H-M   'P 1'
_cell_length_a   4.20409162
_cell_length_b   4.20409162
_cell_length_c   40.48996309
_cell_angle_alpha   92.97586143
_cell_angle_beta   92.97586143
_cell_angle_gamma   60.00000027
_symmetry_Int_Tables_number   1
_chemical_formula_structural   Ba10IBr4N5
_chemical_formula_sum   'Ba10 I1 Br4 N5'
_cell_volume   618.64372923
_cell_formula_units_Z   1
loop_
 _symmetry_equiv_pos_site_id
 _symmetry_equiv_pos_as_xyz
  1  'x, y, z'
loop_
 _atom_site_type_symbol
 _atom_site_label
 _atom_site_symmetry_multiplicity
 _atom_site_fract_x
 _atom_site_fract_y
 _atom_site_fract_z
 _atom_site_occupancy
  Ba  Ba0  1  0.24555800  0.24555800  0.73667399  1
  Ba  Ba1  1  0.64446176  0.64446176  0.93338528  1
  Ba  Ba2  1  0.04636797  0.04636797  0.13910390  1
  Ba  Ba3  1  0.44567912  0.44567912  0.33703735  1
  Ba  Ba4  1  0.84564934  0.84564934  0.53694803  1
  Ba  Ba5  1  0.55432088  0.55432088  0.66296265  1
  Ba  Ba6  1  0.95363203  0.95363203  0.86089610  1
  Ba  Ba7  1  0.35553824  0.35553824  0.06661472  1
  Ba  Ba8  1  0.75444200  0.75444200  0.26332601  1
  Ba  Ba9  1  0.15435066  0.15435066  0.46305197  1
  I  I10  1  0.00000000  0.00000000  0.00000000  1
  Br  Br11  1  0.40034751  0.40034751  0.20104254  1
  Br  Br12  1  0.80001620  0.80001620  0.40004861  1
  Br  Br13  1  0.19998380  0.19998380  0.59995139  1
  Br  Br14  1  0.59965249  0.59965249  0.79895746  1
  N  N15  1  0.89997366  0.89997366  0.69992099  1
  N  N16  1  0.29911562  0.29911562  0.89734687  1
  N  N17  1  0.70088438  0.70088438  0.10265313  1
  N  N18  1  0.10002634  0.10002634  0.30007901  1
  N  N19  1  0.50000000  0.50000000  0.50000000  1
