# generated using pymatgen
data_CaMg2(SO4)3
_symmetry_space_group_name_H-M   'P 1'
_cell_length_a   7.43466749
_cell_length_b   16.89709240
_cell_length_c   16.89241769
_cell_angle_alpha   119.99367906
_cell_angle_beta   90.00000000
_cell_angle_gamma   90.00000000
_symmetry_Int_Tables_number   1
_chemical_formula_structural   CaMg2(SO4)3
_chemical_formula_sum   'Ca8 Mg16 S24 O96'
_cell_volume   1837.90741680
_cell_formula_units_Z   8
loop_
 _symmetry_equiv_pos_site_id
 _symmetry_equiv_pos_as_xyz
  1  'x, y, z'
loop_
 _atom_site_type_symbol
 _atom_site_label
 _atom_site_symmetry_multiplicity
 _atom_site_fract_x
 _atom_site_fract_y
 _atom_site_fract_z
 _atom_site_occupancy
  Ca  Ca0  1  0.03337319  0.99159195  0.51363581  1
  Ca  Ca1  1  0.03341218  0.48640494  0.47799715  1
  Ca  Ca2  1  0.03338199  0.52195705  0.00837734  1
  Ca  Ca3  1  0.53337319  0.00840805  0.48636419  1
  Ca  Ca4  1  0.53341218  0.51359506  0.52200285  1
  Ca  Ca5  1  0.53338199  0.47804295  0.99162266  1
  Ca  Ca6  1  0.52903572  0.00417396  0.99303150  1
  Ca  Ca7  1  0.02903572  0.99582604  0.00696850  1
  Mg  Mg8  1  0.58227255  0.33333168  0.66666164  1
  Mg  Mg9  1  0.08227255  0.66666832  0.33333836  1
  Mg  Mg10  1  0.07669474  0.17264859  0.33130038  1
  Mg  Mg11  1  0.07744927  0.66800793  0.84115234  1
  Mg  Mg12  1  0.07773563  0.15893899  0.82644369  1
  Mg  Mg13  1  0.57669474  0.82735141  0.66869962  1
  Mg  Mg14  1  0.57744927  0.33199207  0.15884766  1
  Mg  Mg15  1  0.57773563  0.84106101  0.17355631  1
  Mg  Mg16  1  0.98783008  0.33333375  0.66667086  1
  Mg  Mg17  1  0.48783008  0.66666625  0.33332914  1
  Mg  Mg18  1  0.48214712  0.16191697  0.33669752  1
  Mg  Mg19  1  0.48312291  0.66408393  0.82534285  1
  Mg  Mg20  1  0.48350797  0.17455429  0.83914381  1
  Mg  Mg21  1  0.98214712  0.83808303  0.66330248  1
  Mg  Mg22  1  0.98312291  0.33591607  0.17465715  1
  Mg  Mg23  1  0.98350797  0.82544571  0.16085619  1
  S  S24  1  0.77796050  0.01690438  0.18213203  1
  S  S25  1  0.78177755  0.81808426  0.83520719  1
  S  S26  1  0.78350878  0.16491022  0.98309929  1
  S  S27  1  0.27796050  0.98309562  0.81786797  1
  S  S28  1  0.28177755  0.18191574  0.16479281  1
  S  S29  1  0.28350878  0.83508978  0.01690071  1
  S  S30  1  0.78542717  0.16410984  0.48359860  1
  S  S31  1  0.78544353  0.51634365  0.68046372  1
  S  S32  1  0.78549900  0.31954011  0.83586158  1
  S  S33  1  0.28542717  0.83589016  0.51640140  1
  S  S34  1  0.28544353  0.48365635  0.31953628  1
  S  S35  1  0.28549900  0.68045989  0.16413842  1
  S  S36  1  0.27385546  0.98281726  0.31895351  1
  S  S37  1  0.27401011  0.68098647  0.66385357  1
  S  S38  1  0.27423937  0.33612511  0.01715760  1
  S  S39  1  0.77385546  0.01718274  0.68104649  1
  S  S40  1  0.77401011  0.31901353  0.33614643  1
  S  S41  1  0.77423937  0.66387489  0.98284240  1
  S  S42  1  0.78700270  0.81838227  0.33522981  1
  S  S43  1  0.78685662  0.66474415  0.48317285  1
  S  S44  1  0.78694154  0.51680998  0.18158880  1
  S  S45  1  0.28700270  0.18161773  0.66477019  1
  S  S46  1  0.28685662  0.33525585  0.51682715  1
  S  S47  1  0.28694154  0.48319002  0.81841120  1
  O  O48  1  0.78286084  0.25936334  0.56388991  1
  O  O49  1  0.78264983  0.43605808  0.69542840  1
  O  O50  1  0.78239950  0.30461333  0.74060334  1
  O  O51  1  0.28286084  0.74063666  0.43611009  1
  O  O52  1  0.28264983  0.56394192  0.30457160  1
  O  O53  1  0.28239950  0.69538667  0.25939666  1
  O  O54  1  0.81325718  0.09932707  0.51788945  1
  O  O55  1  0.81305769  0.48203754  0.58135611  1
  O  O56  1  0.81286255  0.41863982  0.90066535  1
  O  O57  1  0.31325718  0.90067293  0.48211055  1
  O  O58  1  0.31305769  0.51796246  0.41864389  1
  O  O59  1  0.31286255  0.58136018  0.09933465  1
  O  O60  1  0.24591111  0.01654236  0.41802920  1
  O  O61  1  0.24644589  0.58189221  0.59855965  1
  O  O62  1  0.24631559  0.40140646  0.98336258  1
  O  O63  1  0.74591111  0.98345764  0.58197080  1
  O  O64  1  0.74644589  0.41810779  0.40144035  1
  O  O65  1  0.74631559  0.59859354  0.01663742  1
  O  O66  1  0.61324182  0.06897821  0.22440639  1
  O  O67  1  0.61382701  0.77831450  0.84614114  1
  O  O68  1  0.61268667  0.15149100  0.93289916  1
  O  O69  1  0.11324182  0.93102179  0.77559361  1
  O  O70  1  0.11382701  0.22168550  0.15385886  1
  O  O71  1  0.11268667  0.84850900  0.06710084  1
  O  O72  1  0.78954638  0.91861909  0.40097035  1
  O  O73  1  0.78953123  0.59901698  0.51769141  1
  O  O74  1  0.78953545  0.48230873  0.08132440  1
  O  O75  1  0.28954638  0.08138091  0.59902965  1
  O  O76  1  0.28953123  0.40098302  0.48230859  1
  O  O77  1  0.28953545  0.51769127  0.91867560  1
  O  O78  1  0.76910111  0.98150762  0.08167103  1
  O  O79  1  0.78064165  0.91856998  0.90066518  1
  O  O80  1  0.78612277  0.09991340  0.01868912  1
  O  O81  1  0.26910111  0.01849238  0.91832897  1
  O  O82  1  0.28064165  0.08143002  0.09933482  1
  O  O83  1  0.28612277  0.90008660  0.98131088  1
  O  O84  1  0.27257392  0.06350006  0.30447860  1
  O  O85  1  0.27318724  0.69550907  0.75906303  1
  O  O86  1  0.27380938  0.24094896  0.93649533  1
  O  O87  1  0.77257392  0.93649994  0.69552140  1
  O  O88  1  0.77318724  0.30449093  0.24093697  1
  O  O89  1  0.77380938  0.75905104  0.06350467  1
  O  O90  1  0.62402309  0.77842703  0.35050029  1
  O  O91  1  0.62397938  0.64945854  0.42790944  1
  O  O92  1  0.62400008  0.57204107  0.22154718  1
  O  O93  1  0.12402309  0.22157297  0.64949971  1
  O  O94  1  0.12397938  0.35054146  0.57209056  1
  O  O95  1  0.12400008  0.42795893  0.77845282  1
  O  O96  1  0.13207457  0.91792972  0.26535454  1
  O  O97  1  0.13187918  0.73425468  0.65240843  1
  O  O98  1  0.13214046  0.34741365  0.08187894  1
  O  O99  1  0.63207457  0.08207028  0.73464546  1
  O  O100  1  0.63187918  0.26574532  0.34759157  1
  O  O101  1  0.63214046  0.65258635  0.91812106  1
  O  O102  1  0.45501677  0.93899186  0.29433431  1
  O  O103  1  0.45507964  0.70591808  0.64478301  1
  O  O104  1  0.45529761  0.35534993  0.06115242  1
  O  O105  1  0.95501677  0.06100814  0.70566569  1
  O  O106  1  0.95507964  0.29408192  0.35521699  1
  O  O107  1  0.95529761  0.64465007  0.93884758  1
  O  O108  1  0.78741315  0.93643096  0.19687621  1
  O  O109  1  0.78845582  0.80372285  0.74006580  1
  O  O110  1  0.78811578  0.26030473  0.06342147  1
  O  O111  1  0.28741315  0.06356904  0.80312379  1
  O  O112  1  0.28845582  0.19627715  0.25993420  1
  O  O113  1  0.28811578  0.73969527  0.93657853  1
  O  O114  1  0.78336966  0.80429594  0.24004912  1
  O  O115  1  0.78287619  0.75988445  0.56429009  1
  O  O116  1  0.78319605  0.43571812  0.19565169  1
  O  O117  1  0.28336966  0.19570406  0.75995088  1
  O  O118  1  0.28287619  0.24011555  0.43570991  1
  O  O119  1  0.28319605  0.56428188  0.80434831  1
  O  O120  1  0.94199599  0.07359130  0.21779914  1
  O  O121  1  0.94268821  0.77965464  0.85474979  1
  O  O122  1  0.94155866  0.14710201  0.92432090  1
  O  O123  1  0.44199599  0.92640870  0.78220086  1
  O  O124  1  0.44268821  0.22034536  0.14525021  1
  O  O125  1  0.44155866  0.85289799  0.07567910  1
  O  O126  1  0.92931324  0.15539111  0.42069923  1
  O  O127  1  0.92956236  0.57903605  0.73450739  1
  O  O128  1  0.92992904  0.26563141  0.84437891  1
  O  O129  1  0.42931324  0.84460889  0.57930077  1
  O  O130  1  0.42956236  0.42096395  0.26549261  1
  O  O131  1  0.42992904  0.73436859  0.15562109  1
  O  O132  1  0.60632655  0.14147494  0.43706921  1
  O  O133  1  0.60651356  0.56310664  0.70450199  1
  O  O134  1  0.60677658  0.29532874  0.85870098  1
  O  O135  1  0.10632655  0.85852506  0.56293079  1
  O  O136  1  0.10651356  0.43689336  0.29549801  1
  O  O137  1  0.10677658  0.70467126  0.14129902  1
  O  O138  1  0.95298272  0.77921168  0.34925778  1
  O  O139  1  0.95293376  0.65080952  0.43004172  1
  O  O140  1  0.95295146  0.56998237  0.22076699  1
  O  O141  1  0.45298272  0.22078832  0.65074222  1
  O  O142  1  0.45293376  0.34919048  0.56995828  1
  O  O143  1  0.45295146  0.43001763  0.77923301  1
