# generated using pymatgen
data_Ba3InIrRuO9
_symmetry_space_group_name_H-M   'P 1'
_cell_length_a   5.90763961
_cell_length_b   5.90706769
_cell_length_c   14.54490425
_cell_angle_alpha   90.00000000
_cell_angle_beta   90.00000000
_cell_angle_gamma   60.00320233
_symmetry_Int_Tables_number   1
_chemical_formula_structural   Ba3InIrRuO9
_chemical_formula_sum   'Ba6 In2 Ir2 Ru2 O18'
_cell_volume   439.58357081
_cell_formula_units_Z   2
loop_
 _symmetry_equiv_pos_site_id
 _symmetry_equiv_pos_as_xyz
  1  'x, y, z'
loop_
 _atom_site_type_symbol
 _atom_site_label
 _atom_site_symmetry_multiplicity
 _atom_site_fract_x
 _atom_site_fract_y
 _atom_site_fract_z
 _atom_site_occupancy
  Ba  Ba0  1  0.99997894  0.00001053  0.74927950  1
  Ba  Ba1  1  0.00002106  0.99998947  0.24927950  1
  Ba  Ba2  1  0.33334005  0.33332998  0.41403911  1
  Ba  Ba3  1  0.66662585  0.66668708  0.58916550  1
  Ba  Ba4  1  0.66665995  0.66667002  0.91403911  1
  Ba  Ba5  1  0.33337415  0.33331292  0.08916550  1
  In  In6  1  0.00000465  0.99999767  0.50014610  1
  In  In7  1  0.99999535  0.00000233  0.00014610  1
  Ir  Ir8  1  0.33335888  0.33332056  0.66358866  1
  Ir  Ir9  1  0.66664112  0.66667944  0.16358866  1
  Ru  Ru10  1  0.66663985  0.66668007  0.33811069  1
  Ru  Ru11  1  0.33336015  0.33331993  0.83811069  1
  O  O12  1  0.48854867  0.02313085  0.75102891  1
  O  O13  1  0.02322613  0.48838693  0.75105293  1
  O  O14  1  0.48854867  0.48832048  0.75102891  1
  O  O15  1  0.51145133  0.97686915  0.25102891  1
  O  O16  1  0.97677387  0.51161307  0.25105293  1
  O  O17  1  0.51145133  0.51167952  0.25102891  1
  O  O18  1  0.17347318  0.65314599  0.91439819  1
  O  O19  1  0.65299349  0.17350325  0.91445787  1
  O  O20  1  0.17347318  0.17338084  0.91439819  1
  O  O21  1  0.82636890  0.34755027  0.08310087  1
  O  O22  1  0.34756372  0.82621814  0.08310369  1
  O  O23  1  0.82636890  0.82608083  0.08310087  1
  O  O24  1  0.82652682  0.34685401  0.41439819  1
  O  O25  1  0.34700651  0.82649675  0.41445787  1
  O  O26  1  0.82652682  0.82661916  0.41439819  1
  O  O27  1  0.17363110  0.65244973  0.58310087  1
  O  O28  1  0.65243628  0.17378186  0.58310369  1
  O  O29  1  0.17363110  0.17391917  0.58310087  1
