# generated using pymatgen
data_Ba5BiPb4O15
_symmetry_space_group_name_H-M   'P 1'
_cell_length_a   6.14523385
_cell_length_b   22.13880221
_cell_length_c   6.22152204
_cell_angle_alpha   98.09775087
_cell_angle_beta   90.00000000
_cell_angle_gamma   97.97776447
_symmetry_Int_Tables_number   1
_chemical_formula_structural   Ba5BiPb4O15
_chemical_formula_sum   'Ba10 Bi2 Pb8 O30'
_cell_volume   829.71176904
_cell_formula_units_Z   2
loop_
 _symmetry_equiv_pos_site_id
 _symmetry_equiv_pos_as_xyz
  1  'x, y, z'
loop_
 _atom_site_type_symbol
 _atom_site_label
 _atom_site_symmetry_multiplicity
 _atom_site_fract_x
 _atom_site_fract_y
 _atom_site_fract_z
 _atom_site_occupancy
  Ba  Ba0  1  0.04872067  0.09744133  0.55244168  1
  Ba  Ba1  1  0.85037234  0.70074468  0.35724691  1
  Ba  Ba2  1  0.44966719  0.89933438  0.95633188  1
  Ba  Ba3  1  0.64993675  0.29987350  0.15154884  1
  Ba  Ba4  1  0.25124637  0.50249274  0.75290007  1
  Ba  Ba5  1  0.94962766  0.89925532  0.44275309  1
  Ba  Ba6  1  0.75127933  0.50255867  0.24755832  1
  Ba  Ba7  1  0.35033281  0.70066562  0.84366812  1
  Ba  Ba8  1  0.54875363  0.09750726  0.04709993  1
  Ba  Ba9  1  0.15006325  0.30012650  0.64845116  1
  Bi  Bi10  1  0.09997765  0.19995530  0.10112756  1
  Bi  Bi11  1  0.70002235  0.40004470  0.69887244  1
  Pb  Pb12  1  0.30035762  0.60071524  0.29853646  1
  Pb  Pb13  1  0.90000000  0.80000000  0.90000000  1
  Pb  Pb14  1  0.49964238  0.99928476  0.50146354  1
  Pb  Pb15  1  0.99944138  0.99888276  0.99791097  1
  Pb  Pb16  1  0.59963665  0.19927331  0.59888497  1
  Pb  Pb17  1  0.20036335  0.40072669  0.20111503  1
  Pb  Pb18  1  0.80055862  0.60111724  0.80208903  1
  Pb  Pb19  1  0.40000000  0.80000000  0.40000000  1
  O  O20  1  0.25772575  0.01582553  0.75849655  1
  O  O21  1  0.05596792  0.61237408  0.55622583  1
  O  O22  1  0.65785503  0.81561545  0.15767321  1
  O  O23  1  0.85988395  0.21548068  0.35497945  1
  O  O24  1  0.45776407  0.41185563  0.95212110  1
  O  O25  1  0.24359384  0.98762592  0.24377417  1
  O  O26  1  0.04190022  0.58417447  0.04150345  1
  O  O27  1  0.64223958  0.78438455  0.64232679  1
  O  O28  1  0.84590843  0.18814437  0.84787890  1
  O  O29  1  0.44440327  0.38451932  0.44502055  1
  O  O30  1  0.75809978  0.01582553  0.75849655  1
  O  O31  1  0.55640616  0.61237408  0.55622583  1
  O  O32  1  0.15776042  0.81561545  0.15767321  1
  O  O33  1  0.35559673  0.21548068  0.35497945  1
  O  O34  1  0.95409157  0.41185563  0.95212110  1
  O  O35  1  0.74403208  0.98762592  0.24377417  1
  O  O36  1  0.54227425  0.58417447  0.04150345  1
  O  O37  1  0.14214497  0.78438455  0.64232679  1
  O  O38  1  0.34223593  0.18814437  0.84787890  1
  O  O39  1  0.94011605  0.38451932  0.44502055  1
  O  O40  1  0.05082303  0.10164606  0.11303740  1
  O  O41  1  0.65024790  0.30049580  0.71004854  1
  O  O42  1  0.24970285  0.49940571  0.31241970  1
  O  O43  1  0.85011634  0.70023267  0.92078776  1
  O  O44  1  0.45000183  0.90000367  0.51985144  1
  O  O45  1  0.14975210  0.29950420  0.08995146  1
  O  O46  1  0.74917697  0.49835394  0.68696260  1
  O  O47  1  0.34999817  0.69999633  0.28014856  1
  O  O48  1  0.94988366  0.89976733  0.87921224  1
  O  O49  1  0.55029715  0.10059429  0.48758030  1
