# generated using pymatgen
data_AsPbF7
_symmetry_space_group_name_H-M   'P 1'
_cell_length_a   4.77220208
_cell_length_b   7.41579482
_cell_length_c   7.67584947
_cell_angle_alpha   105.66724738
_cell_angle_beta   101.07386648
_cell_angle_gamma   90.87866532
_symmetry_Int_Tables_number   1
_chemical_formula_structural   AsPbF7
_chemical_formula_sum   'As2 Pb2 F14'
_cell_volume   256.03309451
_cell_formula_units_Z   2
loop_
 _symmetry_equiv_pos_site_id
 _symmetry_equiv_pos_as_xyz
  1  'x, y, z'
loop_
 _atom_site_type_symbol
 _atom_site_label
 _atom_site_symmetry_multiplicity
 _atom_site_fract_x
 _atom_site_fract_y
 _atom_site_fract_z
 _atom_site_occupancy
  As  As0  1  0.64786624  0.81062495  0.71102831  1
  As  As1  1  0.35213376  0.18937505  0.28897169  1
  Pb  Pb2  1  0.18194462  0.34979413  0.80453356  1
  Pb  Pb3  1  0.81805538  0.65020587  0.19546644  1
  F  F4  1  0.13938065  0.18547467  0.06881168  1
  F  F5  1  0.43641195  0.79507584  0.49005536  1
  F  F6  1  0.56358805  0.20492416  0.50994464  1
  F  F7  1  0.50639676  0.02289566  0.81136969  1
  F  F8  1  0.49360324  0.97710434  0.18863031  1
  F  F9  1  0.37229313  0.68041228  0.76083277  1
  F  F10  1  0.86061935  0.81452533  0.93118832  1
  F  F11  1  0.27812049  0.57843020  0.08541443  1
  F  F12  1  0.07694719  0.06009961  0.33729095  1
  F  F13  1  0.20262558  0.40158444  0.38910544  1
  F  F14  1  0.72187951  0.42156980  0.91458557  1
  F  F15  1  0.79737442  0.59841556  0.61089456  1
  F  F16  1  0.62770687  0.31958772  0.23916723  1
  F  F17  1  0.92305281  0.93990039  0.66270905  1
