# generated using pymatgen
data_RbSm2Ag3Se5
_symmetry_space_group_name_H-M   'P 1'
_cell_length_a   4.38328833
_cell_length_b   8.04675438
_cell_length_c   17.67729625
_cell_angle_alpha   90.00000000
_cell_angle_beta   90.00000000
_cell_angle_gamma   105.80497209
_symmetry_Int_Tables_number   1
_chemical_formula_structural   RbSm2Ag3Se5
_chemical_formula_sum   'Rb2 Sm4 Ag6 Se10'
_cell_volume   599.92841447
_cell_formula_units_Z   2
loop_
 _symmetry_equiv_pos_site_id
 _symmetry_equiv_pos_as_xyz
  1  'x, y, z'
loop_
 _atom_site_type_symbol
 _atom_site_label
 _atom_site_symmetry_multiplicity
 _atom_site_fract_x
 _atom_site_fract_y
 _atom_site_fract_z
 _atom_site_occupancy
  Se  Se0  1  0.32123061  0.64246122  0.57114951  1
  Se  Se1  1  0.06471554  0.12943107  0.88053298  1
  Se  Se2  1  0.67876939  0.35753878  0.42885049  1
  Se  Se3  1  0.67876939  0.35753878  0.07114951  1
  Se  Se4  1  0.32123061  0.64246122  0.92885049  1
  Se  Se5  1  0.24277095  0.48554190  0.25000000  1
  Se  Se6  1  0.75722905  0.51445810  0.75000000  1
  Se  Se7  1  0.06471554  0.12943107  0.61946702  1
  Se  Se8  1  0.93528446  0.87056893  0.38053298  1
  Se  Se9  1  0.93528446  0.87056893  0.11946702  1
  Rb  Rb10  1  0.56398042  0.12796084  0.25000000  1
  Rb  Rb11  1  0.43601958  0.87203916  0.75000000  1
  Ag  Ag12  1  0.91418805  0.82837609  0.96334918  1
  Ag  Ag13  1  0.91418805  0.82837609  0.53665082  1
  Ag  Ag14  1  0.08581195  0.17162391  0.46334918  1
  Ag  Ag15  1  0.83882977  0.67765954  0.25000000  1
  Ag  Ag16  1  0.16117023  0.32234046  0.75000000  1
  Ag  Ag17  1  0.08581195  0.17162391  0.03665082  1
  Sm  Sm18  1  0.69075368  0.38150736  0.90489527  1
  Sm  Sm19  1  0.69075368  0.38150736  0.59510473  1
  Sm  Sm20  1  0.30924632  0.61849264  0.40489527  1
  Sm  Sm21  1  0.30924632  0.61849264  0.09510473  1
