# generated using pymatgen
data_CsFeP2O7
_symmetry_space_group_name_H-M   'P 1'
_cell_length_a   7.80870013
_cell_length_b   8.51503516
_cell_length_c   10.11283912
_cell_angle_alpha   90.00000000
_cell_angle_beta   90.00000000
_cell_angle_gamma   104.96328352
_symmetry_Int_Tables_number   1
_chemical_formula_structural   CsFeP2O7
_chemical_formula_sum   'Cs4 Fe4 P8 O28'
_cell_volume   649.61574721
_cell_formula_units_Z   4
loop_
 _symmetry_equiv_pos_site_id
 _symmetry_equiv_pos_as_xyz
  1  'x, y, z'
loop_
 _atom_site_type_symbol
 _atom_site_label
 _atom_site_symmetry_multiplicity
 _atom_site_fract_x
 _atom_site_fract_y
 _atom_site_fract_z
 _atom_site_occupancy
  O  O0  1  0.06809401  0.26770587  0.72865521  1
  O  O1  1  0.93190599  0.23229413  0.22865521  1
  O  O2  1  0.93190599  0.73229413  0.27134479  1
  O  O3  1  0.06809401  0.76770587  0.77134479  1
  O  O4  1  0.89135921  0.27135888  0.93449226  1
  O  O5  1  0.10864079  0.22864112  0.43449226  1
  O  O6  1  0.10864079  0.72864112  0.06550774  1
  O  O7  1  0.89135921  0.77135888  0.56550774  1
  O  O8  1  0.17971933  0.49448009  0.89988138  1
  O  O9  1  0.82028067  0.00551991  0.39988138  1
  O  O10  1  0.82028067  0.50551991  0.10011862  1
  O  O11  1  0.17971933  0.99448009  0.60011862  1
  O  O12  1  0.81439817  0.79330715  0.04572028  1
  O  O13  1  0.18560183  0.70669285  0.54572028  1
  O  O14  1  0.18560183  0.20669285  0.95427972  1
  O  O15  1  0.81439817  0.29330715  0.45427972  1
  O  O16  1  0.48609941  0.23548282  0.49915003  1
  O  O17  1  0.51390059  0.26451718  0.99915003  1
  O  O18  1  0.51390059  0.76451718  0.50084997  1
  O  O19  1  0.48609941  0.73548282  0.00084997  1
  O  O20  1  0.59332911  0.27011304  0.26459387  1
  O  O21  1  0.40667089  0.22988696  0.76459387  1
  O  O22  1  0.40667089  0.72988696  0.73540613  1
  O  O23  1  0.59332911  0.77011304  0.23540613  1
  O  O24  1  0.66020083  0.51579080  0.41937114  1
  O  O25  1  0.33979917  0.98420920  0.91937114  1
  O  O26  1  0.33979917  0.48420920  0.58062886  1
  O  O27  1  0.66020083  0.01579080  0.08062886  1
  P  P28  1  0.07788388  0.31898876  0.87487216  1
  P  P29  1  0.92211612  0.18101124  0.37487216  1
  P  P30  1  0.92211612  0.68101124  0.12512784  1
  P  P31  1  0.07788388  0.81898876  0.62512784  1
  P  P32  1  0.63066800  0.83359137  0.09306880  1
  P  P33  1  0.36933200  0.66640863  0.59306880  1
  P  P34  1  0.36933200  0.16640863  0.90693120  1
  P  P35  1  0.63066800  0.33359137  0.40693120  1
  Fe  Fe36  1  0.74063268  0.25793602  0.10110848  1
  Fe  Fe37  1  0.25936732  0.24206398  0.60110848  1
  Fe  Fe38  1  0.25936732  0.74206398  0.89889152  1
  Fe  Fe39  1  0.74063268  0.75793602  0.39889152  1
  Cs  Cs40  1  0.30188130  0.46201636  0.20595285  1
  Cs  Cs41  1  0.69811870  0.03798364  0.70595285  1
  Cs  Cs42  1  0.69811870  0.53798364  0.79404715  1
  Cs  Cs43  1  0.30188130  0.96201636  0.29404715  1
