# generated using pymatgen
data_K3NaTh2O6
_symmetry_space_group_name_H-M   'P 1'
_cell_length_a   6.34505036
_cell_length_b   6.34505037
_cell_length_c   12.76951533
_cell_angle_alpha   94.76189548
_cell_angle_beta   94.76189549
_cell_angle_gamma   120.02696930
_symmetry_Int_Tables_number   1
_chemical_formula_structural   K3NaTh2O6
_chemical_formula_sum   'K6 Na2 Th4 O12'
_cell_volume   438.91673801
_cell_formula_units_Z   2
loop_
 _symmetry_equiv_pos_site_id
 _symmetry_equiv_pos_as_xyz
  1  'x, y, z'
loop_
 _atom_site_type_symbol
 _atom_site_label
 _atom_site_symmetry_multiplicity
 _atom_site_fract_x
 _atom_site_fract_y
 _atom_site_fract_z
 _atom_site_occupancy
  O  O0  1  0.11646127  0.57831385  0.34688928  1
  O  O1  1  0.42168615  0.88353873  0.15311072  1
  O  O2  1  0.88353873  0.42168615  0.65311072  1
  O  O3  1  0.57831385  0.11646127  0.84688928  1
  O  O4  1  0.48716569  0.31935729  0.34728221  1
  O  O5  1  0.68064271  0.51283431  0.15271779  1
  O  O6  1  0.94867979  0.74773161  0.84697146  1
  O  O7  1  0.31935729  0.48716569  0.84728221  1
  O  O8  1  0.74773161  0.94867979  0.34697146  1
  O  O9  1  0.05132021  0.25226839  0.15302854  1
  O  O10  1  0.25226839  0.05132021  0.65302854  1
  O  O11  1  0.51283431  0.68064271  0.65271779  1
  Na  Na12  1  0.91573701  0.08426299  0.75000000  1
  Na  Na13  1  0.08426299  0.91573701  0.25000000  1
  K  K14  1  0.50000000  0.00000000  0.50000000  1
  K  K15  1  0.00000000  0.50000000  0.00000000  1
  K  K16  1  0.15643372  0.31271998  0.49981155  1
  K  K17  1  0.68728002  0.84356628  0.00018845  1
  K  K18  1  0.31271998  0.15643372  0.99981155  1
  K  K19  1  0.84356628  0.68728002  0.50018845  1
  Th  Th20  1  0.75009438  0.24990562  0.25000000  1
  Th  Th21  1  0.24990562  0.75009438  0.75000000  1
  Th  Th22  1  0.41730990  0.58269010  0.25000000  1
  Th  Th23  1  0.58269010  0.41730990  0.75000000  1
