# generated using pymatgen
data_RbScBP2HO9
_symmetry_space_group_name_H-M   'P 1'
_cell_length_a   5.39822521
_cell_length_b   8.51949886
_cell_length_c   8.51915823
_cell_angle_alpha   87.24846046
_cell_angle_beta   80.29739927
_cell_angle_gamma   86.56336107
_symmetry_Int_Tables_number   1
_chemical_formula_structural   RbScBP2HO9
_chemical_formula_sum   'Rb2 Sc2 B2 P4 H2 O18'
_cell_volume   385.21260219
_cell_formula_units_Z   2
loop_
 _symmetry_equiv_pos_site_id
 _symmetry_equiv_pos_as_xyz
  1  'x, y, z'
loop_
 _atom_site_type_symbol
 _atom_site_label
 _atom_site_symmetry_multiplicity
 _atom_site_fract_x
 _atom_site_fract_y
 _atom_site_fract_z
 _atom_site_occupancy
  H  H0  1  0.58449686  0.86611892  0.51689374  1
  H  H1  1  0.41550314  0.13388108  0.48310626  1
  B  B2  1  0.88418653  0.72454768  0.56130950  1
  B  B3  1  0.11581347  0.27545232  0.43869050  1
  O  O4  1  0.53964032  0.99832821  0.74999613  1
  O  O5  1  0.43558656  0.64497350  0.21265056  1
  O  O6  1  0.71535136  0.79887469  0.45600516  1
  O  O7  1  0.28464864  0.20112531  0.54399484  1
  O  O8  1  0.56441344  0.35502650  0.78734944  1
  O  O9  1  0.46035968  0.00167179  0.25000387  1
  O  O10  1  0.02757858  0.39579428  0.78972558  1
  O  O11  1  0.97242142  0.60420572  0.21027442  1
  O  O12  1  0.04781491  0.16037148  0.33203289  1
  O  O13  1  0.95218509  0.83962852  0.66796711  1
  O  O14  1  0.04714163  0.93121600  0.16409072  1
  O  O15  1  0.95285837  0.06878400  0.83590928  1
  O  O16  1  0.12165319  0.66496226  0.46864461  1
  O  O17  1  0.87834681  0.33503774  0.53135539  1
  O  O18  1  0.26979775  0.17492547  0.04656119  1
  O  O19  1  0.73020225  0.82507453  0.95343881  1
  O  O20  1  0.25259467  0.40373737  0.33995707  1
  O  O21  1  0.74740533  0.59626263  0.66004293  1
  P  P22  1  0.78854061  0.93787072  0.80503859  1
  P  P23  1  0.21145939  0.06212928  0.19496141  1
  P  P24  1  0.80877257  0.41706855  0.69469983  1
  P  P25  1  0.19122743  0.58293145  0.30530017  1
  Sc  Sc26  1  0.72055307  0.80801856  0.19862311  1
  Sc  Sc27  1  0.27944693  0.19198144  0.80137689  1
  Rb  Rb28  1  0.27878783  0.67350808  0.87774947  1
  Rb  Rb29  1  0.72121217  0.32649192  0.12225053  1
