# generated using pymatgen
data_Rb2NbAgS4
_symmetry_space_group_name_H-M   'P 1'
_cell_length_a   5.98152712
_cell_length_b   7.59468760
_cell_length_c   12.41543383
_cell_angle_alpha   84.55662200
_cell_angle_beta   76.06087905
_cell_angle_gamma   66.80904623
_symmetry_Int_Tables_number   1
_chemical_formula_structural   Rb2NbAgS4
_chemical_formula_sum   'Rb4 Nb2 Ag2 S8'
_cell_volume   503.16641867
_cell_formula_units_Z   2
loop_
 _symmetry_equiv_pos_site_id
 _symmetry_equiv_pos_as_xyz
  1  'x, y, z'
loop_
 _atom_site_type_symbol
 _atom_site_label
 _atom_site_symmetry_multiplicity
 _atom_site_fract_x
 _atom_site_fract_y
 _atom_site_fract_z
 _atom_site_occupancy
  S  S0  1  0.56405447  0.55305326  0.63872371  1
  S  S1  1  0.25583144  0.94694674  0.86127629  1
  S  S2  1  0.88289226  0.55305326  0.86127629  1
  S  S3  1  0.79722182  0.94694674  0.63872371  1
  S  S4  1  0.43594553  0.44694674  0.36127629  1
  S  S5  1  0.20277818  0.05305326  0.36127629  1
  S  S6  1  0.11710774  0.44694674  0.13872371  1
  S  S7  1  0.74416856  0.05305326  0.13872371  1
  Rb  Rb8  1  0.55402227  0.25000000  0.89195545  1
  Rb  Rb9  1  0.44597773  0.75000000  0.10804455  1
  Rb  Rb10  1  0.19597773  0.25000000  0.60804455  1
  Rb  Rb11  1  0.80402227  0.75000000  0.39195545  1
  Nb  Nb12  1  0.62500000  0.75000000  0.75000000  1
  Nb  Nb13  1  0.37500000  0.25000000  0.25000000  1
  Ag  Ag14  1  0.12500000  0.75000000  0.75000000  1
  Ag  Ag15  1  0.87500000  0.25000000  0.25000000  1
