# generated using pymatgen
data_K6Na3AlSb4
_symmetry_space_group_name_H-M   'P 1'
_cell_length_a   10.29181457
_cell_length_b   10.29181431
_cell_length_c   10.59554668
_cell_angle_alpha   90.00000000
_cell_angle_beta   90.00000000
_cell_angle_gamma   120.00000088
_symmetry_Int_Tables_number   1
_chemical_formula_structural   K6Na3AlSb4
_chemical_formula_sum   'K12 Na6 Al2 Sb8'
_cell_volume   971.93649908
_cell_formula_units_Z   2
loop_
 _symmetry_equiv_pos_site_id
 _symmetry_equiv_pos_as_xyz
  1  'x, y, z'
loop_
 _atom_site_type_symbol
 _atom_site_label
 _atom_site_symmetry_multiplicity
 _atom_site_fract_x
 _atom_site_fract_y
 _atom_site_fract_z
 _atom_site_occupancy
  K  K0  1  0.20738356  0.41476711  0.54212014  1
  K  K1  1  0.79261644  0.20738356  0.04212014  1
  K  K2  1  0.41476711  0.20738356  0.04212014  1
  K  K3  1  0.58523289  0.79261644  0.54212014  1
  K  K4  1  0.20738356  0.79261644  0.54212014  1
  K  K5  1  0.79261644  0.58523289  0.45787986  1
  K  K6  1  0.79261644  0.20738356  0.45787986  1
  K  K7  1  0.79261644  0.58523289  0.04212014  1
  K  K8  1  0.41476711  0.20738356  0.45787986  1
  K  K9  1  0.58523289  0.79261644  0.95787986  1
  K  K10  1  0.20738356  0.41476711  0.95787986  1
  K  K11  1  0.20738356  0.79261644  0.95787986  1
  Al  Al12  1  0.33333300  0.66666700  0.25000000  1
  Al  Al13  1  0.66666700  0.33333300  0.75000000  1
  Sb  Sb14  1  0.48160039  0.51839961  0.25000000  1
  Sb  Sb15  1  0.96320079  0.48160039  0.75000000  1
  Sb  Sb16  1  0.51839961  0.03679921  0.75000000  1
  Sb  Sb17  1  0.48160039  0.96320079  0.25000000  1
  Sb  Sb18  1  0.03679921  0.51839961  0.25000000  1
  Sb  Sb19  1  0.51839961  0.48160039  0.75000000  1
  Sb  Sb20  1  0.00000000  0.00000000  0.00000000  1
  Sb  Sb21  1  0.00000000  0.00000000  0.50000000  1
  Na  Na22  1  0.11590734  0.23181468  0.25000000  1
  Na  Na23  1  0.88409266  0.11590734  0.75000000  1
  Na  Na24  1  0.23181468  0.11590734  0.75000000  1
  Na  Na25  1  0.76818532  0.88409266  0.25000000  1
  Na  Na26  1  0.11590734  0.88409266  0.25000000  1
  Na  Na27  1  0.88409266  0.76818532  0.75000000  1
