# generated using pymatgen
data_RbZnH2Se2BrO6
_symmetry_space_group_name_H-M   'P 1'
_cell_length_a   6.56593028
_cell_length_b   6.23994640
_cell_length_c   10.95020075
_cell_angle_alpha   89.99943384
_cell_angle_beta   102.83783104
_cell_angle_gamma   90.00035444
_symmetry_Int_Tables_number   1
_chemical_formula_structural   RbZnH2Se2BrO6
_chemical_formula_sum   'Rb2 Zn2 H4 Se4 Br2 O12'
_cell_volume   437.42650621
_cell_formula_units_Z   2
loop_
 _symmetry_equiv_pos_site_id
 _symmetry_equiv_pos_as_xyz
  1  'x, y, z'
loop_
 _atom_site_type_symbol
 _atom_site_label
 _atom_site_symmetry_multiplicity
 _atom_site_fract_x
 _atom_site_fract_y
 _atom_site_fract_z
 _atom_site_occupancy
  Rb  Rb0  1  0.99999742  0.16258172  0.25000060  1
  Rb  Rb1  1  0.00000158  0.83741728  0.74999940  1
  Zn  Zn2  1  0.49999964  0.54956556  0.25000063  1
  Zn  Zn3  1  0.49999936  0.45043544  0.75000037  1
  H  H4  1  0.07185869  0.65658770  0.09138058  1
  H  H5  1  0.92814266  0.65659030  0.40861824  1
  H  H6  1  0.07185634  0.34340970  0.59138076  1
  H  H7  1  0.92814231  0.34341230  0.90861942  1
  Se  Se8  1  0.70630725  0.68457900  0.01339486  1
  Se  Se9  1  0.29369231  0.68458682  0.48661113  1
  Se  Se10  1  0.70630869  0.31541318  0.51338987  1
  Se  Se11  1  0.29369175  0.31542100  0.98660514  1
  Br  Br12  1  0.50000190  0.94565391  0.24999980  1
  Br  Br13  1  0.49999710  0.05434909  0.75000120  1
  O  O14  1  0.96781015  0.78107624  0.07831970  1
  O  O15  1  0.68386800  0.47900560  0.11439206  1
  O  O16  1  0.24209081  0.45228290  0.11566933  1
  O  O17  1  0.75790611  0.45228143  0.38433062  1
  O  O18  1  0.31613229  0.47899779  0.38560397  1
  O  O19  1  0.03218761  0.78107288  0.42167907  1
  O  O20  1  0.96781339  0.21892812  0.57832093  1
  O  O21  1  0.68386471  0.52100121  0.61439503  1
  O  O22  1  0.24209389  0.54771857  0.61566838  1
  O  O23  1  0.75790919  0.54771710  0.88433167  1
  O  O24  1  0.31613300  0.52099340  0.88560794  1
  O  O25  1  0.03218885  0.21892476  0.92168030  1
