# generated using pymatgen
data_K4Ti3Mn(PO4)6
_symmetry_space_group_name_H-M   'P 1'
_cell_length_a   10.05369515
_cell_length_b   10.05663836
_cell_length_c   10.02292853
_cell_angle_alpha   90.00000000
_cell_angle_beta   90.00000000
_cell_angle_gamma   90.03244045
_symmetry_Int_Tables_number   1
_chemical_formula_structural   K4Ti3Mn(PO4)6
_chemical_formula_sum   'K8 Ti6 Mn2 P12 O48'
_cell_volume   1013.38182079
_cell_formula_units_Z   2
loop_
 _symmetry_equiv_pos_site_id
 _symmetry_equiv_pos_as_xyz
  1  'x, y, z'
loop_
 _atom_site_type_symbol
 _atom_site_label
 _atom_site_symmetry_multiplicity
 _atom_site_fract_x
 _atom_site_fract_y
 _atom_site_fract_z
 _atom_site_occupancy
  K  K0  1  0.05966872  0.06254671  0.06394162  1
  K  K1  1  0.19802550  0.71146849  0.79696212  1
  K  K2  1  0.30197450  0.28853151  0.29696212  1
  K  K3  1  0.44033128  0.93745329  0.56394162  1
  K  K4  1  0.57215329  0.43072571  0.93215505  1
  K  K5  1  0.70815009  0.80613652  0.20340602  1
  K  K6  1  0.79184991  0.19386348  0.70340602  1
  K  K7  1  0.92784671  0.56927429  0.43215505  1
  Ti  Ti8  1  0.08316679  0.91271983  0.41524911  1
  Ti  Ti9  1  0.14152157  0.35716911  0.63980115  1
  Ti  Ti10  1  0.35847843  0.64283089  0.13980115  1
  Ti  Ti11  1  0.41683321  0.08728017  0.91524911  1
  Ti  Ti12  1  0.59007663  0.58782216  0.58815766  1
  Ti  Ti13  1  0.90992337  0.41217784  0.08815766  1
  Mn  Mn14  1  0.64497433  0.14619771  0.35507756  1
  Mn  Mn15  1  0.85502567  0.85380229  0.85507756  1
  P  P16  1  0.04148585  0.72330645  0.13246856  1
  P  P17  1  0.13387181  0.04329313  0.72386716  1
  P  P18  1  0.22528022  0.37268349  0.95897428  1
  P  P19  1  0.27471978  0.62731651  0.45897428  1
  P  P20  1  0.36612819  0.95670687  0.22386716  1
  P  P21  1  0.45851415  0.27669355  0.63246856  1
  P  P22  1  0.53919683  0.77044634  0.87701272  1
  P  P23  1  0.62208856  0.46267511  0.26974414  1
  P  P24  1  0.72938595  0.12690028  0.03992336  1
  P  P25  1  0.77061405  0.87309972  0.53992336  1
  P  P26  1  0.87791144  0.53732489  0.76974414  1
  P  P27  1  0.96080317  0.22955366  0.37701272  1
  O  O28  1  0.00406118  0.08218955  0.35656989  1
  O  O29  1  0.03578558  0.95703556  0.79853374  1
  O  O30  1  0.02389008  0.79286039  0.27032742  1
  O  O31  1  0.06382982  0.29930783  0.47187863  1
  O  O32  1  0.08722505  0.19182823  0.72489019  1
  O  O33  1  0.07972838  0.35231814  0.00512912  1
  O  O34  1  0.15331367  0.99862943  0.57610508  1
  O  O35  1  0.19028269  0.72485900  0.08864667  1
  O  O36  1  0.19897595  0.75983116  0.47947450  1
  O  O37  1  0.20174099  0.52329783  0.54750756  1
  O  O38  1  0.22796511  0.42044931  0.81172500  1
  O  O39  1  0.22887709  0.96914562  0.29448672  1
  O  O40  1  0.27112291  0.03085438  0.79448672  1
  O  O41  1  0.27203489  0.57955069  0.31172500  1
  O  O42  1  0.29825901  0.47670217  0.04750756  1
  O  O43  1  0.30102405  0.24016884  0.97947450  1
  O  O44  1  0.30971731  0.27514100  0.58864667  1
  O  O45  1  0.34668633  0.00137057  0.07610508  1
  O  O46  1  0.42027162  0.64768186  0.50512912  1
  O  O47  1  0.41277495  0.80817177  0.22489019  1
  O  O48  1  0.43617018  0.70069217  0.97187863  1
  O  O49  1  0.47610992  0.20713961  0.77032742  1
  O  O50  1  0.46421442  0.04296444  0.29853374  1
  O  O51  1  0.49593882  0.91781045  0.85656989  1
  O  O52  1  0.50285051  0.42372783  0.65047222  1
  O  O53  1  0.52484710  0.56204239  0.19854584  1
  O  O54  1  0.52306232  0.69635867  0.74108641  1
  O  O55  1  0.54115735  0.20072868  0.53196831  1
  O  O56  1  0.56682648  0.32288629  0.25678939  1
  O  O57  1  0.57871963  0.14590230  0.99929656  1
  O  O58  1  0.64107943  0.50563484  0.41773683  1
  O  O59  1  0.67786351  0.75692752  0.93499615  1
  O  O60  1  0.70425095  0.73047807  0.53026350  1
  O  O61  1  0.69848447  0.95770762  0.43794774  1
  O  O62  1  0.74083019  0.07331930  0.18098310  1
  O  O63  1  0.74152364  0.51731258  0.69789893  1
  O  O64  1  0.75847636  0.48268742  0.19789893  1
  O  O65  1  0.75916981  0.92668070  0.68098310  1
  O  O66  1  0.80151553  0.04229238  0.93794774  1
  O  O67  1  0.79574905  0.26952193  0.03026350  1
  O  O68  1  0.82213649  0.24307248  0.43499615  1
  O  O69  1  0.85892057  0.49436516  0.91773683  1
  O  O70  1  0.92128037  0.85409770  0.49929656  1
  O  O71  1  0.93317352  0.67711371  0.75678939  1
  O  O72  1  0.95884265  0.79927132  0.03196831  1
  O  O73  1  0.97693768  0.30364133  0.24108641  1
  O  O74  1  0.97515290  0.43795761  0.69854584  1
  O  O75  1  0.99714949  0.57627217  0.15047222  1
