# generated using pymatgen
data_Ba2HoB2ClO6
_symmetry_space_group_name_H-M   'P 1'
_cell_length_a   5.34574624
_cell_length_b   6.46303321
_cell_length_c   11.46913952
_cell_angle_alpha   95.89666706
_cell_angle_beta   90.00000000
_cell_angle_gamma   90.00000000
_symmetry_Int_Tables_number   1
_chemical_formula_structural   Ba2HoB2ClO6
_chemical_formula_sum   'Ba4 Ho2 B4 Cl2 O12'
_cell_volume   394.15906597
_cell_formula_units_Z   2
loop_
 _symmetry_equiv_pos_site_id
 _symmetry_equiv_pos_as_xyz
  1  'x, y, z'
loop_
 _atom_site_type_symbol
 _atom_site_label
 _atom_site_symmetry_multiplicity
 _atom_site_fract_x
 _atom_site_fract_y
 _atom_site_fract_z
 _atom_site_occupancy
  Ba  Ba0  1  0.25000000  0.09352207  0.70590297  1
  Ba  Ba1  1  0.25000000  0.34128731  0.07583121  1
  Ba  Ba2  1  0.75000000  0.65871269  0.92416879  1
  Ba  Ba3  1  0.75000000  0.90647793  0.29409703  1
  Ho  Ho4  1  0.25000000  0.34725037  0.41325203  1
  Ho  Ho5  1  0.75000000  0.65274963  0.58674797  1
  B  B6  1  0.75000000  0.20986598  0.57204969  1
  B  B7  1  0.75000000  0.37761083  0.22639575  1
  B  B8  1  0.25000000  0.62238917  0.77360425  1
  B  B9  1  0.25000000  0.79013402  0.42795031  1
  Cl  Cl10  1  0.75000000  0.14960577  0.91534409  1
  Cl  Cl11  1  0.25000000  0.85039423  0.08465591  1
  O  O12  1  0.47282774  0.70627334  0.73590600  1
  O  O13  1  0.53042372  0.32471551  0.56380819  1
  O  O14  1  0.46957628  0.67528449  0.43619181  1
  O  O15  1  0.75000000  0.52413820  0.14654228  1
  O  O16  1  0.96957628  0.32471551  0.56380819  1
  O  O17  1  0.03042372  0.67528449  0.43619181  1
  O  O18  1  0.25000000  0.47586180  0.85345772  1
  O  O19  1  0.75000000  0.00700290  0.59479967  1
  O  O20  1  0.02717226  0.70627334  0.73590600  1
  O  O21  1  0.25000000  0.99299710  0.40520033  1
  O  O22  1  0.97282774  0.29372666  0.26409400  1
  O  O23  1  0.52717226  0.29372666  0.26409400  1
