# generated using pymatgen
data_Hg3AsSe4Br
_symmetry_space_group_name_H-M   'P 1'
_cell_length_a   7.87690479
_cell_length_b   7.87690498
_cell_length_c   10.34961687
_cell_angle_alpha   90.00000000
_cell_angle_beta   90.00000000
_cell_angle_gamma   119.99999917
_symmetry_Int_Tables_number   1
_chemical_formula_structural   Hg3AsSe4Br
_chemical_formula_sum   'Hg6 As2 Se8 Br2'
_cell_volume   556.11692260
_cell_formula_units_Z   2
loop_
 _symmetry_equiv_pos_site_id
 _symmetry_equiv_pos_as_xyz
  1  'x, y, z'
loop_
 _atom_site_type_symbol
 _atom_site_label
 _atom_site_symmetry_multiplicity
 _atom_site_fract_x
 _atom_site_fract_y
 _atom_site_fract_z
 _atom_site_occupancy
  Hg  Hg0  1  0.49967938  0.50032062  0.23848244  1
  Hg  Hg1  1  0.50032062  0.00064123  0.73848244  1
  Hg  Hg2  1  0.50032062  0.49967938  0.73848244  1
  Hg  Hg3  1  0.00064123  0.50032062  0.23848244  1
  Hg  Hg4  1  0.49967938  0.99935877  0.23848244  1
  Hg  Hg5  1  0.99935877  0.49967938  0.73848244  1
  As  As6  1  0.00000000  0.00000000  0.23331935  1
  As  As7  1  0.00000000  0.00000000  0.73331935  1
  Se  Se8  1  0.84899310  0.69798620  0.36045950  1
  Se  Se9  1  0.33333300  0.66666700  0.11114593  1
  Se  Se10  1  0.15100690  0.84899310  0.86045950  1
  Se  Se11  1  0.15100690  0.30201380  0.86045950  1
  Se  Se12  1  0.69798620  0.84899310  0.86045950  1
  Se  Se13  1  0.84899310  0.15100690  0.36045950  1
  Se  Se14  1  0.66666700  0.33333300  0.61114593  1
  Se  Se15  1  0.30201380  0.15100690  0.36045950  1
  Br  Br16  1  0.33333300  0.66666700  0.54280889  1
  Br  Br17  1  0.66666700  0.33333300  0.04280889  1
