# generated using pymatgen
data_Na3H7Os
_symmetry_space_group_name_H-M   'P 1'
_cell_length_a   9.59847635
_cell_length_b   9.59847635
_cell_length_c   5.31497145
_cell_angle_alpha   90.00000000
_cell_angle_beta   90.00000000
_cell_angle_gamma   90.00000000
_symmetry_Int_Tables_number   1
_chemical_formula_structural   Na3H7Os
_chemical_formula_sum   'Na12 H28 Os4'
_cell_volume   489.67229657
_cell_formula_units_Z   4
loop_
 _symmetry_equiv_pos_site_id
 _symmetry_equiv_pos_as_xyz
  1  'x, y, z'
loop_
 _atom_site_type_symbol
 _atom_site_label
 _atom_site_symmetry_multiplicity
 _atom_site_fract_x
 _atom_site_fract_y
 _atom_site_fract_z
 _atom_site_occupancy
  Na  Na0  1  0.96666518  0.70140852  0.50000000  1
  Na  Na1  1  0.03333482  0.29859148  0.50000000  1
  Na  Na2  1  0.53333482  0.20140852  0.00000000  1
  Na  Na3  1  0.46666518  0.79859148  0.00000000  1
  Na  Na4  1  0.70140852  0.96666518  0.50000000  1
  Na  Na5  1  0.29859148  0.03333482  0.50000000  1
  Na  Na6  1  0.20140852  0.53333482  0.00000000  1
  Na  Na7  1  0.79859148  0.46666518  0.00000000  1
  Na  Na8  1  0.38460315  0.38460315  0.50000000  1
  Na  Na9  1  0.61539685  0.61539685  0.50000000  1
  Na  Na10  1  0.11539685  0.88460315  0.00000000  1
  Na  Na11  1  0.88460315  0.11539685  0.00000000  1
  H  H12  1  0.39583861  0.60416139  0.69739142  1
  H  H13  1  0.60416139  0.39583861  0.69739142  1
  H  H14  1  0.10416139  0.10416139  0.19739142  1
  H  H15  1  0.89583861  0.89583861  0.19739142  1
  H  H16  1  0.60416139  0.39583861  0.30260858  1
  H  H17  1  0.39583861  0.60416139  0.30260858  1
  H  H18  1  0.89583861  0.89583861  0.80260858  1
  H  H19  1  0.10416139  0.10416139  0.80260858  1
  H  H20  1  0.25592403  0.74407597  0.20505881  1
  H  H21  1  0.74407597  0.25592403  0.20505881  1
  H  H22  1  0.24407597  0.24407597  0.70505881  1
  H  H23  1  0.75592403  0.75592403  0.70505881  1
  H  H24  1  0.74407597  0.25592403  0.79494119  1
  H  H25  1  0.25592403  0.74407597  0.79494119  1
  H  H26  1  0.75592403  0.75592403  0.29494119  1
  H  H27  1  0.24407597  0.24407597  0.29494119  1
  H  H28  1  0.17542717  0.56908036  0.50000000  1
  H  H29  1  0.82457283  0.43091964  0.50000000  1
  H  H30  1  0.32457283  0.06908036  0.00000000  1
  H  H31  1  0.67542717  0.93091964  0.00000000  1
  H  H32  1  0.56908036  0.17542717  0.50000000  1
  H  H33  1  0.43091964  0.82457283  0.50000000  1
  H  H34  1  0.06908036  0.32457283  0.00000000  1
  H  H35  1  0.93091964  0.67542717  0.00000000  1
  H  H36  1  0.17395770  0.82604230  0.50000000  1
  H  H37  1  0.82604230  0.17395770  0.50000000  1
  H  H38  1  0.32604230  0.32604230  0.00000000  1
  H  H39  1  0.67395770  0.67395770  0.00000000  1
  Os  Os40  1  0.29764735  0.70235265  0.50000000  1
  Os  Os41  1  0.70235265  0.29764735  0.50000000  1
  Os  Os42  1  0.20235265  0.20235265  0.00000000  1
  Os  Os43  1  0.79764735  0.79764735  0.00000000  1
