# generated using pymatgen
data_Zn3TeAs2Pb3O14
_symmetry_space_group_name_H-M   'P 1'
_cell_length_a   8.68897350
_cell_length_b   8.68897357
_cell_length_c   5.32815878
_cell_angle_alpha   90.00000000
_cell_angle_beta   90.00000000
_cell_angle_gamma   119.99999972
_symmetry_Int_Tables_number   1
_chemical_formula_structural   Zn3TeAs2Pb3O14
_chemical_formula_sum   'Zn3 Te1 As2 Pb3 O14'
_cell_volume   348.37320215
_cell_formula_units_Z   1
loop_
 _symmetry_equiv_pos_site_id
 _symmetry_equiv_pos_as_xyz
  1  'x, y, z'
loop_
 _atom_site_type_symbol
 _atom_site_label
 _atom_site_symmetry_multiplicity
 _atom_site_fract_x
 _atom_site_fract_y
 _atom_site_fract_z
 _atom_site_occupancy
  Zn  Zn0  1  0.24132132  0.00000000  0.50000000  1
  Zn  Zn1  1  0.75867868  0.75867868  0.50000000  1
  Zn  Zn2  1  1.00000000  0.24132132  0.50000000  1
  Te  Te3  1  0.00000000  0.00000000  0.00000000  1
  As  As4  1  0.33333300  0.66666700  0.53945985  1
  As  As5  1  0.66666700  0.33333300  0.46054015  1
  Pb  Pb6  1  0.60254688  0.00000000  0.00000000  1
  Pb  Pb7  1  0.39745312  0.39745312  0.00000000  1
  Pb  Pb8  1  0.00000000  0.60254688  0.00000000  1
  O  O9  1  0.54028728  0.73401883  0.67008300  1
  O  O10  1  0.45971272  0.19373155  0.32991700  1
  O  O11  1  0.12272130  0.21179387  0.21103638  1
  O  O12  1  0.26598117  0.80626845  0.67008300  1
  O  O13  1  0.08907258  0.87727870  0.21103638  1
  O  O14  1  0.91092742  0.78820613  0.78896362  1
  O  O15  1  0.66666700  0.33333300  0.78102333  1
  O  O16  1  0.87727870  0.08907258  0.78896362  1
  O  O17  1  0.19373155  0.45971272  0.67008300  1
  O  O18  1  0.78820613  0.91092742  0.21103638  1
  O  O19  1  0.33333300  0.66666700  0.21897667  1
  O  O20  1  0.21179387  0.12272130  0.78896362  1
  O  O21  1  0.80626845  0.26598117  0.32991700  1
  O  O22  1  0.73401883  0.54028728  0.32991700  1
