# generated using pymatgen
data_Ti6In2Si2P12O49
_symmetry_space_group_name_H-M   'P 1'
_cell_length_a   15.86898602
_cell_length_b   15.86898591
_cell_length_c   15.86898621
_cell_angle_alpha   31.39560034
_cell_angle_beta   31.39560098
_cell_angle_gamma   31.39560019
_symmetry_Int_Tables_number   1
_chemical_formula_structural   Ti6In2Si2P12O49
_chemical_formula_sum   'Ti6 In2 Si2 P12 O49'
_cell_volume   962.66369796
_cell_formula_units_Z   1
loop_
 _symmetry_equiv_pos_site_id
 _symmetry_equiv_pos_as_xyz
  1  'x, y, z'
loop_
 _atom_site_type_symbol
 _atom_site_label
 _atom_site_symmetry_multiplicity
 _atom_site_fract_x
 _atom_site_fract_y
 _atom_site_fract_z
 _atom_site_occupancy
  Ti  Ti0  1  0.34402928  0.34402928  0.34402928  1
  Ti  Ti1  1  0.93053514  0.93053514  0.93053514  1
  Ti  Ti2  1  0.75602773  0.75602773  0.75602773  1
  Ti  Ti3  1  0.24397227  0.24397227  0.24397227  1
  Ti  Ti4  1  0.06946486  0.06946486  0.06946486  1
  Ti  Ti5  1  0.65597072  0.65597072  0.65597072  1
  In  In6  1  0.17293183  0.17293183  0.17293183  1
  In  In7  1  0.82706817  0.82706817  0.82706817  1
  Si  Si8  1  0.46437540  0.46437540  0.46437540  1
  Si  Si9  1  0.53562460  0.53562460  0.53562460  1
  P  P10  1  0.87640547  0.17208730  0.58420499  1
  P  P11  1  0.17208730  0.58420499  0.87640547  1
  P  P12  1  0.82791270  0.41579501  0.12359453  1
  P  P13  1  0.29379449  0.00683180  0.57813815  1
  P  P14  1  0.57813815  0.29379449  0.00683180  1
  P  P15  1  0.12359453  0.82791270  0.41579501  1
  P  P16  1  0.42186185  0.70620551  0.99316820  1
  P  P17  1  0.99316820  0.42186185  0.70620551  1
  P  P18  1  0.41579501  0.12359453  0.82791270  1
  P  P19  1  0.70620551  0.99316820  0.42186185  1
  P  P20  1  0.00683180  0.57813815  0.29379449  1
  P  P21  1  0.58420499  0.87640547  0.17208730  1
  O  O22  1  0.73114445  0.38053213  0.53571614  1
  O  O23  1  0.91565135  0.34935891  0.19156683  1
  O  O24  1  0.04409787  0.23399932  0.86177217  1
  O  O25  1  0.53571614  0.73114445  0.38053213  1
  O  O26  1  0.40048941  0.05597486  0.17335903  1
  O  O27  1  0.19156683  0.91565135  0.34935891  1
  O  O28  1  0.71924894  0.90065662  0.09201337  1
  O  O29  1  0.94402514  0.82664097  0.59951059  1
  O  O30  1  0.83184358  0.47470324  0.73916094  1
  O  O31  1  0.46428386  0.26885555  0.61946787  1
  O  O32  1  0.57753160  0.47851495  0.84037828  1
  O  O33  1  0.59951059  0.94402514  0.82664097  1
  O  O34  1  0.73916094  0.83184358  0.47470324  1
  O  O35  1  0.23399932  0.86177217  0.04409787  1
  O  O36  1  0.28075106  0.09934338  0.90798663  1
  O  O37  1  0.05597486  0.17335903  0.40048941  1
  O  O38  1  0.52148505  0.15962172  0.42246840  1
  O  O39  1  0.16815642  0.52529676  0.26083906  1
  O  O40  1  0.65064109  0.80843317  0.08434865  1
  O  O41  1  0.61946787  0.46428386  0.26885555  1
  O  O42  1  0.47851495  0.84037828  0.57753160  1
  O  O43  1  0.47470324  0.73916094  0.83184358  1
  O  O44  1  0.26885555  0.61946787  0.46428386  1
  O  O45  1  0.42246840  0.52148505  0.15962172  1
  O  O46  1  0.34935891  0.19156683  0.91565135  1
  O  O47  1  0.82664097  0.59951059  0.94402514  1
  O  O48  1  0.38053213  0.53571614  0.73114445  1
  O  O49  1  0.70638150  0.93619591  0.56533488  1
  O  O50  1  0.09201337  0.71924894  0.90065662  1
  O  O51  1  0.43466512  0.29361850  0.06380409  1
  O  O52  1  0.50000000  0.50000000  0.50000000  1
  O  O53  1  0.13822783  0.95590213  0.76600068  1
  O  O54  1  0.09934338  0.90798663  0.28075106  1
  O  O55  1  0.15962172  0.42246840  0.52148505  1
  O  O56  1  0.80843317  0.08434865  0.65064109  1
  O  O57  1  0.86177217  0.04409787  0.23399932  1
  O  O58  1  0.90798663  0.28075106  0.09934338  1
  O  O59  1  0.56533488  0.70638150  0.93619591  1
  O  O60  1  0.90065662  0.09201337  0.71924894  1
  O  O61  1  0.76600068  0.13822783  0.95590213  1
  O  O62  1  0.29361850  0.06380409  0.43466512  1
  O  O63  1  0.06380409  0.43466512  0.29361850  1
  O  O64  1  0.52529676  0.26083906  0.16815642  1
  O  O65  1  0.08434865  0.65064109  0.80843317  1
  O  O66  1  0.84037828  0.57753160  0.47851495  1
  O  O67  1  0.95590213  0.76600068  0.13822783  1
  O  O68  1  0.26083906  0.16815642  0.52529676  1
  O  O69  1  0.17335903  0.40048941  0.05597486  1
  O  O70  1  0.93619591  0.56533488  0.70638150  1
