# generated using pymatgen
data_NaHgPO4
_symmetry_space_group_name_H-M   'P 1'
_cell_length_a   5.64559507
_cell_length_b   5.64559507
_cell_length_c   6.54723007
_cell_angle_alpha   90.00000000
_cell_angle_beta   90.00000000
_cell_angle_gamma   116.03455665
_symmetry_Int_Tables_number   1
_chemical_formula_structural   NaHgPO4
_chemical_formula_sum   'Na2 Hg2 P2 O8'
_cell_volume   187.50350381
_cell_formula_units_Z   2
loop_
 _symmetry_equiv_pos_site_id
 _symmetry_equiv_pos_as_xyz
  1  'x, y, z'
loop_
 _atom_site_type_symbol
 _atom_site_label
 _atom_site_symmetry_multiplicity
 _atom_site_fract_x
 _atom_site_fract_y
 _atom_site_fract_z
 _atom_site_occupancy
  O  O0  1  0.73989030  0.83472769  0.75000000  1
  O  O1  1  0.26010970  0.16527231  0.25000000  1
  O  O2  1  0.83472769  0.73989030  0.25000000  1
  O  O3  1  0.16527231  0.26010970  0.75000000  1
  O  O4  1  0.75454697  0.24545303  0.93454276  1
  O  O5  1  0.24545303  0.75454697  0.43454276  1
  O  O6  1  0.75454697  0.24545303  0.56545724  1
  O  O7  1  0.24545303  0.75454697  0.06545724  1
  Na  Na8  1  0.50000000  0.50000000  0.00000000  1
  Na  Na9  1  0.50000000  0.50000000  0.50000000  1
  P  P10  1  0.13923203  0.86076797  0.25000000  1
  P  P11  1  0.86076797  0.13923203  0.75000000  1
  Hg  Hg12  1  0.81187328  0.18812672  0.25000000  1
  Hg  Hg13  1  0.18812672  0.81187328  0.75000000  1
