# generated using pymatgen
data_Lu(AlC)3
_symmetry_space_group_name_H-M   'P 1'
_cell_length_a   3.40356031
_cell_length_b   3.40358265
_cell_length_c   17.13889722
_cell_angle_alpha   90.00000000
_cell_angle_beta   90.00000000
_cell_angle_gamma   119.99978293
_symmetry_Int_Tables_number   1
_chemical_formula_structural   Lu(AlC)3
_chemical_formula_sum   'Lu2 Al6 C6'
_cell_volume   171.94288456
_cell_formula_units_Z   2
loop_
 _symmetry_equiv_pos_site_id
 _symmetry_equiv_pos_as_xyz
  1  'x, y, z'
loop_
 _atom_site_type_symbol
 _atom_site_label
 _atom_site_symmetry_multiplicity
 _atom_site_fract_x
 _atom_site_fract_y
 _atom_site_fract_z
 _atom_site_occupancy
  Lu  Lu0  1  0.00000000  0.00000000  0.00000000  1
  Lu  Lu1  1  0.00000000  0.00000000  0.50000000  1
  Al  Al2  1  0.33333263  0.66666526  0.13205163  1
  Al  Al3  1  0.66666090  0.33332481  0.25000000  1
  Al  Al4  1  0.33333263  0.66666526  0.36794837  1
  Al  Al5  1  0.66666737  0.33333674  0.63205163  1
  Al  Al6  1  0.33333710  0.66667419  0.75000000  1
  Al  Al7  1  0.66666737  0.33333674  0.86794837  1
  C  C8  1  0.66666397  0.33332893  0.09026531  1
  C  C9  1  0.33332953  0.66665905  0.25000000  1
  C  C10  1  0.66666397  0.33332893  0.40973469  1
  C  C11  1  0.33333603  0.66667307  0.59026531  1
  C  C12  1  0.66667047  0.33334295  0.75000000  1
  C  C13  1  0.33333603  0.66667307  0.90973469  1
