# generated using pymatgen
data_Rb4P2PbSe8
_symmetry_space_group_name_H-M   'P 1'
_cell_length_a   12.03748800
_cell_length_b   12.03748800
_cell_length_c   12.03748800
_cell_angle_alpha   72.68043996
_cell_angle_beta   133.36543667
_cell_angle_gamma   127.66558776
_symmetry_Int_Tables_number   1
_chemical_formula_structural   Rb4P2PbSe8
_chemical_formula_sum   'Rb8 P4 Pb2 Se16'
_cell_volume   981.00517718
_cell_formula_units_Z   2
loop_
 _symmetry_equiv_pos_site_id
 _symmetry_equiv_pos_as_xyz
  1  'x, y, z'
loop_
 _atom_site_type_symbol
 _atom_site_label
 _atom_site_symmetry_multiplicity
 _atom_site_fract_x
 _atom_site_fract_y
 _atom_site_fract_z
 _atom_site_occupancy
  Rb  Rb0  1  0.88452173  0.41355865  0.29807939  1
  Rb  Rb1  1  0.11547827  0.58644135  0.70192061  1
  Rb  Rb2  1  0.61547927  0.91355865  0.52903692  1
  Rb  Rb3  1  0.38452173  0.08644235  0.47096408  1
  Rb  Rb4  1  0.74999900  0.98575701  0.23575701  1
  Rb  Rb5  1  0.75000000  0.51424199  0.76424299  1
  Rb  Rb6  1  0.25000000  0.01424299  0.76424299  1
  Rb  Rb7  1  0.25000000  0.48575701  0.23575701  1
  P  P8  1  0.20167462  0.87431086  0.07598348  1
  P  P9  1  0.79832638  0.12569014  0.92401652  1
  P  P10  1  0.29832638  0.37430986  0.67263624  1
  P  P11  1  0.70167362  0.62569114  0.32736276  1
  Pb  Pb12  1  0.74999900  0.74999900  0.00000000  1
  Pb  Pb13  1  0.25000000  0.25000000  0.00000000  1
  Se  Se14  1  0.74516372  0.23714934  0.98231306  1
  Se  Se15  1  0.25483728  0.76285066  0.01768694  1
  Se  Se16  1  0.75483728  0.73715034  0.49198662  1
  Se  Se17  1  0.24516372  0.26284966  0.50801338  1
  Se  Se18  1  0.53877519  0.90349443  0.78444740  1
  Se  Se19  1  0.11904703  0.75432879  0.21555260  1
  Se  Se20  1  0.96122481  0.74567221  0.36471924  1
  Se  Se21  1  0.38095297  0.59650657  0.63528076  1
  Se  Se22  1  0.46122481  0.09650557  0.21555260  1
  Se  Se23  1  0.88095297  0.24567221  0.78444740  1
  Se  Se24  1  0.03877519  0.25432779  0.63528076  1
  Se  Se25  1  0.61904703  0.40349443  0.36471924  1
  Se  Se26  1  0.52941712  0.39547285  0.92488997  1
  Se  Se27  1  0.47058288  0.60452815  0.07511003  1
  Se  Se28  1  0.97058288  0.89547385  0.86605473  1
  Se  Se29  1  0.02941712  0.10452715  0.13394427  1
