# generated using pymatgen
data_Y2Re2Si2C
_symmetry_space_group_name_H-M   'P 1'
_cell_length_a   4.00780563
_cell_length_b   5.82986486
_cell_length_c   5.99500986
_cell_angle_alpha   71.97311641
_cell_angle_beta   70.47234514
_cell_angle_gamma   69.89567531
_symmetry_Int_Tables_number   1
_chemical_formula_structural   Y2Re2Si2C
_chemical_formula_sum   'Y2 Re2 Si2 C1'
_cell_volume   120.93948002
_cell_formula_units_Z   1
loop_
 _symmetry_equiv_pos_site_id
 _symmetry_equiv_pos_as_xyz
  1  'x, y, z'
loop_
 _atom_site_type_symbol
 _atom_site_label
 _atom_site_symmetry_multiplicity
 _atom_site_fract_x
 _atom_site_fract_y
 _atom_site_fract_z
 _atom_site_occupancy
  Y  Y0  1  0.42740575  0.84479193  0.30039657  1
  Y  Y1  1  0.57259425  0.15520807  0.69960343  1
  Re  Re2  1  0.79265308  0.32223308  0.09246077  1
  Re  Re3  1  0.20734692  0.67776692  0.90753923  1
  Si  Si4  1  0.85762653  0.60215502  0.68259192  1
  Si  Si5  1  0.14237347  0.39784498  0.31740808  1
  C  C6  1  0.00000000  -0.00000000  0.00000000  1
