# generated using pymatgen
data_CaLaFeNiO6
_symmetry_space_group_name_H-M   'P 1'
_cell_length_a   5.46323026
_cell_length_b   5.49053737
_cell_length_c   7.68370997
_cell_angle_alpha   89.72916971
_cell_angle_beta   90.00000000
_cell_angle_gamma   90.00000000
_symmetry_Int_Tables_number   1
_chemical_formula_structural   CaLaFeNiO6
_chemical_formula_sum   'Ca2 La2 Fe2 Ni2 O12'
_cell_volume   230.47852640
_cell_formula_units_Z   2
loop_
 _symmetry_equiv_pos_site_id
 _symmetry_equiv_pos_as_xyz
  1  'x, y, z'
loop_
 _atom_site_type_symbol
 _atom_site_label
 _atom_site_symmetry_multiplicity
 _atom_site_fract_x
 _atom_site_fract_y
 _atom_site_fract_z
 _atom_site_occupancy
  Ca  Ca0  1  0.53695805  0.50986059  0.24952650  1
  Ca  Ca1  1  0.96304195  0.00986059  0.74952650  1
  La  La2  1  0.02756122  0.99350008  0.25024776  1
  La  La3  1  0.47243878  0.49350008  0.75024776  1
  Fe  Fe4  1  0.49930743  0.99952530  0.00101281  1
  Fe  Fe5  1  0.00069257  0.49952530  0.50101281  1
  Ni  Ni6  1  0.49917241  0.99999248  0.49955027  1
  Ni  Ni7  1  0.00082759  0.49999248  0.99955027  1
  O  O8  1  0.01121572  0.57709274  0.74713026  1
  O  O9  1  0.22136724  0.21282351  0.95823090  1
  O  O10  1  0.21405672  0.22139450  0.54074298  1
  O  O11  1  0.28594328  0.72139450  0.04074298  1
  O  O12  1  0.27863276  0.71282351  0.45823090  1
  O  O13  1  0.48878428  0.07709274  0.24712926  1
  O  O14  1  0.51582543  0.93324034  0.75249118  1
  O  O15  1  0.72610122  0.27993683  0.53759209  1
  O  O16  1  0.72107045  0.27263363  0.96347425  1
  O  O17  1  0.77892955  0.77263363  0.46347425  1
  O  O18  1  0.77389878  0.77993683  0.03759209  1
  O  O19  1  0.98417457  0.43324034  0.25249118  1
