# generated using pymatgen
data_BaZnCuF7
_symmetry_space_group_name_H-M   'P 1'
_cell_length_a   5.61481690
_cell_length_b   9.62969662
_cell_length_c   9.97958292
_cell_angle_alpha   90.00000000
_cell_angle_beta   90.00000000
_cell_angle_gamma   93.26757545
_symmetry_Int_Tables_number   1
_chemical_formula_structural   BaZnCuF7
_chemical_formula_sum   'Ba4 Zn4 Cu4 F28'
_cell_volume   538.70866131
_cell_formula_units_Z   4
loop_
 _symmetry_equiv_pos_site_id
 _symmetry_equiv_pos_as_xyz
  1  'x, y, z'
loop_
 _atom_site_type_symbol
 _atom_site_label
 _atom_site_symmetry_multiplicity
 _atom_site_fract_x
 _atom_site_fract_y
 _atom_site_fract_z
 _atom_site_occupancy
  Ba  Ba0  1  0.25948965  0.49950025  0.31789983  1
  Ba  Ba1  1  0.74051035  0.00049975  0.81789983  1
  Ba  Ba2  1  0.74051035  0.50049975  0.68210017  1
  Ba  Ba3  1  0.25948965  0.99950025  0.18210017  1
  Zn  Zn4  1  0.69725559  0.81080361  0.39864234  1
  Zn  Zn5  1  0.30274441  0.68919639  0.89864234  1
  Zn  Zn6  1  0.69725559  0.31080361  0.10135766  1
  Zn  Zn7  1  0.30274441  0.18919639  0.60135766  1
  Cu  Cu8  1  0.19438585  0.81232725  0.61282823  1
  Cu  Cu9  1  0.80561415  0.18767275  0.38717177  1
  Cu  Cu10  1  0.19438585  0.31232725  0.88717177  1
  Cu  Cu11  1  0.80561415  0.68767275  0.11282823  1
  F  F12  1  0.10792475  0.12215481  0.44310681  1
  F  F13  1  0.36066398  0.37048360  0.04879105  1
  F  F14  1  0.47471605  0.75178548  0.70731740  1
  F  F15  1  0.52528395  0.24821452  0.29268260  1
  F  F16  1  0.88857360  0.36573267  0.45762799  1
  F  F17  1  0.26048206  0.49787619  0.80825330  1
  F  F18  1  0.02211333  0.75268249  0.77588940  1
  F  F19  1  0.11142640  0.13426733  0.95762799  1
  F  F20  1  0.36066398  0.87048360  0.45120895  1
  F  F21  1  0.52528395  0.74821452  0.20731740  1
  F  F22  1  0.10792475  0.62215481  0.05689319  1
  F  F23  1  0.89207525  0.87784519  0.55689319  1
  F  F24  1  0.97788667  0.74731751  0.27588940  1
  F  F25  1  0.38614987  0.87663262  0.95758071  1
  F  F26  1  0.11142640  0.63426733  0.54237201  1
  F  F27  1  0.88857360  0.86573267  0.04237201  1
  F  F28  1  0.97788667  0.24731751  0.22411060  1
  F  F29  1  0.89207525  0.37784519  0.94310681  1
  F  F30  1  0.61385013  0.62336738  0.45758071  1
  F  F31  1  0.63933602  0.62951640  0.95120895  1
  F  F32  1  0.61385013  0.12336738  0.04241929  1
  F  F33  1  0.02211333  0.25268249  0.72411060  1
  F  F34  1  0.38614987  0.37663262  0.54241929  1
  F  F35  1  0.73951794  0.00212381  0.30825330  1
  F  F36  1  0.73951794  0.50212381  0.19174670  1
  F  F37  1  0.26048206  0.99787619  0.69174670  1
  F  F38  1  0.63933602  0.12951640  0.54879105  1
  F  F39  1  0.47471605  0.25178548  0.79268260  1
