# generated using pymatgen
data_PuB2Ru3
_symmetry_space_group_name_H-M   'P 1'
_cell_length_a   11.13790581
_cell_length_b   11.13058729
_cell_length_c   5.88802221
_cell_angle_alpha   89.99617321
_cell_angle_beta   90.00305030
_cell_angle_gamma   120.04352906
_symmetry_Int_Tables_number   1
_chemical_formula_structural   PuB2Ru3
_chemical_formula_sum   'Pu8 B16 Ru24'
_cell_volume   631.87479227
_cell_formula_units_Z   8
loop_
 _symmetry_equiv_pos_site_id
 _symmetry_equiv_pos_as_xyz
  1  'x, y, z'
loop_
 _atom_site_type_symbol
 _atom_site_label
 _atom_site_symmetry_multiplicity
 _atom_site_fract_x
 _atom_site_fract_y
 _atom_site_fract_z
 _atom_site_occupancy
  Pu  Pu0  1  0.00000000  0.00000000  -0.00000000  1
  Pu  Pu1  1  0.00000000  0.00000000  0.50000000  1
  Pu  Pu2  1  0.50000000  0.50000000  -0.00000000  1
  Pu  Pu3  1  0.00000000  0.50000000  -0.00000000  1
  Pu  Pu4  1  0.50000000  0.00000000  -0.00000000  1
  Pu  Pu5  1  0.50000000  0.50000000  0.50000000  1
  Pu  Pu6  1  0.00000000  0.50000000  0.50000000  1
  Pu  Pu7  1  0.50000000  0.00000000  0.50000000  1
  B  B8  1  0.66717540  0.33330240  0.99973290  1
  B  B9  1  0.33282460  0.66669760  0.00026710  1
  B  B10  1  0.66716261  0.33325692  0.50005736  1
  B  B11  1  0.33283739  0.66674308  0.49994264  1
  B  B12  1  0.83383277  0.16590907  0.99929755  1
  B  B13  1  0.33155756  0.16540474  0.99955388  1
  B  B14  1  0.83353029  0.66797484  0.99941343  1
  B  B15  1  0.16616723  0.83409093  0.00070245  1
  B  B16  1  0.66844244  0.83459526  0.00044612  1
  B  B17  1  0.16646971  0.33202516  0.00058657  1
  B  B18  1  0.83355491  0.16667585  0.50037756  1
  B  B19  1  0.33220570  0.16570252  0.50042805  1
  B  B20  1  0.83255657  0.66721588  0.50048438  1
  B  B21  1  0.16644509  0.83332415  0.49962244  1
  B  B22  1  0.66779430  0.83429748  0.49957195  1
  B  B23  1  0.16744343  0.33278412  0.49951562  1
  Ru  Ru24  1  0.74971684  0.24969417  0.75024565  1
  Ru  Ru25  1  0.50009241  0.24962851  0.74992610  1
  Ru  Ru26  1  0.75020287  0.49990034  0.75039316  1
  Ru  Ru27  1  0.25028316  0.75030583  0.24975435  1
  Ru  Ru28  1  0.49990759  0.75037149  0.25007390  1
  Ru  Ru29  1  0.24979713  0.50009966  0.24960684  1
  Ru  Ru30  1  0.24942014  0.74966337  0.75016026  1
  Ru  Ru31  1  0.50037075  0.75186876  0.75025032  1
  Ru  Ru32  1  0.25080644  0.49989691  0.75040170  1
  Ru  Ru33  1  0.75057986  0.25033663  0.24983974  1
  Ru  Ru34  1  0.49962925  0.24813124  0.24974968  1
  Ru  Ru35  1  0.74919356  0.50010309  0.24959830  1
  Ru  Ru36  1  0.00036753  0.25089561  0.74943913  1
  Ru  Ru37  1  0.25090828  0.99979943  0.74929685  1
  Ru  Ru38  1  0.74923774  0.74990839  0.74976668  1
  Ru  Ru39  1  0.99963247  0.74910439  0.25056087  1
  Ru  Ru40  1  0.74909172  0.00020057  0.25070315  1
  Ru  Ru41  1  0.25076226  0.25009161  0.25023332  1
  Ru  Ru42  1  0.99969922  0.75016881  0.75042893  1
  Ru  Ru43  1  0.75006208  0.00023103  0.74980082  1
  Ru  Ru44  1  0.24960764  0.24923807  0.75084503  1
  Ru  Ru45  1  0.00030078  0.24983119  0.24957107  1
  Ru  Ru46  1  0.24993792  0.99976897  0.25019918  1
  Ru  Ru47  1  0.75039236  0.75076193  0.24915497  1
