# generated using pymatgen
data_CaLaVFeO6
_symmetry_space_group_name_H-M   'P 1'
_cell_length_a   5.59460331
_cell_length_b   5.54296920
_cell_length_c   7.70285033
_cell_angle_alpha   89.71299020
_cell_angle_beta   90.00000000
_cell_angle_gamma   90.00000000
_symmetry_Int_Tables_number   1
_chemical_formula_structural   CaLaVFeO6
_chemical_formula_sum   'Ca2 La2 V2 Fe2 O12'
_cell_volume   238.86789020
_cell_formula_units_Z   2
loop_
 _symmetry_equiv_pos_site_id
 _symmetry_equiv_pos_as_xyz
  1  'x, y, z'
loop_
 _atom_site_type_symbol
 _atom_site_label
 _atom_site_symmetry_multiplicity
 _atom_site_fract_x
 _atom_site_fract_y
 _atom_site_fract_z
 _atom_site_occupancy
  Ca  Ca0  1  0.53898015  0.51282966  0.25045128  1
  Ca  Ca1  1  0.96101985  0.01282966  0.75045128  1
  La  La2  1  0.02944281  0.98910772  0.24894784  1
  La  La3  1  0.47055719  0.48910772  0.74894784  1
  V  V4  1  0.49974350  0.99984855  0.49870496  1
  V  V5  1  0.00025650  0.49984855  0.99870496  1
  Fe  Fe6  1  0.50003190  0.99878048  0.00022056  1
  Fe  Fe7  1  0.99996810  0.49878048  0.50022056  1
  O  O8  1  0.01232322  0.58193672  0.75934308  1
  O  O9  1  0.21355758  0.21647961  0.95724687  1
  O  O10  1  0.21715297  0.21391052  0.54582127  1
  O  O11  1  0.28284703  0.71391052  0.04582127  1
  O  O12  1  0.28644242  0.71647961  0.45724687  1
  O  O13  1  0.48767678  0.08193672  0.25934208  1
  O  O14  1  0.51692281  0.92536302  0.74096727  1
  O  O15  1  0.71764322  0.28006897  0.54086958  1
  O  O16  1  0.72047253  0.28167474  0.95742629  1
  O  O17  1  0.77952747  0.78167474  0.45742629  1
  O  O18  1  0.78235678  0.78006897  0.04086958  1
  O  O19  1  0.98307719  0.42536302  0.24096727  1
