# generated using pymatgen
data_Ba2Mn2CuF14
_symmetry_space_group_name_H-M   'P 1'
_cell_length_a   5.37267712
_cell_length_b   7.58495611
_cell_length_c   15.10987016
_cell_angle_alpha   90.63223522
_cell_angle_beta   89.93838254
_cell_angle_gamma   110.90010215
_symmetry_Int_Tables_number   1
_chemical_formula_structural   Ba2Mn2CuF14
_chemical_formula_sum   'Ba4 Mn4 Cu2 F28'
_cell_volume   575.19846213
_cell_formula_units_Z   2
loop_
 _symmetry_equiv_pos_site_id
 _symmetry_equiv_pos_as_xyz
  1  'x, y, z'
loop_
 _atom_site_type_symbol
 _atom_site_label
 _atom_site_symmetry_multiplicity
 _atom_site_fract_x
 _atom_site_fract_y
 _atom_site_fract_z
 _atom_site_occupancy
  Ba  Ba0  1  0.10747913  0.35413805  0.62756659  1
  Ba  Ba1  1  0.24663995  0.35267546  0.12781440  1
  Ba  Ba2  1  0.89480941  0.64899867  0.37348855  1
  Ba  Ba3  1  0.75347422  0.64724740  0.87323460  1
  Mn  Mn4  1  0.10553469  0.25074920  0.87465524  1
  Mn  Mn5  1  0.89563436  0.74958109  0.12628556  1
  Mn  Mn6  1  0.14538267  0.25226009  0.37447574  1
  Mn  Mn7  1  0.85413702  0.75083423  0.62580750  1
  Cu  Cu8  1  0.50058535  0.00043066  0.00050362  1
  Cu  Cu9  1  0.50077706  0.00253468  0.50026862  1
  F  F10  1  0.94051931  0.00887097  0.34806786  1
  F  F11  1  0.88567776  0.27734076  0.45170321  1
  F  F12  1  0.11658783  0.72771442  0.54920358  1
  F  F13  1  0.65402031  0.50560307  0.59061185  1
  F  F14  1  0.61551999  0.12960289  0.60550144  1
  F  F15  1  0.48999091  0.87424618  0.89547522  1
  F  F16  1  0.39049671  0.27794837  0.95225686  1
  F  F17  1  0.93163434  0.99208844  0.15214238  1
  F  F18  1  0.35527264  0.34780835  0.78506816  1
  F  F19  1  0.34665133  0.49851577  0.40788047  1
  F  F20  1  0.84476871  0.25175757  0.79764762  1
  F  F21  1  0.15082089  0.49744427  0.90752682  1
  F  F22  1  0.40870151  0.25391745  0.29768719  1
  F  F23  1  0.15667262  0.74911089  0.20332256  1
  F  F24  1  0.51153352  0.12649801  0.10564900  1
  F  F25  1  0.64607364  0.65123482  0.21581715  1
  F  F26  1  0.12387124  0.83020082  0.02683716  1
  F  F27  1  0.05818241  0.99370390  0.65353518  1
  F  F28  1  0.87711669  0.17145745  0.97418838  1
  F  F29  1  0.71129144  0.83197856  0.52595889  1
  F  F30  1  0.61020804  0.72191364  0.04882626  1
  F  F31  1  0.58820531  0.74670293  0.70199640  1
  F  F32  1  0.99417167  0.34903034  0.28529351  1
  F  F33  1  0.29108563  0.17355146  0.47437299  1
  F  F34  1  0.38545099  0.87532756  0.39501357  1
  F  F35  1  0.06794930  0.00765300  0.84926253  1
  F  F36  1  0.00231158  0.65175462  0.71503889  1
  F  F37  1  0.85212181  0.50347193  0.09284046  1
