# generated using pymatgen
data_Si
_symmetry_space_group_name_H-M   'P 1'
_cell_length_a   10.01844259
_cell_length_b   10.01843594
_cell_length_c   16.11677805
_cell_angle_alpha   89.99999998
_cell_angle_beta   89.99995592
_cell_angle_gamma   119.99997717
_symmetry_Int_Tables_number   1
_chemical_formula_structural   Si
_chemical_formula_sum   Si58
_cell_volume   1400.90632448
_cell_formula_units_Z   58
loop_
 _symmetry_equiv_pos_site_id
 _symmetry_equiv_pos_as_xyz
  1  'x, y, z'
loop_
 _atom_site_type_symbol
 _atom_site_label
 _atom_site_symmetry_multiplicity
 _atom_site_fract_x
 _atom_site_fract_y
 _atom_site_fract_z
 _atom_site_occupancy
  Si  Si0  1  0.37936990  0.99897192  0.29530664  1
  Si  Si1  1  0.00102724  0.38039741  0.29530718  1
  Si  Si2  1  0.61960276  0.62062919  0.29530676  1
  Si  Si3  1  0.37936990  0.38039799  0.29530664  1
  Si  Si4  1  0.61960276  0.99897356  0.29530676  1
  Si  Si5  1  0.00102724  0.62062982  0.29530718  1
  Si  Si6  1  0.62063010  0.00102808  0.70469336  1
  Si  Si7  1  0.99897276  0.61960259  0.70469282  1
  Si  Si8  1  0.38039724  0.37937081  0.70469324  1
  Si  Si9  1  0.62063010  0.61960201  0.70469336  1
  Si  Si10  1  0.38039724  0.00102644  0.70469324  1
  Si  Si11  1  0.99897276  0.37937018  0.70469282  1
  Si  Si12  1  0.24477493  0.24412536  0.17371640  1
  Si  Si13  1  0.75587522  0.00064948  0.17371636  1
  Si  Si14  1  0.99935077  0.75522561  0.17371675  1
  Si  Si15  1  0.24477493  0.00064957  0.17371640  1
  Si  Si16  1  0.99935077  0.24412516  0.17371675  1
  Si  Si17  1  0.75587522  0.75522574  0.17371636  1
  Si  Si18  1  0.75522507  0.75587464  0.82628360  1
  Si  Si19  1  0.24412478  0.99935052  0.82628364  1
  Si  Si20  1  0.00064923  0.24477439  0.82628325  1
  Si  Si21  1  0.75522507  0.99935043  0.82628360  1
  Si  Si22  1  0.00064923  0.75587484  0.82628325  1
  Si  Si23  1  0.24412478  0.24477426  0.82628364  1
  Si  Si24  1  0.42118436  0.08764947  0.05810978  1
  Si  Si25  1  0.91235043  0.33353488  0.05810994  1
  Si  Si26  1  0.66646527  0.57881552  0.05810974  1
  Si  Si27  1  0.42118436  0.33353489  0.05810978  1
  Si  Si28  1  0.66646527  0.08764974  0.05810974  1
  Si  Si29  1  0.91235043  0.57881555  0.05810994  1
  Si  Si30  1  0.57881564  0.91235053  0.94189022  1
  Si  Si31  1  0.08764957  0.66646512  0.94189006  1
  Si  Si32  1  0.33353473  0.42118448  0.94189026  1
  Si  Si33  1  0.57881564  0.66646511  0.94189022  1
  Si  Si34  1  0.33353473  0.91235026  0.94189026  1
  Si  Si35  1  0.08764957  0.42118445  0.94189006  1
  Si  Si36  1  0.26682663  0.13341331  0.49948263  1
  Si  Si37  1  0.86658629  0.13341410  0.49948244  1
  Si  Si38  1  0.86658629  0.73317219  0.49948244  1
  Si  Si39  1  0.73317337  0.86658669  0.50051737  1
  Si  Si40  1  0.13341371  0.86658590  0.50051756  1
  Si  Si41  1  0.13341371  0.26682781  0.50051756  1
  Si  Si42  1  0.41737897  0.20868948  0.62162258  1
  Si  Si43  1  0.79131007  0.20869006  0.62162262  1
  Si  Si44  1  0.79131007  0.58262001  0.62162262  1
  Si  Si45  1  0.58262103  0.79131052  0.37837742  1
  Si  Si46  1  0.20868993  0.79130994  0.37837738  1
  Si  Si47  1  0.20868993  0.41737999  0.37837738  1
  Si  Si48  1  0.41701963  0.20850981  0.37699438  1
  Si  Si49  1  0.79148876  0.20851122  0.37699467  1
  Si  Si50  1  0.79148876  0.58297754  0.37699467  1
  Si  Si51  1  0.58298037  0.79149019  0.62300562  1
  Si  Si52  1  0.20851124  0.79148878  0.62300533  1
  Si  Si53  1  0.20851124  0.41702246  0.62300533  1
  Si  Si54  1  0.66666374  0.33333187  0.42710457  1
  Si  Si55  1  0.33333626  0.66666813  0.57289543  1
  Si  Si56  1  0.66666404  0.33333202  0.57138087  1
  Si  Si57  1  0.33333596  0.66666798  0.42861913  1
