# generated using pymatgen
data_NaCdIn2(PO4)3
_symmetry_space_group_name_H-M   'P 1'
_cell_length_a   6.69403820
_cell_length_b   9.13587036
_cell_length_c   9.13587018
_cell_angle_alpha   91.62272385
_cell_angle_beta   107.44731878
_cell_angle_gamma   107.44731738
_symmetry_Int_Tables_number   1
_chemical_formula_structural   NaCdIn2(PO4)3
_chemical_formula_sum   'Na2 Cd2 In4 P6 O24'
_cell_volume   504.17751511
_cell_formula_units_Z   2
loop_
 _symmetry_equiv_pos_site_id
 _symmetry_equiv_pos_as_xyz
  1  'x, y, z'
loop_
 _atom_site_type_symbol
 _atom_site_label
 _atom_site_symmetry_multiplicity
 _atom_site_fract_x
 _atom_site_fract_y
 _atom_site_fract_z
 _atom_site_occupancy
  Na  Na0  1  0.00000000  0.50000000  0.50000000  1
  Na  Na1  1  0.50000000  0.50000000  0.50000000  1
  Cd  Cd2  1  0.25000000  0.26048600  0.73951400  1
  Cd  Cd3  1  0.75000000  0.73951400  0.26048600  1
  In  In4  1  0.36884824  0.93040610  0.62900845  1
  In  In5  1  0.13115176  0.37099155  0.06959390  1
  In  In6  1  0.86884824  0.62900845  0.93040610  1
  In  In7  1  0.63115176  0.06959390  0.37099155  1
  P  P8  1  0.36607449  0.64749026  0.86564042  1
  P  P9  1  0.75000000  0.28714974  0.71285026  1
  P  P10  1  0.13392551  0.13435958  0.35250974  1
  P  P11  1  0.86607449  0.86564042  0.64749026  1
  P  P12  1  0.25000000  0.71285026  0.28714974  1
  P  P13  1  0.63392551  0.35250974  0.13435958  1
  O  O14  1  0.96004671  0.26430026  0.82824383  1
  O  O15  1  0.18056871  0.27190975  0.47361483  1
  O  O16  1  0.18744240  0.59138873  0.95038225  1
  O  O17  1  0.26090953  0.54652075  0.26720071  1
  O  O18  1  0.14204453  0.18498320  0.19542584  1
  O  O19  1  0.40496819  0.33388685  0.01008593  1
  O  O20  1  0.46004671  0.82824383  0.26430026  1
  O  O21  1  0.68056871  0.47361483  0.27190975  1
  O  O22  1  0.68744240  0.95038225  0.59138873  1
  O  O23  1  0.76090953  0.26720071  0.54652075  1
  O  O24  1  0.64204453  0.19542584  0.18498320  1
  O  O25  1  0.09503181  0.98991407  0.66611315  1
  O  O26  1  0.90496819  0.01008593  0.33388685  1
  O  O27  1  0.35795547  0.80457416  0.81501680  1
  O  O28  1  0.23909047  0.73279929  0.45347925  1
  O  O29  1  0.31255760  0.04961775  0.40861127  1
  O  O30  1  0.31943129  0.52638517  0.72809025  1
  O  O31  1  0.53995329  0.17175617  0.73569974  1
  O  O32  1  0.59503181  0.66611315  0.98991407  1
  O  O33  1  0.85795547  0.81501680  0.80457416  1
  O  O34  1  0.73909047  0.45347925  0.73279929  1
  O  O35  1  0.81255760  0.40861127  0.04961775  1
  O  O36  1  0.81943129  0.72809025  0.52638517  1
  O  O37  1  0.03995329  0.73569974  0.17175617  1
