# generated using pymatgen
data_Er2TeO2
_symmetry_space_group_name_H-M   'P 1'
_cell_length_a   3.90146303
_cell_length_b   3.90145960
_cell_length_c   6.79157322
_cell_angle_alpha   73.30930857
_cell_angle_beta   73.30853088
_cell_angle_gamma   89.99827422
_symmetry_Int_Tables_number   1
_chemical_formula_structural   Er2TeO2
_chemical_formula_sum   'Er2 Te1 O2'
_cell_volume   94.46578219
_cell_formula_units_Z   1
loop_
 _symmetry_equiv_pos_site_id
 _symmetry_equiv_pos_as_xyz
  1  'x, y, z'
loop_
 _atom_site_type_symbol
 _atom_site_label
 _atom_site_symmetry_multiplicity
 _atom_site_fract_x
 _atom_site_fract_y
 _atom_site_fract_z
 _atom_site_occupancy
  Er  Er0  1  0.66352316  0.66352047  0.67288523  1
  Er  Er1  1  0.33647548  0.33647763  0.32711455  1
  Te  Te2  1  0.00000302  0.00000359  0.99999881  1
  O  O3  1  0.25000532  0.74999575  0.50000111  1
  O  O4  1  0.74999201  0.25000356  0.49999930  1
