# generated using pymatgen
data_Na4Al3Si3CNO13
_symmetry_space_group_name_H-M   'P 1'
_cell_length_a   9.18848891
_cell_length_b   8.99688388
_cell_length_c   8.99688388
_cell_angle_alpha   89.98902304
_cell_angle_beta   90.00000000
_cell_angle_gamma   90.00000000
_symmetry_Int_Tables_number   1
_chemical_formula_structural   Na4Al3Si3CNO13
_chemical_formula_sum   'Na8 Al6 Si6 C2 N2 O26'
_cell_volume   743.75229368
_cell_formula_units_Z   2
loop_
 _symmetry_equiv_pos_site_id
 _symmetry_equiv_pos_as_xyz
  1  'x, y, z'
loop_
 _atom_site_type_symbol
 _atom_site_label
 _atom_site_symmetry_multiplicity
 _atom_site_fract_x
 _atom_site_fract_y
 _atom_site_fract_z
 _atom_site_occupancy
  Na  Na0  1  0.19725137  0.19138627  0.19147621  1
  Na  Na1  1  0.19725137  0.80861373  0.80852379  1
  Na  Na2  1  0.30361925  0.31096857  0.68891946  1
  Na  Na3  1  0.30361925  0.68903143  0.31108054  1
  Na  Na4  1  0.69725137  0.30852379  0.30861373  1
  Na  Na5  1  0.69725137  0.69147621  0.69138627  1
  Na  Na6  1  0.80361925  0.18891946  0.81096857  1
  Na  Na7  1  0.80361925  0.81108054  0.18903143  1
  Al  Al8  1  0.00021583  0.50017753  0.24914435  1
  Al  Al9  1  0.24986454  0.00000000  0.50000000  1
  Al  Al10  1  0.50021583  0.74914435  0.00017753  1
  Al  Al11  1  0.50021583  0.25085565  0.99982247  1
  Al  Al12  1  0.74986454  0.00000000  0.50000000  1
  Al  Al13  1  0.00021583  0.49982247  0.75085565  1
  Si  Si14  1  0.99986006  0.24857959  0.50014337  1
  Si  Si15  1  0.25005725  0.50000000  -0.00000000  1
  Si  Si16  1  0.49986006  0.00014337  0.74857959  1
  Si  Si17  1  0.49986006  0.99985663  0.25142041  1
  Si  Si18  1  0.75005725  0.50000000  -0.00000000  1
  Si  Si19  1  0.99986006  0.75142041  0.49985663  1
  C  C20  1  -0.00000620  0.00000000  -0.00000000  1
  C  C21  1  0.49999380  0.50000000  0.50000000  1
  N  N22  1  0.36935551  0.50000000  0.50000000  1
  N  N23  1  0.86935551  0.00000000  -0.00000000  1
  O  O24  1  0.05220434  0.34536275  0.64447210  1
  O  O25  1  0.05220434  0.65463725  0.35552790  1
  O  O26  1  0.13998593  0.14994812  0.44449509  1
  O  O27  1  0.13998593  0.85005188  0.55550491  1
  O  O28  1  0.13407747  0.00000000  -0.00000000  1
  O  O29  1  0.15024221  0.44429515  0.14044970  1
  O  O30  1  0.15024221  0.55570485  0.85955030  1
  O  O31  1  0.34923611  0.35895646  0.94497757  1
  O  O32  1  0.34923611  0.64104354  0.05502243  1
  O  O33  1  0.35895334  0.05477709  0.65048816  1
  O  O34  1  0.35895334  0.94522291  0.34951184  1
  O  O35  1  0.44675726  0.14322889  0.15320144  1
  O  O36  1  0.44675726  0.85677111  0.84679856  1
  O  O37  1  0.55220434  0.14447210  0.84536275  1
  O  O38  1  0.55220434  0.85552790  0.15463725  1
  O  O39  1  0.63998593  0.05550491  0.35005188  1
  O  O40  1  0.63998593  0.94449509  0.64994812  1
  O  O41  1  0.63407747  0.50000000  0.50000000  1
  O  O42  1  0.65024221  0.35955030  0.05570485  1
  O  O43  1  0.65024221  0.64044970  0.94429515  1
  O  O44  1  0.84923611  0.55502243  0.14104354  1
  O  O45  1  0.84923611  0.44497757  0.85895646  1
  O  O46  1  0.85895334  0.15048816  0.55477709  1
  O  O47  1  0.85895334  0.84951184  0.44522291  1
  O  O48  1  0.94675726  0.34679856  0.35677111  1
  O  O49  1  0.94675726  0.65320144  0.64322889  1
