# generated using pymatgen
data_Na3Mg4ScSi8(O11F)2
_symmetry_space_group_name_H-M   'P 1'
_cell_length_a   10.72172818
_cell_length_b   9.93100338
_cell_length_c   10.37403032
_cell_angle_alpha   61.44758740
_cell_angle_beta   83.71012964
_cell_angle_gamma   76.79875537
_symmetry_Int_Tables_number   1
_chemical_formula_structural   Na3Mg4ScSi8(O11F)2
_chemical_formula_sum   'Na6 Mg8 Sc2 Si16 O44 F4'
_cell_volume   944.61946833
_cell_formula_units_Z   2
loop_
 _symmetry_equiv_pos_site_id
 _symmetry_equiv_pos_as_xyz
  1  'x, y, z'
loop_
 _atom_site_type_symbol
 _atom_site_label
 _atom_site_symmetry_multiplicity
 _atom_site_fract_x
 _atom_site_fract_y
 _atom_site_fract_z
 _atom_site_occupancy
  Na  Na0  1  0.99982152  0.50180076  0.99845026  1
  Na  Na1  1  0.24500846  0.27532649  0.44898376  1
  Na  Na2  1  0.25499154  0.72467351  0.55101624  1
  Na  Na3  1  0.50017848  0.49819924  0.00154974  1
  Na  Na4  1  0.75513661  0.27539792  0.44861331  1
  Na  Na5  1  0.74486339  0.72460208  0.55138669  1
  Mg  Mg6  1  0.00005593  0.00115638  0.99758981  1
  Mg  Mg7  1  0.24763002  0.08739883  0.82389879  1
  Mg  Mg8  1  0.25236998  0.91260117  0.17610121  1
  Mg  Mg9  1  0.49994407  0.99884362  0.00241019  1
  Mg  Mg10  1  0.50014585  0.81817190  0.36312416  1
  Mg  Mg11  1  0.75225865  0.08892167  0.82389360  1
  Mg  Mg12  1  0.74774135  0.91107833  0.17610640  1
  Mg  Mg13  1  0.99985415  0.18182810  0.63687584  1
  Sc  Sc14  1  0.50002895  0.18283330  0.63434494  1
  Sc  Sc15  1  -0.00002895  0.81716670  0.36565506  1
  Si  Si16  1  0.10393505  0.11920094  0.34075670  1
  Si  Si17  1  0.10467804  0.45366225  0.66461530  1
  Si  Si18  1  0.14314033  0.63374629  0.16645928  1
  Si  Si19  1  0.14288137  0.80315893  0.83056740  1
  Si  Si20  1  0.35711863  0.19684107  0.16943260  1
  Si  Si21  1  0.35685967  0.36625371  0.83354072  1
  Si  Si22  1  0.39532196  0.54633775  0.33538470  1
  Si  Si23  1  0.39606495  0.88079906  0.65924330  1
  Si  Si24  1  0.60476172  0.11757559  0.33572970  1
  Si  Si25  1  0.60396723  0.45976793  0.65998702  1
  Si  Si26  1  0.64284412  0.63397699  0.16868944  1
  Si  Si27  1  0.64279360  0.80077813  0.83280388  1
  Si  Si28  1  0.85720640  0.19922187  0.16719612  1
  Si  Si29  1  0.85715588  0.36602301  0.83131056  1
  Si  Si30  1  0.89603277  0.54023207  0.34001298  1
  Si  Si31  1  0.89523828  0.88242441  0.66427030  1
  O  O32  1  0.03376732  0.52797951  0.24772890  1
  O  O33  1  0.10043880  0.11110426  0.49789845  1
  O  O34  1  0.03371993  0.77522568  0.75113198  1
  O  O35  1  0.10007273  0.60849570  0.50675070  1
  O  O36  1  0.13805321  0.28471122  0.66862911  1
  O  O37  1  0.10802423  0.80212736  0.16692400  1
  O  O38  1  0.14705506  0.65415052  0.99862195  1
  O  O39  1  0.21496557  0.22325990  0.23985133  1
  O  O40  1  0.13588866  0.95437955  0.33147316  1
  O  O41  1  0.10691701  0.96900260  0.83337500  1
  O  O42  1  0.21551277  0.46428666  0.76086125  1
  O  O43  1  0.28448723  0.53571334  0.23913875  1
  O  O44  1  0.35294494  0.34584948  0.00137805  1
  O  O45  1  0.39308299  0.03099740  0.16662500  1
  O  O46  1  0.36411134  0.04562045  0.66852684  1
  O  O47  1  0.28503443  0.77674010  0.76014867  1
  O  O48  1  0.39197577  0.19787264  0.83307600  1
  O  O49  1  0.36194679  0.71528878  0.33137089  1
  O  O50  1  0.39992727  0.39150430  0.49324930  1
  O  O51  1  0.46628007  0.22477432  0.24886802  1
  O  O52  1  0.39956120  0.88889574  0.50210155  1
  O  O53  1  0.46623268  0.47202049  0.75227110  1
  O  O54  1  0.53387287  0.52637571  0.24833548  1
  O  O55  1  0.60031934  0.11469882  0.49363193  1
  O  O56  1  0.53392029  0.77624901  0.75096098  1
  O  O57  1  0.60028969  0.60886655  0.50294116  1
  O  O58  1  0.63585449  0.28593430  0.66873429  1
  O  O59  1  0.60688183  0.80241292  0.16637884  1
  O  O60  1  0.64650287  0.65338269  0.00047046  1
  O  O61  1  0.71563535  0.22433816  0.23955040  1
  O  O62  1  0.63816856  0.95275537  0.33159673  1
  O  O63  1  0.60764883  0.96948107  0.83269568  1
  O  O64  1  0.71494641  0.46282278  0.76114813  1
  O  O65  1  0.78505359  0.53717722  0.23885187  1
  O  O66  1  0.85349713  0.34661731  0.99952954  1
  O  O67  1  0.89235117  0.03051893  0.16730432  1
  O  O68  1  0.86183144  0.04724463  0.66840327  1
  O  O69  1  0.78436465  0.77566184  0.76044960  1
  O  O70  1  0.89311817  0.19758708  0.83362116  1
  O  O71  1  0.86414551  0.71406570  0.33126571  1
  O  O72  1  0.89971031  0.39113345  0.49705884  1
  O  O73  1  0.96607971  0.22375099  0.24903902  1
  O  O74  1  0.89968066  0.88530118  0.50636807  1
  O  O75  1  0.96612713  0.47362429  0.75166452  1
  F  F76  1  0.14621088  0.10109359  0.00096554  1
  F  F77  1  0.35378912  0.89890641  0.99903446  1
  F  F78  1  0.64628546  0.10179544  0.99939099  1
  F  F79  1  0.85371454  0.89820456  0.00060901  1
