# generated using pymatgen
data_Rb8Ti3Cr2Ni3(P2O7)8
_symmetry_space_group_name_H-M   'P 1'
_cell_length_a   7.65960533
_cell_length_b   8.38356110
_cell_length_c   20.24913995
_cell_angle_alpha   90.03659626
_cell_angle_beta   90.03274684
_cell_angle_gamma   105.80263306
_symmetry_Int_Tables_number   1
_chemical_formula_structural   Rb8Ti3Cr2Ni3(P2O7)8
_chemical_formula_sum   'Rb8 Ti3 Cr2 Ni3 P16 O56'
_cell_volume   1251.14923585
_cell_formula_units_Z   1
loop_
 _symmetry_equiv_pos_site_id
 _symmetry_equiv_pos_as_xyz
  1  'x, y, z'
loop_
 _atom_site_type_symbol
 _atom_site_label
 _atom_site_symmetry_multiplicity
 _atom_site_fract_x
 _atom_site_fract_y
 _atom_site_fract_z
 _atom_site_occupancy
  Rb  Rb0  1  0.18231289  0.55123396  0.40302459  1
  Rb  Rb1  1  0.19103458  0.54242182  0.90477981  1
  Rb  Rb2  1  0.18689774  0.06118239  0.34373359  1
  Rb  Rb3  1  0.19166060  0.04860184  0.84244144  1
  Rb  Rb4  1  0.81313924  0.96337728  0.15747165  1
  Rb  Rb5  1  0.80968611  0.94386922  0.65629699  1
  Rb  Rb6  1  0.80773589  0.43714586  0.09694086  1
  Rb  Rb7  1  0.81337953  0.45441266  0.59688702  1
  Ti  Ti8  1  0.23843455  0.75868938  0.20109376  1
  Ti  Ti9  1  0.23875767  0.25791407  0.55054355  1
  Ti  Ti10  1  0.76249232  0.74141972  0.95075039  1
  Cr  Cr11  1  0.75920595  0.74095801  0.44826108  1
  Cr  Cr12  1  0.76277997  0.24032916  0.79906232  1
  Ni  Ni13  1  0.23776698  0.75966351  0.70079674  1
  Ni  Ni14  1  0.23722980  0.25942362  0.04970886  1
  Ni  Ni15  1  0.76092707  0.24115935  0.30140277  1
  P  P16  1  0.12729937  0.83249319  0.04833934  1
  P  P17  1  0.12701463  0.82883981  0.54778591  1
  P  P18  1  0.13208790  0.32931607  0.20214830  1
  P  P19  1  0.12857784  0.33165750  0.70267080  1
  P  P20  1  0.42620715  0.68846516  0.06366671  1
  P  P21  1  0.43105043  0.68524721  0.56553108  1
  P  P22  1  0.57464796  0.81235484  0.31428039  1
  P  P23  1  0.56730401  0.81323943  0.81602734  1
  P  P24  1  0.43546101  0.18409139  0.18242632  1
  P  P25  1  0.43031933  0.18877006  0.68667701  1
  P  P26  1  0.57425800  0.31581596  0.43574358  1
  P  P27  1  0.56505446  0.31337620  0.93231659  1
  P  P28  1  0.87178659  0.66856035  0.29790070  1
  P  P29  1  0.86814786  0.66821831  0.79838036  1
  P  P30  1  0.87136250  0.16776696  0.45251298  1
  P  P31  1  0.86814304  0.17080344  0.95106273  1
  O  O32  1  0.01894729  0.77322921  0.24978652  1
  O  O33  1  0.00580283  0.77867065  0.75317671  1
  O  O34  1  0.09073727  0.75658750  0.11858968  1
  O  O35  1  0.07859201  0.76537870  0.61729435  1
  O  O36  1  0.00435089  0.27360887  0.99866739  1
  O  O37  1  0.01587287  0.26573188  0.50283904  1
  O  O38  1  0.16510821  0.52110964  0.20698411  1
  O  O39  1  0.13998154  0.51131169  0.70562986  1
  O  O40  1  0.08070138  0.26869225  0.13221863  1
  O  O41  1  0.09468111  0.25974163  0.63106074  1
  O  O42  1  0.31908999  0.80452042  0.02442146  1
  O  O43  1  0.31813416  0.79533601  0.52561394  1
  O  O44  1  0.13714690  0.01110985  0.04404309  1
  O  O45  1  0.16037799  0.01814420  0.54199269  1
  O  O46  1  0.38305474  0.76276843  0.28231981  1
  O  O47  1  0.37320076  0.76442998  0.79254128  1
  O  O48  1  0.32458989  0.51275560  0.05024002  1
  O  O49  1  0.32213592  0.50354600  0.55128698  1
  O  O50  1  0.43681704  0.74493617  0.13694775  1
  O  O51  1  0.44466681  0.73283178  0.63782685  1
  O  O52  1  0.32682017  0.29883612  0.22166373  1
  O  O53  1  0.32325341  0.30596088  0.72510648  1
  O  O54  1  0.38675258  0.26965011  0.47072271  1
  O  O55  1  0.37399386  0.26833070  0.95866894  1
  O  O56  1  0.32230614  0.00163279  0.19800851  1
  O  O57  1  0.32668060  0.01299408  0.70025042  1
  O  O58  1  0.55429781  0.75242808  0.38661499  1
  O  O59  1  0.57149294  0.76514654  0.89084723  1
  O  O60  1  0.44126751  0.22641929  0.10948478  1
  O  O61  1  0.43349526  0.24100388  0.61238725  1
  O  O62  1  0.67940192  0.98811087  0.30223200  1
  O  O63  1  0.67854811  0.98931525  0.80128394  1
  O  O64  1  0.61901041  0.73117460  0.53362731  1
  O  O65  1  0.61939169  0.74071475  0.03396950  1
  O  O66  1  0.68076750  0.69747068  0.27354695  1
  O  O67  1  0.67083645  0.69246757  0.77863657  1
  O  O68  1  0.55007577  0.26198790  0.36428240  1
  O  O69  1  0.56399359  0.26730410  0.85861941  1
  O  O70  1  0.68326575  0.49308789  0.44968990  1
  O  O71  1  0.67441234  0.49462231  0.94804470  1
  O  O72  1  0.62322773  0.22598210  0.21242967  1
  O  O73  1  0.62586569  0.24325254  0.71230366  1
  O  O74  1  0.84687203  0.98409683  0.45849279  1
  O  O75  1  0.84335398  0.98216851  0.95601904  1
  O  O76  1  0.68234797  0.20224181  0.47624186  1
  O  O77  1  0.67270762  0.19784664  0.97124840  1
  O  O78  1  0.91446754  0.74858113  0.36670877  1
  O  O79  1  0.90455649  0.73363251  0.87122192  1
  O  O80  1  0.85814717  0.48886118  0.29381918  1
  O  O81  1  0.85399263  0.48571225  0.79526086  1
  O  O82  1  0.98881765  0.73140285  0.49755735  1
  O  O83  1  0.98040120  0.72420714  0.00173263  1
  O  O84  1  0.92140500  0.24248729  0.38481589  1
  O  O85  1  0.91238637  0.23328254  0.87982406  1
  O  O86  1  -0.00007315  0.23335028  0.25290795  1
  O  O87  1  0.98530773  0.21897786  0.74758179  1
