# generated using pymatgen
data_Na2Ca29ZrSi16(O7F2)8
_symmetry_space_group_name_H-M   'P 1'
_cell_length_a   7.57338601
_cell_length_b   10.59010255
_cell_length_c   22.09533417
_cell_angle_alpha   90.09769248
_cell_angle_beta   109.41428897
_cell_angle_gamma   90.07178944
_symmetry_Int_Tables_number   1
_chemical_formula_structural   Na2Ca29ZrSi16(O7F2)8
_chemical_formula_sum   'Na2 Ca29 Zr1 Si16 O56 F16'
_cell_volume   1671.34251660
_cell_formula_units_Z   1
loop_
 _symmetry_equiv_pos_site_id
 _symmetry_equiv_pos_as_xyz
  1  'x, y, z'
loop_
 _atom_site_type_symbol
 _atom_site_label
 _atom_site_symmetry_multiplicity
 _atom_site_fract_x
 _atom_site_fract_y
 _atom_site_fract_z
 _atom_site_occupancy
  Na  Na0  1  0.34301378  0.11901203  0.46168955  1
  Na  Na1  1  0.65891199  0.64003333  0.28283836  1
  Ca  Ca2  1  0.02869639  0.41380446  0.90712792  1
  Ca  Ca3  1  0.02819798  0.08865263  0.65687927  1
  Ca  Ca4  1  0.16318014  0.63364527  0.79257004  1
  Ca  Ca5  1  0.33137486  0.13757391  0.96298228  1
  Ca  Ca6  1  0.16235580  0.86652400  0.53983476  1
  Ca  Ca7  1  0.32978210  0.36311384  0.71125800  1
  Ca  Ca8  1  0.46968004  0.90292495  0.85006079  1
  Ca  Ca9  1  0.02959549  0.08712001  0.15684190  1
  Ca  Ca10  1  0.52908457  0.40244238  0.89946431  1
  Ca  Ca11  1  0.15677614  0.64132145  0.28498850  1
  Ca  Ca12  1  0.47775341  0.60054021  0.60248545  1
  Ca  Ca13  1  0.52590826  0.09794264  0.64707522  1
  Ca  Ca14  1  0.16350561  0.86659975  0.04200510  1
  Ca  Ca15  1  0.66804138  0.63656752  0.78716559  1
  Ca  Ca16  1  0.33192852  0.37000683  0.21290040  1
  Ca  Ca17  1  0.83700286  0.13453049  0.95762289  1
  Ca  Ca18  1  0.47101574  0.90391845  0.34703127  1
  Ca  Ca19  1  0.53172106  0.41628525  0.40461606  1
  Ca  Ca20  1  0.67298388  0.86724988  0.54133528  1
  Ca  Ca21  1  0.83506737  0.36549232  0.70743689  1
  Ca  Ca22  1  0.47390157  0.59934735  0.10242515  1
  Ca  Ca23  1  0.97104658  0.91382779  0.84307679  1
  Ca  Ca24  1  0.52593659  0.09887708  0.14823387  1
  Ca  Ca25  1  0.83587590  0.12875565  0.45880788  1
  Ca  Ca26  1  0.97157704  0.58750172  0.59386333  1
  Ca  Ca27  1  0.66899862  0.86445317  0.03752612  1
  Ca  Ca28  1  0.83653842  0.36623779  0.20854856  1
  Ca  Ca29  1  0.97355245  0.90774209  0.34567028  1
  Ca  Ca30  1  0.96896170  0.58796452  0.09142880  1
  Zr  Zr31  1  0.02976156  0.40382959  0.40665841  1
  Si  Si32  1  0.22603556  0.19126884  0.81554351  1
  Si  Si33  1  0.34729367  0.68901591  0.93900238  1
  Si  Si34  1  0.22853468  0.31756031  0.56361656  1
  Si  Si35  1  0.34628042  0.81424502  0.68877025  1
  Si  Si36  1  0.22824001  0.19271553  0.31785018  1
  Si  Si37  1  0.34670066  0.67472758  0.43987240  1
  Si  Si38  1  0.65119842  0.18865987  0.81026994  1
  Si  Si39  1  0.77231926  0.69170897  0.93344906  1
  Si  Si40  1  0.22677621  0.31045355  0.06650347  1
  Si  Si41  1  0.34592498  0.81385046  0.18707634  1
  Si  Si42  1  0.64982094  0.31197277  0.55909583  1
  Si  Si43  1  0.77445859  0.80989365  0.68495431  1
  Si  Si44  1  0.65267077  0.19203494  0.31315817  1
  Si  Si45  1  0.77600645  0.67929801  0.43397387  1
  Si  Si46  1  0.65287973  0.31206089  0.06153907  1
  Si  Si47  1  0.77180845  0.81281783  0.18370364  1
  O  O48  1  0.08849050  0.26725685  0.99566766  1
  O  O49  1  0.08936972  0.23513892  0.74447704  1
  O  O50  1  0.22021726  0.77726075  0.87994668  1
  O  O51  1  0.22791899  0.27790509  0.87727931  1
  O  O52  1  0.21554137  0.04322928  0.83260502  1
  O  O53  1  0.30305215  0.54127091  0.91895017  1
  O  O54  1  0.07399854  0.29562183  0.49062820  1
  O  O55  1  0.21934290  0.72838973  0.62820302  1
  O  O56  1  0.21923735  0.22327286  0.62105268  1
  O  O57  1  0.22683336  0.46219300  0.58746728  1
  O  O58  1  0.30436627  0.96294331  0.67163720  1
  O  O59  1  0.35788070  0.76877870  0.76075144  1
  O  O60  1  0.43565686  0.22849553  0.80998425  1
  O  O61  1  0.10322160  0.23808246  0.24593066  1
  O  O62  1  0.56322270  0.72841889  0.93945106  1
  O  O63  1  0.23858917  0.76733168  0.38056640  1
  O  O64  1  0.20333643  0.28388282  0.37555396  1
  O  O65  1  0.64105557  0.26890806  0.98906921  1
  O  O66  1  0.21613697  0.04473782  0.33337217  1
  O  O67  1  0.25704653  0.52994919  0.42833263  1
  O  O68  1  0.37655263  0.73224358  0.51082551  1
  O  O69  1  0.42833541  0.27616134  0.55353366  1
  O  O70  1  0.56309556  0.77428447  0.68975251  1
  O  O71  1  0.21942551  0.72302617  0.12888005  1
  O  O72  1  0.22930775  0.22430118  0.12826492  1
  O  O73  1  0.63549158  0.23056402  0.73719730  1
  O  O74  1  0.69527611  0.04104373  0.82951143  1
  O  O75  1  0.21865772  0.45818167  0.08471014  1
  O  O76  1  0.78172726  0.54345830  0.91580036  1
  O  O77  1  0.30054572  0.96117623  0.16602639  1
  O  O78  1  0.34760659  0.77895856  0.25881922  1
  O  O79  1  0.76938374  0.77810410  0.87164321  1
  O  O80  1  0.77928114  0.27705877  0.86927723  1
  O  O81  1  0.44992261  0.23321328  0.32362787  1
  O  O82  1  0.55900241  0.64624682  0.43484881  1
  O  O83  1  0.65499511  0.27624828  0.48773275  1
  O  O84  1  0.69548927  0.45935434  0.58064068  1
  O  O85  1  0.78411074  0.95712912  0.66576360  1
  O  O86  1  0.36092552  0.73055984  0.01168595  1
  O  O87  1  0.77368899  0.72134260  0.62406709  1
  O  O88  1  0.76994003  0.22195218  0.61887579  1
  O  O89  1  0.43582193  0.27250138  0.06016853  1
  O  O90  1  0.91083712  0.76626777  0.75550588  1
  O  O91  1  0.56134025  0.77655073  0.18787548  1
  O  O92  1  0.62905780  0.23152696  0.23982538  1
  O  O93  1  0.70539222  0.04756264  0.33542842  1
  O  O94  1  0.84301066  0.53447587  0.42293377  1
  O  O95  1  0.75804152  0.77392753  0.37489318  1
  O  O96  1  0.79693985  0.28504253  0.36832292  1
  O  O97  1  0.89189443  0.73605701  0.50466458  1
  O  O98  1  0.69657119  0.45988240  0.08019538  1
  O  O99  1  0.77823725  0.96020027  0.16356114  1
  O  O100  1  0.77337428  0.72362328  0.12289848  1
  O  O101  1  0.77879619  0.22506791  0.12159289  1
  O  O102  1  0.91557051  0.77654087  0.25440923  1
  O  O103  1  0.91051842  0.73559101  0.00392335  1
  F  F104  1  0.07434456  0.00091999  0.94786693  1
  F  F105  1  0.07372879  0.49988597  0.69796216  1
  F  F106  1  0.06893600  0.99732646  0.44907520  1
  F  F107  1  0.42641022  0.50456827  0.79965428  1
  F  F108  1  0.06802144  0.50160514  0.19716440  1
  F  F109  1  0.57146025  0.00642108  0.94896692  1
  F  F110  1  0.42974799  0.98823069  0.55236595  1
  F  F111  1  0.57420918  0.49487970  0.70002986  1
  F  F112  1  0.41457955  0.50364652  0.30441477  1
  F  F113  1  0.58810764  0.98735891  0.44955241  1
  F  F114  1  0.42656055  0.99578060  0.04933876  1
  F  F115  1  0.92497760  0.49959537  0.80143785  1
  F  F116  1  0.57570616  0.49090656  0.19987496  1
  F  F117  1  0.92967661  0.00262805  0.55259897  1
  F  F118  1  0.94727699  0.48570317  0.30918915  1
  F  F119  1  0.92489989  0.00192668  0.05107033  1
