# generated using pymatgen
data_RbSn2(PO4)3
_symmetry_space_group_name_H-M   'P 1'
_cell_length_a   9.47764733
_cell_length_b   9.47766401
_cell_length_c   9.47766311
_cell_angle_alpha   52.99186943
_cell_angle_beta   52.99195326
_cell_angle_gamma   52.99194176
_symmetry_Int_Tables_number   1
_chemical_formula_structural   RbSn2(PO4)3
_chemical_formula_sum   'Rb2 Sn4 P6 O24'
_cell_volume   503.10275561
_cell_formula_units_Z   2
loop_
 _symmetry_equiv_pos_site_id
 _symmetry_equiv_pos_as_xyz
  1  'x, y, z'
loop_
 _atom_site_type_symbol
 _atom_site_label
 _atom_site_symmetry_multiplicity
 _atom_site_fract_x
 _atom_site_fract_y
 _atom_site_fract_z
 _atom_site_occupancy
  Rb  Rb0  1  0.49992076  0.50000790  0.50000681  1
  Rb  Rb1  1  0.99999631  0.00000221  0.00000121  1
  Sn  Sn2  1  0.35019858  0.35019706  0.35019742  1
  Sn  Sn3  1  0.64979981  0.64979759  0.64979810  1
  Sn  Sn4  1  0.84453776  0.84453910  0.84453432  1
  Sn  Sn5  1  0.15546028  0.15546362  0.15546780  1
  P  P6  1  0.96202636  0.24820157  0.53818694  1
  P  P7  1  0.24819414  0.53818567  0.96203197  1
  P  P8  1  0.53818897  0.96202434  0.24819580  1
  P  P9  1  0.03796619  0.75180233  0.46181307  1
  P  P10  1  0.75180712  0.46181440  0.03796588  1
  P  P11  1  0.46181205  0.03797071  0.75180636  1
  O  O12  1  0.96826264  0.04352756  0.67922416  1
  O  O13  1  0.04352273  0.67922620  0.96826300  1
  O  O14  1  0.67922729  0.96826107  0.04352220  1
  O  O15  1  0.03173835  0.95647313  0.32077474  1
  O  O16  1  0.95647835  0.32077295  0.03173686  1
  O  O17  1  0.32077185  0.03173995  0.95647837  1
  O  O18  1  0.12626752  0.26201720  0.52119731  1
  O  O19  1  0.26201827  0.52120079  0.12626374  1
  O  O20  1  0.52120914  0.12625775  0.26201235  1
  O  O21  1  0.87373032  0.73798239  0.47880406  1
  O  O22  1  0.73798100  0.47880098  0.87373495  1
  O  O23  1  0.47879221  0.87373913  0.73798744  1
  O  O24  1  0.77141413  0.39448794  0.62113176  1
  O  O25  1  0.39447692  0.62113418  0.77141689  1
  O  O26  1  0.62113114  0.77141359  0.39448670  1
  O  O27  1  0.22857985  0.60551409  0.37886461  1
  O  O28  1  0.60552236  0.37886402  0.22858204  1
  O  O29  1  0.37886566  0.22858134  0.60551494  1
  O  O30  1  0.97304744  0.29190417  0.34610485  1
  O  O31  1  0.29190388  0.34610184  0.97304813  1
  O  O32  1  0.34610209  0.97304784  0.29190405  1
  O  O33  1  0.02695454  0.70809478  0.65389390  1
  O  O34  1  0.70809604  0.65389826  0.02695169  1
  O  O35  1  0.65389793  0.02695234  0.70809559  1
