# generated using pymatgen
data_Ba5V5O14
_symmetry_space_group_name_H-M   'P 1'
_cell_length_a   5.88006027
_cell_length_b   5.87779486
_cell_length_c   12.17239205
_cell_angle_alpha   90.07749325
_cell_angle_beta   90.00000005
_cell_angle_gamma   120.01275637
_symmetry_Int_Tables_number   1
_chemical_formula_structural   Ba5V5O14
_chemical_formula_sum   'Ba5 V5 O14'
_cell_volume   364.28928449
_cell_formula_units_Z   1
loop_
 _symmetry_equiv_pos_site_id
 _symmetry_equiv_pos_as_xyz
  1  'x, y, z'
loop_
 _atom_site_type_symbol
 _atom_site_label
 _atom_site_symmetry_multiplicity
 _atom_site_fract_x
 _atom_site_fract_y
 _atom_site_fract_z
 _atom_site_occupancy
  Ba  Ba0  1  0.32918752  0.66894043  0.76767227  1
  Ba  Ba1  1  0.66024609  0.33106057  0.23232773  1
  Ba  Ba2  1  0.32599344  0.66447774  0.42523519  1
  Ba  Ba3  1  0.66151671  0.33552026  0.57476381  1
  Ba  Ba4  1  0.95928537  1.00000000  0.00000000  1
  V  V5  1  0.99493203  0.00101329  0.71430556  1
  V  V6  1  0.99391674  0.99898771  0.28569444  1
  V  V7  1  0.32754194  0.66391872  0.12861599  1
  V  V8  1  0.66362222  0.33608128  0.87138501  1
  V  V9  1  0.99054087  0.99999900  0.49999900  1
  O  O10  1  0.14632567  0.85307331  0.60259788  1
  O  O11  1  0.15104085  0.30232262  0.60683351  1
  O  O12  1  0.69250554  0.84294782  0.59811809  1
  O  O13  1  0.29325536  0.14692769  0.39740212  1
  O  O14  1  0.84871723  0.69767838  0.39316649  1
  O  O15  1  0.84955771  0.15705218  0.40188291  1
  O  O16  1  0.16546713  0.84057335  0.17660599  1
  O  O17  1  0.16144037  0.33321710  0.19541172  1
  O  O18  1  0.65685073  0.83360509  0.19689119  1
  O  O19  1  0.32489578  0.15942765  0.82339401  1
  O  O20  1  0.82822427  0.66678390  0.80458828  1
  O  O21  1  0.82324564  0.16639591  0.80310781  1
  O  O22  1  0.39862453  0.64595224  0.99041091  1
  O  O23  1  0.75267229  0.35404776  0.00959009  1
