# generated using pymatgen
data_Sc3RuC4
_symmetry_space_group_name_H-M   'P 1'
_cell_length_a   6.81245740
_cell_length_b   6.81245740
_cell_length_c   6.66091288
_cell_angle_alpha   75.87343506
_cell_angle_beta   104.12656494
_cell_angle_gamma   141.42197278
_symmetry_Int_Tables_number   1
_chemical_formula_structural   Sc3RuC4
_chemical_formula_sum   'Sc6 Ru2 C8'
_cell_volume   186.21126507
_cell_formula_units_Z   2
loop_
 _symmetry_equiv_pos_site_id
 _symmetry_equiv_pos_as_xyz
  1  'x, y, z'
loop_
 _atom_site_type_symbol
 _atom_site_label
 _atom_site_symmetry_multiplicity
 _atom_site_fract_x
 _atom_site_fract_y
 _atom_site_fract_z
 _atom_site_occupancy
  Sc  Sc0  1  0.50000000  0.50000000  0.00000000  1
  Sc  Sc1  1  0.50000000  0.50000000  0.50000000  1
  Sc  Sc2  1  0.81109202  0.18890798  0.90752501  1
  Sc  Sc3  1  0.18890798  0.81109202  0.09247499  1
  Sc  Sc4  1  0.80939143  0.19060857  0.40598202  1
  Sc  Sc5  1  0.19060857  0.80939143  0.59401798  1
  Ru  Ru6  1  0.00027780  0.99972220  0.73824997  1
  Ru  Ru7  1  0.99972220  0.00027780  0.26175003  1
  C  C8  1  0.53069990  0.78787042  0.68540027  1
  C  C9  1  0.21212958  0.46930010  0.68540027  1
  C  C10  1  0.46930010  0.21212958  0.31459973  1
  C  C11  1  0.78787042  0.53069990  0.31459973  1
  C  C12  1  0.78833351  0.52933209  0.81442041  1
  C  C13  1  0.47066791  0.21166649  0.81442041  1
  C  C14  1  0.21166649  0.47066791  0.18557959  1
  C  C15  1  0.52933209  0.78833351  0.18557959  1
