# generated using pymatgen
data_Cr(NO3)5
_symmetry_space_group_name_H-M   'P 1'
_cell_length_a   10.86708997
_cell_length_b   10.86708950
_cell_length_c   9.88587796
_cell_angle_alpha   90.00000000
_cell_angle_beta   90.00000000
_cell_angle_gamma   120.00000140
_symmetry_Int_Tables_number   1
_chemical_formula_structural   Cr(NO3)5
_chemical_formula_sum   'Cr3 N15 O45'
_cell_volume   1011.04940273
_cell_formula_units_Z   3
loop_
 _symmetry_equiv_pos_site_id
 _symmetry_equiv_pos_as_xyz
  1  'x, y, z'
loop_
 _atom_site_type_symbol
 _atom_site_label
 _atom_site_symmetry_multiplicity
 _atom_site_fract_x
 _atom_site_fract_y
 _atom_site_fract_z
 _atom_site_occupancy
  Cr  Cr0  1  1.00000000  0.30563471  0.33333300  1
  Cr  Cr1  1  0.30563471  0.00000000  0.66666700  1
  Cr  Cr2  1  0.69436529  0.69436529  0.00000000  1
  N  N3  1  0.25109755  0.90436969  0.95426903  1
  N  N4  1  0.09563031  0.34672786  0.62093603  1
  N  N5  1  0.31758417  0.74714056  0.57524228  1
  N  N6  1  1.00000000  0.07881331  0.33333300  1
  N  N7  1  0.25285944  0.57044361  0.24190928  1
  N  N8  1  0.07881331  0.00000000  0.66666700  1
  N  N9  1  0.42955639  0.68241583  0.90857628  1
  N  N10  1  0.65327214  0.74890245  0.28760203  1
  N  N11  1  0.34672786  0.09563031  0.37906397  1
  N  N12  1  0.74890245  0.65327214  0.71239797  1
  N  N13  1  0.57044361  0.25285944  0.75809072  1
  N  N14  1  0.92118669  0.92118669  0.00000000  1
  N  N15  1  0.68241583  0.42955639  0.09142372  1
  N  N16  1  0.74714056  0.31758417  0.42475772  1
  N  N17  1  0.90436969  0.25109755  0.04573097  1
  O  O18  1  0.00000000  0.96768384  0.33333300  1
  O  O19  1  0.09921973  0.90657839  0.60228209  1
  O  O20  1  0.18931339  0.81054824  0.04063836  1
  O  O21  1  0.22679109  0.86444564  0.82740618  1
  O  O22  1  0.30092732  0.96914864  0.34996411  1
  O  O23  1  0.18570389  0.68964209  0.57156353  1
  O  O24  1  0.11696938  0.51123001  0.26155223  1
  O  O25  1  0.03085136  0.33177868  0.01663111  1
  O  O26  1  0.39426063  0.88303062  0.59488623  1
  O  O27  1  0.13555436  0.36234546  0.49407318  1
  O  O28  1  0.32221112  0.70137341  0.22705281  1
  O  O29  1  0.09342161  0.19264234  0.26894909  1
  O  O30  1  0.18945176  0.37876415  0.70730536  1
  O  O31  1  0.29862659  0.62083772  0.89371881  1
  O  O32  1  0.03231616  0.03231616  0.00000000  1
  O  O33  1  0.37916228  0.67778888  0.56038581  1
  O  O34  1  0.31035791  0.49606180  0.23823053  1
  O  O35  1  0.50393820  0.81429611  0.90489753  1
  O  O36  1  0.19264234  0.09342161  0.73105091  1
  O  O37  1  0.48876999  0.60573937  0.92821923  1
  O  O38  1  0.62123585  0.81068661  0.37397136  1
  O  O39  1  0.63765454  0.77320891  0.16073918  1
  O  O40  1  0.37876415  0.18945176  0.29269464  1
  O  O41  1  0.36234546  0.13555436  0.50592682  1
  O  O42  1  0.33177868  0.03085136  0.98336889  1
  O  O43  1  0.66822132  0.69907268  0.68329811  1
  O  O44  1  0.49606180  0.31035791  0.76176947  1
  O  O45  1  0.80735766  0.90078027  0.93561609  1
  O  O46  1  0.60573937  0.48876999  0.07178077  1
  O  O47  1  0.69907268  0.66822132  0.31670189  1
  O  O48  1  0.51123001  0.11696938  0.73844777  1
  O  O49  1  0.77320891  0.63765454  0.83926082  1
  O  O50  1  0.62083772  0.29862659  0.10628119  1
  O  O51  1  0.90078027  0.80735766  0.06438391  1
  O  O52  1  0.81068661  0.62123585  0.62602864  1
  O  O53  1  0.67778888  0.37916228  0.43961419  1
  O  O54  1  0.70137341  0.32221112  0.77294719  1
  O  O55  1  0.81429611  0.50393820  0.09510247  1
  O  O56  1  0.68964209  0.18570389  0.42843647  1
  O  O57  1  0.88303062  0.39426063  0.40511377  1
  O  O58  1  0.81054824  0.18931339  0.95936164  1
  O  O59  1  0.86444564  0.22679109  0.17259382  1
  O  O60  1  0.96914864  0.30092732  0.65003589  1
  O  O61  1  0.90657839  0.09921973  0.39771791  1
  O  O62  1  0.96768384  0.00000000  0.66666700  1
