# generated using pymatgen
data_Na3Np(HO3)2
_symmetry_space_group_name_H-M   'P 1'
_cell_length_a   10.70081605
_cell_length_b   5.99058777
_cell_length_c   11.48968598
_cell_angle_alpha   67.17869369
_cell_angle_beta   31.06442852
_cell_angle_gamma   81.75687779
_symmetry_Int_Tables_number   1
_chemical_formula_structural   Na3Np(HO3)2
_chemical_formula_sum   'Na6 Np2 H4 O12'
_cell_volume   321.50068123
_cell_formula_units_Z   2
loop_
 _symmetry_equiv_pos_site_id
 _symmetry_equiv_pos_as_xyz
  1  'x, y, z'
loop_
 _atom_site_type_symbol
 _atom_site_label
 _atom_site_symmetry_multiplicity
 _atom_site_fract_x
 _atom_site_fract_y
 _atom_site_fract_z
 _atom_site_occupancy
  Na  Na0  1  0.38264175  0.11735825  0.11735825  1
  Na  Na1  1  0.13264175  0.86735825  0.86735825  1
  Na  Na2  1  0.70835740  0.30303717  0.11172849  1
  Na  Na3  1  0.87687694  0.11172849  0.30303717  1
  Na  Na4  1  0.13827151  0.37312306  0.54164260  1
  Na  Na5  1  0.94696283  0.54164260  0.37312306  1
  Np  Np6  1  0.71696808  0.78303192  0.78303192  1
  Np  Np7  1  0.46696808  0.53303192  0.53303192  1
  H  H8  1  0.39902633  0.57932497  0.88365128  1
  H  H9  1  0.13799742  0.88365128  0.57932497  1
  H  H10  1  0.36634872  0.11200258  0.85097367  1
  H  H11  1  0.67067503  0.85097367  0.11200258  1
  O  O12  1  0.50049810  0.72798688  0.10390590  1
  O  O13  1  0.66760912  0.10390590  0.72798688  1
  O  O14  1  0.14609410  0.58239088  0.74950190  1
  O  O15  1  0.52201312  0.74950190  0.58239088  1
  O  O16  1  0.76346890  0.46032130  0.84372450  1
  O  O17  1  0.93248531  0.84372450  0.46032130  1
  O  O18  1  0.40627550  0.31751469  0.48653110  1
  O  O19  1  0.78967870  0.48653110  0.31751469  1
  O  O20  1  0.35469891  0.53160013  0.01074921  1
  O  O21  1  0.10295175  0.01074921  0.53160013  1
  O  O22  1  0.23925079  0.14704825  0.89530109  1
  O  O23  1  0.71839987  0.89530109  0.14704825  1
