# generated using pymatgen
data_BaEu2PdO5
_symmetry_space_group_name_H-M   'P 1'
_cell_length_a   5.93051054
_cell_length_b   6.77868284
_cell_length_c   6.77868284
_cell_angle_alpha   90.00000000
_cell_angle_beta   90.00000000
_cell_angle_gamma   90.00000000
_symmetry_Int_Tables_number   1
_chemical_formula_structural   BaEu2PdO5
_chemical_formula_sum   'Ba2 Eu4 Pd2 O10'
_cell_volume   272.51016799
_cell_formula_units_Z   2
loop_
 _symmetry_equiv_pos_site_id
 _symmetry_equiv_pos_as_xyz
  1  'x, y, z'
loop_
 _atom_site_type_symbol
 _atom_site_label
 _atom_site_symmetry_multiplicity
 _atom_site_fract_x
 _atom_site_fract_y
 _atom_site_fract_z
 _atom_site_occupancy
  Ba  Ba0  1  0.00000000  -0.00000000  0.00000000  1
  Ba  Ba1  1  0.00000000  0.50000000  0.50000000  1
  Eu  Eu2  1  0.50000000  0.32453220  0.17546780  1
  Eu  Eu3  1  0.50000000  0.67546780  0.82453220  1
  Eu  Eu4  1  0.50000000  0.82453220  0.32453220  1
  Eu  Eu5  1  0.50000000  0.17546780  0.67546780  1
  Pd  Pd6  1  0.00000000  0.50000000  0.00000000  1
  Pd  Pd7  1  0.00000000  -0.00000000  0.50000000  1
  O  O8  1  0.75022893  0.14008939  0.35991061  1
  O  O9  1  0.24977107  0.64008939  0.14008939  1
  O  O10  1  0.75022893  0.85991061  0.64008939  1
  O  O11  1  0.24977107  0.14008939  0.35991061  1
  O  O12  1  0.50000000  0.50000000  0.50000000  1
  O  O13  1  0.75022893  0.35991061  0.85991061  1
  O  O14  1  0.75022893  0.64008939  0.14008939  1
  O  O15  1  0.24977107  0.85991061  0.64008939  1
  O  O16  1  0.24977107  0.35991061  0.85991061  1
  O  O17  1  0.50000000  -0.00000000  0.00000000  1
