# generated using pymatgen
data_Cs2K2B10O17
_symmetry_space_group_name_H-M   'P 1'
_cell_length_a   6.67636470
_cell_length_b   11.43838922
_cell_length_c   11.98065717
_cell_angle_alpha   102.60952064
_cell_angle_beta   106.33078698
_cell_angle_gamma   90.08481489
_symmetry_Int_Tables_number   1
_chemical_formula_structural   Cs2K2B10O17
_chemical_formula_sum   'Cs4 K4 B20 O34'
_cell_volume   854.90210177
_cell_formula_units_Z   2
loop_
 _symmetry_equiv_pos_site_id
 _symmetry_equiv_pos_as_xyz
  1  'x, y, z'
loop_
 _atom_site_type_symbol
 _atom_site_label
 _atom_site_symmetry_multiplicity
 _atom_site_fract_x
 _atom_site_fract_y
 _atom_site_fract_z
 _atom_site_occupancy
  Cs  Cs0  1  0.25481543  0.40366515  0.88834342  1
  Cs  Cs1  1  0.74477602  0.59497618  0.11027872  1
  Cs  Cs2  1  0.36607037  0.09545639  0.11103506  1
  Cs  Cs3  1  0.64191380  0.90741651  0.89076144  1
  K  K4  1  0.19352939  0.32778931  0.54246667  1
  K  K5  1  0.65175241  0.17321666  0.45955597  1
  K  K6  1  0.35190503  0.82543739  0.54323925  1
  K  K7  1  0.81306280  0.67571986  0.45668445  1
  B  B8  1  0.49046313  0.83663334  0.28821727  1
  B  B9  1  0.51049770  0.16262870  0.71146444  1
  B  B10  1  0.44265091  0.42536770  0.30308902  1
  B  B11  1  0.12244597  0.76478235  0.89786537  1
  B  B12  1  0.22499022  0.98468059  0.33383152  1
  B  B13  1  0.89260060  0.51482913  0.66640114  1
  B  B14  1  0.87642308  0.23455950  0.10418778  1
  B  B15  1  0.79607214  0.33626823  0.28994509  1
  B  B16  1  0.20533427  0.66306850  0.71284006  1
  B  B17  1  0.04782297  0.87075811  0.73093779  1
  B  B18  1  0.85837419  0.92484780  0.29935248  1
  B  B19  1  0.95431561  0.12893382  0.27138238  1
  B  B20  1  0.14263795  0.07350705  0.69904332  1
  B  B21  1  0.56024886  0.57422567  0.70016599  1
  B  B22  1  0.22512612  0.73210239  0.10248139  1
  B  B23  1  0.68472573  0.37083549  0.72968927  1
  B  B24  1  0.77641465  0.01384462  0.66479440  1
  B  B25  1  0.10849882  0.48463487  0.33428035  1
  B  B26  1  0.31737123  0.62804876  0.27046109  1
  B  B27  1  0.77560078  0.26707927  0.89821555  1
  O  O28  1  0.05700901  0.86437480  0.85602679  1
  O  O29  1  0.76498209  0.31784125  0.15771690  1
  O  O30  1  0.23248815  0.68031834  0.84437608  1
  O  O31  1  0.43430542  0.73963352  0.33659492  1
  O  O32  1  0.07427524  0.74785730  0.99975205  1
  O  O33  1  0.42836965  0.95547811  0.34705161  1
  O  O34  1  0.20448207  0.63187697  0.14397542  1
  O  O35  1  0.15194421  0.59928246  0.32550433  1
  O  O36  1  0.17366034  0.10027394  0.32899652  1
  O  O37  1  0.41502289  0.65804817  0.69117116  1
  O  O38  1  0.72209821  0.84163413  0.30955192  1
  O  O39  1  0.92355949  0.25213918  0.00208063  1
  O  O40  1  0.84721388  0.39965227  0.67283238  1
  O  O41  1  0.80133499  0.02881495  0.26391909  1
  O  O42  1  0.53784745  0.47015369  0.73497745  1
  O  O43  1  0.57390968  0.04383451  0.65305831  1
  O  O44  1  0.10160215  0.76043192  0.66494145  1
  O  O45  1  0.08273547  0.54438710  0.65349565  1
  O  O46  1  0.38603071  0.81856841  0.15665321  1
  O  O47  1  0.91904951  0.45505316  0.34782851  1
  O  O48  1  0.92983678  0.09862909  0.66641068  1
  O  O49  1  0.90083553  0.23908120  0.33755803  1
  O  O50  1  0.58797909  0.34200727  0.31337661  1
  O  O51  1  0.61388079  0.18088384  0.84336905  1
  O  O52  1  0.25934274  0.39975781  0.33219678  1
  O  O53  1  0.27890914  0.15683117  0.68873916  1
  O  O54  1  0.82814890  0.89917114  0.67288905  1
  O  O55  1  0.46441538  0.52891678  0.26679627  1
  O  O56  1  0.56672778  0.25969401  0.66370389  1
  O  O57  1  0.74349444  0.60049364  0.67118605  1
  O  O58  1  0.19959305  0.97188685  0.73857247  1
  O  O59  1  0.94489473  0.13530925  0.14607876  1
  O  O60  1  0.07044383  0.89835463  0.32746859  1
  O  O61  1  0.79983004  0.36607577  0.85573158  1
