# generated using pymatgen
data_Cs2KTaCl6
_symmetry_space_group_name_H-M   'P 1'
_cell_length_a   7.79743195
_cell_length_b   7.79184430
_cell_length_c   7.79077733
_cell_angle_alpha   60.03088397
_cell_angle_beta   60.01546193
_cell_angle_gamma   60.02365645
_symmetry_Int_Tables_number   1
_chemical_formula_structural   Cs2KTaCl6
_chemical_formula_sum   'Cs2 K1 Ta1 Cl6'
_cell_volume   334.87852842
_cell_formula_units_Z   1
loop_
 _symmetry_equiv_pos_site_id
 _symmetry_equiv_pos_as_xyz
  1  'x, y, z'
loop_
 _atom_site_type_symbol
 _atom_site_label
 _atom_site_symmetry_multiplicity
 _atom_site_fract_x
 _atom_site_fract_y
 _atom_site_fract_z
 _atom_site_occupancy
  Cs  Cs0  1  0.24979473  0.25006245  0.25005213  1
  Cs  Cs1  1  0.75020527  0.74993755  0.74994788  1
  K  K2  1  0.50000000  0.50000000  0.50000000  1
  Ta  Ta3  1  0.00000000  0.00000000  -0.00000000  1
  Cl  Cl4  1  0.22532905  0.77468350  0.22536521  1
  Cl  Cl5  1  0.77464771  0.77460122  0.22533719  1
  Cl  Cl6  1  0.77467095  0.22531650  0.77463479  1
  Cl  Cl7  1  0.77456941  0.22549533  0.22546893  1
  Cl  Cl8  1  0.22543059  0.77450467  0.77453107  1
  Cl  Cl9  1  0.22535229  0.22539878  0.77466281  1
