# generated using pymatgen
data_LiNd6B3O13F2
_symmetry_space_group_name_H-M   'P 1'
_cell_length_a   7.00559188
_cell_length_b   7.05749423
_cell_length_c   16.14451403
_cell_angle_alpha   77.60333678
_cell_angle_beta   77.46915892
_cell_angle_gamma   60.24297689
_symmetry_Int_Tables_number   1
_chemical_formula_structural   LiNd6B3O13F2
_chemical_formula_sum   'Li2 Nd12 B6 O26 F4'
_cell_volume   671.04181196
_cell_formula_units_Z   2
loop_
 _symmetry_equiv_pos_site_id
 _symmetry_equiv_pos_as_xyz
  1  'x, y, z'
loop_
 _atom_site_type_symbol
 _atom_site_label
 _atom_site_symmetry_multiplicity
 _atom_site_fract_x
 _atom_site_fract_y
 _atom_site_fract_z
 _atom_site_occupancy
  Li  Li0  1  0.93588917  0.25000000  0.75000000  1
  Li  Li1  1  0.06411083  0.75000000  0.25000000  1
  Nd  Nd2  1  0.86761144  0.52759982  0.90666625  1
  Nd  Nd3  1  0.30187751  0.97240018  0.59333375  1
  Nd  Nd4  1  0.13238856  0.47240018  0.09333375  1
  Nd  Nd5  1  0.69812249  0.02759982  0.40666625  1
  Nd  Nd6  1  0.52495162  0.19546231  0.90095297  1
  Nd  Nd7  1  0.62136690  0.30453769  0.59904703  1
  Nd  Nd8  1  0.47504838  0.80453769  0.09904703  1
  Nd  Nd9  1  0.37863310  0.69546231  0.40095297  1
  Nd  Nd10  1  0.24092075  0.83814365  0.88567736  1
  Nd  Nd11  1  0.96474175  0.66185635  0.61432264  1
  Nd  Nd12  1  0.75907925  0.16185635  0.11432264  1
  Nd  Nd13  1  0.03525825  0.33814365  0.38567736  1
  B  B14  1  0.56387285  0.60485239  0.74874191  1
  B  B15  1  0.91746715  0.89514761  0.75125809  1
  B  B16  1  0.43612715  0.39514761  0.25125809  1
  B  B17  1  0.08253285  0.10485239  0.24874191  1
  B  B18  1  0.28779346  0.25000000  0.75000000  1
  B  B19  1  0.71220654  0.75000000  0.25000000  1
  O  O20  1  0.68090401  0.35091884  0.43991054  1
  O  O21  1  0.47173339  0.14908116  0.06008946  1
  O  O22  1  0.31909599  0.64908116  0.56008946  1
  O  O23  1  0.52826661  0.85091884  0.93991054  1
  O  O24  1  0.18709228  0.52137684  0.93847235  1
  O  O25  1  0.64694146  0.97862316  0.56152765  1
  O  O26  1  0.81290772  0.47862316  0.06152765  1
  O  O27  1  0.35305854  0.02137684  0.43847235  1
  O  O28  1  0.60202690  0.51050231  0.83350494  1
  O  O29  1  0.94603415  0.98949769  0.66649506  1
  O  O30  1  0.39797310  0.48949769  0.16649506  1
  O  O31  1  0.05396585  0.01050231  0.33350494  1
  O  O32  1  0.89968368  0.99449866  0.81976646  1
  O  O33  1  0.71394879  0.50550134  0.68023354  1
  O  O34  1  0.10031632  0.00550134  0.18023354  1
  O  O35  1  0.28605121  0.49449866  0.31976646  1
  O  O36  1  0.16428217  0.21900603  0.82743861  1
  O  O37  1  0.21072681  0.28099397  0.67256139  1
  O  O38  1  0.83571783  0.78099397  0.17256139  1
  O  O39  1  0.78927319  0.71900603  0.32743861  1
  O  O40  1  0.48202687  0.25000000  0.75000000  1
  O  O41  1  0.51797313  0.75000000  0.25000000  1
  O  O42  1  0.37562126  0.80102270  0.73712166  1
  O  O43  1  0.91376561  0.69897730  0.76287834  1
  O  O44  1  0.62437874  0.19897730  0.26287834  1
  O  O45  1  0.08623439  0.30102270  0.23712166  1
  F  F46  1  0.15695357  0.81739961  0.04175467  1
  F  F47  1  0.01610786  0.68260039  0.45824533  1
  F  F48  1  0.84304643  0.18260039  0.95824533  1
  F  F49  1  0.98389214  0.31739961  0.54175467  1
