# generated using pymatgen
data_RbPrP3HO10
_symmetry_space_group_name_H-M   'P 1'
_cell_length_a   7.19470707
_cell_length_b   7.65664438
_cell_length_c   8.85388388
_cell_angle_alpha   73.91878985
_cell_angle_beta   74.22907355
_cell_angle_gamma   83.03099984
_symmetry_Int_Tables_number   1
_chemical_formula_structural   RbPrP3HO10
_chemical_formula_sum   'Rb2 Pr2 P6 H2 O20'
_cell_volume   450.45014696
_cell_formula_units_Z   2
loop_
 _symmetry_equiv_pos_site_id
 _symmetry_equiv_pos_as_xyz
  1  'x, y, z'
loop_
 _atom_site_type_symbol
 _atom_site_label
 _atom_site_symmetry_multiplicity
 _atom_site_fract_x
 _atom_site_fract_y
 _atom_site_fract_z
 _atom_site_occupancy
  Rb  Rb0  1  0.71214096  0.68079184  0.02757452  1
  Rb  Rb1  1  0.28785899  0.31920873  0.97242508  1
  Pr  Pr2  1  0.26978494  0.36602047  0.49058025  1
  Pr  Pr3  1  0.73021461  0.63397892  0.50941959  1
  P  P4  1  0.18182081  0.70951884  0.64705070  1
  P  P5  1  0.81817938  0.29048052  0.35294881  1
  P  P6  1  0.36579504  0.96598021  0.34949286  1
  P  P7  1  0.63420483  0.03401950  0.65050682  1
  P  P8  1  0.16824579  0.77508505  0.18481383  1
  P  P9  1  0.83175504  0.22491444  0.81518589  1
  H  H10  1  0.18469987  0.82453625  0.92030283  1
  H  H11  1  0.81530028  0.17546320  0.07969672  1
  O  O12  1  0.04140281  0.64830477  0.56988360  1
  O  O13  1  0.95859727  0.35169504  0.43011623  1
  O  O14  1  0.24205637  0.91498486  0.53671355  1
  O  O15  1  0.75794303  0.08501447  0.46328608  1
  O  O16  1  0.54369264  0.84209587  0.32703018  1
  O  O17  1  0.45630724  0.15790410  0.67296995  1
  O  O18  1  0.23413091  0.87241893  0.99838873  1
  O  O19  1  0.76586857  0.12758058  0.00161121  1
  O  O20  1  0.95240801  0.75357227  0.24378120  1
  O  O21  1  0.04759217  0.24642760  0.75621856  1
  O  O22  1  0.38545620  0.16897279  0.30717828  1
  O  O23  1  0.61454446  0.83102664  0.69282126  1
  O  O24  1  0.29490759  0.60511825  0.23155488  1
  O  O25  1  0.70509238  0.39488122  0.76844538  1
  O  O26  1  0.36558143  0.58138031  0.62110004  1
  O  O27  1  0.63441902  0.41861966  0.37889875  1
  O  O28  1  0.22027202  0.93772896  0.25067350  1
  O  O29  1  0.77972806  0.06227123  0.74932582  1
  O  O30  1  0.10265389  0.72643093  0.81873949  1
  O  O31  1  0.89734642  0.27356856  0.18126039  1
