# generated using pymatgen
data_U2Si5Rh3
_symmetry_space_group_name_H-M   'P 1'
_cell_length_a   8.12149227
_cell_length_b   8.11991407
_cell_length_c   5.82085846
_cell_angle_alpha   68.99863381
_cell_angle_beta   111.01288714
_cell_angle_gamma   90.05890515
_symmetry_Int_Tables_number   1
_chemical_formula_structural   U2Si5Rh3
_chemical_formula_sum   'U4 Si10 Rh6'
_cell_volume   330.93239850
_cell_formula_units_Z   2
loop_
 _symmetry_equiv_pos_site_id
 _symmetry_equiv_pos_as_xyz
  1  'x, y, z'
loop_
 _atom_site_type_symbol
 _atom_site_label
 _atom_site_symmetry_multiplicity
 _atom_site_fract_x
 _atom_site_fract_y
 _atom_site_fract_z
 _atom_site_occupancy
  U  U0  1  0.40253768  0.86392266  0.26917760  1
  U  U1  1  0.86378303  0.40256028  0.23071106  1
  U  U2  1  0.59747784  0.13602291  0.73084935  1
  U  U3  1  0.13611718  0.59744734  0.76924916  1
  Si  Si4  1  0.50036095  0.50036318  0.25006200  1
  Si  Si5  1  0.49964994  0.49963795  0.74994033  1
  Si  Si6  1  0.22200499  0.22197872  0.25001263  1
  Si  Si7  1  0.77798898  0.77802705  0.74999442  1
  Si  Si8  1  0.73838191  0.04949694  0.34432732  1
  Si  Si9  1  0.04953723  0.73841748  0.15567445  1
  Si  Si10  1  0.26163274  0.95054649  0.65567293  1
  Si  Si11  1  0.95049696  0.26160479  0.84431140  1
  Si  Si12  1  0.77768707  0.77774894  0.24993576  1
  Si  Si13  1  0.22229099  0.22223458  0.75004346  1
  Rh  Rh14  1  0.24962828  0.47029264  0.38910707  1
  Rh  Rh15  1  0.47031495  0.24961675  0.11093985  1
  Rh  Rh16  1  0.52969456  0.75038329  0.88903742  1
  Rh  Rh17  1  0.75036446  0.52968331  0.61094183  1
  Rh  Rh18  1  0.00002723  0.99999056  0.25000075  1
  Rh  Rh19  1  0.00002103  0.00001914  0.75001221  1
