# generated using pymatgen
data_K2Ni3Se4
_symmetry_space_group_name_H-M   'P 1'
_cell_length_a   6.07699704
_cell_length_b   6.09980030
_cell_length_c   13.67595505
_cell_angle_alpha   83.64584009
_cell_angle_beta   77.16299901
_cell_angle_gamma   60.12358227
_symmetry_Int_Tables_number   1
_chemical_formula_structural   K2Ni3Se4
_chemical_formula_sum   'K4 Ni6 Se8'
_cell_volume   428.58773712
_cell_formula_units_Z   2
loop_
 _symmetry_equiv_pos_site_id
 _symmetry_equiv_pos_as_xyz
  1  'x, y, z'
loop_
 _atom_site_type_symbol
 _atom_site_label
 _atom_site_symmetry_multiplicity
 _atom_site_fract_x
 _atom_site_fract_y
 _atom_site_fract_z
 _atom_site_occupancy
  K  K0  1  0.54886756  0.25000000  0.90226487  1
  K  K1  1  0.70113244  0.25000000  0.59773513  1
  K  K2  1  0.45113244  0.75000000  0.09773513  1
  K  K3  1  0.29886756  0.75000000  0.40226487  1
  Ni  Ni4  1  0.12500000  0.25000000  0.75000000  1
  Ni  Ni5  1  0.87500000  0.75000000  0.25000000  1
  Ni  Ni6  1  0.87536232  0.25000000  0.24927536  1
  Ni  Ni7  1  0.37463768  0.25000000  0.25072464  1
  Ni  Ni8  1  0.12463768  0.75000000  0.75072464  1
  Ni  Ni9  1  0.62536232  0.75000000  0.74927536  1
  Se  Se10  1  0.34757953  0.91690189  0.63348296  1
  Se  Se11  1  0.23551858  0.91690189  0.86651704  1
  Se  Se12  1  0.01893751  0.58309811  0.63348296  1
  Se  Se13  1  0.89796438  0.58309811  0.86651704  1
  Se  Se14  1  0.65242047  0.08309811  0.36651704  1
  Se  Se15  1  0.76448142  0.08309811  0.13348296  1
  Se  Se16  1  0.98106249  0.41690189  0.36651704  1
  Se  Se17  1  0.10203562  0.41690189  0.13348296  1
