# generated using pymatgen
data_Th2C3
_symmetry_space_group_name_H-M   'P 1'
_cell_length_a   7.41461991
_cell_length_b   7.41461991
_cell_length_c   7.41461991
_cell_angle_alpha   109.47122063
_cell_angle_beta   109.47122063
_cell_angle_gamma   109.47122063
_symmetry_Int_Tables_number   1
_chemical_formula_structural   Th2C3
_chemical_formula_sum   'Th8 C12'
_cell_volume   313.79411039
_cell_formula_units_Z   4
loop_
 _symmetry_equiv_pos_site_id
 _symmetry_equiv_pos_as_xyz
  1  'x, y, z'
loop_
 _atom_site_type_symbol
 _atom_site_label
 _atom_site_symmetry_multiplicity
 _atom_site_fract_x
 _atom_site_fract_y
 _atom_site_fract_z
 _atom_site_occupancy
  Th  Th0  1  0.09693966  -0.00000000  0.50000000  1
  Th  Th1  1  0.00000000  0.50000000  0.09693966  1
  Th  Th2  1  0.50000000  0.09693966  -0.00000000  1
  Th  Th3  1  0.40306034  0.40306034  0.40306034  1
  Th  Th4  1  0.00000000  0.50000000  0.59693966  1
  Th  Th5  1  0.59693966  -0.00000000  0.50000000  1
  Th  Th6  1  0.50000000  0.59693966  0.00000000  1
  Th  Th7  1  0.90306034  0.90306034  0.90306034  1
  C  C8  1  0.29253173  0.75000000  0.54253173  1
  C  C9  1  0.20746827  0.25000000  0.95746827  1
  C  C10  1  0.04253173  0.25000000  0.79253173  1
  C  C11  1  0.45746827  0.75000000  0.70746827  1
  C  C12  1  0.75000000  0.54253173  0.29253173  1
  C  C13  1  0.25000000  0.95746827  0.20746827  1
  C  C14  1  0.25000000  0.79253173  0.04253173  1
  C  C15  1  0.75000000  0.70746827  0.45746827  1
  C  C16  1  0.54253173  0.29253173  0.75000000  1
  C  C17  1  0.95746827  0.20746827  0.25000000  1
  C  C18  1  0.79253173  0.04253173  0.25000000  1
  C  C19  1  0.70746827  0.45746827  0.75000000  1
