# generated using pymatgen
data_Pr2Ge5Ir3
_symmetry_space_group_name_H-M   'P 1'
_cell_length_a   6.13142440
_cell_length_b   8.50435412
_cell_length_c   8.50435412
_cell_angle_alpha   74.91253398
_cell_angle_beta   68.86986667
_cell_angle_gamma   68.86986667
_symmetry_Int_Tables_number   1
_chemical_formula_structural   Pr2Ge5Ir3
_chemical_formula_sum   'Pr4 Ge10 Ir6'
_cell_volume   381.46851662
_cell_formula_units_Z   2
loop_
 _symmetry_equiv_pos_site_id
 _symmetry_equiv_pos_as_xyz
  1  'x, y, z'
loop_
 _atom_site_type_symbol
 _atom_site_label
 _atom_site_symmetry_multiplicity
 _atom_site_fract_x
 _atom_site_fract_y
 _atom_site_fract_z
 _atom_site_occupancy
  Pr  Pr0  1  0.36667487  0.40562038  0.86102987  1
  Pr  Pr1  1  0.63332513  0.59437962  0.13897013  1
  Pr  Pr2  1  0.86667487  0.86102987  0.40562038  1
  Pr  Pr3  1  0.13332513  0.13897013  0.59437962  1
  Ge  Ge4  1  0.25000000  0.50000000  0.50000000  1
  Ge  Ge5  1  0.75000000  0.50000000  0.50000000  1
  Ge  Ge6  1  0.02589589  0.22410411  0.22410411  1
  Ge  Ge7  1  0.47410411  0.77589589  0.77589589  1
  Ge  Ge8  1  0.97410411  0.77589589  0.77589589  1
  Ge  Ge9  1  0.52589589  0.22410411  0.22410411  1
  Ge  Ge10  1  0.09993622  0.74011779  0.06000977  1
  Ge  Ge11  1  0.90006378  0.25988221  0.93999023  1
  Ge  Ge12  1  0.59993622  0.06000977  0.74011779  1
  Ge  Ge13  1  0.40006378  0.93999023  0.25988221  1
  Ir  Ir14  1  0.25000000  0.00000000  -0.00000000  1
  Ir  Ir15  1  0.75000000  0.00000000  -0.00000000  1
  Ir  Ir16  1  0.14138327  0.46757251  0.24966096  1
  Ir  Ir17  1  0.85861673  0.53242749  0.75033904  1
  Ir  Ir18  1  0.64138327  0.24966096  0.46757251  1
  Ir  Ir19  1  0.35861673  0.75033904  0.53242749  1
