# generated using pymatgen
data_Er2Ge5Ru3
_symmetry_space_group_name_H-M   'P 1'
_cell_length_a   5.75111555
_cell_length_b   8.44045925
_cell_length_c   8.44045925
_cell_angle_alpha   71.25172597
_cell_angle_beta   70.08124278
_cell_angle_gamma   70.08124278
_symmetry_Int_Tables_number   1
_chemical_formula_structural   Er2Ge5Ru3
_chemical_formula_sum   'Er4 Ge10 Ru6'
_cell_volume   352.25444376
_cell_formula_units_Z   2
loop_
 _symmetry_equiv_pos_site_id
 _symmetry_equiv_pos_as_xyz
  1  'x, y, z'
loop_
 _atom_site_type_symbol
 _atom_site_label
 _atom_site_symmetry_multiplicity
 _atom_site_fract_x
 _atom_site_fract_y
 _atom_site_fract_z
 _atom_site_occupancy
  Er  Er0  1  0.36217716  0.40614466  0.86950102  1
  Er  Er1  1  0.63782284  0.59385534  0.13049898  1
  Er  Er2  1  0.86217716  0.86950102  0.40614466  1
  Er  Er3  1  0.13782284  0.13049898  0.59385534  1
  Ge  Ge4  1  0.25000000  0.50000000  0.50000000  1
  Ge  Ge5  1  0.75000000  0.50000000  0.50000000  1
  Ge  Ge6  1  0.04207569  0.20792431  0.20792431  1
  Ge  Ge7  1  0.45792431  0.79207569  0.79207569  1
  Ge  Ge8  1  0.95792431  0.79207569  0.79207569  1
  Ge  Ge9  1  0.54207569  0.20792431  0.20792431  1
  Ge  Ge10  1  0.08867795  0.73640161  0.08624250  1
  Ge  Ge11  1  0.91132205  0.26359839  0.91375750  1
  Ge  Ge12  1  0.58867795  0.08624250  0.73640161  1
  Ge  Ge13  1  0.41132205  0.91375750  0.26359839  1
  Ru  Ru14  1  0.25000000  -0.00000000  -0.00000000  1
  Ru  Ru15  1  0.75000000  -0.00000000  -0.00000000  1
  Ru  Ru16  1  0.14726246  0.44532859  0.26014649  1
  Ru  Ru17  1  0.85273754  0.55467141  0.73985351  1
  Ru  Ru18  1  0.64726246  0.26014649  0.44532859  1
  Ru  Ru19  1  0.35273754  0.73985351  0.55467141  1
