# generated using pymatgen
data_Zr5Sn3B
_symmetry_space_group_name_H-M   'P 1'
_cell_length_a   5.83728912
_cell_length_b   8.57821830
_cell_length_c   8.57817574
_cell_angle_alpha   119.99969990
_cell_angle_beta   89.99999246
_cell_angle_gamma   90.00008492
_symmetry_Int_Tables_number   1
_chemical_formula_structural   Zr5Sn3B
_chemical_formula_sum   'Zr10 Sn6 B2'
_cell_volume   371.99335555
_cell_formula_units_Z   2
loop_
 _symmetry_equiv_pos_site_id
 _symmetry_equiv_pos_as_xyz
  1  'x, y, z'
loop_
 _atom_site_type_symbol
 _atom_site_label
 _atom_site_symmetry_multiplicity
 _atom_site_fract_x
 _atom_site_fract_y
 _atom_site_fract_z
 _atom_site_occupancy
  Zr  Zr0  1  0.49999834  0.33333003  0.66666507  1
  Zr  Zr1  1  0.49999513  0.66666990  0.33333783  1
  Zr  Zr2  1  0.00000043  0.66666026  0.33332752  1
  Zr  Zr3  1  0.00000631  0.33334172  0.66667385  1
  Zr  Zr4  1  0.75000428  0.22990536  0.00000757  1
  Zr  Zr5  1  0.75000086  0.77014153  0.77012079  1
  Zr  Zr6  1  0.74999321  0.00002369  0.22988797  1
  Zr  Zr7  1  0.24999681  0.77009088  0.99999685  1
  Zr  Zr8  1  0.24999871  0.22985408  0.22988430  1
  Zr  Zr9  1  0.25000590  0.99996182  0.77010650  1
  Sn  Sn10  1  0.75000088  0.60209808  0.00000643  1
  Sn  Sn11  1  0.74999935  0.39787581  0.39786456  1
  Sn  Sn12  1  0.74999543  0.00001943  0.60212915  1
  Sn  Sn13  1  0.24999763  0.39789438  -0.00000742  1
  Sn  Sn14  1  0.25000106  0.60211975  0.60213383  1
  Sn  Sn15  1  0.25000503  0.99997899  0.39787425  1
  B  B16  1  0.50000186  0.00001644  0.99999548  1
  B  B17  1  -0.00000123  0.00001784  -0.00000455  1
