# generated using pymatgen
data_Ho5Ir3
_symmetry_space_group_name_H-M   'P 1'
_cell_length_a   6.18842592
_cell_length_b   8.28165220
_cell_length_c   8.28060922
_cell_angle_alpha   120.00416301
_cell_angle_beta   90.00000000
_cell_angle_gamma   90.00000000
_symmetry_Int_Tables_number   1
_chemical_formula_structural   Ho5Ir3
_chemical_formula_sum   'Ho10 Ir6'
_cell_volume   367.51230593
_cell_formula_units_Z   2
loop_
 _symmetry_equiv_pos_site_id
 _symmetry_equiv_pos_as_xyz
  1  'x, y, z'
loop_
 _atom_site_type_symbol
 _atom_site_label
 _atom_site_symmetry_multiplicity
 _atom_site_fract_x
 _atom_site_fract_y
 _atom_site_fract_z
 _atom_site_occupancy
  Ho  Ho0  1  0.50000118  0.33333536  0.66669469  1
  Ho  Ho1  1  0.50000118  0.66664066  0.33330531  1
  Ho  Ho2  1  0.00000118  0.66666464  0.33330531  1
  Ho  Ho3  1  0.00000118  0.33335934  0.66669469  1
  Ho  Ho4  1  0.75001030  0.25925706  1.00000000  1
  Ho  Ho5  1  0.74998918  0.74075220  0.74074698  1
  Ho  Ho6  1  0.74998918  0.00000522  0.25925302  1
  Ho  Ho7  1  0.25001030  0.74074294  0.00000000  1
  Ho  Ho8  1  0.24998918  0.25924780  0.25925302  1
  Ho  Ho9  1  0.24998918  -0.00000522  0.74074698  1
  Ir  Ir10  1  0.75000564  0.60954696  0.00000000  1
  Ir  Ir11  1  0.75000167  0.39042558  0.39042906  1
  Ir  Ir12  1  0.75000167  0.99999652  0.60957094  1
  Ir  Ir13  1  0.25000564  0.39045304  1.00000000  1
  Ir  Ir14  1  0.25000167  0.60957442  0.60957094  1
  Ir  Ir15  1  0.25000167  0.00000348  0.39042906  1
