# generated using pymatgen
data_LiSmGe2
_symmetry_space_group_name_H-M   'P 1'
_cell_length_a   3.95848527
_cell_length_b   7.81168249
_cell_length_c   10.55481789
_cell_angle_alpha   90.00000000
_cell_angle_beta   90.00000000
_cell_angle_gamma   90.00000000
_symmetry_Int_Tables_number   1
_chemical_formula_structural   LiSmGe2
_chemical_formula_sum   'Li4 Sm4 Ge8'
_cell_volume   326.38061811
_cell_formula_units_Z   4
loop_
 _symmetry_equiv_pos_site_id
 _symmetry_equiv_pos_as_xyz
  1  'x, y, z'
loop_
 _atom_site_type_symbol
 _atom_site_label
 _atom_site_symmetry_multiplicity
 _atom_site_fract_x
 _atom_site_fract_y
 _atom_site_fract_z
 _atom_site_occupancy
  Li  Li0  1  0.75000000  0.01254861  0.10761564  1
  Li  Li1  1  0.75000000  0.51254861  0.39238436  1
  Li  Li2  1  0.25000000  0.98745139  0.89238436  1
  Li  Li3  1  0.25000000  0.48745139  0.60761564  1
  Sm  Sm4  1  0.75000000  0.36081051  0.86393519  1
  Sm  Sm5  1  0.75000000  0.86081051  0.63606481  1
  Sm  Sm6  1  0.25000000  0.63918949  0.13606481  1
  Sm  Sm7  1  0.25000000  0.13918949  0.36393519  1
  Ge  Ge8  1  0.75000000  0.27325542  0.56538641  1
  Ge  Ge9  1  0.75000000  0.77325542  0.93461359  1
  Ge  Ge10  1  0.25000000  0.72674458  0.43461359  1
  Ge  Ge11  1  0.25000000  0.22674458  0.06538641  1
  Ge  Ge12  1  0.75000000  0.34720569  0.18569007  1
  Ge  Ge13  1  0.75000000  0.84720569  0.31430993  1
  Ge  Ge14  1  0.25000000  0.65279431  0.81430993  1
  Ge  Ge15  1  0.25000000  0.15279431  0.68569007  1
