# generated using pymatgen
data_Ce2Si2Ni15
_symmetry_space_group_name_H-M   'P 1'
_cell_length_a   8.24487856
_cell_length_b   8.29794295
_cell_length_c   8.29794295
_cell_angle_alpha   120.03072485
_cell_angle_beta   90.00000000
_cell_angle_gamma   90.00000000
_symmetry_Int_Tables_number   1
_chemical_formula_structural   Ce2Si2Ni15
_chemical_formula_sum   'Ce4 Si4 Ni30'
_cell_volume   491.49741937
_cell_formula_units_Z   2
loop_
 _symmetry_equiv_pos_site_id
 _symmetry_equiv_pos_as_xyz
  1  'x, y, z'
loop_
 _atom_site_type_symbol
 _atom_site_label
 _atom_site_symmetry_multiplicity
 _atom_site_fract_x
 _atom_site_fract_y
 _atom_site_fract_z
 _atom_site_occupancy
  Ce  Ce0  1  0.75000000  0.99997128  0.00002872  1
  Ce  Ce1  1  0.25000000  0.00002872  0.99997128  1
  Ce  Ce2  1  0.25000000  0.66666212  0.33333788  1
  Ce  Ce3  1  0.75000000  0.33333788  0.66666212  1
  Si  Si4  1  0.60413667  0.66668448  0.33331552  1
  Si  Si5  1  0.39586333  0.33331552  0.66668448  1
  Si  Si6  1  0.10413667  0.33331552  0.66668448  1
  Si  Si7  1  0.89586333  0.66668448  0.33331552  1
  Ni  Ni8  1  0.50000000  0.50000000  -0.00000000  1
  Ni  Ni9  1  0.50000000  0.50000000  0.50000000  1
  Ni  Ni10  1  0.50000000  -0.00000000  0.50000000  1
  Ni  Ni11  1  0.00000000  0.50000000  -0.00000000  1
  Ni  Ni12  1  0.00000000  0.50000000  0.50000000  1
  Ni  Ni13  1  0.00000000  -0.00000000  0.50000000  1
  Ni  Ni14  1  0.75000000  0.67095224  0.03498970  1
  Ni  Ni15  1  0.75000000  0.36400651  0.32906197  1
  Ni  Ni16  1  0.75000000  0.96472249  0.63567735  1
  Ni  Ni17  1  0.75000000  0.36432265  0.03527751  1
  Ni  Ni18  1  0.75000000  0.96501030  0.32904776  1
  Ni  Ni19  1  0.75000000  0.67093803  0.63599349  1
  Ni  Ni20  1  0.25000000  0.32904776  0.96501030  1
  Ni  Ni21  1  0.25000000  0.63599349  0.67093803  1
  Ni  Ni22  1  0.25000000  0.03527751  0.36432265  1
  Ni  Ni23  1  0.25000000  0.63567735  0.96472249  1
  Ni  Ni24  1  0.25000000  0.03498970  0.67095224  1
  Ni  Ni25  1  0.25000000  0.32906197  0.36400651  1
  Ni  Ni26  1  0.48354653  0.83232363  0.66464456  1
  Ni  Ni27  1  0.48339916  0.83236102  0.16763898  1
  Ni  Ni28  1  0.48354653  0.33535544  0.16767637  1
  Ni  Ni29  1  0.51645347  0.16767637  0.33535544  1
  Ni  Ni30  1  0.51660084  0.16763898  0.83236102  1
  Ni  Ni31  1  0.51645347  0.66464456  0.83232363  1
  Ni  Ni32  1  0.98354653  0.16767637  0.33535544  1
  Ni  Ni33  1  0.98339916  0.16763898  0.83236102  1
  Ni  Ni34  1  0.98354653  0.66464456  0.83232363  1
  Ni  Ni35  1  0.01645347  0.83232363  0.66464456  1
  Ni  Ni36  1  0.01660084  0.83236102  0.16763898  1
  Ni  Ni37  1  0.01645347  0.33535544  0.16767637  1
