# generated using pymatgen
data_Sr(FeSb3)4
_symmetry_space_group_name_H-M   'P 1'
_cell_length_a   7.98552095
_cell_length_b   7.98552095
_cell_length_c   7.98552095
_cell_angle_alpha   109.47122063
_cell_angle_beta   109.47122063
_cell_angle_gamma   109.47122063
_symmetry_Int_Tables_number   1
_chemical_formula_structural   Sr(FeSb3)4
_chemical_formula_sum   'Sr1 Fe4 Sb12'
_cell_volume   392.00162685
_cell_formula_units_Z   1
loop_
 _symmetry_equiv_pos_site_id
 _symmetry_equiv_pos_as_xyz
  1  'x, y, z'
loop_
 _atom_site_type_symbol
 _atom_site_label
 _atom_site_symmetry_multiplicity
 _atom_site_fract_x
 _atom_site_fract_y
 _atom_site_fract_z
 _atom_site_occupancy
  Sr  Sr0  1  -0.00000000  -0.00000000  0.00000000  1
  Fe  Fe1  1  -0.00000000  -0.00000000  0.50000000  1
  Fe  Fe2  1  0.50000000  -0.00000000  0.00000000  1
  Fe  Fe3  1  -0.00000000  0.50000000  0.00000000  1
  Fe  Fe4  1  0.50000000  0.50000000  0.50000000  1
  Sb  Sb5  1  0.33621686  0.17338735  0.83717048  1
  Sb  Sb6  1  0.66378314  0.82661265  0.16282952  1
  Sb  Sb7  1  0.66378314  0.50095362  0.83717048  1
  Sb  Sb8  1  0.33621686  0.49904638  0.16282952  1
  Sb  Sb9  1  0.17338735  0.83717048  0.33621686  1
  Sb  Sb10  1  0.82661265  0.16282952  0.66378314  1
  Sb  Sb11  1  0.50095362  0.83717048  0.66378314  1
  Sb  Sb12  1  0.49904638  0.16282952  0.33621686  1
  Sb  Sb13  1  0.83717048  0.33621686  0.17338735  1
  Sb  Sb14  1  0.16282952  0.66378314  0.82661265  1
  Sb  Sb15  1  0.83717048  0.66378314  0.50095362  1
  Sb  Sb16  1  0.16282952  0.33621686  0.49904638  1
