# generated using pymatgen
data_GdCrTeO6
_symmetry_space_group_name_H-M   'P 1'
_cell_length_a   5.20376835
_cell_length_b   5.20329476
_cell_length_c   9.97748508
_cell_angle_alpha   90.04492209
_cell_angle_beta   89.97754102
_cell_angle_gamma   119.99698674
_symmetry_Int_Tables_number   1
_chemical_formula_structural   GdCrTeO6
_chemical_formula_sum   'Gd2 Cr2 Te2 O12'
_cell_volume   233.97052806
_cell_formula_units_Z   2
loop_
 _symmetry_equiv_pos_site_id
 _symmetry_equiv_pos_as_xyz
  1  'x, y, z'
loop_
 _atom_site_type_symbol
 _atom_site_label
 _atom_site_symmetry_multiplicity
 _atom_site_fract_x
 _atom_site_fract_y
 _atom_site_fract_z
 _atom_site_occupancy
  Gd  Gd0  1  0.00000000  0.00000000  0.00000000  1
  Gd  Gd1  1  0.00000000  0.00000000  0.50000000  1
  Cr  Cr2  1  0.33335105  0.66667553  0.25000000  1
  Cr  Cr3  1  0.66664895  0.33332447  0.75000000  1
  Te  Te4  1  0.33311699  0.66655850  0.75000000  1
  Te  Te5  1  0.66688301  0.33344150  0.25000000  1
  O  O6  1  0.36777310  0.35798233  0.14099255  1
  O  O7  1  0.64212684  0.00947023  0.14085169  1
  O  O8  1  0.99058894  0.63256212  0.14093985  1
  O  O9  1  0.63222690  0.64201767  0.85900745  1
  O  O10  1  0.35787316  0.99052977  0.85914831  1
  O  O11  1  0.00941106  0.36743788  0.85906015  1
  O  O12  1  0.64212684  0.63265661  0.35914831  1
  O  O13  1  0.36777310  0.00979077  0.35900745  1
  O  O14  1  0.99058894  0.35802683  0.35906015  1
  O  O15  1  0.35787316  0.36734339  0.64085169  1
  O  O16  1  0.63222690  0.99020923  0.64099255  1
  O  O17  1  0.00941106  0.64197317  0.64093985  1
