# generated using pymatgen
data_Dy5Rh3
_symmetry_space_group_name_H-M   'P 1'
_cell_length_a   6.28115121
_cell_length_b   8.29559748
_cell_length_c   8.29234211
_cell_angle_alpha   120.01298362
_cell_angle_beta   90.00000000
_cell_angle_gamma   90.00000000
_symmetry_Int_Tables_number   1
_chemical_formula_structural   Dy5Rh3
_chemical_formula_sum   'Dy10 Rh6'
_cell_volume   374.14326188
_cell_formula_units_Z   2
loop_
 _symmetry_equiv_pos_site_id
 _symmetry_equiv_pos_as_xyz
  1  'x, y, z'
loop_
 _atom_site_type_symbol
 _atom_site_label
 _atom_site_symmetry_multiplicity
 _atom_site_fract_x
 _atom_site_fract_y
 _atom_site_fract_z
 _atom_site_occupancy
  Dy  Dy0  1  0.49999870  0.33333786  0.66669632  1
  Dy  Dy1  1  0.49999870  0.66664154  0.33330368  1
  Dy  Dy2  1  0.99999870  0.66666214  0.33330368  1
  Dy  Dy3  1  0.99999870  0.33335846  0.66669632  1
  Dy  Dy4  1  0.75001905  0.25549090  1.00000000  1
  Dy  Dy5  1  0.74998787  0.74451066  0.74452849  1
  Dy  Dy6  1  0.74998787  -0.00001783  0.25547151  1
  Dy  Dy7  1  0.25001905  0.74450910  0.00000000  1
  Dy  Dy8  1  0.24998787  0.25548934  0.25547151  1
  Dy  Dy9  1  0.24998787  0.00001783  0.74452849  1
  Rh  Rh10  1  0.75000003  0.60729386  0.00000000  1
  Rh  Rh11  1  0.75000389  0.39279050  0.39281035  1
  Rh  Rh12  1  0.75000389  0.99998014  0.60718965  1
  Rh  Rh13  1  0.25000003  0.39270614  1.00000000  1
  Rh  Rh14  1  0.25000389  0.60720950  0.60718965  1
  Rh  Rh15  1  0.25000389  0.00001986  0.39281035  1
