# generated using pymatgen
data_NbSiRu
_symmetry_space_group_name_H-M   'P 1'
_cell_length_a   6.55132164
_cell_length_b   7.28055279
_cell_length_c   7.45680372
_cell_angle_alpha   119.22115121
_cell_angle_beta   116.05825995
_cell_angle_gamma   90.00000000
_symmetry_Int_Tables_number   1
_chemical_formula_structural   NbSiRu
_chemical_formula_sum   'Nb6 Si6 Ru6'
_cell_volume   268.21952322
_cell_formula_units_Z   6
loop_
 _symmetry_equiv_pos_site_id
 _symmetry_equiv_pos_as_xyz
  1  'x, y, z'
loop_
 _atom_site_type_symbol
 _atom_site_label
 _atom_site_symmetry_multiplicity
 _atom_site_fract_x
 _atom_site_fract_y
 _atom_site_fract_z
 _atom_site_occupancy
  Nb  Nb0  1  0.90449853  0.94663514  0.39327029  1
  Nb  Nb1  1  0.51122824  0.05336486  0.60672971  1
  Nb  Nb2  1  0.50255332  0.53135436  0.56270872  1
  Nb  Nb3  1  0.93984460  0.46864564  0.43729128  1
  Nb  Nb4  1  0.08283266  0.74832984  0.99665968  1
  Nb  Nb5  1  0.08617298  0.25167016  0.00334032  1
  Si  Si6  1  0.47003543  0.72131215  0.94262431  1
  Si  Si7  1  0.52741112  0.27868785  0.05737569  1
  Si  Si8  1  0.17058932  0.66995607  0.33325662  1
  Si  Si9  1  0.83733270  0.33004393  0.66674338  1
  Si  Si10  1  0.17058932  0.16330055  0.33325662  1
  Si  Si11  1  0.83733270  0.83669945  0.66674338  1
  Ru  Ru12  1  0.74912582  0.50000000  -0.00000000  1
  Ru  Ru13  1  0.74912582  0.00000000  -0.00000000  1
  Ru  Ru14  1  0.25559979  0.90851368  0.75163586  1
  Ru  Ru15  1  0.50396393  0.09148632  0.24836414  1
  Ru  Ru16  1  0.25559979  0.34312218  0.75163586  1
  Ru  Ru17  1  0.50396393  0.65687782  0.24836414  1
