# generated using pymatgen
data_TbB2Ru
_symmetry_space_group_name_H-M   'P 1'
_cell_length_a   5.35173637
_cell_length_b   5.93961778
_cell_length_c   6.37029847
_cell_angle_alpha   90.00000000
_cell_angle_beta   90.00000000
_cell_angle_gamma   90.00000000
_symmetry_Int_Tables_number   1
_chemical_formula_structural   TbB2Ru
_chemical_formula_sum   'Tb4 B8 Ru4'
_cell_volume   202.49438787
_cell_formula_units_Z   4
loop_
 _symmetry_equiv_pos_site_id
 _symmetry_equiv_pos_as_xyz
  1  'x, y, z'
loop_
 _atom_site_type_symbol
 _atom_site_label
 _atom_site_symmetry_multiplicity
 _atom_site_fract_x
 _atom_site_fract_y
 _atom_site_fract_z
 _atom_site_occupancy
  Tb  Tb0  1  0.75000000  0.49052298  0.16196701  1
  Tb  Tb1  1  0.75000000  0.99052298  0.33803299  1
  Tb  Tb2  1  0.25000000  0.50947702  0.83803299  1
  Tb  Tb3  1  0.25000000  0.00947702  0.66196701  1
  B  B4  1  0.91529342  0.12978992  0.96101126  1
  B  B5  1  0.58470658  0.62978992  0.53898874  1
  B  B6  1  0.41529342  0.87021008  0.03898874  1
  B  B7  1  0.08470658  0.37021008  0.46101126  1
  B  B8  1  0.08470658  0.87021008  0.03898874  1
  B  B9  1  0.41529342  0.37021008  0.46101126  1
  B  B10  1  0.58470658  0.12978992  0.96101126  1
  B  B11  1  0.91529342  0.62978992  0.53898874  1
  Ru  Ru12  1  0.75000000  0.31881001  0.68100926  1
  Ru  Ru13  1  0.75000000  0.81881001  0.81899074  1
  Ru  Ru14  1  0.25000000  0.68118999  0.31899074  1
  Ru  Ru15  1  0.25000000  0.18118999  0.18100926  1
