# generated using pymatgen
data_Y6NiI10
_symmetry_space_group_name_H-M   'P 1'
_cell_length_a   7.71813506
_cell_length_b   9.70468040
_cell_length_c   9.73085419
_cell_angle_alpha   107.33636482
_cell_angle_beta   97.03260902
_cell_angle_gamma   104.82369768
_symmetry_Int_Tables_number   1
_chemical_formula_structural   Y6NiI10
_chemical_formula_sum   'Y6 Ni1 I10'
_cell_volume   656.82135952
_cell_formula_units_Z   1
loop_
 _symmetry_equiv_pos_site_id
 _symmetry_equiv_pos_as_xyz
  1  'x, y, z'
loop_
 _atom_site_type_symbol
 _atom_site_label
 _atom_site_symmetry_multiplicity
 _atom_site_fract_x
 _atom_site_fract_y
 _atom_site_fract_z
 _atom_site_occupancy
  Y  Y0  1  0.88771859  0.96078631  0.23798652  1
  Y  Y1  1  0.11228141  0.03921369  0.76201348  1
  Y  Y2  1  0.02930899  0.71820528  0.91544989  1
  Y  Y3  1  0.97069101  0.28179472  0.08455011  1
  Y  Y4  1  0.65633574  0.87724728  0.83713290  1
  Y  Y5  1  0.34366426  0.12275272  0.16286710  1
  Ni  Ni6  1  -0.00000000  0.00000000  -0.00000000  1
  I  I7  1  0.64335664  0.54512449  0.72603299  1
  I  I8  1  0.35664336  0.45487551  0.27396701  1
  I  I9  1  0.73834558  0.91097471  0.53534383  1
  I  I10  1  0.26165442  0.08902529  0.46465617  1
  I  I11  1  0.08565830  0.37226278  0.81858327  1
  I  I12  1  0.91434170  0.62773722  0.18141673  1
  I  I13  1  0.45317477  0.81519100  0.09311679  1
  I  I14  1  0.54682523  0.18480900  0.90688321  1
  I  I15  1  0.21994525  0.73973841  0.65135384  1
  I  I16  1  0.78005475  0.26026159  0.34864616  1
