# generated using pymatgen
data_Th(As3Os)4
_symmetry_space_group_name_H-M   'P 1'
_cell_length_a   7.47789489
_cell_length_b   7.47789489
_cell_length_c   7.47789489
_cell_angle_alpha   109.47122063
_cell_angle_beta   109.47122063
_cell_angle_gamma   109.47122063
_symmetry_Int_Tables_number   1
_chemical_formula_structural   Th(As3Os)4
_chemical_formula_sum   'Th1 As12 Os4'
_cell_volume   321.89644402
_cell_formula_units_Z   1
loop_
 _symmetry_equiv_pos_site_id
 _symmetry_equiv_pos_as_xyz
  1  'x, y, z'
loop_
 _atom_site_type_symbol
 _atom_site_label
 _atom_site_symmetry_multiplicity
 _atom_site_fract_x
 _atom_site_fract_y
 _atom_site_fract_z
 _atom_site_occupancy
  Th  Th0  1  -0.00000000  -0.00000000  -0.00000000  1
  As  As1  1  0.34620953  0.19698785  0.85077832  1
  As  As2  1  0.65379047  0.80301215  0.14922168  1
  As  As3  1  0.65379047  0.50456879  0.85077832  1
  As  As4  1  0.34620953  0.49543121  0.14922168  1
  As  As5  1  0.19698785  0.85077832  0.34620953  1
  As  As6  1  0.80301215  0.14922168  0.65379047  1
  As  As7  1  0.50456879  0.85077832  0.65379047  1
  As  As8  1  0.49543121  0.14922168  0.34620953  1
  As  As9  1  0.85077832  0.34620953  0.19698785  1
  As  As10  1  0.14922168  0.65379047  0.80301215  1
  As  As11  1  0.85077832  0.65379047  0.50456879  1
  As  As12  1  0.14922168  0.34620953  0.49543121  1
  Os  Os13  1  -0.00000000  -0.00000000  0.50000000  1
  Os  Os14  1  0.50000000  -0.00000000  -0.00000000  1
  Os  Os15  1  -0.00000000  0.50000000  -0.00000000  1
  Os  Os16  1  0.50000000  0.50000000  0.50000000  1
