# generated using pymatgen
data_Nd(ErS2)3
_symmetry_space_group_name_H-M   'P 1'
_cell_length_a   3.96705050
_cell_length_b   11.28035495
_cell_length_c   11.04465487
_cell_angle_alpha   108.74803325
_cell_angle_beta   90.00000000
_cell_angle_gamma   90.00000000
_symmetry_Int_Tables_number   1
_chemical_formula_structural   Nd(ErS2)3
_chemical_formula_sum   'Nd2 Er6 S12'
_cell_volume   468.02132196
_cell_formula_units_Z   2
loop_
 _symmetry_equiv_pos_site_id
 _symmetry_equiv_pos_as_xyz
  1  'x, y, z'
loop_
 _atom_site_type_symbol
 _atom_site_label
 _atom_site_symmetry_multiplicity
 _atom_site_fract_x
 _atom_site_fract_y
 _atom_site_fract_z
 _atom_site_occupancy
  Nd  Nd0  1  0.25000000  0.19413838  0.54805828  1
  Nd  Nd1  1  0.75000000  0.80586162  0.45194172  1
  Er  Er2  1  0.25000000  0.00206938  0.18038564  1
  Er  Er3  1  0.75000000  0.99793062  0.81961436  1
  Er  Er4  1  0.25000000  0.33255415  0.93827533  1
  Er  Er5  1  0.75000000  0.66744585  0.06172467  1
  Er  Er6  1  0.25000000  0.58596683  0.66117066  1
  Er  Er7  1  0.75000000  0.41403317  0.33882934  1
  S  S8  1  0.25000000  0.11193556  0.97734373  1
  S  S9  1  0.75000000  0.88806444  0.02265627  1
  S  S10  1  0.25000000  0.25156631  0.30499865  1
  S  S11  1  0.75000000  0.74843369  0.69500135  1
  S  S12  1  0.25000000  0.56129252  0.89633189  1
  S  S13  1  0.75000000  0.43870748  0.10366811  1
  S  S14  1  0.25000000  0.59440896  0.41842035  1
  S  S15  1  0.75000000  0.40559104  0.58157965  1
  S  S16  1  0.25000000  0.77291206  0.23718958  1
  S  S17  1  0.75000000  0.22708794  0.76281042  1
  S  S18  1  0.25000000  0.96352032  0.61806901  1
  S  S19  1  0.75000000  0.03647968  0.38193099  1
