# generated using pymatgen
data_Nb3CrS6
_symmetry_space_group_name_H-M   'P 1'
_cell_length_a   5.80482271
_cell_length_b   5.80475668
_cell_length_c   12.19620675
_cell_angle_alpha   89.99960972
_cell_angle_beta   90.00000001
_cell_angle_gamma   120.00037143
_symmetry_Int_Tables_number   1
_chemical_formula_structural   Nb3CrS6
_chemical_formula_sum   'Nb6 Cr2 S12'
_cell_volume   355.89899758
_cell_formula_units_Z   2
loop_
 _symmetry_equiv_pos_site_id
 _symmetry_equiv_pos_as_xyz
  1  'x, y, z'
loop_
 _atom_site_type_symbol
 _atom_site_label
 _atom_site_symmetry_multiplicity
 _atom_site_fract_x
 _atom_site_fract_y
 _atom_site_fract_z
 _atom_site_occupancy
  Nb  Nb0  1  0.99998461  1.00000000  0.50000000  1
  Nb  Nb1  1  0.00000091  0.00000000  0.00000000  1
  Nb  Nb2  1  0.66666763  0.33333963  0.00283442  1
  Nb  Nb3  1  0.33332800  0.66666037  0.99716558  1
  Nb  Nb4  1  0.33330007  0.66666861  0.50283407  1
  Nb  Nb5  1  0.66663147  0.33333139  0.49716593  1
  Cr  Cr6  1  0.66676994  0.33331419  0.75000806  1
  Cr  Cr7  1  0.33345575  0.66668581  0.24999194  1
  S  S8  1  0.66813927  0.00269460  0.62999502  1
  S  S9  1  0.33453320  0.33183103  0.63000465  1
  S  S10  1  0.99727156  0.66544814  0.62999899  1
  S  S11  1  0.66544467  0.99730540  0.37000498  1
  S  S12  1  0.00270217  0.66816897  0.36999535  1
  S  S13  1  0.33182342  0.33455186  0.37000101  1
  S  S14  1  0.33184370  0.99729393  0.13000172  1
  S  S15  1  0.66547207  0.66816433  0.12999252  1
  S  S16  1  0.00271468  0.33455533  0.13000169  1
  S  S17  1  0.33454977  0.00270607  0.86999828  1
  S  S18  1  0.99730774  0.33183567  0.87000748  1
  S  S19  1  0.66815935  0.66544467  0.86999831  1
