# generated using pymatgen
data_TbB2Os
_symmetry_space_group_name_H-M   'P 1'
_cell_length_a   5.34044479
_cell_length_b   5.92661407
_cell_length_c   6.39106965
_cell_angle_alpha   90.00000000
_cell_angle_beta   90.00000000
_cell_angle_gamma   90.00000000
_symmetry_Int_Tables_number   1
_chemical_formula_structural   TbB2Os
_chemical_formula_sum   'Tb4 B8 Os4'
_cell_volume   202.28218117
_cell_formula_units_Z   4
loop_
 _symmetry_equiv_pos_site_id
 _symmetry_equiv_pos_as_xyz
  1  'x, y, z'
loop_
 _atom_site_type_symbol
 _atom_site_label
 _atom_site_symmetry_multiplicity
 _atom_site_fract_x
 _atom_site_fract_y
 _atom_site_fract_z
 _atom_site_occupancy
  Tb  Tb0  1  0.75000000  0.49015832  0.16387407  1
  Tb  Tb1  1  0.75000000  0.99015832  0.33612593  1
  Tb  Tb2  1  0.25000000  0.50984168  0.83612593  1
  Tb  Tb3  1  0.25000000  0.00984168  0.66387407  1
  B  B4  1  0.91719007  0.13598047  0.96041806  1
  B  B5  1  0.58280993  0.63598047  0.53958194  1
  B  B6  1  0.41719007  0.86401953  0.03958194  1
  B  B7  1  0.08280993  0.36401953  0.46041806  1
  B  B8  1  0.08280993  0.86401953  0.03958194  1
  B  B9  1  0.41719007  0.36401953  0.46041806  1
  B  B10  1  0.58280993  0.13598047  0.96041806  1
  B  B11  1  0.91719007  0.63598047  0.53958194  1
  Os  Os12  1  0.75000000  0.32370499  0.68061966  1
  Os  Os13  1  0.75000000  0.82370499  0.81938034  1
  Os  Os14  1  0.25000000  0.67629501  0.31938034  1
  Os  Os15  1  0.25000000  0.17629501  0.18061966  1
