# generated using pymatgen
data_Fe2P
_symmetry_space_group_name_H-M   'P 1'
_cell_length_a   6.05128527
_cell_length_b   6.51667203
_cell_length_c   6.73153150
_cell_angle_alpha   118.94964506
_cell_angle_beta   116.70988648
_cell_angle_gamma   90.00000000
_symmetry_Int_Tables_number   1
_chemical_formula_structural   Fe2P
_chemical_formula_sum   'Fe12 P6'
_cell_volume   199.29806474
_cell_formula_units_Z   6
loop_
 _symmetry_equiv_pos_site_id
 _symmetry_equiv_pos_as_xyz
  1  'x, y, z'
loop_
 _atom_site_type_symbol
 _atom_site_label
 _atom_site_symmetry_multiplicity
 _atom_site_fract_x
 _atom_site_fract_y
 _atom_site_fract_z
 _atom_site_occupancy
  Fe  Fe0  1  0.01107448  0.58898924  0.74057262  1
  Fe  Fe1  1  0.27050186  0.41101076  0.25942738  1
  Fe  Fe2  1  0.01107448  0.15158338  0.74057262  1
  Fe  Fe3  1  0.27050186  0.84841662  0.25942738  1
  Fe  Fe4  1  0.74808125  0.21718297  0.00000000  1
  Fe  Fe5  1  0.74808125  0.78281703  1.00000000  1
  Fe  Fe6  1  0.98117893  0.70067071  0.40134141  1
  Fe  Fe7  1  0.57983752  0.29932929  0.59865859  1
  Fe  Fe8  1  0.06251670  0.20836828  0.41673657  1
  Fe  Fe9  1  0.64578013  0.79163172  0.58326343  1
  Fe  Fe10  1  0.42791229  0.50000000  0.00000000  1
  Fe  Fe11  1  0.38514815  0.00000000  -0.00000000  1
  P  P12  1  0.34432610  0.60371985  0.66903553  1
  P  P13  1  0.67529058  0.39628015  0.33096447  1
  P  P14  1  0.34432610  0.06531568  0.66903553  1
  P  P15  1  0.67529058  0.93468432  0.33096447  1
  P  P16  1  0.95295320  0.50000000  -0.00000000  1
  P  P17  1  0.03212453  -0.00000000  0.00000000  1
