# generated using pymatgen
data_Ce(TmS2)3
_symmetry_space_group_name_H-M   'P 1'
_cell_length_a   3.95477630
_cell_length_b   11.24381286
_cell_length_c   11.03068082
_cell_angle_alpha   108.82577960
_cell_angle_beta   90.00000000
_cell_angle_gamma   90.00000000
_symmetry_Int_Tables_number   1
_chemical_formula_structural   Ce(TmS2)3
_chemical_formula_sum   'Ce2 Tm6 S12'
_cell_volume   464.25905041
_cell_formula_units_Z   2
loop_
 _symmetry_equiv_pos_site_id
 _symmetry_equiv_pos_as_xyz
  1  'x, y, z'
loop_
 _atom_site_type_symbol
 _atom_site_label
 _atom_site_symmetry_multiplicity
 _atom_site_fract_x
 _atom_site_fract_y
 _atom_site_fract_z
 _atom_site_occupancy
  Ce  Ce0  1  0.25000000  0.19482093  0.55009240  1
  Ce  Ce1  1  0.75000000  0.80517907  0.44990760  1
  Tm  Tm2  1  0.25000000  0.00020120  0.17972379  1
  Tm  Tm3  1  0.75000000  -0.00020120  0.82027621  1
  Tm  Tm4  1  0.25000000  0.33364092  0.94313234  1
  Tm  Tm5  1  0.75000000  0.66635908  0.05686766  1
  Tm  Tm6  1  0.25000000  0.58627453  0.66025250  1
  Tm  Tm7  1  0.75000000  0.41372547  0.33974750  1
  S  S8  1  0.25000000  0.11188865  0.97881605  1
  S  S9  1  0.75000000  0.88811135  0.02118395  1
  S  S10  1  0.25000000  0.25039237  0.30333055  1
  S  S11  1  0.75000000  0.74960763  0.69666945  1
  S  S12  1  0.25000000  0.55742430  0.89260086  1
  S  S13  1  0.75000000  0.44257570  0.10739914  1
  S  S14  1  0.25000000  0.59420222  0.41882935  1
  S  S15  1  0.75000000  0.40579778  0.58117065  1
  S  S16  1  0.25000000  0.77003030  0.23238263  1
  S  S17  1  0.75000000  0.22996970  0.76761737  1
  S  S18  1  0.25000000  0.96334845  0.61913382  1
  S  S19  1  0.75000000  0.03665155  0.38086618  1
