# generated using pymatgen
data_Ho2Te3
_symmetry_space_group_name_H-M   'P 1'
_cell_length_a   7.49956889
_cell_length_b   7.49956889
_cell_length_c   13.79882227
_cell_angle_alpha   100.47933570
_cell_angle_beta   100.47933570
_cell_angle_gamma   109.31108380
_symmetry_Int_Tables_number   1
_chemical_formula_structural   Ho2Te3
_chemical_formula_sum   'Ho8 Te12'
_cell_volume   695.28664275
_cell_formula_units_Z   4
loop_
 _symmetry_equiv_pos_site_id
 _symmetry_equiv_pos_as_xyz
  1  'x, y, z'
loop_
 _atom_site_type_symbol
 _atom_site_label
 _atom_site_symmetry_multiplicity
 _atom_site_fract_x
 _atom_site_fract_y
 _atom_site_fract_z
 _atom_site_occupancy
  Ho  Ho0  1  0.70772769  0.95772769  0.91545538  1
  Ho  Ho1  1  0.54227231  0.79227231  0.58454462  1
  Ho  Ho2  1  0.29227231  0.04227231  0.08454462  1
  Ho  Ho3  1  0.45772769  0.20772769  0.41545538  1
  Ho  Ho4  1  0.37493989  0.62493989  0.24987979  1
  Ho  Ho5  1  0.87506011  0.12506011  0.25012021  1
  Ho  Ho6  1  0.62506011  0.37506011  0.75012021  1
  Ho  Ho7  1  0.12493989  0.87493989  0.74987979  1
  Te  Te8  1  0.87759971  0.12759971  0.75000000  1
  Te  Te9  1  0.37240029  0.62240029  0.75000000  1
  Te  Te10  1  0.12240029  0.87240029  0.25000000  1
  Te  Te11  1  0.62759971  0.37759971  0.25000000  1
  Te  Te12  1  0.54316602  0.79222132  0.08412914  1
  Te  Te13  1  0.70777868  0.95683398  0.41587086  1
  Te  Te14  1  0.20809218  0.45903688  0.41587086  1
  Te  Te15  1  0.04096312  0.29190782  0.08412914  1
  Te  Te16  1  0.45683398  0.20777868  0.91587086  1
  Te  Te17  1  0.29222132  0.04316602  0.58412914  1
  Te  Te18  1  0.79190782  0.54096312  0.58412914  1
  Te  Te19  1  0.95903688  0.70809218  0.91587086  1
