# generated using pymatgen
data_Ce5CuBi3
_symmetry_space_group_name_H-M   'P 1'
_cell_length_a   6.49483203
_cell_length_b   9.61615387
_cell_length_c   9.61604671
_cell_angle_alpha   120.00036485
_cell_angle_beta   90.00000000
_cell_angle_gamma   90.00000000
_symmetry_Int_Tables_number   1
_chemical_formula_structural   Ce5CuBi3
_chemical_formula_sum   'Ce10 Cu2 Bi6'
_cell_volume   520.10966838
_cell_formula_units_Z   2
loop_
 _symmetry_equiv_pos_site_id
 _symmetry_equiv_pos_as_xyz
  1  'x, y, z'
loop_
 _atom_site_type_symbol
 _atom_site_label
 _atom_site_symmetry_multiplicity
 _atom_site_fract_x
 _atom_site_fract_y
 _atom_site_fract_z
 _atom_site_occupancy
  Ce  Ce0  1  0.50000066  0.33346342  0.66691897  1
  Ce  Ce1  1  0.50000066  0.66654445  0.33308103  1
  Ce  Ce2  1  0.00000066  0.66653658  0.33308103  1
  Ce  Ce3  1  0.00000066  0.33345555  0.66691897  1
  Ce  Ce4  1  0.74999784  0.25738056  1.00000000  1
  Ce  Ce5  1  0.75000594  0.74261633  0.74284588  1
  Ce  Ce6  1  0.75000594  -0.00022955  0.25715412  1
  Ce  Ce7  1  0.24999784  0.74261944  0.00000000  1
  Ce  Ce8  1  0.25000594  0.25738367  0.25715412  1
  Ce  Ce9  1  0.25000594  0.00022955  0.74284588  1
  Cu  Cu10  1  0.49995660  -0.00000133  1.00000000  1
  Cu  Cu11  1  0.99995660  0.00000133  0.00000000  1
  Bi  Bi12  1  0.75001375  0.61526673  0.00000000  1
  Bi  Bi13  1  0.75000931  0.38457129  0.38461372  1
  Bi  Bi14  1  0.75000931  -0.00004243  0.61538628  1
  Bi  Bi15  1  0.25001375  0.38473327  1.00000000  1
  Bi  Bi16  1  0.25000931  0.61542871  0.61538628  1
  Bi  Bi17  1  0.25000931  0.00004243  0.38461372  1
