# generated using pymatgen
data_Er3Tl2Cu5S8
_symmetry_space_group_name_H-M   'P 1'
_cell_length_a   3.90824072
_cell_length_b   7.18413196
_cell_length_c   13.68595304
_cell_angle_alpha   80.94936574
_cell_angle_beta   81.79108591
_cell_angle_gamma   74.21638454
_symmetry_Int_Tables_number   1
_chemical_formula_structural   Er3Tl2Cu5S8
_chemical_formula_sum   'Er3 Tl2 Cu5 S8'
_cell_volume   363.14544331
_cell_formula_units_Z   1
loop_
 _symmetry_equiv_pos_site_id
 _symmetry_equiv_pos_as_xyz
  1  'x, y, z'
loop_
 _atom_site_type_symbol
 _atom_site_label
 _atom_site_symmetry_multiplicity
 _atom_site_fract_x
 _atom_site_fract_y
 _atom_site_fract_z
 _atom_site_occupancy
  Er  Er0  1  0.03709326  0.33354340  0.59227008  1
  Er  Er1  1  0.33380196  0.50513786  0.82725821  1
  Er  Er2  1  0.19708252  0.39303306  0.21280190  1
  Tl  Tl3  1  0.99988438  0.00059312  0.99963812  1
  Tl  Tl4  1  0.37152686  0.84319155  0.41375474  1
  Cu  Cu5  1  0.71753884  0.54672262  0.01819969  1
  Cu  Cu6  1  0.65675269  0.27947220  0.40702243  1
  Cu  Cu7  1  0.97914894  0.83271887  0.20898325  1
  Cu  Cu8  1  0.78715156  0.76319985  0.66249703  1
  Cu  Cu9  1  0.58561701  0.07142422  0.75734175  1
  S  S10  1  0.57514410  0.68052485  0.16918695  1
  S  S11  1  0.31248668  0.35833104  0.01669560  1
  S  S12  1  0.69539346  0.75960808  0.84960499  1
  S  S13  1  0.80448992  0.13268827  0.25833190  1
  S  S14  1  0.06233773  0.47364115  0.40168340  1
  S  S15  1  0.67524303  0.07813554  0.57137839  1
  S  S16  1  0.38629148  0.60000523  0.62741181  1
  S  S17  1  0.98512558  0.23728910  0.79245975  1
