# generated using pymatgen
data_La3Ru
_symmetry_space_group_name_H-M   'P 1'
_cell_length_a   6.60494602
_cell_length_b   7.38880629
_cell_length_c   10.14187120
_cell_angle_alpha   90.00000000
_cell_angle_beta   90.00000000
_cell_angle_gamma   90.00000000
_symmetry_Int_Tables_number   1
_chemical_formula_structural   La3Ru
_chemical_formula_sum   'La12 Ru4'
_cell_volume   494.95035986
_cell_formula_units_Z   4
loop_
 _symmetry_equiv_pos_site_id
 _symmetry_equiv_pos_as_xyz
  1  'x, y, z'
loop_
 _atom_site_type_symbol
 _atom_site_label
 _atom_site_symmetry_multiplicity
 _atom_site_fract_x
 _atom_site_fract_y
 _atom_site_fract_z
 _atom_site_occupancy
  La  La0  1  0.32910436  0.66832433  0.06916508  1
  La  La1  1  0.17089564  0.16832433  0.43083492  1
  La  La2  1  0.67089564  0.33167567  0.56916508  1
  La  La3  1  0.82910436  0.83167567  0.93083492  1
  La  La4  1  0.67089564  0.33167567  0.93083492  1
  La  La5  1  0.82910436  0.83167567  0.56916508  1
  La  La6  1  0.32910436  0.66832433  0.43083492  1
  La  La7  1  0.17089564  0.16832433  0.06916508  1
  La  La8  1  0.85049037  0.55073959  0.25000000  1
  La  La9  1  0.64950963  0.05073959  0.25000000  1
  La  La10  1  0.14950963  0.44926041  0.75000000  1
  La  La11  1  0.35049037  0.94926041  0.75000000  1
  Ru  Ru12  1  0.05487867  0.87332757  0.25000000  1
  Ru  Ru13  1  0.44512133  0.37332757  0.25000000  1
  Ru  Ru14  1  0.94512133  0.12667243  0.75000000  1
  Ru  Ru15  1  0.55487867  0.62667243  0.75000000  1
