# generated using pymatgen
data_Yb5Ir3
_symmetry_space_group_name_H-M   'P 1'
_cell_length_a   5.96609596
_cell_length_b   8.31521694
_cell_length_c   8.30948497
_cell_angle_alpha   120.02282490
_cell_angle_beta   90.00000000
_cell_angle_gamma   90.00000000
_symmetry_Int_Tables_number   1
_chemical_formula_structural   Yb5Ir3
_chemical_formula_sum   'Yb10 Ir6'
_cell_volume   356.91814237
_cell_formula_units_Z   2
loop_
 _symmetry_equiv_pos_site_id
 _symmetry_equiv_pos_as_xyz
  1  'x, y, z'
loop_
 _atom_site_type_symbol
 _atom_site_label
 _atom_site_symmetry_multiplicity
 _atom_site_fract_x
 _atom_site_fract_y
 _atom_site_fract_z
 _atom_site_occupancy
  Yb  Yb0  1  0.49999934  0.33343780  0.66689116  1
  Yb  Yb1  1  0.49999934  0.66654664  0.33310884  1
  Yb  Yb2  1  0.99999934  0.66656220  0.33310884  1
  Yb  Yb3  1  0.99999934  0.33345336  0.66689116  1
  Yb  Yb4  1  0.75000718  0.26587886  1.00000000  1
  Yb  Yb5  1  0.74999633  0.73420229  0.73445954  1
  Yb  Yb6  1  0.74999633  0.99974275  0.26554046  1
  Yb  Yb7  1  0.25000718  0.73412114  0.00000000  1
  Yb  Yb8  1  0.24999633  0.26579771  0.26554046  1
  Yb  Yb9  1  0.24999633  0.00025725  0.73445954  1
  Ir  Ir10  1  0.74999396  0.60658594  0.00000000  1
  Ir  Ir11  1  0.75000377  0.39322197  0.39339731  1
  Ir  Ir12  1  0.75000377  -0.00017534  0.60660269  1
  Ir  Ir13  1  0.24999396  0.39341406  1.00000000  1
  Ir  Ir14  1  0.25000377  0.60677803  0.60660269  1
  Ir  Ir15  1  0.25000377  0.00017534  0.39339731  1
