# generated using pymatgen
data_Sc7CoBr12
_symmetry_space_group_name_H-M   'P 1'
_cell_length_a   8.72847146
_cell_length_b   8.72847146
_cell_length_c   8.72847162
_cell_angle_alpha   107.03203120
_cell_angle_beta   107.03203120
_cell_angle_gamma   107.03203668
_symmetry_Int_Tables_number   1
_chemical_formula_structural   Sc7CoBr12
_chemical_formula_sum   'Sc7 Co1 Br12'
_cell_volume   553.32473008
_cell_formula_units_Z   1
loop_
 _symmetry_equiv_pos_site_id
 _symmetry_equiv_pos_as_xyz
  1  'x, y, z'
loop_
 _atom_site_type_symbol
 _atom_site_label
 _atom_site_symmetry_multiplicity
 _atom_site_fract_x
 _atom_site_fract_y
 _atom_site_fract_z
 _atom_site_occupancy
  Sc  Sc0  1  0.29886446  0.09484532  0.02321079  1
  Sc  Sc1  1  0.09484532  0.02321079  0.29886446  1
  Sc  Sc2  1  0.02321079  0.29886446  0.09484532  1
  Sc  Sc3  1  0.70113554  0.90515468  0.97678921  1
  Sc  Sc4  1  0.90515468  0.97678921  0.70113554  1
  Sc  Sc5  1  0.97678921  0.70113554  0.90515468  1
  Sc  Sc6  1  0.50000000  0.50000000  0.50000000  1
  Co  Co7  1  0.00000000  -0.00000000  0.00000000  1
  Br  Br8  1  0.22002339  0.06979582  0.68019174  1
  Br  Br9  1  0.06979582  0.68019174  0.22002339  1
  Br  Br10  1  0.68019174  0.22002339  0.06979582  1
  Br  Br11  1  0.77997661  0.93020418  0.31980826  1
  Br  Br12  1  0.93020418  0.31980826  0.77997661  1
  Br  Br13  1  0.31980826  0.77997661  0.93020418  1
  Br  Br14  1  0.38545523  0.45850931  0.16442672  1
  Br  Br15  1  0.45850931  0.16442672  0.38545523  1
  Br  Br16  1  0.16442672  0.38545523  0.45850931  1
  Br  Br17  1  0.61454477  0.54149069  0.83557328  1
  Br  Br18  1  0.54149069  0.83557328  0.61454477  1
  Br  Br19  1  0.83557328  0.61454477  0.54149069  1
