# generated using pymatgen
data_BaThO3
_symmetry_space_group_name_H-M   'P 1'
_cell_length_a   6.38836678
_cell_length_b   6.45121277
_cell_length_c   9.05257922
_cell_angle_alpha   90.00000000
_cell_angle_beta   90.00000000
_cell_angle_gamma   90.00000000
_symmetry_Int_Tables_number   1
_chemical_formula_structural   BaThO3
_chemical_formula_sum   'Ba4 Th4 O12'
_cell_volume   373.08135248
_cell_formula_units_Z   4
loop_
 _symmetry_equiv_pos_site_id
 _symmetry_equiv_pos_as_xyz
  1  'x, y, z'
loop_
 _atom_site_type_symbol
 _atom_site_label
 _atom_site_symmetry_multiplicity
 _atom_site_fract_x
 _atom_site_fract_y
 _atom_site_fract_z
 _atom_site_occupancy
  Ba  Ba0  1  0.51100409  0.53244100  0.25000000  1
  Ba  Ba1  1  0.98899591  0.03244100  0.25000000  1
  Ba  Ba2  1  0.48899591  0.46755900  0.75000000  1
  Ba  Ba3  1  0.01100409  0.96755900  0.75000000  1
  Th  Th4  1  0.00000000  0.50000000  0.00000000  1
  Th  Th5  1  0.50000000  0.00000000  0.50000000  1
  Th  Th6  1  -0.00000000  0.50000000  0.50000000  1
  Th  Th7  1  0.50000000  0.00000000  -0.00000000  1
  O  O8  1  0.40869194  0.96976955  0.25000000  1
  O  O9  1  0.09130806  0.46976955  0.25000000  1
  O  O10  1  0.59130806  0.03023045  0.75000000  1
  O  O11  1  0.90869194  0.53023045  0.75000000  1
  O  O12  1  0.78453417  0.78502499  0.05001046  1
  O  O13  1  0.71546583  0.28502499  0.44998954  1
  O  O14  1  0.21546583  0.21497501  0.55001046  1
  O  O15  1  0.28453417  0.71497501  0.94998954  1
  O  O16  1  0.21546583  0.21497501  0.94998954  1
  O  O17  1  0.28453417  0.71497501  0.55001046  1
  O  O18  1  0.78453417  0.78502499  0.44998954  1
  O  O19  1  0.71546583  0.28502499  0.05001046  1
