# generated using pymatgen
data_NaCuSO4F
_symmetry_space_group_name_H-M   'P 1'
_cell_length_a   5.59532503
_cell_length_b   5.59532503
_cell_length_c   6.95523967
_cell_angle_alpha   102.39025245
_cell_angle_beta   102.39025245
_cell_angle_gamma   99.99233376
_symmetry_Int_Tables_number   1
_chemical_formula_structural   NaCuSO4F
_chemical_formula_sum   'Na2 Cu2 S2 O8 F2'
_cell_volume   202.15047256
_cell_formula_units_Z   2
loop_
 _symmetry_equiv_pos_site_id
 _symmetry_equiv_pos_as_xyz
  1  'x, y, z'
loop_
 _atom_site_type_symbol
 _atom_site_label
 _atom_site_symmetry_multiplicity
 _atom_site_fract_x
 _atom_site_fract_y
 _atom_site_fract_z
 _atom_site_occupancy
  Na  Na0  1  0.34971859  0.65028141  0.25000000  1
  Na  Na1  1  0.65028141  0.34971859  0.75000000  1
  Cu  Cu2  1  -0.00000000  -0.00000000  0.50000000  1
  Cu  Cu3  1  -0.00000000  -0.00000000  0.00000000  1
  S  S4  1  0.69645372  0.30354628  0.25000000  1
  S  S5  1  0.30354628  0.69645372  0.75000000  1
  O  O6  1  0.69728679  0.09841606  0.36141249  1
  O  O7  1  0.90158394  0.30271321  0.13858751  1
  O  O8  1  0.30271321  0.90158394  0.63858751  1
  O  O9  1  0.09841606  0.69728679  0.86141249  1
  O  O10  1  0.74566593  0.55005718  0.39745890  1
  O  O11  1  0.44994282  0.25433407  0.10254110  1
  O  O12  1  0.25433407  0.44994282  0.60254110  1
  O  O13  1  0.55005718  0.74566593  0.89745890  1
  F  F14  1  0.09325046  0.90674954  0.25000000  1
  F  F15  1  0.90674954  0.09325046  0.75000000  1
