# generated using pymatgen
data_Ba4USe6
_symmetry_space_group_name_H-M   'P 1'
_cell_length_a   9.08982833
_cell_length_b   9.08982833
_cell_length_c   9.08982833
_cell_angle_alpha   89.51739799
_cell_angle_beta   90.48260203
_cell_angle_gamma   90.48260201
_symmetry_Int_Tables_number   1
_chemical_formula_structural   Ba4USe6
_chemical_formula_sum   'Ba8 U2 Se12'
_cell_volume   750.96739542
_cell_formula_units_Z   2
loop_
 _symmetry_equiv_pos_site_id
 _symmetry_equiv_pos_as_xyz
  1  'x, y, z'
loop_
 _atom_site_type_symbol
 _atom_site_label
 _atom_site_symmetry_multiplicity
 _atom_site_fract_x
 _atom_site_fract_y
 _atom_site_fract_z
 _atom_site_occupancy
  Ba  Ba0  1  0.37471487  0.25000000  0.87471487  1
  Ba  Ba1  1  0.12528513  0.62528513  0.25000000  1
  Ba  Ba2  1  0.75000000  0.87471487  0.62528513  1
  Ba  Ba3  1  0.87471487  0.37471487  0.75000000  1
  Ba  Ba4  1  0.25000000  0.12528513  0.37471487  1
  Ba  Ba5  1  0.62528513  0.75000000  0.12528513  1
  Ba  Ba6  1  0.75000000  0.25000000  0.25000000  1
  Ba  Ba7  1  0.25000000  0.75000000  0.75000000  1
  U  U8  1  0.50000000  0.50000000  0.50000000  1
  U  U9  1  0.00000000  -0.00000000  -0.00000000  1
  Se  Se10  1  0.43899027  0.42348260  0.20182777  1
  Se  Se11  1  0.79817223  0.56100973  0.42348260  1
  Se  Se12  1  0.57651740  0.20182777  0.56100973  1
  Se  Se13  1  0.93899027  0.70182777  0.92348260  1
  Se  Se14  1  0.07651740  0.06100973  0.70182777  1
  Se  Se15  1  0.29817223  0.92348260  0.06100973  1
  Se  Se16  1  0.56100973  0.57651740  0.79817223  1
  Se  Se17  1  0.20182777  0.43899027  0.57651740  1
  Se  Se18  1  0.42348260  0.79817223  0.43899027  1
  Se  Se19  1  0.06100973  0.29817223  0.07651740  1
  Se  Se20  1  0.92348260  0.93899027  0.29817223  1
  Se  Se21  1  0.70182777  0.07651740  0.93899027  1
