# generated using pymatgen
data_Yb5CdCu2
_symmetry_space_group_name_H-M   'P 1'
_cell_length_a   7.77789019
_cell_length_b   7.77789019
_cell_length_c   9.05766081
_cell_angle_alpha   115.42658919
_cell_angle_beta   115.42658919
_cell_angle_gamma   90.00000000
_symmetry_Int_Tables_number   1
_chemical_formula_structural   Yb5CdCu2
_chemical_formula_sum   'Yb10 Cd2 Cu4'
_cell_volume   435.37243113
_cell_formula_units_Z   2
loop_
 _symmetry_equiv_pos_site_id
 _symmetry_equiv_pos_as_xyz
  1  'x, y, z'
loop_
 _atom_site_type_symbol
 _atom_site_label
 _atom_site_symmetry_multiplicity
 _atom_site_fract_x
 _atom_site_fract_y
 _atom_site_fract_z
 _atom_site_occupancy
  Yb  Yb0  1  0.50000000  0.50000000  0.00000000  1
  Yb  Yb1  1  0.00000000  0.00000000  0.00000000  1
  Yb  Yb2  1  0.02985330  0.52985330  0.72564098  1
  Yb  Yb3  1  0.69578767  0.19578767  0.72564098  1
  Yb  Yb4  1  0.19578767  0.02985330  0.72564098  1
  Yb  Yb5  1  0.52985330  0.69578767  0.72564098  1
  Yb  Yb6  1  0.97014670  0.47014670  0.27435902  1
  Yb  Yb7  1  0.30421233  0.80421233  0.27435902  1
  Yb  Yb8  1  0.80421233  0.97014670  0.27435902  1
  Yb  Yb9  1  0.47014670  0.30421233  0.27435902  1
  Cd  Cd10  1  0.25000000  0.25000000  0.50000000  1
  Cd  Cd11  1  0.75000000  0.75000000  0.50000000  1
  Cu  Cu12  1  0.61785327  0.11785327  0.00000000  1
  Cu  Cu13  1  0.38214673  0.88214673  1.00000000  1
  Cu  Cu14  1  0.88214673  0.61785327  0.00000000  1
  Cu  Cu15  1  0.11785327  0.38214673  0.00000000  1
