# generated using pymatgen
data_Ho3NiGe2
_symmetry_space_group_name_H-M   'P 1'
_cell_length_a   4.14681663
_cell_length_b   11.24056976
_cell_length_c   11.32724092
_cell_angle_alpha   90.00000000
_cell_angle_beta   90.00000000
_cell_angle_gamma   90.00000000
_symmetry_Int_Tables_number   1
_chemical_formula_structural   Ho3NiGe2
_chemical_formula_sum   'Ho12 Ni4 Ge8'
_cell_volume   527.99194182
_cell_formula_units_Z   4
loop_
 _symmetry_equiv_pos_site_id
 _symmetry_equiv_pos_as_xyz
  1  'x, y, z'
loop_
 _atom_site_type_symbol
 _atom_site_label
 _atom_site_symmetry_multiplicity
 _atom_site_fract_x
 _atom_site_fract_y
 _atom_site_fract_z
 _atom_site_occupancy
  Ho  Ho0  1  0.25000000  0.05814804  0.87878331  1
  Ho  Ho1  1  0.25000000  0.44185196  0.37878331  1
  Ho  Ho2  1  0.75000000  0.94185196  0.12121669  1
  Ho  Ho3  1  0.75000000  0.55814804  0.62121669  1
  Ho  Ho4  1  0.25000000  0.12862385  0.55594398  1
  Ho  Ho5  1  0.25000000  0.37137615  0.05594398  1
  Ho  Ho6  1  0.75000000  0.87137615  0.44405602  1
  Ho  Ho7  1  0.75000000  0.62862385  0.94405602  1
  Ho  Ho8  1  0.25000000  0.80184127  0.71869079  1
  Ho  Ho9  1  0.25000000  0.69815873  0.21869079  1
  Ho  Ho10  1  0.75000000  0.19815873  0.28130921  1
  Ho  Ho11  1  0.75000000  0.30184127  0.78130921  1
  Ni  Ni12  1  0.25000000  0.36919208  0.62923073  1
  Ni  Ni13  1  0.25000000  0.13080792  0.12923073  1
  Ni  Ni14  1  0.75000000  0.63080792  0.37076927  1
  Ni  Ni15  1  0.75000000  0.86919208  0.87076927  1
  Ge  Ge16  1  0.25000000  0.81490721  0.98188327  1
  Ge  Ge17  1  0.25000000  0.68509279  0.48188327  1
  Ge  Ge18  1  0.75000000  0.18509279  0.01811673  1
  Ge  Ge19  1  0.75000000  0.31490721  0.51811673  1
  Ge  Ge20  1  0.25000000  0.49584205  0.80993786  1
  Ge  Ge21  1  0.25000000  0.00415795  0.30993786  1
  Ge  Ge22  1  0.75000000  0.50415795  0.19006214  1
  Ge  Ge23  1  0.75000000  0.99584205  0.69006214  1
