# generated using pymatgen
data_CsNd2Ag3Te5
_symmetry_space_group_name_H-M   'P 1'
_cell_length_a   4.66667710
_cell_length_b   8.57799468
_cell_length_c   18.99896144
_cell_angle_alpha   90.00000000
_cell_angle_beta   90.00000000
_cell_angle_gamma   105.78417391
_symmetry_Int_Tables_number   1
_chemical_formula_structural   CsNd2Ag3Te5
_chemical_formula_sum   'Cs2 Nd4 Ag6 Te10'
_cell_volume   731.86467728
_cell_formula_units_Z   2
loop_
 _symmetry_equiv_pos_site_id
 _symmetry_equiv_pos_as_xyz
  1  'x, y, z'
loop_
 _atom_site_type_symbol
 _atom_site_label
 _atom_site_symmetry_multiplicity
 _atom_site_fract_x
 _atom_site_fract_y
 _atom_site_fract_z
 _atom_site_occupancy
  Cs  Cs0  1  0.44078951  0.88157902  0.25000000  1
  Cs  Cs1  1  0.55921049  0.11842098  0.75000000  1
  Nd  Nd2  1  0.30943586  0.61887173  0.90693100  1
  Nd  Nd3  1  0.69056414  0.38112827  0.09306900  1
  Nd  Nd4  1  0.30943586  0.61887173  0.59306900  1
  Nd  Nd5  1  0.69056414  0.38112827  0.40693100  1
  Ag  Ag6  1  0.15953701  0.31907401  0.25000000  1
  Ag  Ag7  1  0.84046299  0.68092599  0.75000000  1
  Ag  Ag8  1  0.91392620  0.82785240  0.46966457  1
  Ag  Ag9  1  0.08607380  0.17214760  0.53033543  1
  Ag  Ag10  1  0.91392620  0.82785240  0.03033543  1
  Ag  Ag11  1  0.08607380  0.17214760  0.96966457  1
  Te  Te12  1  0.93923274  0.87846549  0.88084319  1
  Te  Te13  1  0.06076726  0.12153451  0.11915681  1
  Te  Te14  1  0.93923274  0.87846549  0.61915681  1
  Te  Te15  1  0.06076726  0.12153451  0.38084319  1
  Te  Te16  1  0.32640081  0.65280162  0.42718434  1
  Te  Te17  1  0.67359919  0.34719838  0.57281566  1
  Te  Te18  1  0.32640081  0.65280162  0.07281566  1
  Te  Te19  1  0.67359919  0.34719838  0.92718434  1
  Te  Te20  1  0.75345378  0.50690756  0.25000000  1
  Te  Te21  1  0.24654622  0.49309244  0.75000000  1
