# generated using pymatgen
data_TmSiPt2
_symmetry_space_group_name_H-M   'P 1'
_cell_length_a   5.48935095
_cell_length_b   6.95733989
_cell_length_c   7.26814115
_cell_angle_alpha   90.00000000
_cell_angle_beta   90.00000000
_cell_angle_gamma   90.00000000
_symmetry_Int_Tables_number   1
_chemical_formula_structural   TmSiPt2
_chemical_formula_sum   'Tm4 Si4 Pt8'
_cell_volume   277.57961617
_cell_formula_units_Z   4
loop_
 _symmetry_equiv_pos_site_id
 _symmetry_equiv_pos_as_xyz
  1  'x, y, z'
loop_
 _atom_site_type_symbol
 _atom_site_label
 _atom_site_symmetry_multiplicity
 _atom_site_fract_x
 _atom_site_fract_y
 _atom_site_fract_z
 _atom_site_occupancy
  Tm  Tm0  1  0.13721216  0.75000000  0.47146616  1
  Tm  Tm1  1  0.36278784  0.75000000  0.97146616  1
  Tm  Tm2  1  0.86278784  0.25000000  0.52853384  1
  Tm  Tm3  1  0.63721216  0.25000000  0.02853384  1
  Si  Si4  1  0.86314175  0.75000000  0.11883433  1
  Si  Si5  1  0.63685825  0.75000000  0.61883433  1
  Si  Si6  1  0.13685825  0.25000000  0.88116567  1
  Si  Si7  1  0.36314175  0.25000000  0.38116567  1
  Pt  Pt8  1  0.59206503  0.94987203  0.31749523  1
  Pt  Pt9  1  0.90793497  0.55012797  0.81749523  1
  Pt  Pt10  1  0.40793497  0.44987203  0.68250477  1
  Pt  Pt11  1  0.09206503  0.05012797  0.18250477  1
  Pt  Pt12  1  0.40793497  0.05012797  0.68250477  1
  Pt  Pt13  1  0.09206503  0.44987203  0.18250477  1
  Pt  Pt14  1  0.59206503  0.55012797  0.31749523  1
  Pt  Pt15  1  0.90793497  0.94987203  0.81749523  1
