# generated using pymatgen
data_HoB2Os
_symmetry_space_group_name_H-M   'P 1'
_cell_length_a   5.31705434
_cell_length_b   5.89538001
_cell_length_c   6.36278240
_cell_angle_alpha   90.00000000
_cell_angle_beta   90.00000000
_cell_angle_gamma   90.00000000
_symmetry_Int_Tables_number   1
_chemical_formula_structural   HoB2Os
_chemical_formula_sum   'Ho4 B8 Os4'
_cell_volume   199.44813259
_cell_formula_units_Z   4
loop_
 _symmetry_equiv_pos_site_id
 _symmetry_equiv_pos_as_xyz
  1  'x, y, z'
loop_
 _atom_site_type_symbol
 _atom_site_label
 _atom_site_symmetry_multiplicity
 _atom_site_fract_x
 _atom_site_fract_y
 _atom_site_fract_z
 _atom_site_occupancy
  Ho  Ho0  1  0.75000000  0.48969031  0.16498295  1
  Ho  Ho1  1  0.75000000  0.98969031  0.33501705  1
  Ho  Ho2  1  0.25000000  0.51030969  0.83501705  1
  Ho  Ho3  1  0.25000000  0.01030969  0.66498295  1
  B  B4  1  0.91752253  0.13764040  0.96169298  1
  B  B5  1  0.58247747  0.63764040  0.53830702  1
  B  B6  1  0.41752253  0.86235960  0.03830702  1
  B  B7  1  0.08247747  0.36235960  0.46169298  1
  B  B8  1  0.08247747  0.86235960  0.03830702  1
  B  B9  1  0.41752253  0.36235960  0.46169298  1
  B  B10  1  0.58247747  0.13764040  0.96169298  1
  B  B11  1  0.91752253  0.63764040  0.53830702  1
  Os  Os12  1  0.75000000  0.32374164  0.68087354  1
  Os  Os13  1  0.75000000  0.82374164  0.81912646  1
  Os  Os14  1  0.25000000  0.67625836  0.31912646  1
  Os  Os15  1  0.25000000  0.17625836  0.18087354  1
