# generated using pymatgen
data_Na2Ga2GeS6
_symmetry_space_group_name_H-M   'P 1'
_cell_length_a   7.31366507
_cell_length_b   7.31366507
_cell_length_c   12.07936312
_cell_angle_alpha   98.88637143
_cell_angle_beta   98.88637143
_cell_angle_gamma   119.32297519
_symmetry_Int_Tables_number   1
_chemical_formula_structural   Na2Ga2GeS6
_chemical_formula_sum   'Na4 Ga4 Ge2 S12'
_cell_volume   536.34487265
_cell_formula_units_Z   2
loop_
 _symmetry_equiv_pos_site_id
 _symmetry_equiv_pos_as_xyz
  1  'x, y, z'
loop_
 _atom_site_type_symbol
 _atom_site_label
 _atom_site_symmetry_multiplicity
 _atom_site_fract_x
 _atom_site_fract_y
 _atom_site_fract_z
 _atom_site_occupancy
  Na  Na0  1  0.28799640  0.12289243  0.59045100  1
  Na  Na1  1  0.53244143  0.69754539  0.40954900  1
  Na  Na2  1  0.37289243  0.03799640  0.09045100  1
  Na  Na3  1  0.94754539  0.28244143  0.90954900  1
  Ga  Ga4  1  0.94291336  0.71583748  0.76770719  1
  Ga  Ga5  1  0.94813029  0.17520617  0.23229281  1
  Ga  Ga6  1  0.96583748  0.69291336  0.26770719  1
  Ga  Ga7  1  0.42520617  0.69813029  0.73229281  1
  Ge  Ge8  1  0.91706108  0.41706108  0.50000000  1
  Ge  Ge9  1  0.66706108  0.66706108  0.00000000  1
  S  S10  1  0.76902244  0.36179826  0.64907927  1
  S  S11  1  0.71271899  0.11994317  0.35092073  1
  S  S12  1  0.61179826  0.51902244  0.14907927  1
  S  S13  1  0.36994317  0.46271899  0.85092073  1
  S  S14  1  0.30250241  0.92476925  0.77349355  1
  S  S15  1  0.15127570  0.52900886  0.22650645  1
  S  S16  1  0.17476925  0.05250241  0.27349355  1
  S  S17  1  0.77900886  0.90127570  0.72650645  1
  S  S18  1  0.95904552  0.67668987  0.95571749  1
  S  S19  1  0.72097237  0.00332803  0.04428251  1
  S  S20  1  0.92668987  0.70904552  0.45571749  1
  S  S21  1  0.25332803  0.47097237  0.54428251  1
