# generated using pymatgen
data_Eu5Si3
_symmetry_space_group_name_H-M   'P 1'
_cell_length_a   7.79951355
_cell_length_b   7.79951355
_cell_length_c   9.30015461
_cell_angle_alpha   114.79177184
_cell_angle_beta   114.79177184
_cell_angle_gamma   90.00000000
_symmetry_Int_Tables_number   1
_chemical_formula_structural   Eu5Si3
_chemical_formula_sum   'Eu10 Si6'
_cell_volume   455.53960652
_cell_formula_units_Z   2
loop_
 _symmetry_equiv_pos_site_id
 _symmetry_equiv_pos_as_xyz
  1  'x, y, z'
loop_
 _atom_site_type_symbol
 _atom_site_label
 _atom_site_symmetry_multiplicity
 _atom_site_fract_x
 _atom_site_fract_y
 _atom_site_fract_z
 _atom_site_occupancy
  Eu  Eu0  1  0.03288743  0.53288743  0.71029813  1
  Eu  Eu1  1  0.67741070  0.17741070  0.71029813  1
  Eu  Eu2  1  0.17741070  0.03288743  0.71029813  1
  Eu  Eu3  1  0.53288743  0.67741070  0.71029813  1
  Eu  Eu4  1  0.96711257  0.46711257  0.28970187  1
  Eu  Eu5  1  0.32258930  0.82258930  0.28970187  1
  Eu  Eu6  1  0.82258930  0.96711257  0.28970187  1
  Eu  Eu7  1  0.46711257  0.32258930  0.28970187  1
  Eu  Eu8  1  0.50000000  0.50000000  0.00000000  1
  Eu  Eu9  1  0.00000000  -0.00000000  0.00000000  1
  Si  Si10  1  0.38955691  0.88955691  0.00000000  1
  Si  Si11  1  0.61044309  0.11044309  -0.00000000  1
  Si  Si12  1  0.11044309  0.38955691  0.00000000  1
  Si  Si13  1  0.88955691  0.61044309  -0.00000000  1
  Si  Si14  1  0.25000000  0.25000000  0.50000000  1
  Si  Si15  1  0.75000000  0.75000000  0.50000000  1
