# generated using pymatgen
data_GaHCl2
_symmetry_space_group_name_H-M   'P 1'
_cell_length_a   6.44659608
_cell_length_b   6.96433975
_cell_length_c   10.27947403
_cell_angle_alpha   88.75353879
_cell_angle_beta   87.30608433
_cell_angle_gamma   62.43019895
_symmetry_Int_Tables_number   1
_chemical_formula_structural   GaHCl2
_chemical_formula_sum   'Ga4 H4 Cl8'
_cell_volume   408.65251641
_cell_formula_units_Z   4
loop_
 _symmetry_equiv_pos_site_id
 _symmetry_equiv_pos_as_xyz
  1  'x, y, z'
loop_
 _atom_site_type_symbol
 _atom_site_label
 _atom_site_symmetry_multiplicity
 _atom_site_fract_x
 _atom_site_fract_y
 _atom_site_fract_z
 _atom_site_occupancy
  Ga  Ga0  1  0.05764325  0.26864405  0.92427509  1
  Ga  Ga1  1  0.67371270  0.26864405  0.57572491  1
  Ga  Ga2  1  0.94235675  0.73135595  0.07572491  1
  Ga  Ga3  1  0.32628730  0.73135595  0.42427509  1
  H  H4  1  0.30170842  0.11853493  0.86586149  1
  H  H5  1  0.57975665  0.11853493  0.63413851  1
  H  H6  1  0.69829158  0.88146507  0.13413851  1
  H  H7  1  0.42024335  0.88146507  0.36586149  1
  Cl  Cl8  1  0.74673277  0.22275042  0.91874672  1
  Cl  Cl9  1  0.03051680  0.22275042  0.58125328  1
  Cl  Cl10  1  0.25326723  0.77724958  0.08125328  1
  Cl  Cl11  1  0.96948320  0.77724958  0.41874672  1
  Cl  Cl12  1  0.07244938  0.36686560  0.13986196  1
  Cl  Cl13  1  0.56068501  0.36686560  0.36013804  1
  Cl  Cl14  1  0.92755062  0.63313440  0.86013804  1
  Cl  Cl15  1  0.43931499  0.63313440  0.63986196  1
