# generated using pymatgen
data_Tb7MnI12
_symmetry_space_group_name_H-M   'P 1'
_cell_length_a   9.82283284
_cell_length_b   9.82283284
_cell_length_c   9.82283279
_cell_angle_alpha   107.11135546
_cell_angle_beta   107.11135551
_cell_angle_gamma   107.11135601
_symmetry_Int_Tables_number   1
_chemical_formula_structural   Tb7MnI12
_chemical_formula_sum   'Tb7 Mn1 I12'
_cell_volume   786.91518575
_cell_formula_units_Z   1
loop_
 _symmetry_equiv_pos_site_id
 _symmetry_equiv_pos_as_xyz
  1  'x, y, z'
loop_
 _atom_site_type_symbol
 _atom_site_label
 _atom_site_symmetry_multiplicity
 _atom_site_fract_x
 _atom_site_fract_y
 _atom_site_fract_z
 _atom_site_occupancy
  Tb  Tb0  1  0.71025822  0.90768704  0.97724378  1
  Tb  Tb1  1  0.90768704  0.97724378  0.71025822  1
  Tb  Tb2  1  0.97724378  0.71025822  0.90768704  1
  Tb  Tb3  1  0.28974178  0.09231296  0.02275622  1
  Tb  Tb4  1  0.09231296  0.02275622  0.28974178  1
  Tb  Tb5  1  0.02275622  0.28974178  0.09231296  1
  Tb  Tb6  1  0.50000000  0.50000000  0.50000000  1
  Mn  Mn7  1  -0.00000000  0.00000000  -0.00000000  1
  I  I8  1  0.31642774  0.77589567  0.92645576  1
  I  I9  1  0.77589567  0.92645576  0.31642774  1
  I  I10  1  0.92645576  0.31642774  0.77589567  1
  I  I11  1  0.68357226  0.22410433  0.07354424  1
  I  I12  1  0.22410433  0.07354424  0.68357226  1
  I  I13  1  0.07354424  0.68357226  0.22410433  1
  I  I14  1  0.61503723  0.53851278  0.83939453  1
  I  I15  1  0.53851278  0.83939453  0.61503723  1
  I  I16  1  0.83939453  0.61503723  0.53851278  1
  I  I17  1  0.38496277  0.46148722  0.16060547  1
  I  I18  1  0.46148722  0.16060547  0.38496277  1
  I  I19  1  0.16060547  0.38496277  0.46148722  1
