# generated using pymatgen
data_Na2Zn(SnS3)2
_symmetry_space_group_name_H-M   'P 1'
_cell_length_a   7.42222474
_cell_length_b   7.56466652
_cell_length_c   12.55741622
_cell_angle_alpha   81.66368493
_cell_angle_beta   72.81058732
_cell_angle_gamma   60.62095693
_symmetry_Int_Tables_number   1
_chemical_formula_structural   Na2Zn(SnS3)2
_chemical_formula_sum   'Na4 Zn2 Sn4 S12'
_cell_volume   586.93927643
_cell_formula_units_Z   2
loop_
 _symmetry_equiv_pos_site_id
 _symmetry_equiv_pos_as_xyz
  1  'x, y, z'
loop_
 _atom_site_type_symbol
 _atom_site_label
 _atom_site_symmetry_multiplicity
 _atom_site_fract_x
 _atom_site_fract_y
 _atom_site_fract_z
 _atom_site_occupancy
  Na  Na0  1  0.14427613  0.16089032  0.40517331  1
  Na  Na1  1  0.71033977  0.83910968  0.59482669  1
  Na  Na2  1  0.05516646  0.33910968  0.90517331  1
  Na  Na3  1  0.29944945  0.66089032  0.09482669  1
  Zn  Zn4  1  0.41608404  0.50000000  0.50000000  1
  Zn  Zn5  1  0.66608404  -0.00000000  -0.00000000  1
  Sn  Sn6  1  0.70296816  0.24726441  0.22281333  1
  Sn  Sn7  1  0.17304590  0.75273559  0.77718667  1
  Sn  Sn8  1  0.70023257  0.25273559  0.72281333  1
  Sn  Sn9  1  0.67578149  0.74726441  0.27718667  1
  S  S10  1  0.35060006  0.42463738  0.34315211  1
  S  S11  1  0.11838955  0.57536262  0.65684789  1
  S  S12  1  0.52523744  0.07536262  0.84315211  1
  S  S13  1  0.44375217  0.92463738  0.15684789  1
  S  S14  1  0.93640750  0.39096437  0.22850146  1
  S  S15  1  0.55587332  0.60903563  0.77149854  1
  S  S16  1  0.07737186  0.10903563  0.72850146  1
  S  S17  1  0.91490896  0.89096437  0.27149854  1
  S  S18  1  0.68738124  0.29095835  0.03273473  1
  S  S19  1  0.01107432  0.70904165  0.96726527  1
  S  S20  1  0.72833959  0.20904165  0.53273473  1
  S  S21  1  0.47011597  0.79095835  0.46726527  1
