# generated using pymatgen
data_K6ZnBi5
_symmetry_space_group_name_H-M   'P 1'
_cell_length_a   5.64182723
_cell_length_b   11.61692424
_cell_length_c   15.52503321
_cell_angle_alpha   90.00000000
_cell_angle_beta   90.00000000
_cell_angle_gamma   90.00000000
_symmetry_Int_Tables_number   1
_chemical_formula_structural   K6ZnBi5
_chemical_formula_sum   'K12 Zn2 Bi10'
_cell_volume   1017.52122594
_cell_formula_units_Z   2
loop_
 _symmetry_equiv_pos_site_id
 _symmetry_equiv_pos_as_xyz
  1  'x, y, z'
loop_
 _atom_site_type_symbol
 _atom_site_label
 _atom_site_symmetry_multiplicity
 _atom_site_fract_x
 _atom_site_fract_y
 _atom_site_fract_z
 _atom_site_occupancy
  K  K0  1  0.25000000  0.93888482  0.11746883  1
  K  K1  1  0.25000000  0.93888482  0.38253117  1
  K  K2  1  0.75000000  0.06111518  0.88253117  1
  K  K3  1  0.75000000  0.06111518  0.61746883  1
  K  K4  1  0.75000000  0.68555292  0.01866702  1
  K  K5  1  0.75000000  0.68555292  0.48133298  1
  K  K6  1  0.25000000  0.31444708  0.98133298  1
  K  K7  1  0.25000000  0.31444708  0.51866702  1
  K  K8  1  0.75000000  0.39105085  0.75000000  1
  K  K9  1  0.25000000  0.60894915  0.25000000  1
  K  K10  1  0.75000000  0.74478151  0.75000000  1
  K  K11  1  0.25000000  0.25521849  0.25000000  1
  Zn  Zn12  1  0.25000000  0.95839791  0.75000000  1
  Zn  Zn13  1  0.75000000  0.04160209  0.25000000  1
  Bi  Bi14  1  0.25000000  0.82996292  0.60255741  1
  Bi  Bi15  1  0.25000000  0.82996292  0.89744259  1
  Bi  Bi16  1  0.75000000  0.17003708  0.39744259  1
  Bi  Bi17  1  0.75000000  0.17003708  0.10255741  1
  Bi  Bi18  1  0.25000000  0.58113440  0.65242291  1
  Bi  Bi19  1  0.25000000  0.58113440  0.84757709  1
  Bi  Bi20  1  0.75000000  0.41886560  0.34757709  1
  Bi  Bi21  1  0.75000000  0.41886560  0.15242291  1
  Bi  Bi22  1  0.25000000  0.19407289  0.75000000  1
  Bi  Bi23  1  0.75000000  0.80592711  0.25000000  1
