# generated using pymatgen
data_FeH5CN(ClO)2
_symmetry_space_group_name_H-M   'P 1'
_cell_length_a   7.06369794
_cell_length_b   7.06369794
_cell_length_c   6.90503609
_cell_angle_alpha   99.30408599
_cell_angle_beta   99.30408599
_cell_angle_gamma   108.20681225
_symmetry_Int_Tables_number   1
_chemical_formula_structural   FeH5CN(ClO)2
_chemical_formula_sum   'Fe2 H10 C2 N2 Cl4 O4'
_cell_volume   314.59522009
_cell_formula_units_Z   2
loop_
 _symmetry_equiv_pos_site_id
 _symmetry_equiv_pos_as_xyz
  1  'x, y, z'
loop_
 _atom_site_type_symbol
 _atom_site_label
 _atom_site_symmetry_multiplicity
 _atom_site_fract_x
 _atom_site_fract_y
 _atom_site_fract_z
 _atom_site_occupancy
  Fe  Fe0  1  -0.00000000  0.00000000  0.50000000  1
  Fe  Fe1  1  -0.00000000  0.00000000  0.00000000  1
  H  H2  1  0.67584009  0.32415991  0.25000000  1
  H  H3  1  0.32415991  0.67584009  0.75000000  1
  H  H4  1  0.48476956  0.72319482  0.27092197  1
  H  H5  1  0.27680518  0.51523044  0.22907803  1
  H  H6  1  0.51523044  0.27680518  0.72907803  1
  H  H7  1  0.72319482  0.48476956  0.77092197  1
  H  H8  1  0.28547017  0.73583858  0.37705327  1
  H  H9  1  0.26416142  0.71452983  0.12294673  1
  H  H10  1  0.71452983  0.26416142  0.62294673  1
  H  H11  1  0.73583858  0.28547017  0.87705327  1
  C  C12  1  0.77233054  0.22766946  0.25000000  1
  C  C13  1  0.22766946  0.77233054  0.75000000  1
  N  N14  1  0.32740884  0.67259116  0.25000000  1
  N  N15  1  0.67259116  0.32740884  0.75000000  1
  Cl  Cl16  1  0.26593378  0.18269730  0.32313764  1
  Cl  Cl17  1  0.81730270  0.73406622  0.17686236  1
  Cl  Cl18  1  0.73406622  0.81730270  0.67686236  1
  Cl  Cl19  1  0.18269730  0.26593378  0.82313764  1
  O  O20  1  0.81645238  0.17316318  0.41297982  1
  O  O21  1  0.82683682  0.18354762  0.08702018  1
  O  O22  1  0.18354762  0.82683682  0.58702018  1
  O  O23  1  0.17316318  0.81645238  0.91297982  1
