# generated using pymatgen
data_LaSbO4
_symmetry_space_group_name_H-M   'P 1'
_cell_length_a   5.15875184
_cell_length_b   5.43916813
_cell_length_c   12.98820295
_cell_angle_alpha   94.09029118
_cell_angle_beta   90.00000000
_cell_angle_gamma   90.00000000
_symmetry_Int_Tables_number   1
_chemical_formula_structural   LaSbO4
_chemical_formula_sum   'La4 Sb4 O16'
_cell_volume   363.51185319
_cell_formula_units_Z   4
loop_
 _symmetry_equiv_pos_site_id
 _symmetry_equiv_pos_as_xyz
  1  'x, y, z'
loop_
 _atom_site_type_symbol
 _atom_site_label
 _atom_site_symmetry_multiplicity
 _atom_site_fract_x
 _atom_site_fract_y
 _atom_site_fract_z
 _atom_site_occupancy
  La  La0  1  0.19565981  0.00736865  0.66453732  1
  La  La1  1  0.30434019  0.50736865  0.16453732  1
  La  La2  1  0.80434019  0.99263135  0.33546268  1
  La  La3  1  0.69565981  0.49263135  0.83546268  1
  Sb  Sb4  1  0.24834624  0.01308961  0.93070148  1
  Sb  Sb5  1  0.25165376  0.51308961  0.43070148  1
  Sb  Sb6  1  0.75165376  0.98691039  0.06929852  1
  Sb  Sb7  1  0.74834624  0.48691039  0.56929852  1
  O  O8  1  0.55994771  0.22221521  0.97458597  1
  O  O9  1  0.94005229  0.72221521  0.47458597  1
  O  O10  1  0.44005229  0.77778479  0.02541403  1
  O  O11  1  0.05994771  0.27778479  0.52541403  1
  O  O12  1  0.40078562  0.82373637  0.81172825  1
  O  O13  1  0.09921438  0.32373637  0.31172825  1
  O  O14  1  0.59921438  0.17626363  0.18827175  1
  O  O15  1  0.90078562  0.67626363  0.68827175  1
  O  O16  1  0.92999672  0.80472704  0.94384826  1
  O  O17  1  0.57000328  0.30472704  0.44384826  1
  O  O18  1  0.07000328  0.19527296  0.05615174  1
  O  O19  1  0.42999672  0.69527296  0.55615174  1
  O  O20  1  0.11477742  0.24341933  0.83205594  1
  O  O21  1  0.38522258  0.74341933  0.33205594  1
  O  O22  1  0.88522258  0.75658067  0.16794406  1
  O  O23  1  0.61477742  0.25658067  0.66794406  1
