# generated using pymatgen
data_Ba2Cd(BO2)6
_symmetry_space_group_name_H-M   'P 1'
_cell_length_a   7.25779852
_cell_length_b   7.25779852
_cell_length_c   7.25779827
_cell_angle_alpha   59.75731139
_cell_angle_beta   59.75731139
_cell_angle_gamma   59.75730960
_symmetry_Int_Tables_number   1
_chemical_formula_structural   Ba2Cd(BO2)6
_chemical_formula_sum   'Ba2 Cd1 B6 O12'
_cell_volume   268.84367327
_cell_formula_units_Z   1
loop_
 _symmetry_equiv_pos_site_id
 _symmetry_equiv_pos_as_xyz
  1  'x, y, z'
loop_
 _atom_site_type_symbol
 _atom_site_label
 _atom_site_symmetry_multiplicity
 _atom_site_fract_x
 _atom_site_fract_y
 _atom_site_fract_z
 _atom_site_occupancy
  Ba  Ba0  1  0.20853409  0.20853409  0.20853409  1
  Ba  Ba1  1  0.79146591  0.79146591  0.79146591  1
  Cd  Cd2  1  0.00000000  -0.00000000  -0.00000000  1
  B  B3  1  0.63246610  0.36710852  0.24362162  1
  B  B4  1  0.36710852  0.24362162  0.63246610  1
  B  B5  1  0.24362162  0.63246610  0.36710852  1
  B  B6  1  0.36753390  0.63289148  0.75637838  1
  B  B7  1  0.63289148  0.75637838  0.36753390  1
  B  B8  1  0.75637838  0.36753390  0.63289148  1
  O  O9  1  0.83661728  0.33610198  0.08573422  1
  O  O10  1  0.33610198  0.08573422  0.83661728  1
  O  O11  1  0.08573422  0.83661728  0.33610198  1
  O  O12  1  0.16338272  0.66389802  0.91426578  1
  O  O13  1  0.66389802  0.91426578  0.16338272  1
  O  O14  1  0.91426578  0.16338272  0.66389802  1
  O  O15  1  0.45758975  0.57773132  0.20214759  1
  O  O16  1  0.57773132  0.20214759  0.45758975  1
  O  O17  1  0.20214759  0.45758975  0.57773132  1
  O  O18  1  0.54241025  0.42226868  0.79785241  1
  O  O19  1  0.42226868  0.79785241  0.54241025  1
  O  O20  1  0.79785241  0.54241025  0.42226868  1
