# generated using pymatgen
data_Sm2CoTe2(SO7)2
_symmetry_space_group_name_H-M   'P 1'
_cell_length_a   5.37169985
_cell_length_b   8.02474469
_cell_length_c   8.29764882
_cell_angle_alpha   64.34312677
_cell_angle_beta   72.90539351
_cell_angle_gamma   86.20475114
_symmetry_Int_Tables_number   1
_chemical_formula_structural   Sm2CoTe2(SO7)2
_chemical_formula_sum   'Sm2 Co1 Te2 S2 O14'
_cell_volume   307.39677043
_cell_formula_units_Z   1
loop_
 _symmetry_equiv_pos_site_id
 _symmetry_equiv_pos_as_xyz
  1  'x, y, z'
loop_
 _atom_site_type_symbol
 _atom_site_label
 _atom_site_symmetry_multiplicity
 _atom_site_fract_x
 _atom_site_fract_y
 _atom_site_fract_z
 _atom_site_occupancy
  Sm  Sm0  1  0.91033367  0.74886492  0.98397652  1
  Sm  Sm1  1  0.08966633  0.25113508  0.01602348  1
  Co  Co2  1  0.00000000  -0.00000000  0.50000000  1
  Te  Te3  1  0.47902845  0.73203508  0.65869821  1
  Te  Te4  1  0.52097155  0.26796492  0.34130179  1
  S  S5  1  0.22475686  0.75392870  0.25143076  1
  S  S6  1  0.77524314  0.24607130  0.74856924  1
  O  O7  1  0.08390276  0.59680085  0.25825090  1
  O  O8  1  0.91609724  0.40319915  0.74174910  1
  O  O9  1  0.12368730  0.77685912  0.42571106  1
  O  O10  1  0.87631270  0.22314088  0.57428894  1
  O  O11  1  0.50824982  0.72593076  0.21775092  1
  O  O12  1  0.49175018  0.27406924  0.78224908  1
  O  O13  1  0.17760289  0.92237983  0.08784639  1
  O  O14  1  0.82239711  0.07762017  0.91215361  1
  O  O15  1  0.24917395  0.56604199  0.89255073  1
  O  O16  1  0.75082605  0.43395801  0.10744927  1
  O  O17  1  0.72061352  0.81015256  0.74459695  1
  O  O18  1  0.27938648  0.18984744  0.25540305  1
  O  O19  1  0.24694482  0.92313278  0.66435170  1
  O  O20  1  0.75305518  0.07686722  0.33564830  1
