# generated using pymatgen
data_Al4CdO7
_symmetry_space_group_name_H-M   'P 1'
_cell_length_a   5.46627005
_cell_length_b   7.82240585
_cell_length_c   7.82240585
_cell_angle_alpha   70.02926152
_cell_angle_beta   76.89171668
_cell_angle_gamma   76.89171668
_symmetry_Int_Tables_number   1
_chemical_formula_structural   Al4CdO7
_chemical_formula_sum   'Al8 Cd2 O14'
_cell_volume   302.07471160
_cell_formula_units_Z   2
loop_
 _symmetry_equiv_pos_site_id
 _symmetry_equiv_pos_as_xyz
  1  'x, y, z'
loop_
 _atom_site_type_symbol
 _atom_site_label
 _atom_site_symmetry_multiplicity
 _atom_site_fract_x
 _atom_site_fract_y
 _atom_site_fract_z
 _atom_site_occupancy
  Al  Al0  1  0.81477024  0.75819874  0.92473770  1
  Al  Al1  1  0.68522976  0.07526230  0.24180126  1
  Al  Al2  1  0.18522976  0.24180126  0.07526230  1
  Al  Al3  1  0.31477024  0.92473770  0.75819874  1
  Al  Al4  1  0.73182682  0.44002040  0.31718401  1
  Al  Al5  1  0.76817318  0.68281599  0.55997960  1
  Al  Al6  1  0.26817318  0.55997960  0.68281599  1
  Al  Al7  1  0.23182682  0.31718401  0.44002040  1
  Cd  Cd8  1  0.75000000  0.20552945  0.79447055  1
  Cd  Cd9  1  0.25000000  0.79447055  0.20552945  1
  O  O10  1  0.75000000  0.47109536  0.52890464  1
  O  O11  1  0.25000000  0.52890464  0.47109536  1
  O  O12  1  0.09216922  0.82178014  0.94905773  1
  O  O13  1  0.40783078  0.05094227  0.17821986  1
  O  O14  1  0.90783078  0.17821986  0.05094227  1
  O  O15  1  0.59216922  0.94905773  0.82178014  1
  O  O16  1  0.64804398  0.63393547  0.13394138  1
  O  O17  1  0.85195602  0.86605862  0.36606453  1
  O  O18  1  0.35195602  0.36606453  0.86605862  1
  O  O19  1  0.14804398  0.13394138  0.63393547  1
  O  O20  1  0.06685997  0.35579355  0.25220113  1
  O  O21  1  0.43314003  0.74779887  0.64420645  1
  O  O22  1  0.93314003  0.64420645  0.74779887  1
  O  O23  1  0.56685997  0.25220113  0.35579355  1
