# generated using pymatgen
data_CsDy2Ag3Te5
_symmetry_space_group_name_H-M   'P 1'
_cell_length_a   4.58313406
_cell_length_b   8.56777927
_cell_length_c   18.67908674
_cell_angle_alpha   90.00000000
_cell_angle_beta   90.00000000
_cell_angle_gamma   105.51337758
_symmetry_Int_Tables_number   1
_chemical_formula_structural   CsDy2Ag3Te5
_chemical_formula_sum   'Cs2 Dy4 Ag6 Te10'
_cell_volume   706.75493815
_cell_formula_units_Z   2
loop_
 _symmetry_equiv_pos_site_id
 _symmetry_equiv_pos_as_xyz
  1  'x, y, z'
loop_
 _atom_site_type_symbol
 _atom_site_label
 _atom_site_symmetry_multiplicity
 _atom_site_fract_x
 _atom_site_fract_y
 _atom_site_fract_z
 _atom_site_occupancy
  Cs  Cs0  1  0.44234494  0.88468988  0.25000000  1
  Cs  Cs1  1  0.55765506  0.11531012  0.75000000  1
  Dy  Dy2  1  0.30778304  0.61556608  0.90579693  1
  Dy  Dy3  1  0.69221696  0.38443392  0.09420307  1
  Dy  Dy4  1  0.30778304  0.61556608  0.59420307  1
  Dy  Dy5  1  0.69221696  0.38443392  0.40579693  1
  Ag  Ag6  1  0.15863739  0.31727477  0.25000000  1
  Ag  Ag7  1  0.84136261  0.68272523  0.75000000  1
  Ag  Ag8  1  0.91732202  0.83464405  0.46475008  1
  Ag  Ag9  1  0.08267798  0.16535595  0.53524992  1
  Ag  Ag10  1  0.91732202  0.83464405  0.03524992  1
  Ag  Ag11  1  0.08267798  0.16535595  0.96475008  1
  Te  Te12  1  0.93463042  0.86926083  0.88204105  1
  Te  Te13  1  0.06536958  0.13073917  0.11795895  1
  Te  Te14  1  0.93463042  0.86926083  0.61795895  1
  Te  Te15  1  0.06536958  0.13073917  0.38204105  1
  Te  Te16  1  0.32248067  0.64496134  0.42881710  1
  Te  Te17  1  0.67751933  0.35503866  0.57118290  1
  Te  Te18  1  0.32248067  0.64496134  0.07118290  1
  Te  Te19  1  0.67751933  0.35503866  0.92881710  1
  Te  Te20  1  0.75441327  0.50882655  0.25000000  1
  Te  Te21  1  0.24558673  0.49117345  0.75000000  1
