# generated using pymatgen
data_UCoB4
_symmetry_space_group_name_H-M   'P 1'
_cell_length_a   3.36241294
_cell_length_b   5.88441022
_cell_length_c   11.41261627
_cell_angle_alpha   90.00000000
_cell_angle_beta   90.00000000
_cell_angle_gamma   90.00000000
_symmetry_Int_Tables_number   1
_chemical_formula_structural   UCoB4
_chemical_formula_sum   'U4 Co4 B16'
_cell_volume   225.80793779
_cell_formula_units_Z   4
loop_
 _symmetry_equiv_pos_site_id
 _symmetry_equiv_pos_as_xyz
  1  'x, y, z'
loop_
 _atom_site_type_symbol
 _atom_site_label
 _atom_site_symmetry_multiplicity
 _atom_site_fract_x
 _atom_site_fract_y
 _atom_site_fract_z
 _atom_site_occupancy
  U  U0  1  0.00000000  0.62647325  0.34918410  1
  U  U1  1  -0.00000000  0.37352675  0.65081590  1
  U  U2  1  0.00000000  0.12647325  0.15081590  1
  U  U3  1  -0.00000000  0.87352675  0.84918410  1
  Co  Co4  1  -0.00000000  0.63114400  0.08648176  1
  Co  Co5  1  0.00000000  0.36885600  0.91351824  1
  Co  Co6  1  -0.00000000  0.13114400  0.41351824  1
  Co  Co7  1  0.00000000  0.86885600  0.58648176  1
  B  B8  1  0.50000000  0.78339516  0.18742863  1
  B  B9  1  0.50000000  0.21660484  0.81257137  1
  B  B10  1  0.50000000  0.28339516  0.31257137  1
  B  B11  1  0.50000000  0.71660484  0.68742863  1
  B  B12  1  0.50000000  0.86583272  0.03441149  1
  B  B13  1  0.50000000  0.13416728  0.96558851  1
  B  B14  1  0.50000000  0.36583272  0.46558851  1
  B  B15  1  0.50000000  0.63416728  0.53441149  1
  B  B16  1  0.50000000  0.88564226  0.45391301  1
  B  B17  1  0.50000000  0.11435774  0.54608699  1
  B  B18  1  0.50000000  0.38564226  0.04608699  1
  B  B19  1  0.50000000  0.61435774  0.95391301  1
  B  B20  1  0.50000000  0.97405483  0.30771698  1
  B  B21  1  0.50000000  0.02594517  0.69228302  1
  B  B22  1  0.50000000  0.47405483  0.19228302  1
  B  B23  1  0.50000000  0.52594517  0.80771698  1
