# generated using pymatgen
data_Rb6HgSe4
_symmetry_space_group_name_H-M   'P 1'
_cell_length_a   8.38240039
_cell_length_b   10.89591601
_cell_length_c   10.89591601
_cell_angle_alpha   119.99679112
_cell_angle_beta   90.00000000
_cell_angle_gamma   90.00000000
_symmetry_Int_Tables_number   1
_chemical_formula_structural   Rb6HgSe4
_chemical_formula_sum   'Rb12 Hg2 Se8'
_cell_volume   861.86762756
_cell_formula_units_Z   2
loop_
 _symmetry_equiv_pos_site_id
 _symmetry_equiv_pos_as_xyz
  1  'x, y, z'
loop_
 _atom_site_type_symbol
 _atom_site_label
 _atom_site_symmetry_multiplicity
 _atom_site_fract_x
 _atom_site_fract_y
 _atom_site_fract_z
 _atom_site_occupancy
  Rb  Rb0  1  0.20519645  0.14879594  0.29757940  1
  Rb  Rb1  1  0.20519602  0.14877624  0.85122376  1
  Rb  Rb2  1  0.20519645  0.70242060  0.85120406  1
  Rb  Rb3  1  0.70519645  0.85120406  0.70242060  1
  Rb  Rb4  1  0.70519602  0.85122376  0.14877624  1
  Rb  Rb5  1  0.70519645  0.29757940  0.14879594  1
  Rb  Rb6  1  0.37836311  0.52741879  0.05483684  1
  Rb  Rb7  1  0.37837634  0.52742074  0.47257926  1
  Rb  Rb8  1  0.37836311  0.94516316  0.47258121  1
  Rb  Rb9  1  0.87836311  0.47258121  0.94516316  1
  Rb  Rb10  1  0.87837634  0.47257926  0.52742074  1
  Rb  Rb11  1  0.87836311  0.05483684  0.52741879  1
  Hg  Hg12  1  0.50032441  0.33332361  0.66667639  1
  Hg  Hg13  1  0.00032441  0.66667639  0.33332361  1
  Se  Se14  1  0.16559189  0.33331608  0.66668392  1
  Se  Se15  1  0.66559189  0.66668392  0.33331608  1
  Se  Se16  1  0.10110782  0.80716166  0.61432698  1
  Se  Se17  1  0.10117659  0.80719294  0.19280706  1
  Se  Se18  1  0.10110782  0.38567302  0.19283834  1
  Se  Se19  1  0.60110782  0.19283834  0.38567302  1
  Se  Se20  1  0.60117659  0.19280706  0.80719294  1
  Se  Se21  1  0.60110782  0.61432698  0.80716166  1
