# generated using pymatgen
data_Y2Co7B3
_symmetry_space_group_name_H-M   'P 1'
_cell_length_a   5.04943047
_cell_length_b   5.05062281
_cell_length_c   12.71706305
_cell_angle_alpha   89.99990035
_cell_angle_beta   90.00019936
_cell_angle_gamma   119.99218717
_symmetry_Int_Tables_number   1
_chemical_formula_structural   Y2Co7B3
_chemical_formula_sum   'Y4 Co14 B6'
_cell_volume   280.89174360
_cell_formula_units_Z   2
loop_
 _symmetry_equiv_pos_site_id
 _symmetry_equiv_pos_as_xyz
  1  'x, y, z'
loop_
 _atom_site_type_symbol
 _atom_site_label
 _atom_site_symmetry_multiplicity
 _atom_site_fract_x
 _atom_site_fract_y
 _atom_site_fract_z
 _atom_site_occupancy
  Y  Y0  1  0.99997930  0.00000000  -0.00000548  1
  Y  Y1  1  0.99999221  -0.00000000  0.49983319  1
  Y  Y2  1  0.99998887  -0.00000000  0.26096077  1
  Y  Y3  1  0.00000582  1.00000000  0.73915528  1
  Co  Co4  1  0.33332768  0.66669261  -0.00004705  1
  Co  Co5  1  0.66663507  0.33330739  -0.00004705  1
  Co  Co6  1  0.49999181  -0.00000000  0.15424482  1
  Co  Co7  1  0.49998568  0.50000509  0.15445343  1
  Co  Co8  1  0.99998058  0.49999491  0.15445343  1
  Co  Co9  1  0.50000342  0.00000000  0.84566243  1
  Co  Co10  1  0.50000335  0.49999957  0.84573512  1
  Co  Co11  1  0.00000378  0.50000043  0.84573512  1
  Co  Co12  1  0.49998775  -0.00000000  0.38443284  1
  Co  Co13  1  0.49998703  0.50000117  0.38444242  1
  Co  Co14  1  0.99998586  0.49999883  0.38444242  1
  Co  Co15  1  0.49999760  -0.00000000  0.61547166  1
  Co  Co16  1  0.49999759  0.50000013  0.61550677  1
  Co  Co17  1  0.99999746  0.49999987  0.61550677  1
  B  B18  1  0.33336332  0.66674913  0.49989169  1
  B  B19  1  0.66661419  0.33325087  0.49989169  1
  B  B20  1  0.33309631  0.66623103  0.26824082  1
  B  B21  1  0.66686528  0.33376897  0.26824082  1
  B  B22  1  0.66663912  0.33326823  0.73189904  1
  B  B23  1  0.33337089  0.66673177  0.73189904  1
