# generated using pymatgen
data_TbCrB4
_symmetry_space_group_name_H-M   'P 1'
_cell_length_a   3.46056484
_cell_length_b   5.94376874
_cell_length_c   11.48440315
_cell_angle_alpha   90.00000000
_cell_angle_beta   90.00000000
_cell_angle_gamma   90.00000000
_symmetry_Int_Tables_number   1
_chemical_formula_structural   TbCrB4
_chemical_formula_sum   'Tb4 Cr4 B16'
_cell_volume   236.22035842
_cell_formula_units_Z   4
loop_
 _symmetry_equiv_pos_site_id
 _symmetry_equiv_pos_as_xyz
  1  'x, y, z'
loop_
 _atom_site_type_symbol
 _atom_site_label
 _atom_site_symmetry_multiplicity
 _atom_site_fract_x
 _atom_site_fract_y
 _atom_site_fract_z
 _atom_site_occupancy
  Tb  Tb0  1  0.00000000  0.62507770  0.34912035  1
  Tb  Tb1  1  -0.00000000  0.37492230  0.65087965  1
  Tb  Tb2  1  0.00000000  0.12507770  0.15087965  1
  Tb  Tb3  1  0.00000000  0.87492230  0.84912035  1
  Cr  Cr4  1  0.00000000  0.62201945  0.07912058  1
  Cr  Cr5  1  0.00000000  0.37798055  0.92087942  1
  Cr  Cr6  1  -0.00000000  0.12201945  0.42087942  1
  Cr  Cr7  1  -0.00000000  0.87798055  0.57912058  1
  B  B8  1  0.50000000  0.78070080  0.18360652  1
  B  B9  1  0.50000000  0.21929920  0.81639348  1
  B  B10  1  0.50000000  0.28070080  0.31639348  1
  B  B11  1  0.50000000  0.71929920  0.68360652  1
  B  B12  1  0.50000000  0.86258288  0.03261493  1
  B  B13  1  0.50000000  0.13741712  0.96738507  1
  B  B14  1  0.50000000  0.36258288  0.46738507  1
  B  B15  1  0.50000000  0.63741712  0.53261493  1
  B  B16  1  0.50000000  0.88720162  0.45348468  1
  B  B17  1  0.50000000  0.11279838  0.54651532  1
  B  B18  1  0.50000000  0.38720162  0.04651532  1
  B  B19  1  0.50000000  0.61279838  0.95348468  1
  B  B20  1  0.50000000  0.97604472  0.30881551  1
  B  B21  1  0.50000000  0.02395528  0.69118449  1
  B  B22  1  0.50000000  0.47604472  0.19118449  1
  B  B23  1  0.50000000  0.52395528  0.80881551  1
