# generated using pymatgen
data_PrPS
_symmetry_space_group_name_H-M   'P 1'
_cell_length_a   5.54222995
_cell_length_b   5.62488825
_cell_length_c   17.34786788
_cell_angle_alpha   90.00000000
_cell_angle_beta   90.00000000
_cell_angle_gamma   90.00000000
_symmetry_Int_Tables_number   1
_chemical_formula_structural   PrPS
_chemical_formula_sum   'Pr8 P8 S8'
_cell_volume   540.80979095
_cell_formula_units_Z   8
loop_
 _symmetry_equiv_pos_site_id
 _symmetry_equiv_pos_as_xyz
  1  'x, y, z'
loop_
 _atom_site_type_symbol
 _atom_site_label
 _atom_site_symmetry_multiplicity
 _atom_site_fract_x
 _atom_site_fract_y
 _atom_site_fract_z
 _atom_site_occupancy
  Pr  Pr0  1  0.75000000  0.01612710  0.13751989  1
  Pr  Pr1  1  0.75000000  0.51612710  0.36248011  1
  Pr  Pr2  1  0.25000000  0.98387290  0.86248011  1
  Pr  Pr3  1  0.25000000  0.48387290  0.63751989  1
  Pr  Pr4  1  0.75000000  0.48375788  0.85274398  1
  Pr  Pr5  1  0.75000000  0.98375788  0.64725602  1
  Pr  Pr6  1  0.25000000  0.51624212  0.14725602  1
  Pr  Pr7  1  0.25000000  0.01624212  0.35274398  1
  P  P8  1  0.95580805  0.19433544  0.50255717  1
  P  P9  1  0.54419195  0.69433544  0.99744283  1
  P  P10  1  0.45580805  0.80566456  0.49744283  1
  P  P11  1  0.04419195  0.30566456  0.00255717  1
  P  P12  1  0.04419195  0.80566456  0.49744283  1
  P  P13  1  0.45580805  0.30566456  0.00255717  1
  P  P14  1  0.54419195  0.19433544  0.50255717  1
  P  P15  1  0.95580805  0.69433544  0.99744283  1
  S  S16  1  0.75000000  0.01506702  0.31089449  1
  S  S17  1  0.75000000  0.51506702  0.18910551  1
  S  S18  1  0.25000000  0.98493298  0.68910551  1
  S  S19  1  0.25000000  0.48493298  0.81089449  1
  S  S20  1  0.75000000  0.48748572  0.68270132  1
  S  S21  1  0.75000000  0.98748572  0.81729868  1
  S  S22  1  0.25000000  0.51251428  0.31729868  1
  S  S23  1  0.25000000  0.01251428  0.18270132  1
