# generated using pymatgen
data_Eu2MnSi2O7
_symmetry_space_group_name_H-M   'P 1'
_cell_length_a   5.20419151
_cell_length_b   8.23299519
_cell_length_c   8.23299519
_cell_angle_alpha   90.00000000
_cell_angle_beta   90.00000000
_cell_angle_gamma   90.00000000
_symmetry_Int_Tables_number   1
_chemical_formula_structural   Eu2MnSi2O7
_chemical_formula_sum   'Eu4 Mn2 Si4 O14'
_cell_volume   352.75160076
_cell_formula_units_Z   2
loop_
 _symmetry_equiv_pos_site_id
 _symmetry_equiv_pos_as_xyz
  1  'x, y, z'
loop_
 _atom_site_type_symbol
 _atom_site_label
 _atom_site_symmetry_multiplicity
 _atom_site_fract_x
 _atom_site_fract_y
 _atom_site_fract_z
 _atom_site_occupancy
  Eu  Eu0  1  0.50520981  0.33321983  0.16678017  1
  Eu  Eu1  1  0.49479019  0.16678017  0.66678017  1
  Eu  Eu2  1  0.50520981  0.66678017  0.83321983  1
  Eu  Eu3  1  0.49479019  0.83321983  0.33321983  1
  Mn  Mn4  1  0.00000000  0.50000000  0.50000000  1
  Mn  Mn5  1  0.00000000  -0.00000000  0.00000000  1
  Si  Si6  1  0.94233072  0.13794558  0.36205442  1
  Si  Si7  1  0.05766928  0.36205442  0.86205442  1
  Si  Si8  1  0.94233072  0.86205442  0.63794558  1
  Si  Si9  1  0.05766928  0.63794558  0.13794558  1
  O  O10  1  0.15530262  0.50000000  0.00000000  1
  O  O11  1  0.84469738  -0.00000000  0.50000000  1
  O  O12  1  0.25292922  0.14344401  0.35655599  1
  O  O13  1  0.74707078  0.35655599  0.85655599  1
  O  O14  1  0.25292922  0.85655599  0.64344401  1
  O  O15  1  0.74707078  0.64344401  0.14344401  1
  O  O16  1  0.79211482  0.30414616  0.42074885  1
  O  O17  1  0.20788518  0.19585384  0.92074885  1
  O  O18  1  0.79211482  0.69585384  0.57925115  1
  O  O19  1  0.20788518  0.80414616  0.07925115  1
  O  O20  1  0.20788518  0.57925115  0.30414616  1
  O  O21  1  0.79211482  0.92074885  0.80414616  1
  O  O22  1  0.20788518  0.42074885  0.69585384  1
  O  O23  1  0.79211482  0.07925115  0.19585384  1
