# generated using pymatgen
data_K2CuP2O7
_symmetry_space_group_name_H-M   'P 1'
_cell_length_a   5.55085722
_cell_length_b   8.17020391
_cell_length_c   8.17020391
_cell_angle_alpha   90.00000000
_cell_angle_beta   90.00000000
_cell_angle_gamma   90.00000000
_symmetry_Int_Tables_number   1
_chemical_formula_structural   K2CuP2O7
_chemical_formula_sum   'K4 Cu2 P4 O14'
_cell_volume   370.53210857
_cell_formula_units_Z   2
loop_
 _symmetry_equiv_pos_site_id
 _symmetry_equiv_pos_as_xyz
  1  'x, y, z'
loop_
 _atom_site_type_symbol
 _atom_site_label
 _atom_site_symmetry_multiplicity
 _atom_site_fract_x
 _atom_site_fract_y
 _atom_site_fract_z
 _atom_site_occupancy
  K  K0  1  0.49149459  0.33414557  0.16585443  1
  K  K1  1  0.50850541  0.16585443  0.66585443  1
  K  K2  1  0.49149459  0.66585443  0.83414557  1
  K  K3  1  0.50850541  0.83414557  0.33414557  1
  Cu  Cu4  1  0.00000000  0.50000000  0.50000000  1
  Cu  Cu5  1  0.00000000  -0.00000000  -0.00000000  1
  P  P6  1  0.97879388  0.36630049  0.86630049  1
  P  P7  1  0.02120612  0.13369951  0.36630049  1
  P  P8  1  0.97879388  0.63369951  0.13369951  1
  P  P9  1  0.02120612  0.86630049  0.63369951  1
  O  O10  1  0.87573158  0.50000000  -0.00000000  1
  O  O11  1  0.12426842  -0.00000000  0.50000000  1
  O  O12  1  0.85718705  0.57778241  0.29465079  1
  O  O13  1  0.14281295  0.92221759  0.79465079  1
  O  O14  1  0.85718705  0.42221759  0.70534921  1
  O  O15  1  0.14281295  0.07778241  0.20534921  1
  O  O16  1  0.14281295  0.70534921  0.57778241  1
  O  O17  1  0.85718705  0.79465079  0.07778241  1
  O  O18  1  0.14281295  0.29465079  0.42221759  1
  O  O19  1  0.85718705  0.20534921  0.92221759  1
  O  O20  1  0.25018359  0.36501717  0.86501717  1
  O  O21  1  0.74981641  0.13498283  0.36501717  1
  O  O22  1  0.25018359  0.63498283  0.13498283  1
  O  O23  1  0.74981641  0.86501717  0.63498283  1
