# generated using pymatgen
data_Eu2SiN3
_symmetry_space_group_name_H-M   'P 1'
_cell_length_a   5.48229371
_cell_length_b   6.01161632
_cell_length_c   11.72601141
_cell_angle_alpha   90.00000000
_cell_angle_beta   90.00000000
_cell_angle_gamma   117.12769089
_symmetry_Int_Tables_number   1
_chemical_formula_structural   Eu2SiN3
_chemical_formula_sum   'Eu8 Si4 N12'
_cell_volume   343.94597455
_cell_formula_units_Z   4
loop_
 _symmetry_equiv_pos_site_id
 _symmetry_equiv_pos_as_xyz
  1  'x, y, z'
loop_
 _atom_site_type_symbol
 _atom_site_label
 _atom_site_symmetry_multiplicity
 _atom_site_fract_x
 _atom_site_fract_y
 _atom_site_fract_z
 _atom_site_occupancy
  Eu  Eu0  1  0.94769476  0.89538952  0.85656785  1
  Eu  Eu1  1  0.05230524  0.10461048  0.14343215  1
  Eu  Eu2  1  0.55230524  0.10461048  0.35656785  1
  Eu  Eu3  1  0.44769476  0.89538952  0.64343215  1
  Eu  Eu4  1  0.35848632  0.71697263  0.07644855  1
  Eu  Eu5  1  0.64151368  0.28302737  0.92355145  1
  Eu  Eu6  1  0.14151368  0.28302737  0.57644855  1
  Eu  Eu7  1  0.85848632  0.71697263  0.42355145  1
  Si  Si8  1  0.25966574  0.51933149  0.83543967  1
  Si  Si9  1  0.74033426  0.48066851  0.16456033  1
  Si  Si10  1  0.24033426  0.48066851  0.33543967  1
  Si  Si11  1  0.75966574  0.51933149  0.66456033  1
  N  N12  1  0.42180269  0.84360539  0.86665342  1
  N  N13  1  0.57819731  0.15639461  0.13334658  1
  N  N14  1  0.07819731  0.15639461  0.36665342  1
  N  N15  1  0.92180269  0.84360539  0.63334658  1
  N  N16  1  0.97527142  0.45054283  0.75000000  1
  N  N17  1  0.52472858  0.54945717  0.25000000  1
  N  N18  1  0.02472858  0.54945717  0.25000000  1
  N  N19  1  0.47527142  0.45054283  0.75000000  1
  N  N20  1  0.15842811  0.31685621  0.95348129  1
  N  N21  1  0.84157189  0.68314379  0.04651871  1
  N  N22  1  0.34157189  0.68314379  0.45348129  1
  N  N23  1  0.65842811  0.31685621  0.54651871  1
