# generated using pymatgen
data_Ge3F8
_symmetry_space_group_name_H-M   'P 1'
_cell_length_a   5.09439722
_cell_length_b   5.20907319
_cell_length_c   12.06247072
_cell_angle_alpha   90.00000000
_cell_angle_beta   90.94460107
_cell_angle_gamma   90.00000000
_symmetry_Int_Tables_number   1
_chemical_formula_structural   Ge3F8
_chemical_formula_sum   'Ge6 F16'
_cell_volume   320.05934562
_cell_formula_units_Z   2
loop_
 _symmetry_equiv_pos_site_id
 _symmetry_equiv_pos_as_xyz
  1  'x, y, z'
loop_
 _atom_site_type_symbol
 _atom_site_label
 _atom_site_symmetry_multiplicity
 _atom_site_fract_x
 _atom_site_fract_y
 _atom_site_fract_z
 _atom_site_occupancy
  Ge  Ge0  1  0.44800910  0.60055320  0.83128680  1
  Ge  Ge1  1  0.94800910  0.89944680  0.33128680  1
  Ge  Ge2  1  0.55199090  0.39944680  0.16871320  1
  Ge  Ge3  1  0.05199090  0.10055320  0.66871320  1
  Ge  Ge4  1  0.00000000  0.00000000  0.00000000  1
  Ge  Ge5  1  0.50000000  0.50000000  0.50000000  1
  F  F6  1  0.16411138  0.70321791  0.94049759  1
  F  F7  1  0.66411138  0.79678209  0.44049759  1
  F  F8  1  0.83588862  0.29678209  0.05950241  1
  F  F9  1  0.33588862  0.20321791  0.55950241  1
  F  F10  1  0.71689604  0.80933185  0.03390033  1
  F  F11  1  0.21689604  0.69066815  0.53390033  1
  F  F12  1  0.28310396  0.19066815  0.96609967  1
  F  F13  1  0.78310396  0.30933185  0.46609967  1
  F  F14  1  0.14810303  0.93682781  0.13598979  1
  F  F15  1  0.64810303  0.56317219  0.63598979  1
  F  F16  1  0.85189697  0.06317219  0.86401021  1
  F  F17  1  0.35189697  0.43682781  0.36401021  1
  F  F18  1  0.33659178  0.92268500  0.75159860  1
  F  F19  1  0.83659178  0.57731500  0.25159860  1
  F  F20  1  0.66340822  0.07731500  0.24840140  1
  F  F21  1  0.16340822  0.42268500  0.74840140  1
