# generated using pymatgen
data_GdEr4Al15
_symmetry_space_group_name_H-M   'P 1'
_cell_length_a   6.10196665
_cell_length_b   6.10196665
_cell_length_c   12.41446253
_cell_angle_alpha   75.77322331
_cell_angle_beta   75.77322331
_cell_angle_gamma   60.00000119
_symmetry_Int_Tables_number   1
_chemical_formula_structural   GdEr4Al15
_chemical_formula_sum   'Gd1 Er4 Al15'
_cell_volume   383.85463108
_cell_formula_units_Z   1
loop_
 _symmetry_equiv_pos_site_id
 _symmetry_equiv_pos_as_xyz
  1  'x, y, z'
loop_
 _atom_site_type_symbol
 _atom_site_label
 _atom_site_symmetry_multiplicity
 _atom_site_fract_x
 _atom_site_fract_y
 _atom_site_fract_z
 _atom_site_occupancy
  Gd  Gd0  1  0.00000000  0.00000000  0.00000000  1
  Er  Er1  1  0.13101510  0.13101510  0.60695469  1
  Er  Er2  1  0.86898490  0.86898490  0.39304531  1
  Er  Er3  1  0.40016948  0.40016948  0.79949157  1
  Er  Er4  1  0.59983052  0.59983052  0.20050843  1
  Al  Al5  1  0.50000000  0.50000000  0.00000000  1
  Al  Al6  1  0.50000000  0.00000000  0.00000000  1
  Al  Al7  1  0.00000000  0.50000000  0.00000000  1
  Al  Al8  1  0.12876949  0.63670769  0.59781513  1
  Al  Al9  1  0.63670769  0.63670769  0.59781513  1
  Al  Al10  1  0.63670769  0.12876949  0.59781513  1
  Al  Al11  1  0.87123051  0.36329231  0.40218487  1
  Al  Al12  1  0.36329231  0.36329231  0.40218487  1
  Al  Al13  1  0.36329231  0.87123051  0.40218487  1
  Al  Al14  1  0.43076671  0.88447596  0.80028137  1
  Al  Al15  1  0.88447596  0.88447596  0.80028137  1
  Al  Al16  1  0.88447596  0.43076671  0.80028137  1
  Al  Al17  1  0.56923329  0.11552404  0.19971863  1
  Al  Al18  1  0.11552404  0.11552404  0.19971863  1
  Al  Al19  1  0.11552404  0.56923329  0.19971863  1
