# generated using pymatgen
data_Tm2Fe17C3
_symmetry_space_group_name_H-M   'P 1'
_cell_length_a   6.47439137
_cell_length_b   6.47439137
_cell_length_c   6.47439123
_cell_angle_alpha   83.08804017
_cell_angle_beta   83.08804017
_cell_angle_gamma   83.08804270
_symmetry_Int_Tables_number   1
_chemical_formula_structural   Tm2Fe17C3
_chemical_formula_sum   'Tm2 Fe17 C3'
_cell_volume   265.91386918
_cell_formula_units_Z   1
loop_
 _symmetry_equiv_pos_site_id
 _symmetry_equiv_pos_as_xyz
  1  'x, y, z'
loop_
 _atom_site_type_symbol
 _atom_site_label
 _atom_site_symmetry_multiplicity
 _atom_site_fract_x
 _atom_site_fract_y
 _atom_site_fract_z
 _atom_site_occupancy
  Tm  Tm0  1  0.65785414  0.65785414  0.65785414  1
  Tm  Tm1  1  0.34214586  0.34214586  0.34214586  1
  Fe  Fe2  1  -0.00000000  -0.00000000  0.50000000  1
  Fe  Fe3  1  -0.00000000  0.50000000  -0.00000000  1
  Fe  Fe4  1  0.50000000  -0.00000000  -0.00000000  1
  Fe  Fe5  1  0.28382820  0.71617180  -0.00000000  1
  Fe  Fe6  1  0.71617180  1.00000000  0.28382820  1
  Fe  Fe7  1  0.00000000  0.28382820  0.71617180  1
  Fe  Fe8  1  0.28382820  0.00000000  0.71617180  1
  Fe  Fe9  1  1.00000000  0.71617180  0.28382820  1
  Fe  Fe10  1  0.71617180  0.28382820  0.00000000  1
  Fe  Fe11  1  0.34395413  0.34395413  0.85376233  1
  Fe  Fe12  1  0.34395413  0.85376233  0.34395413  1
  Fe  Fe13  1  0.85376233  0.34395413  0.34395413  1
  Fe  Fe14  1  0.65604587  0.65604587  0.14623767  1
  Fe  Fe15  1  0.65604587  0.14623767  0.65604587  1
  Fe  Fe16  1  0.14623767  0.65604587  0.65604587  1
  Fe  Fe17  1  0.90390374  0.90390374  0.90390374  1
  Fe  Fe18  1  0.09609626  0.09609626  0.09609626  1
  C  C19  1  0.50000000  0.50000000  -0.00000000  1
  C  C20  1  0.50000000  -0.00000000  0.50000000  1
  C  C21  1  -0.00000000  0.50000000  0.50000000  1
