# generated using pymatgen
data_SmSi2Ni9
_symmetry_space_group_name_H-M   'P 1'
_cell_length_a   6.17290262
_cell_length_b   7.58093708
_cell_length_c   7.58093708
_cell_angle_alpha   80.45876382
_cell_angle_beta   65.97512955
_cell_angle_gamma   65.97512955
_symmetry_Int_Tables_number   1
_chemical_formula_structural   SmSi2Ni9
_chemical_formula_sum   'Sm2 Si4 Ni18'
_cell_volume   295.95628884
_cell_formula_units_Z   2
loop_
 _symmetry_equiv_pos_site_id
 _symmetry_equiv_pos_as_xyz
  1  'x, y, z'
loop_
 _atom_site_type_symbol
 _atom_site_label
 _atom_site_symmetry_multiplicity
 _atom_site_fract_x
 _atom_site_fract_y
 _atom_site_fract_z
 _atom_site_occupancy
  Sm  Sm0  1  0.37500000  0.25000000  0.75000000  1
  Sm  Sm1  1  0.62500000  0.75000000  0.25000000  1
  Si  Si2  1  0.50000000  0.50000000  0.00000000  1
  Si  Si3  1  0.00000000  0.50000000  0.50000000  1
  Si  Si4  1  0.00000000  -0.00000000  0.00000000  1
  Si  Si5  1  0.00000000  -0.00000000  0.50000000  1
  Ni  Ni6  1  0.12500000  0.75000000  0.25000000  1
  Ni  Ni7  1  0.87500000  0.25000000  0.75000000  1
  Ni  Ni8  1  0.56317752  0.57796084  0.67070753  1
  Ni  Ni9  1  0.56317752  0.17070753  0.07796084  1
  Ni  Ni10  1  0.14113836  0.42203916  0.17070753  1
  Ni  Ni11  1  0.14113836  0.67070753  0.92203916  1
  Ni  Ni12  1  0.81184588  0.32929247  0.42203916  1
  Ni  Ni13  1  0.81184588  0.92203916  0.82929247  1
  Ni  Ni14  1  0.73388505  0.82929247  0.57796084  1
  Ni  Ni15  1  0.73388505  0.07796084  0.32929247  1
  Ni  Ni16  1  0.43682248  0.42203916  0.32929247  1
  Ni  Ni17  1  0.43682248  0.82929247  0.92203916  1
  Ni  Ni18  1  0.85886164  0.57796084  0.82929247  1
  Ni  Ni19  1  0.85886164  0.32929247  0.07796084  1
  Ni  Ni20  1  0.18815412  0.67070753  0.57796084  1
  Ni  Ni21  1  0.18815412  0.07796084  0.17070753  1
  Ni  Ni22  1  0.26611495  0.17070753  0.42203916  1
  Ni  Ni23  1  0.26611495  0.92203916  0.67070753  1
