# generated using pymatgen
data_GdVB4
_symmetry_space_group_name_H-M   'P 1'
_cell_length_a   3.47279157
_cell_length_b   6.02538059
_cell_length_c   11.66865262
_cell_angle_alpha   90.00000000
_cell_angle_beta   90.00000000
_cell_angle_gamma   90.00000000
_symmetry_Int_Tables_number   1
_chemical_formula_structural   GdVB4
_chemical_formula_sum   'Gd4 V4 B16'
_cell_volume   244.16528325
_cell_formula_units_Z   4
loop_
 _symmetry_equiv_pos_site_id
 _symmetry_equiv_pos_as_xyz
  1  'x, y, z'
loop_
 _atom_site_type_symbol
 _atom_site_label
 _atom_site_symmetry_multiplicity
 _atom_site_fract_x
 _atom_site_fract_y
 _atom_site_fract_z
 _atom_site_occupancy
  Gd  Gd0  1  -0.00000000  0.62433709  0.34846801  1
  Gd  Gd1  1  0.00000000  0.37566291  0.65153199  1
  Gd  Gd2  1  -0.00000000  0.12433709  0.15153199  1
  Gd  Gd3  1  0.00000000  0.87566291  0.84846801  1
  V  V4  1  0.00000000  0.62668593  0.08245362  1
  V  V5  1  0.00000000  0.37331407  0.91754638  1
  V  V6  1  -0.00000000  0.12668593  0.41754638  1
  V  V7  1  -0.00000000  0.87331407  0.58245362  1
  B  B8  1  0.50000000  0.78543381  0.18518173  1
  B  B9  1  0.50000000  0.21456619  0.81481827  1
  B  B10  1  0.50000000  0.28543381  0.31481827  1
  B  B11  1  0.50000000  0.71456619  0.68518173  1
  B  B12  1  0.50000000  0.86332477  0.03269306  1
  B  B13  1  0.50000000  0.13667523  0.96730694  1
  B  B14  1  0.50000000  0.36332477  0.46730694  1
  B  B15  1  0.50000000  0.63667523  0.53269306  1
  B  B16  1  0.50000000  0.88616563  0.45280252  1
  B  B17  1  0.50000000  0.11383437  0.54719748  1
  B  B18  1  0.50000000  0.38616563  0.04719748  1
  B  B19  1  0.50000000  0.61383437  0.95280252  1
  B  B20  1  0.50000000  0.97771659  0.30828080  1
  B  B21  1  0.50000000  0.02228341  0.69171920  1
  B  B22  1  0.50000000  0.47771659  0.19171920  1
  B  B23  1  0.50000000  0.52228341  0.80828080  1
