# generated using pymatgen
data_Eu2Ta2O7
_symmetry_space_group_name_H-M   'P 1'
_cell_length_a   3.98478938
_cell_length_b   5.71117090
_cell_length_c   13.82251991
_cell_angle_alpha   90.00000000
_cell_angle_beta   98.28754945
_cell_angle_gamma   90.00000000
_symmetry_Int_Tables_number   1
_chemical_formula_structural   Eu2Ta2O7
_chemical_formula_sum   'Eu4 Ta4 O14'
_cell_volume   311.28530991
_cell_formula_units_Z   2
loop_
 _symmetry_equiv_pos_site_id
 _symmetry_equiv_pos_as_xyz
  1  'x, y, z'
loop_
 _atom_site_type_symbol
 _atom_site_label
 _atom_site_symmetry_multiplicity
 _atom_site_fract_x
 _atom_site_fract_y
 _atom_site_fract_z
 _atom_site_occupancy
  Eu  Eu0  1  0.71483971  0.75000000  0.42967941  1
  Eu  Eu1  1  0.28516029  0.25000000  0.57032059  1
  Eu  Eu2  1  0.55421782  0.25000000  0.10843564  1
  Eu  Eu3  1  0.44578218  0.75000000  0.89156436  1
  Ta  Ta4  1  0.15935373  0.25000000  0.31870746  1
  Ta  Ta5  1  0.84064627  0.75000000  0.68129254  1
  Ta  Ta6  1  0.05433007  0.75000000  0.10866014  1
  Ta  Ta7  1  0.94566993  0.25000000  0.89133986  1
  O  O8  1  0.20797602  0.00947415  0.41595205  1
  O  O9  1  0.79202398  0.99052585  0.58404795  1
  O  O10  1  0.20797602  0.49052585  0.41595205  1
  O  O11  1  0.79202398  0.50947415  0.58404795  1
  O  O12  1  0.65046444  0.25000000  0.30092888  1
  O  O13  1  0.34953556  0.75000000  0.69907112  1
  O  O14  1  0.10018847  0.00936173  0.20037693  1
  O  O15  1  0.89981153  0.99063827  0.79962307  1
  O  O16  1  0.10018847  0.49063827  0.20037693  1
  O  O17  1  0.89981153  0.50936173  0.79962307  1
  O  O18  1  0.54639179  0.75000000  0.09278358  1
  O  O19  1  0.45360821  0.25000000  0.90721642  1
  O  O20  1  0.00000000  0.00000000  0.00000000  1
  O  O21  1  0.00000000  0.50000000  0.00000000  1
