# generated using pymatgen
data_K2TiHF7
_symmetry_space_group_name_H-M   'P 1'
_cell_length_a   6.17260245
_cell_length_b   6.18913481
_cell_length_c   9.18584109
_cell_angle_alpha   99.96575064
_cell_angle_beta   90.00000000
_cell_angle_gamma   90.00000000
_symmetry_Int_Tables_number   1
_chemical_formula_structural   K2TiHF7
_chemical_formula_sum   'K4 Ti2 H2 F14'
_cell_volume   345.63230848
_cell_formula_units_Z   2
loop_
 _symmetry_equiv_pos_site_id
 _symmetry_equiv_pos_as_xyz
  1  'x, y, z'
loop_
 _atom_site_type_symbol
 _atom_site_label
 _atom_site_symmetry_multiplicity
 _atom_site_fract_x
 _atom_site_fract_y
 _atom_site_fract_z
 _atom_site_occupancy
  K  K0  1  0.25000000  0.75653771  0.00407062  1
  K  K1  1  0.75000000  0.24346229  0.99592938  1
  K  K2  1  0.75000000  0.81866304  0.32656318  1
  K  K3  1  0.25000000  0.18133696  0.67343682  1
  Ti  Ti4  1  0.75000000  0.69726896  0.78557001  1
  Ti  Ti5  1  0.25000000  0.30273104  0.21442999  1
  H  H6  1  0.25000000  0.65576116  0.46676671  1
  H  H7  1  0.75000000  0.34423884  0.53323329  1
  F  F8  1  0.25000000  0.81602160  0.47683617  1
  F  F9  1  0.75000000  0.18397840  0.52316383  1
  F  F10  1  0.75000000  0.59384068  0.57569114  1
  F  F11  1  0.25000000  0.40615932  0.42430886  1
  F  F12  1  0.96528952  0.90866931  0.77856714  1
  F  F13  1  0.46528952  0.09133069  0.22143286  1
  F  F14  1  0.03471048  0.09133069  0.22143286  1
  F  F15  1  0.53471048  0.90866931  0.77856714  1
  F  F16  1  0.75000000  0.78168887  0.99433326  1
  F  F17  1  0.25000000  0.21831113  0.00566674  1
  F  F18  1  0.53346919  0.48737557  0.80834737  1
  F  F19  1  0.03346919  0.51262443  0.19165263  1
  F  F20  1  0.46653081  0.51262443  0.19165263  1
  F  F21  1  0.96653081  0.48737557  0.80834737  1
