# generated using pymatgen
data_Dy2Si3Rh
_symmetry_space_group_name_H-M   'P 1'
_cell_length_a   7.91072961
_cell_length_b   8.18253817
_cell_length_c   8.18253817
_cell_angle_alpha   120.00680469
_cell_angle_beta   90.00000000
_cell_angle_gamma   90.00000000
_symmetry_Int_Tables_number   1
_chemical_formula_structural   Dy2Si3Rh
_chemical_formula_sum   'Dy8 Si12 Rh4'
_cell_volume   458.66274844
_cell_formula_units_Z   4
loop_
 _symmetry_equiv_pos_site_id
 _symmetry_equiv_pos_as_xyz
  1  'x, y, z'
loop_
 _atom_site_type_symbol
 _atom_site_label
 _atom_site_symmetry_multiplicity
 _atom_site_fract_x
 _atom_site_fract_y
 _atom_site_fract_z
 _atom_site_occupancy
  Dy  Dy0  1  0.75000000  0.00000319  0.99999681  1
  Dy  Dy1  1  0.25000000  0.99999681  0.00000319  1
  Dy  Dy2  1  0.75000000  0.49088705  0.98179241  1
  Dy  Dy3  1  0.75000000  0.49089798  0.50910202  1
  Dy  Dy4  1  0.75000000  0.01820759  0.50911295  1
  Dy  Dy5  1  0.25000000  0.50911295  0.01820759  1
  Dy  Dy6  1  0.25000000  0.50910202  0.49089798  1
  Dy  Dy7  1  0.25000000  0.98179241  0.49088705  1
  Si  Si8  1  0.50072601  0.83325320  0.66648652  1
  Si  Si9  1  0.50073031  0.83325729  0.16674271  1
  Si  Si10  1  0.50072601  0.33351348  0.16674680  1
  Si  Si11  1  0.49927399  0.16674680  0.33351348  1
  Si  Si12  1  0.49926969  0.16674271  0.83325729  1
  Si  Si13  1  0.49927399  0.66648652  0.83325320  1
  Si  Si14  1  0.00072601  0.16674680  0.33351348  1
  Si  Si15  1  0.00073031  0.16674271  0.83325729  1
  Si  Si16  1  0.00072601  0.66648652  0.83325320  1
  Si  Si17  1  0.99927399  0.83325320  0.66648652  1
  Si  Si18  1  0.99926969  0.83325729  0.16674271  1
  Si  Si19  1  0.99927399  0.33351348  0.16674680  1
  Rh  Rh20  1  0.53237949  0.66666706  0.33333294  1
  Rh  Rh21  1  0.46762051  0.33333294  0.66666706  1
  Rh  Rh22  1  0.03237949  0.33333294  0.66666706  1
  Rh  Rh23  1  0.96762051  0.66666706  0.33333294  1
