# generated using pymatgen
data_Gd3CuSiS7
_symmetry_space_group_name_H-M   'P 1'
_cell_length_a   5.72477115
_cell_length_b   10.00442550
_cell_length_c   10.00450326
_cell_angle_alpha   120.00003387
_cell_angle_beta   90.00000000
_cell_angle_gamma   90.00000000
_symmetry_Int_Tables_number   1
_chemical_formula_structural   Gd3CuSiS7
_chemical_formula_sum   'Gd6 Cu2 Si2 S14'
_cell_volume   496.22232414
_cell_formula_units_Z   2
loop_
 _symmetry_equiv_pos_site_id
 _symmetry_equiv_pos_as_xyz
  1  'x, y, z'
loop_
 _atom_site_type_symbol
 _atom_site_label
 _atom_site_symmetry_multiplicity
 _atom_site_fract_x
 _atom_site_fract_y
 _atom_site_fract_z
 _atom_site_occupancy
  Gd  Gd0  1  0.24993779  0.76951425  0.12657299  1
  Gd  Gd1  1  0.24995910  0.87340666  0.64288041  1
  Gd  Gd2  1  0.24993561  0.35711412  0.23053065  1
  Gd  Gd3  1  0.74993779  0.23048575  0.87342701  1
  Gd  Gd4  1  0.74995910  0.12659334  0.35711959  1
  Gd  Gd5  1  0.74993561  0.64288588  0.76946935  1
  Cu  Cu6  1  0.21402362  0.00001018  -0.00000214  1
  Cu  Cu7  1  0.71402362  0.99998982  0.00000214  1
  Si  Si8  1  0.33720829  0.33336438  0.66667954  1
  Si  Si9  1  0.83720829  0.66663562  0.33332046  1
  S  S10  1  0.96853078  0.33338499  0.66668259  1
  S  S11  1  0.46853078  0.66661501  0.33331741  1
  S  S12  1  0.98431538  0.89127171  0.41490362  1
  S  S13  1  0.98433792  0.58509480  0.47639407  1
  S  S14  1  0.98433791  0.52360817  0.10869934  1
  S  S15  1  0.48431538  0.10872829  0.58509638  1
  S  S16  1  0.48433792  0.41490520  0.52360593  1
  S  S17  1  0.48433791  0.47639183  0.89130066  1
  S  S18  1  0.73062670  0.83505152  0.09084141  1
  S  S19  1  0.73066309  0.90917853  0.74422164  1
  S  S20  1  0.73062381  0.25579219  0.16493795  1
  S  S21  1  0.23062670  0.16494848  0.90915859  1
  S  S22  1  0.23066309  0.09082147  0.25577836  1
  S  S23  1  0.23062381  0.74420781  0.83506205  1
