# generated using pymatgen
data_Sm8Ga3Co
_symmetry_space_group_name_H-M   'P 1'
_cell_length_a   6.97344120
_cell_length_b   10.34846605
_cell_length_c   10.34846605
_cell_angle_alpha   120.00763478
_cell_angle_beta   90.00000000
_cell_angle_gamma   90.00000000
_symmetry_Int_Tables_number   1
_chemical_formula_structural   Sm8Ga3Co
_chemical_formula_sum   'Sm16 Ga6 Co2'
_cell_volume   646.69025538
_cell_formula_units_Z   2
loop_
 _symmetry_equiv_pos_site_id
 _symmetry_equiv_pos_as_xyz
  1  'x, y, z'
loop_
 _atom_site_type_symbol
 _atom_site_label
 _atom_site_symmetry_multiplicity
 _atom_site_fract_x
 _atom_site_fract_y
 _atom_site_fract_z
 _atom_site_occupancy
  Sm  Sm0  1  0.50278088  0.17160696  0.82839304  1
  Sm  Sm1  1  0.50284503  0.65672813  0.82836394  1
  Sm  Sm2  1  0.50284503  0.17163606  0.34327187  1
  Sm  Sm3  1  0.00278088  0.82839304  0.17160696  1
  Sm  Sm4  1  0.00284503  0.34327187  0.17163606  1
  Sm  Sm5  1  0.00284503  0.82836394  0.65672813  1
  Sm  Sm6  1  0.83181883  0.33333559  0.66666441  1
  Sm  Sm7  1  0.33181883  0.66666441  0.33333559  1
  Sm  Sm8  1  0.21204751  0.46441251  0.53558749  1
  Sm  Sm9  1  0.21204333  0.07104903  0.53551487  1
  Sm  Sm10  1  0.21204333  0.46448513  0.92895097  1
  Sm  Sm11  1  0.71204751  0.53558749  0.46441251  1
  Sm  Sm12  1  0.71204333  0.92895097  0.46448513  1
  Sm  Sm13  1  0.71204333  0.53551487  0.07104903  1
  Sm  Sm14  1  0.21788229  0.00002027  0.99997973  1
  Sm  Sm15  1  0.71788229  0.99997973  0.00002027  1
  Ga  Ga16  1  0.96756496  0.16392783  0.83607217  1
  Ga  Ga17  1  0.96753946  0.67215211  0.83602777  1
  Ga  Ga18  1  0.96753946  0.16397223  0.32784789  1
  Ga  Ga19  1  0.46756496  0.83607217  0.16392783  1
  Ga  Ga20  1  0.46753946  0.32784789  0.16397223  1
  Ga  Ga21  1  0.46753946  0.83602777  0.67215211  1
  Co  Co22  1  0.44004987  0.33332456  0.66667544  1
  Co  Co23  1  0.94004987  0.66667544  0.33332456  1
