# generated using pymatgen
data_NbRh3
_symmetry_space_group_name_H-M   'P 1'
_cell_length_a   5.54471057
_cell_length_b   5.54471057
_cell_length_c   13.50715915
_cell_angle_alpha   90.00000000
_cell_angle_beta   90.00000000
_cell_angle_gamma   119.99835631
_symmetry_Int_Tables_number   1
_chemical_formula_structural   NbRh3
_chemical_formula_sum   'Nb6 Rh18'
_cell_volume   359.63305598
_cell_formula_units_Z   6
loop_
 _symmetry_equiv_pos_site_id
 _symmetry_equiv_pos_as_xyz
  1  'x, y, z'
loop_
 _atom_site_type_symbol
 _atom_site_label
 _atom_site_symmetry_multiplicity
 _atom_site_fract_x
 _atom_site_fract_y
 _atom_site_fract_z
 _atom_site_occupancy
  Nb  Nb0  1  0.99999294  0.00000706  0.75000000  1
  Nb  Nb1  1  0.00000706  0.99999294  0.25000000  1
  Nb  Nb2  1  0.66668985  0.33331015  0.58930676  1
  Nb  Nb3  1  0.33331015  0.66668985  0.41069324  1
  Nb  Nb4  1  0.33331015  0.66668985  0.08930676  1
  Nb  Nb5  1  0.66668985  0.33331015  0.91069324  1
  Rh  Rh6  1  0.49618227  0.99233906  0.75000000  1
  Rh  Rh7  1  0.49616240  0.50383760  0.75000000  1
  Rh  Rh8  1  0.00766094  0.50381773  0.75000000  1
  Rh  Rh9  1  0.50381773  0.00766094  0.25000000  1
  Rh  Rh10  1  0.50383760  0.49616240  0.25000000  1
  Rh  Rh11  1  0.99233906  0.49618227  0.25000000  1
  Rh  Rh12  1  0.83399934  0.16600066  0.08253109  1
  Rh  Rh13  1  0.33198912  0.16600624  0.08254286  1
  Rh  Rh14  1  0.83399376  0.66801088  0.08254286  1
  Rh  Rh15  1  0.16600066  0.83399934  0.91746891  1
  Rh  Rh16  1  0.66801088  0.83399376  0.91745714  1
  Rh  Rh17  1  0.16600624  0.33198912  0.91745714  1
  Rh  Rh18  1  0.16600066  0.83399934  0.58253109  1
  Rh  Rh19  1  0.66801088  0.83399376  0.58254286  1
  Rh  Rh20  1  0.16600624  0.33198912  0.58254286  1
  Rh  Rh21  1  0.83399934  0.16600066  0.41746891  1
  Rh  Rh22  1  0.33198912  0.16600624  0.41745714  1
  Rh  Rh23  1  0.83399376  0.66801088  0.41745714  1
