# generated using pymatgen
data_Yb2Mn12P7
_symmetry_space_group_name_H-M   'P 1'
_cell_length_a   3.51148292
_cell_length_b   9.37639808
_cell_length_c   9.38054776
_cell_angle_alpha   120.02169293
_cell_angle_beta   90.00000000
_cell_angle_gamma   90.00000000
_symmetry_Int_Tables_number   1
_chemical_formula_structural   Yb2Mn12P7
_chemical_formula_sum   'Yb2 Mn12 P7'
_cell_volume   267.41788717
_cell_formula_units_Z   1
loop_
 _symmetry_equiv_pos_site_id
 _symmetry_equiv_pos_as_xyz
  1  'x, y, z'
loop_
 _atom_site_type_symbol
 _atom_site_label
 _atom_site_symmetry_multiplicity
 _atom_site_fract_x
 _atom_site_fract_y
 _atom_site_fract_z
 _atom_site_occupancy
  Yb  Yb0  1  -0.00000000  0.66673279  0.33334589  1
  Yb  Yb1  1  0.50000000  0.33337330  0.66651303  1
  Mn  Mn2  1  -0.00000000  0.37771252  0.94868267  1
  Mn  Mn3  1  -0.00000000  0.05127469  0.42884310  1
  Mn  Mn4  1  -0.00000000  0.57102068  0.62233159  1
  Mn  Mn5  1  -0.00000000  0.88063521  0.72349857  1
  Mn  Mn6  1  0.00000000  0.27649638  0.15720904  1
  Mn  Mn7  1  0.00000000  0.84279261  0.11948077  1
  Mn  Mn8  1  0.50000000  0.95105545  0.56681284  1
  Mn  Mn9  1  0.50000000  0.43312816  0.38436317  1
  Mn  Mn10  1  0.50000000  0.61590062  0.04895105  1
  Mn  Mn11  1  0.50000000  0.13021910  0.90134947  1
  Mn  Mn12  1  0.50000000  0.09868000  0.22902044  1
  Mn  Mn13  1  0.50000000  0.77107712  0.86975171  1
  P  P14  1  0.00000000  0.12178540  0.71054240  1
  P  P15  1  -0.00000000  0.28946755  0.41122982  1
  P  P16  1  -0.00000000  0.58870221  0.87809052  1
  P  P17  1  0.50000000  0.70932796  0.58448634  1
  P  P18  1  0.50000000  0.41560782  0.12494683  1
  P  P19  1  0.50000000  0.87503173  0.29056588  1
  P  P20  1  0.00000000  -0.00002131  -0.00001513  1
