# generated using pymatgen
data_Tb2Mn12P7
_symmetry_space_group_name_H-M   'P 1'
_cell_length_a   3.60483727
_cell_length_b   9.31733379
_cell_length_c   9.31204183
_cell_angle_alpha   120.00110654
_cell_angle_beta   90.00000000
_cell_angle_gamma   90.00000000
_symmetry_Int_Tables_number   1
_chemical_formula_structural   Tb2Mn12P7
_chemical_formula_sum   'Tb2 Mn12 P7'
_cell_volume   270.86196596
_cell_formula_units_Z   1
loop_
 _symmetry_equiv_pos_site_id
 _symmetry_equiv_pos_as_xyz
  1  'x, y, z'
loop_
 _atom_site_type_symbol
 _atom_site_label
 _atom_site_symmetry_multiplicity
 _atom_site_fract_x
 _atom_site_fract_y
 _atom_site_fract_z
 _atom_site_occupancy
  Tb  Tb0  1  0.00000000  0.66682227  0.33326748  1
  Tb  Tb1  1  0.50000000  0.33340796  0.66672550  1
  Mn  Mn2  1  0.00000000  0.37710064  0.95105249  1
  Mn  Mn3  1  0.00000000  0.04893537  0.42590883  1
  Mn  Mn4  1  0.00000000  0.57389443  0.62289827  1
  Mn  Mn5  1  -0.00000000  0.87906474  0.72385536  1
  Mn  Mn6  1  0.00000000  0.27636977  0.15538220  1
  Mn  Mn7  1  -0.00000000  0.84458394  0.12080490  1
  Mn  Mn8  1  0.50000000  0.95437386  0.56472257  1
  Mn  Mn9  1  0.50000000  0.43511196  0.38947079  1
  Mn  Mn10  1  0.50000000  0.61023906  0.04550613  1
  Mn  Mn11  1  0.50000000  0.12410700  0.89647881  1
  Mn  Mn12  1  0.50000000  0.10379160  0.22773324  1
  Mn  Mn13  1  0.50000000  0.77220940  0.87615049  1
  P  P14  1  0.00000000  0.11895221  0.70962799  1
  P  P15  1  0.00000000  0.29047637  0.40951385  1
  P  P16  1  0.00000000  0.59042226  0.88091982  1
  P  P17  1  0.50000000  0.71704051  0.59201739  1
  P  P18  1  0.50000000  0.40811987  0.12512000  1
  P  P19  1  0.50000000  0.87481713  0.28267505  1
  P  P20  1  0.00000000  0.00015967  0.00016883  1
