# generated using pymatgen
data_Cs3SnPSe7
_symmetry_space_group_name_H-M   'P 1'
_cell_length_a   7.74486433
_cell_length_b   10.24949221
_cell_length_c   12.76308536
_cell_angle_alpha   79.53441442
_cell_angle_beta   88.32606282
_cell_angle_gamma   69.68034912
_symmetry_Int_Tables_number   1
_chemical_formula_structural   Cs3SnPSe7
_chemical_formula_sum   'Cs6 Sn2 P2 Se14'
_cell_volume   933.66150633
_cell_formula_units_Z   2
loop_
 _symmetry_equiv_pos_site_id
 _symmetry_equiv_pos_as_xyz
  1  'x, y, z'
loop_
 _atom_site_type_symbol
 _atom_site_label
 _atom_site_symmetry_multiplicity
 _atom_site_fract_x
 _atom_site_fract_y
 _atom_site_fract_z
 _atom_site_occupancy
  Cs  Cs0  1  0.66943439  0.61933956  0.40148228  1
  Cs  Cs1  1  0.33056561  0.38066044  0.59851772  1
  Cs  Cs2  1  0.62667030  0.68786990  0.02152306  1
  Cs  Cs3  1  0.37332970  0.31213010  0.97847694  1
  Cs  Cs4  1  0.05665222  0.97133562  0.79997372  1
  Cs  Cs5  1  0.94334778  0.02866438  0.20002628  1
  Sn  Sn6  1  0.59508843  0.92347852  0.63361061  1
  Sn  Sn7  1  0.40491157  0.07652148  0.36638939  1
  P  P8  1  0.21962230  0.55833827  0.22199944  1
  P  P9  1  0.78037770  0.44166173  0.77800056  1
  Se  Se10  1  0.32594894  0.90492086  0.52729355  1
  Se  Se11  1  0.67405106  0.09507914  0.47270645  1
  Se  Se12  1  0.53096362  0.01649512  0.80225080  1
  Se  Se13  1  0.46903638  0.98350488  0.19774920  1
  Se  Se14  1  0.92351905  0.73058794  0.62758253  1
  Se  Se15  1  0.07648095  0.26941206  0.37241747  1
  Se  Se16  1  0.03210822  0.42623403  0.20617527  1
  Se  Se17  1  0.96789178  0.57376597  0.79382473  1
  Se  Se18  1  0.14362224  0.66849293  0.35655134  1
  Se  Se19  1  0.85637776  0.33150707  0.64344866  1
  Se  Se20  1  0.13338450  0.69129729  0.06224340  1
  Se  Se21  1  0.86661550  0.30870271  0.93775660  1
  Se  Se22  1  0.50321868  0.40732383  0.23638061  1
  Se  Se23  1  0.49678132  0.59267617  0.76361939  1
