# generated using pymatgen
data_Nd3Mn2Sb3O14
_symmetry_space_group_name_H-M   'P 1'
_cell_length_a   7.35967659
_cell_length_b   7.35967659
_cell_length_c   7.35967625
_cell_angle_alpha   62.03681283
_cell_angle_beta   62.03681283
_cell_angle_gamma   62.03681242
_symmetry_Int_Tables_number   1
_chemical_formula_structural   Nd3Mn2Sb3O14
_chemical_formula_sum   'Nd3 Mn2 Sb3 O14'
_cell_volume   294.71651514
_cell_formula_units_Z   1
loop_
 _symmetry_equiv_pos_site_id
 _symmetry_equiv_pos_as_xyz
  1  'x, y, z'
loop_
 _atom_site_type_symbol
 _atom_site_label
 _atom_site_symmetry_multiplicity
 _atom_site_fract_x
 _atom_site_fract_y
 _atom_site_fract_z
 _atom_site_occupancy
  Nd  Nd0  1  0.50000000  0.50000000  -0.00000000  1
  Nd  Nd1  1  0.50000000  0.00000000  0.50000000  1
  Nd  Nd2  1  0.00000000  0.50000000  0.50000000  1
  Mn  Mn3  1  0.00000000  0.00000000  -0.00000000  1
  Mn  Mn4  1  0.50000000  0.50000000  0.50000000  1
  Sb  Sb5  1  0.00000000  0.00000000  0.50000000  1
  Sb  Sb6  1  0.00000000  0.50000000  -0.00000000  1
  Sb  Sb7  1  0.50000000  0.00000000  -0.00000000  1
  O  O8  1  0.61562788  0.61562788  0.61562788  1
  O  O9  1  0.38437212  0.38437212  0.38437212  1
  O  O10  1  0.92113048  0.32006612  0.32006612  1
  O  O11  1  0.32006612  0.32006612  0.92113048  1
  O  O12  1  0.32006612  0.92113048  0.32006612  1
  O  O13  1  0.07886952  0.67993388  0.67993388  1
  O  O14  1  0.67993388  0.67993388  0.07886952  1
  O  O15  1  0.67993388  0.07886952  0.67993388  1
  O  O16  1  0.35384821  0.90808513  0.90808513  1
  O  O17  1  0.90808513  0.90808513  0.35384821  1
  O  O18  1  0.90808513  0.35384821  0.90808513  1
  O  O19  1  0.64615179  0.09191487  0.09191487  1
  O  O20  1  0.09191487  0.09191487  0.64615179  1
  O  O21  1  0.09191487  0.64615179  0.09191487  1
