# generated using pymatgen
data_Hf3(VGa3)2
_symmetry_space_group_name_H-M   'P 1'
_cell_length_a   5.38013957
_cell_length_b   7.79631622
_cell_length_c   8.83405665
_cell_angle_alpha   90.00000000
_cell_angle_beta   90.00000000
_cell_angle_gamma   90.00000000
_symmetry_Int_Tables_number   1
_chemical_formula_structural   Hf3(VGa3)2
_chemical_formula_sum   'Hf6 V4 Ga12'
_cell_volume   370.54688604
_cell_formula_units_Z   2
loop_
 _symmetry_equiv_pos_site_id
 _symmetry_equiv_pos_as_xyz
  1  'x, y, z'
loop_
 _atom_site_type_symbol
 _atom_site_label
 _atom_site_symmetry_multiplicity
 _atom_site_fract_x
 _atom_site_fract_y
 _atom_site_fract_z
 _atom_site_occupancy
  Hf  Hf0  1  0.75000000  0.84459802  0.03030447  1
  Hf  Hf1  1  0.75000000  0.84459802  0.46969553  1
  Hf  Hf2  1  0.25000000  0.15540198  0.96969553  1
  Hf  Hf3  1  0.25000000  0.15540198  0.53030447  1
  Hf  Hf4  1  0.75000000  0.28242466  0.75000000  1
  Hf  Hf5  1  0.25000000  0.71757534  0.25000000  1
  V  V6  1  0.50000000  0.50000000  0.50000000  1
  V  V7  1  0.50000000  0.50000000  0.00000000  1
  V  V8  1  -0.00000000  0.50000000  0.50000000  1
  V  V9  1  -0.00000000  0.50000000  0.00000000  1
  Ga  Ga10  1  0.75000000  0.22976032  0.43771208  1
  Ga  Ga11  1  0.75000000  0.22976032  0.06228792  1
  Ga  Ga12  1  0.25000000  0.77023968  0.56228792  1
  Ga  Ga13  1  0.25000000  0.77023968  0.93771208  1
  Ga  Ga14  1  0.75000000  0.63362625  0.75000000  1
  Ga  Ga15  1  0.25000000  0.36637375  0.25000000  1
  Ga  Ga16  1  0.25000000  0.43484732  0.75000000  1
  Ga  Ga17  1  0.75000000  0.56515268  0.25000000  1
  Ga  Ga18  1  0.51044598  0.96001920  0.75000000  1
  Ga  Ga19  1  0.98955402  0.96001920  0.75000000  1
  Ga  Ga20  1  0.48955402  0.03998080  0.25000000  1
  Ga  Ga21  1  0.01044598  0.03998080  0.25000000  1
