# generated using pymatgen
data_Dy5(In2Pd)2
_symmetry_space_group_name_H-M   'P 1'
_cell_length_a   3.63719489
_cell_length_b   8.12913297
_cell_length_c   18.29785505
_cell_angle_alpha   90.00000000
_cell_angle_beta   90.00000000
_cell_angle_gamma   90.00000000
_symmetry_Int_Tables_number   1
_chemical_formula_structural   Dy5(In2Pd)2
_chemical_formula_sum   'Dy10 In8 Pd4'
_cell_volume   541.01708819
_cell_formula_units_Z   2
loop_
 _symmetry_equiv_pos_site_id
 _symmetry_equiv_pos_as_xyz
  1  'x, y, z'
loop_
 _atom_site_type_symbol
 _atom_site_label
 _atom_site_symmetry_multiplicity
 _atom_site_fract_x
 _atom_site_fract_y
 _atom_site_fract_z
 _atom_site_occupancy
  Dy  Dy0  1  0.00000000  0.50000000  0.50000000  1
  Dy  Dy1  1  0.00000000  0.00000000  -0.00000000  1
  Dy  Dy2  1  -0.00000000  0.74304037  0.27986999  1
  Dy  Dy3  1  0.00000000  0.25695963  0.72013001  1
  Dy  Dy4  1  0.00000000  0.75695963  0.77986999  1
  Dy  Dy5  1  -0.00000000  0.24304037  0.22013001  1
  Dy  Dy6  1  -0.00000000  0.61440857  0.08227874  1
  Dy  Dy7  1  0.00000000  0.38559143  0.91772126  1
  Dy  Dy8  1  0.00000000  0.88559143  0.58227874  1
  Dy  Dy9  1  -0.00000000  0.11440857  0.41772126  1
  In  In10  1  0.50000000  0.71188661  0.93053564  1
  In  In11  1  0.50000000  0.28811339  0.06946436  1
  In  In12  1  0.50000000  0.78811339  0.43053564  1
  In  In13  1  0.50000000  0.21188661  0.56946436  1
  In  In14  1  0.50000000  0.57778030  0.64886441  1
  In  In15  1  0.50000000  0.42221970  0.35113559  1
  In  In16  1  0.50000000  0.92221970  0.14886441  1
  In  In17  1  0.50000000  0.07778030  0.85113559  1
  Pd  Pd18  1  0.50000000  0.52694235  0.19632875  1
  Pd  Pd19  1  0.50000000  0.47305765  0.80367125  1
  Pd  Pd20  1  0.50000000  0.97305765  0.69632875  1
  Pd  Pd21  1  0.50000000  0.02694235  0.30367125  1
