# generated using pymatgen
data_SmH3
_symmetry_space_group_name_H-M   'P 1'
_cell_length_a   6.52296181
_cell_length_b   6.52299993
_cell_length_c   6.80653962
_cell_angle_alpha   90.00044144
_cell_angle_beta   89.99799313
_cell_angle_gamma   120.00014043
_symmetry_Int_Tables_number   1
_chemical_formula_structural   SmH3
_chemical_formula_sum   'Sm6 H18'
_cell_volume   250.81216845
_cell_formula_units_Z   6
loop_
 _symmetry_equiv_pos_site_id
 _symmetry_equiv_pos_as_xyz
  1  'x, y, z'
loop_
 _atom_site_type_symbol
 _atom_site_label
 _atom_site_symmetry_multiplicity
 _atom_site_fract_x
 _atom_site_fract_y
 _atom_site_fract_z
 _atom_site_occupancy
  Sm  Sm0  1  0.33695812  0.33696268  0.74999228  1
  Sm  Sm1  1  0.66304601  0.00000325  0.75000291  1
  Sm  Sm2  1  0.99999685  0.66303607  0.74999900  1
  Sm  Sm3  1  0.33695399  0.99999675  0.24999709  1
  Sm  Sm4  1  0.00000315  0.33696393  0.25000100  1
  Sm  Sm5  1  0.66304188  0.66303732  0.25000772  1
  H  H6  1  0.67879639  0.65189172  0.59346272  1
  H  H7  1  0.34810314  0.02689729  0.59346352  1
  H  H8  1  0.97310333  0.32121475  0.59346008  1
  H  H9  1  0.67879440  0.02690561  0.09346277  1
  H  H10  1  0.97310234  0.65188912  0.09345945  1
  H  H11  1  0.34810395  0.32120898  0.09346150  1
  H  H12  1  0.32120361  0.34810828  0.40653728  1
  H  H13  1  0.65189686  0.97310271  0.40653648  1
  H  H14  1  0.02689667  0.67878525  0.40653992  1
  H  H15  1  0.32120560  0.97309439  0.90653723  1
  H  H16  1  0.02689766  0.34811088  0.90654055  1
  H  H17  1  0.65189605  0.67879102  0.90653850  1
  H  H18  1  -0.00000020  0.99999703  0.75000023  1
  H  H19  1  0.00000020  0.00000297  0.24999977  1
  H  H20  1  0.33333761  0.66666990  0.67946566  1
  H  H21  1  0.33333540  0.66666476  0.17946484  1
  H  H22  1  0.66666239  0.33333010  0.32053434  1
  H  H23  1  0.66666460  0.33333524  0.82053516  1
