# generated using pymatgen
data_Pr3Mn2Sb3O14
_symmetry_space_group_name_H-M   'P 1'
_cell_length_a   7.40926971
_cell_length_b   7.40926971
_cell_length_c   7.40926962
_cell_angle_alpha   61.84083407
_cell_angle_beta   61.84083407
_cell_angle_gamma   61.84083619
_symmetry_Int_Tables_number   1
_chemical_formula_structural   Pr3Mn2Sb3O14
_chemical_formula_sum   'Pr3 Mn2 Sb3 O14'
_cell_volume   299.47092485
_cell_formula_units_Z   1
loop_
 _symmetry_equiv_pos_site_id
 _symmetry_equiv_pos_as_xyz
  1  'x, y, z'
loop_
 _atom_site_type_symbol
 _atom_site_label
 _atom_site_symmetry_multiplicity
 _atom_site_fract_x
 _atom_site_fract_y
 _atom_site_fract_z
 _atom_site_occupancy
  Pr  Pr0  1  0.50000000  0.50000000  -0.00000000  1
  Pr  Pr1  1  0.50000000  0.00000000  0.50000000  1
  Pr  Pr2  1  -0.00000000  0.50000000  0.50000000  1
  Mn  Mn3  1  -0.00000000  0.00000000  -0.00000000  1
  Mn  Mn4  1  0.50000000  0.50000000  0.50000000  1
  Sb  Sb5  1  -0.00000000  0.00000000  0.50000000  1
  Sb  Sb6  1  -0.00000000  0.50000000  -0.00000000  1
  Sb  Sb7  1  0.50000000  0.00000000  -0.00000000  1
  O  O8  1  0.61518613  0.61518613  0.61518613  1
  O  O9  1  0.38481387  0.38481387  0.38481387  1
  O  O10  1  0.92021133  0.31957760  0.31957760  1
  O  O11  1  0.31957760  0.31957760  0.92021133  1
  O  O12  1  0.31957760  0.92021133  0.31957760  1
  O  O13  1  0.07978867  0.68042240  0.68042240  1
  O  O14  1  0.68042240  0.68042240  0.07978867  1
  O  O15  1  0.68042240  0.07978867  0.68042240  1
  O  O16  1  0.35357834  0.90935779  0.90935779  1
  O  O17  1  0.90935779  0.90935779  0.35357834  1
  O  O18  1  0.90935779  0.35357834  0.90935779  1
  O  O19  1  0.64642166  0.09064221  0.09064221  1
  O  O20  1  0.09064221  0.09064221  0.64642166  1
  O  O21  1  0.09064221  0.64642166  0.09064221  1
