# generated using pymatgen
data_AlH6BrO4
_symmetry_space_group_name_H-M   'P 1'
_cell_length_a   5.24594240
_cell_length_b   7.54184894
_cell_length_c   8.17337561
_cell_angle_alpha   117.11499619
_cell_angle_beta   108.23296823
_cell_angle_gamma   90.99789692
_symmetry_Int_Tables_number   1
_chemical_formula_structural   AlH6BrO4
_chemical_formula_sum   'Al2 H12 Br2 O8'
_cell_volume   268.43820748
_cell_formula_units_Z   2
loop_
 _symmetry_equiv_pos_site_id
 _symmetry_equiv_pos_as_xyz
  1  'x, y, z'
loop_
 _atom_site_type_symbol
 _atom_site_label
 _atom_site_symmetry_multiplicity
 _atom_site_fract_x
 _atom_site_fract_y
 _atom_site_fract_z
 _atom_site_occupancy
  Al  Al0  1  0.20068086  0.95068086  0.90136173  1
  Al  Al1  1  0.79931914  0.04931914  0.09863827  1
  H  H2  1  0.48491071  0.31515643  0.14420544  1
  H  H3  1  0.15929473  0.82904901  0.14420544  1
  H  H4  1  0.51508929  0.68484357  0.85579456  1
  H  H5  1  0.84070527  0.17095099  0.85579456  1
  H  H6  1  0.87469849  0.59885719  0.70913760  1
  H  H7  1  0.33443911  0.11028041  0.70913760  1
  H  H8  1  0.12530151  0.40114281  0.29086240  1
  H  H9  1  0.66556089  0.88971959  0.29086240  1
  H  H10  1  0.81836618  0.68944551  0.56473237  1
  H  H11  1  0.24636619  0.87528686  0.56473237  1
  H  H12  1  0.18163382  0.31055449  0.43526763  1
  H  H13  1  0.75363381  0.12471314  0.43526763  1
  Br  Br14  1  0.40877447  0.65877447  0.31754894  1
  Br  Br15  1  0.59122553  0.34122553  0.68245106  1
  O  O16  1  0.49432390  0.17252762  0.07530529  1
  O  O17  1  0.08098138  0.90277767  0.07530529  1
  O  O18  1  0.50567610  0.82747238  0.92469471  1
  O  O19  1  0.91901862  0.09722233  0.92469471  1
  O  O20  1  0.96333289  0.69029498  0.67730114  1
  O  O21  1  0.21396825  0.98700616  0.67730114  1
  O  O22  1  0.03666711  0.30970502  0.32269886  1
  O  O23  1  0.78603175  0.01299384  0.32269886  1
