# generated using pymatgen
data_Th2Mn12P7
_symmetry_space_group_name_H-M   'P 1'
_cell_length_a   3.70787009
_cell_length_b   9.29816953
_cell_length_c   9.29849352
_cell_angle_alpha   119.99474151
_cell_angle_beta   90.00000000
_cell_angle_gamma   90.00000000
_symmetry_Int_Tables_number   1
_chemical_formula_structural   Th2Mn12P7
_chemical_formula_sum   'Th2 Mn12 P7'
_cell_volume   277.64394368
_cell_formula_units_Z   1
loop_
 _symmetry_equiv_pos_site_id
 _symmetry_equiv_pos_as_xyz
  1  'x, y, z'
loop_
 _atom_site_type_symbol
 _atom_site_label
 _atom_site_symmetry_multiplicity
 _atom_site_fract_x
 _atom_site_fract_y
 _atom_site_fract_z
 _atom_site_occupancy
  Th  Th0  1  -0.00000000  0.66672955  0.33321427  1
  Th  Th1  1  0.50000000  0.33338582  0.66670869  1
  Mn  Mn2  1  -0.00000000  0.37663038  0.94967447  1
  Mn  Mn3  1  0.00000000  0.05030552  0.42686857  1
  Mn  Mn4  1  -0.00000000  0.57299633  0.62337102  1
  Mn  Mn5  1  -0.00000000  0.87864332  0.72574375  1
  Mn  Mn6  1  0.00000000  0.27416358  0.15274564  1
  Mn  Mn7  1  0.00000000  0.84718137  0.12140801  1
  Mn  Mn8  1  0.50000000  0.95367874  0.56403083  1
  Mn  Mn9  1  0.50000000  0.43583478  0.38957641  1
  Mn  Mn10  1  0.50000000  0.61031214  0.04616884  1
  Mn  Mn11  1  0.50000000  0.11831619  0.89387320  1
  Mn  Mn12  1  0.50000000  0.10639423  0.22472450  1
  Mn  Mn13  1  0.50000000  0.77546600  0.88188746  1
  P  P14  1  0.00000000  0.11290792  0.70910466  1
  P  P15  1  0.00000000  0.29065904  0.40366143  1
  P  P16  1  0.00000000  0.59632830  0.88714318  1
  P  P17  1  0.50000000  0.71719384  0.60028558  1
  P  P18  1  0.50000000  0.39993492  0.11704412  1
  P  P19  1  0.50000000  0.88302106  0.28276963  1
  P  P20  1  0.00000000  -0.00008301  -0.00000427  1
