# generated using pymatgen
data_Ho2Mn12P7
_symmetry_space_group_name_H-M   'P 1'
_cell_length_a   3.59099974
_cell_length_b   9.29189850
_cell_length_c   9.29573747
_cell_angle_alpha   119.99829061
_cell_angle_beta   90.00000000
_cell_angle_gamma   90.00000000
_symmetry_Int_Tables_number   1
_chemical_formula_structural   Ho2Mn12P7
_chemical_formula_sum   'Ho2 Mn12 P7'
_cell_volume   268.62213259
_cell_formula_units_Z   1
loop_
 _symmetry_equiv_pos_site_id
 _symmetry_equiv_pos_as_xyz
  1  'x, y, z'
loop_
 _atom_site_type_symbol
 _atom_site_label
 _atom_site_symmetry_multiplicity
 _atom_site_fract_x
 _atom_site_fract_y
 _atom_site_fract_z
 _atom_site_occupancy
  Ho  Ho0  1  0.00000000  0.66658276  0.33322797  1
  Ho  Ho1  1  0.50000000  0.33320093  0.66684575  1
  Mn  Mn2  1  0.00000000  0.37620979  0.94985166  1
  Mn  Mn3  1  0.00000000  0.05013094  0.42638363  1
  Mn  Mn4  1  0.00000000  0.57374229  0.62382935  1
  Mn  Mn5  1  -0.00000000  0.87850054  0.72302894  1
  Mn  Mn6  1  0.00000000  0.27692077  0.15536155  1
  Mn  Mn7  1  0.00000000  0.84471957  0.12157151  1
  Mn  Mn8  1  0.50000000  0.95346744  0.56493690  1
  Mn  Mn9  1  0.50000000  0.43495129  0.38838757  1
  Mn  Mn10  1  0.50000000  0.61144089  0.04656665  1
  Mn  Mn11  1  0.50000000  0.12241547  0.89704651  1
  Mn  Mn12  1  0.50000000  0.10306969  0.22548612  1
  Mn  Mn13  1  0.50000000  0.77452144  0.87759851  1
  P  P14  1  0.00000000  0.11950185  0.70875181  1
  P  P15  1  0.00000000  0.29120028  0.41065847  1
  P  P16  1  0.00000000  0.58935939  0.88067305  1
  P  P17  1  0.50000000  0.71555852  0.59066375  1
  P  P18  1  0.50000000  0.40917178  0.12464591  1
  P  P19  1  0.50000000  0.87532321  0.28450807  1
  P  P20  1  0.00000000  0.00001116  -0.00002368  1
