# generated using pymatgen
data_Sr3InNiO6
_symmetry_space_group_name_H-M   'P 1'
_cell_length_a   6.76378489
_cell_length_b   6.76378489
_cell_length_c   6.76378487
_cell_angle_alpha   92.07565418
_cell_angle_beta   92.07565418
_cell_angle_gamma   92.07566560
_symmetry_Int_Tables_number   1
_chemical_formula_structural   Sr3InNiO6
_chemical_formula_sum   'Sr6 In2 Ni2 O12'
_cell_volume   308.81072808
_cell_formula_units_Z   2
loop_
 _symmetry_equiv_pos_site_id
 _symmetry_equiv_pos_as_xyz
  1  'x, y, z'
loop_
 _atom_site_type_symbol
 _atom_site_label
 _atom_site_symmetry_multiplicity
 _atom_site_fract_x
 _atom_site_fract_y
 _atom_site_fract_z
 _atom_site_occupancy
  Sr  Sr0  1  0.62130883  0.87869117  0.25000000  1
  Sr  Sr1  1  0.87869117  0.25000000  0.62130883  1
  Sr  Sr2  1  0.25000000  0.62130883  0.87869117  1
  Sr  Sr3  1  0.12130883  0.75000000  0.37869117  1
  Sr  Sr4  1  0.75000000  0.37869117  0.12130883  1
  Sr  Sr5  1  0.37869117  0.12130883  0.75000000  1
  In  In6  1  0.25000000  0.25000000  0.25000000  1
  In  In7  1  0.75000000  0.75000000  0.75000000  1
  Ni  Ni8  1  0.50000000  0.50000000  0.50000000  1
  Ni  Ni9  1  0.00000000  0.00000000  0.00000000  1
  O  O10  1  0.53986976  0.21185574  0.41093821  1
  O  O11  1  0.21185574  0.41093821  0.53986976  1
  O  O12  1  0.41093821  0.53986976  0.21185574  1
  O  O13  1  0.03986976  0.91093821  0.71185574  1
  O  O14  1  0.91093821  0.71185574  0.03986976  1
  O  O15  1  0.71185574  0.03986976  0.91093821  1
  O  O16  1  0.46013024  0.78814426  0.58906179  1
  O  O17  1  0.78814426  0.58906179  0.46013024  1
  O  O18  1  0.58906179  0.46013024  0.78814426  1
  O  O19  1  0.96013024  0.08906179  0.28814426  1
  O  O20  1  0.08906179  0.28814426  0.96013024  1
  O  O21  1  0.28814426  0.96013024  0.08906179  1
