# generated using pymatgen
data_CuIO4
_symmetry_space_group_name_H-M   'P 1'
_cell_length_a   5.46876972
_cell_length_b   6.44276959
_cell_length_c   10.52279430
_cell_angle_alpha   90.00000000
_cell_angle_beta   90.00000000
_cell_angle_gamma   90.00000000
_symmetry_Int_Tables_number   1
_chemical_formula_structural   CuIO4
_chemical_formula_sum   'Cu4 I4 O16'
_cell_volume   370.76037899
_cell_formula_units_Z   4
loop_
 _symmetry_equiv_pos_site_id
 _symmetry_equiv_pos_as_xyz
  1  'x, y, z'
loop_
 _atom_site_type_symbol
 _atom_site_label
 _atom_site_symmetry_multiplicity
 _atom_site_fract_x
 _atom_site_fract_y
 _atom_site_fract_z
 _atom_site_occupancy
  Cu  Cu0  1  0.50000000  0.00000000  0.50000000  1
  Cu  Cu1  1  -0.00000000  0.50000000  -0.00000000  1
  Cu  Cu2  1  0.50000000  0.50000000  0.50000000  1
  Cu  Cu3  1  -0.00000000  0.00000000  -0.00000000  1
  I  I4  1  0.48465513  0.75000000  0.25456014  1
  I  I5  1  0.01534487  0.75000000  0.75456014  1
  I  I6  1  0.51534487  0.25000000  0.74543986  1
  I  I7  1  0.98465513  0.25000000  0.24543986  1
  O  O8  1  0.34458965  0.75000000  0.46311321  1
  O  O9  1  0.15541035  0.75000000  0.96311321  1
  O  O10  1  0.65541035  0.25000000  0.53688679  1
  O  O11  1  0.84458965  0.25000000  0.03688679  1
  O  O12  1  0.69275756  0.75000000  0.12118596  1
  O  O13  1  0.80724244  0.75000000  0.62118596  1
  O  O14  1  0.30724244  0.25000000  0.87881404  1
  O  O15  1  0.19275756  0.25000000  0.37881404  1
  O  O16  1  0.64669299  0.97237963  0.34032981  1
  O  O17  1  0.85330701  0.52762037  0.84032981  1
  O  O18  1  0.35330701  0.47237963  0.65967019  1
  O  O19  1  0.14669299  0.02762037  0.15967019  1
  O  O20  1  0.35330701  0.02762037  0.65967019  1
  O  O21  1  0.14669299  0.47237963  0.15967019  1
  O  O22  1  0.64669299  0.52762037  0.34032981  1
  O  O23  1  0.85330701  0.97237963  0.84032981  1
