# generated using pymatgen
data_La6Zn4Pd13
_symmetry_space_group_name_H-M   'P 1'
_cell_length_a   8.47451080
_cell_length_b   8.47451080
_cell_length_c   8.47451080
_cell_angle_alpha   109.47122063
_cell_angle_beta   109.47122063
_cell_angle_gamma   109.47122063
_symmetry_Int_Tables_number   1
_chemical_formula_structural   La6Zn4Pd13
_chemical_formula_sum   'La6 Zn4 Pd13'
_cell_volume   468.51340496
_cell_formula_units_Z   1
loop_
 _symmetry_equiv_pos_site_id
 _symmetry_equiv_pos_as_xyz
  1  'x, y, z'
loop_
 _atom_site_type_symbol
 _atom_site_label
 _atom_site_symmetry_multiplicity
 _atom_site_fract_x
 _atom_site_fract_y
 _atom_site_fract_z
 _atom_site_occupancy
  La  La0  1  -0.00000000  0.30432564  0.30432564  1
  La  La1  1  0.69567436  0.00000000  0.69567436  1
  La  La2  1  0.69567436  0.69567436  0.00000000  1
  La  La3  1  0.00000000  0.69567436  0.69567436  1
  La  La4  1  0.30432564  -0.00000000  0.30432564  1
  La  La5  1  0.30432564  0.30432564  -0.00000000  1
  Zn  Zn6  1  0.50000000  0.00000000  0.00000000  1
  Zn  Zn7  1  0.00000000  0.50000000  0.00000000  1
  Zn  Zn8  1  0.00000000  0.00000000  0.50000000  1
  Zn  Zn9  1  0.50000000  0.50000000  0.50000000  1
  Pd  Pd10  1  0.34009928  0.67004964  0.67004964  1
  Pd  Pd11  1  0.67004964  -0.00000000  0.32995036  1
  Pd  Pd12  1  0.67004964  0.32995036  -0.00000000  1
  Pd  Pd13  1  -0.00000000  0.67004964  0.32995036  1
  Pd  Pd14  1  0.67004964  0.34009928  0.67004964  1
  Pd  Pd15  1  0.32995036  0.67004964  0.00000000  1
  Pd  Pd16  1  0.00000000  0.32995036  0.67004964  1
  Pd  Pd17  1  0.32995036  0.00000000  0.67004964  1
  Pd  Pd18  1  0.67004964  0.67004964  0.34009928  1
  Pd  Pd19  1  0.65990072  0.32995036  0.32995036  1
  Pd  Pd20  1  0.32995036  0.65990072  0.32995036  1
  Pd  Pd21  1  0.32995036  0.32995036  0.65990072  1
  Pd  Pd22  1  0.00000000  0.00000000  0.00000000  1
