# generated using pymatgen
data_DyPS
_symmetry_space_group_name_H-M   'P 1'
_cell_length_a   5.31713100
_cell_length_b   5.37457013
_cell_length_c   16.72698642
_cell_angle_alpha   90.00000000
_cell_angle_beta   90.00000000
_cell_angle_gamma   90.00000000
_symmetry_Int_Tables_number   1
_chemical_formula_structural   DyPS
_chemical_formula_sum   'Dy8 P8 S8'
_cell_volume   478.01199946
_cell_formula_units_Z   8
loop_
 _symmetry_equiv_pos_site_id
 _symmetry_equiv_pos_as_xyz
  1  'x, y, z'
loop_
 _atom_site_type_symbol
 _atom_site_label
 _atom_site_symmetry_multiplicity
 _atom_site_fract_x
 _atom_site_fract_y
 _atom_site_fract_z
 _atom_site_occupancy
  Dy  Dy0  1  0.75000000  0.01590917  0.13759346  1
  Dy  Dy1  1  0.75000000  0.51590917  0.36240654  1
  Dy  Dy2  1  0.25000000  0.98409083  0.86240654  1
  Dy  Dy3  1  0.25000000  0.48409083  0.63759346  1
  Dy  Dy4  1  0.75000000  0.48496573  0.85375196  1
  Dy  Dy5  1  0.75000000  0.98496573  0.64624804  1
  Dy  Dy6  1  0.25000000  0.51503427  0.14624804  1
  Dy  Dy7  1  0.25000000  0.01503427  0.35375196  1
  P  P8  1  0.96441830  0.20529496  0.50272502  1
  P  P9  1  0.53558170  0.70529496  0.99727498  1
  P  P10  1  0.46441830  0.79470504  0.49727498  1
  P  P11  1  0.03558170  0.29470504  0.00272502  1
  P  P12  1  0.03558170  0.79470504  0.49727498  1
  P  P13  1  0.46441830  0.29470504  0.00272502  1
  P  P14  1  0.53558170  0.20529496  0.50272502  1
  P  P15  1  0.96441830  0.70529496  0.99727498  1
  S  S16  1  0.75000000  0.01523387  0.31081658  1
  S  S17  1  0.75000000  0.51523387  0.18918342  1
  S  S18  1  0.25000000  0.98476613  0.68918342  1
  S  S19  1  0.25000000  0.48476613  0.81081658  1
  S  S20  1  0.75000000  0.48835874  0.68372440  1
  S  S21  1  0.75000000  0.98835874  0.81627560  1
  S  S22  1  0.25000000  0.51164126  0.31627560  1
  S  S23  1  0.25000000  0.01164126  0.18372440  1
