# generated using pymatgen
data_YMnB4
_symmetry_space_group_name_H-M   'P 1'
_cell_length_a   3.41427975
_cell_length_b   5.92065368
_cell_length_c   11.44906169
_cell_angle_alpha   90.00000000
_cell_angle_beta   90.00000000
_cell_angle_gamma   90.00000000
_symmetry_Int_Tables_number   1
_chemical_formula_structural   YMnB4
_chemical_formula_sum   'Y4 Mn4 B16'
_cell_volume   231.44012550
_cell_formula_units_Z   4
loop_
 _symmetry_equiv_pos_site_id
 _symmetry_equiv_pos_as_xyz
  1  'x, y, z'
loop_
 _atom_site_type_symbol
 _atom_site_label
 _atom_site_symmetry_multiplicity
 _atom_site_fract_x
 _atom_site_fract_y
 _atom_site_fract_z
 _atom_site_occupancy
  Y  Y0  1  -0.00000000  0.62634925  0.34941325  1
  Y  Y1  1  0.00000000  0.37365075  0.65058675  1
  Y  Y2  1  -0.00000000  0.12634925  0.15058675  1
  Y  Y3  1  -0.00000000  0.87365075  0.84941325  1
  Mn  Mn4  1  0.00000000  0.62788195  0.08378007  1
  Mn  Mn5  1  -0.00000000  0.37211805  0.91621993  1
  Mn  Mn6  1  0.00000000  0.12788195  0.41621993  1
  Mn  Mn7  1  -0.00000000  0.87211805  0.58378007  1
  B  B8  1  0.50000000  0.78147591  0.18371681  1
  B  B9  1  0.50000000  0.21852409  0.81628319  1
  B  B10  1  0.50000000  0.28147591  0.31628319  1
  B  B11  1  0.50000000  0.71852409  0.68371681  1
  B  B12  1  0.50000000  0.86204846  0.03222446  1
  B  B13  1  0.50000000  0.13795154  0.96777554  1
  B  B14  1  0.50000000  0.36204846  0.46777554  1
  B  B15  1  0.50000000  0.63795154  0.53222446  1
  B  B16  1  0.50000000  0.88811489  0.45391350  1
  B  B17  1  0.50000000  0.11188511  0.54608650  1
  B  B18  1  0.50000000  0.38811489  0.04608650  1
  B  B19  1  0.50000000  0.61188511  0.95391350  1
  B  B20  1  0.50000000  0.97581138  0.30932544  1
  B  B21  1  0.50000000  0.02418862  0.69067456  1
  B  B22  1  0.50000000  0.47581138  0.19067456  1
  B  B23  1  0.50000000  0.52418862  0.80932544  1
