# generated using pymatgen
data_La2CuS4
_symmetry_space_group_name_H-M   'P 1'
_cell_length_a   4.44471408
_cell_length_b   4.44471417
_cell_length_c   8.37658712
_cell_angle_alpha   105.55694729
_cell_angle_beta   105.55695261
_cell_angle_gamma   89.37579256
_symmetry_Int_Tables_number   1
_chemical_formula_structural   La2CuS4
_chemical_formula_sum   'La2 Cu1 S4'
_cell_volume   153.24796096
_cell_formula_units_Z   1
loop_
 _symmetry_equiv_pos_site_id
 _symmetry_equiv_pos_as_xyz
  1  'x, y, z'
loop_
 _atom_site_type_symbol
 _atom_site_label
 _atom_site_symmetry_multiplicity
 _atom_site_fract_x
 _atom_site_fract_y
 _atom_site_fract_z
 _atom_site_occupancy
  La  La0  1  0.36424142  0.36424142  0.72848185  1
  La  La1  1  0.63575858  0.63575858  0.27151815  1
  Cu  Cu2  1  -0.00000000  -0.00000000  -0.00000000  1
  S  S3  1  -0.00000000  0.50000000  -0.00000000  1
  S  S4  1  0.50000000  -0.00000000  -0.00000000  1
  S  S5  1  0.18128461  0.18128461  0.36256822  1
  S  S6  1  0.81871539  0.81871539  0.63743178  1
