# generated using pymatgen
data_KBaMnO4
_symmetry_space_group_name_H-M   'P 1'
_cell_length_a   5.91411090
_cell_length_b   7.91167364
_cell_length_c   10.44420037
_cell_angle_alpha   90.00000000
_cell_angle_beta   90.00000000
_cell_angle_gamma   90.00000000
_symmetry_Int_Tables_number   1
_chemical_formula_structural   KBaMnO4
_chemical_formula_sum   'K4 Ba4 Mn4 O16'
_cell_volume   488.68951733
_cell_formula_units_Z   4
loop_
 _symmetry_equiv_pos_site_id
 _symmetry_equiv_pos_as_xyz
  1  'x, y, z'
loop_
 _atom_site_type_symbol
 _atom_site_label
 _atom_site_symmetry_multiplicity
 _atom_site_fract_x
 _atom_site_fract_y
 _atom_site_fract_z
 _atom_site_occupancy
  K  K0  1  0.75000000  0.66007654  0.08139033  1
  K  K1  1  0.75000000  0.16007654  0.41860967  1
  K  K2  1  0.25000000  0.33992346  0.91860967  1
  K  K3  1  0.25000000  0.83992346  0.58139033  1
  Ba  Ba4  1  0.75000000  0.99222172  0.80778021  1
  Ba  Ba5  1  0.75000000  0.49222172  0.69221979  1
  Ba  Ba6  1  0.25000000  0.00777828  0.19221979  1
  Ba  Ba7  1  0.25000000  0.50777828  0.30778021  1
  Mn  Mn8  1  0.75000000  0.23228418  0.08191268  1
  Mn  Mn9  1  0.75000000  0.73228418  0.41808732  1
  Mn  Mn10  1  0.25000000  0.76771582  0.91808732  1
  Mn  Mn11  1  0.25000000  0.26771582  0.58191268  1
  O  O12  1  0.75000000  0.30422651  0.92578762  1
  O  O13  1  0.75000000  0.80422651  0.57421238  1
  O  O14  1  0.25000000  0.69577349  0.07421238  1
  O  O15  1  0.25000000  0.19577349  0.42578762  1
  O  O16  1  0.98997169  0.30087460  0.15834779  1
  O  O17  1  0.51002831  0.80087460  0.34165221  1
  O  O18  1  0.48997169  0.69912540  0.84165221  1
  O  O19  1  0.01002831  0.19912540  0.65834779  1
  O  O20  1  0.01002831  0.69912540  0.84165221  1
  O  O21  1  0.48997169  0.19912540  0.65834779  1
  O  O22  1  0.51002831  0.30087460  0.15834779  1
  O  O23  1  0.98997169  0.80087460  0.34165221  1
  O  O24  1  0.75000000  0.01548967  0.07934701  1
  O  O25  1  0.75000000  0.51548967  0.42065299  1
  O  O26  1  0.25000000  0.98451033  0.92065299  1
  O  O27  1  0.25000000  0.48451033  0.57934701  1
