# generated using pymatgen
data_Ti(NbS2)4
_symmetry_space_group_name_H-M   'P 1'
_cell_length_a   6.70064122
_cell_length_b   6.70064122
_cell_length_c   12.39336596
_cell_angle_alpha   90.00000000
_cell_angle_beta   90.00000000
_cell_angle_gamma   119.99080573
_symmetry_Int_Tables_number   1
_chemical_formula_structural   Ti(NbS2)4
_chemical_formula_sum   'Ti2 Nb8 S16'
_cell_volume   481.93987920
_cell_formula_units_Z   2
loop_
 _symmetry_equiv_pos_site_id
 _symmetry_equiv_pos_as_xyz
  1  'x, y, z'
loop_
 _atom_site_type_symbol
 _atom_site_label
 _atom_site_symmetry_multiplicity
 _atom_site_fract_x
 _atom_site_fract_y
 _atom_site_fract_z
 _atom_site_occupancy
  Ti  Ti0  1  0.00000000  -0.00000000  0.50000000  1
  Ti  Ti1  1  0.00000000  -0.00000000  0.00000000  1
  Nb  Nb2  1  0.99999186  0.00000814  0.75000000  1
  Nb  Nb3  1  0.00000814  0.99999186  0.25000000  1
  Nb  Nb4  1  0.49510445  0.99015995  0.75000000  1
  Nb  Nb5  1  0.49504561  0.50495439  0.75000000  1
  Nb  Nb6  1  0.00984005  0.50489555  0.75000000  1
  Nb  Nb7  1  0.50489555  0.00984005  0.25000000  1
  Nb  Nb8  1  0.50495439  0.49504561  0.25000000  1
  Nb  Nb9  1  0.99015995  0.49510445  0.25000000  1
  S  S10  1  0.66667493  0.33332507  0.12141011  1
  S  S11  1  0.33332507  0.66667493  0.87858989  1
  S  S12  1  0.33332507  0.66667493  0.62141011  1
  S  S13  1  0.66667493  0.33332507  0.37858989  1
  S  S14  1  0.83316430  0.66636995  0.62166707  1
  S  S15  1  0.83320203  0.16679797  0.62166329  1
  S  S16  1  0.33363005  0.16683570  0.62166707  1
  S  S17  1  0.16683570  0.33363005  0.37833293  1
  S  S18  1  0.16679797  0.83320203  0.37833671  1
  S  S19  1  0.66636995  0.83316430  0.37833293  1
  S  S20  1  0.16683570  0.33363005  0.12166707  1
  S  S21  1  0.16679797  0.83320203  0.12166329  1
  S  S22  1  0.66636995  0.83316430  0.12166707  1
  S  S23  1  0.83316430  0.66636995  0.87833293  1
  S  S24  1  0.83320203  0.16679797  0.87833671  1
  S  S25  1  0.33363005  0.16683570  0.87833293  1
