# generated using pymatgen
data_BaCu9Sn4
_symmetry_space_group_name_H-M   'P 1'
_cell_length_a   8.73194370
_cell_length_b   8.73194370
_cell_length_c   8.83019578
_cell_angle_alpha   119.63260501
_cell_angle_beta   119.63260501
_cell_angle_gamma   90.00000000
_symmetry_Int_Tables_number   1
_chemical_formula_structural   BaCu9Sn4
_chemical_formula_sum   'Ba2 Cu18 Sn8'
_cell_volume   481.31591767
_cell_formula_units_Z   2
loop_
 _symmetry_equiv_pos_site_id
 _symmetry_equiv_pos_as_xyz
  1  'x, y, z'
loop_
 _atom_site_type_symbol
 _atom_site_label
 _atom_site_symmetry_multiplicity
 _atom_site_fract_x
 _atom_site_fract_y
 _atom_site_fract_z
 _atom_site_occupancy
  Ba  Ba0  1  0.75000000  0.75000000  0.50000000  1
  Ba  Ba1  1  0.25000000  0.25000000  0.50000000  1
  Cu  Cu2  1  0.56535579  0.28256493  0.34792073  1
  Cu  Cu3  1  0.78256493  0.06535579  0.34792073  1
  Cu  Cu4  1  0.28256493  0.78256493  0.34792073  1
  Cu  Cu5  1  0.06535579  0.56535579  0.34792073  1
  Cu  Cu6  1  0.43464421  0.71743507  0.65207927  1
  Cu  Cu7  1  0.21743507  0.93464421  0.65207927  1
  Cu  Cu8  1  0.71743507  0.21743507  0.65207927  1
  Cu  Cu9  1  0.93464421  0.43464421  0.65207927  1
  Cu  Cu10  1  0.29639808  0.55613588  -0.00000000  1
  Cu  Cu11  1  0.70360192  0.44386412  -0.00000000  1
  Cu  Cu12  1  0.20360192  0.05613588  -0.00000000  1
  Cu  Cu13  1  0.79639808  0.94386412  -0.00000000  1
  Cu  Cu14  1  0.44386412  0.29639808  -0.00000000  1
  Cu  Cu15  1  0.55613588  0.70360192  -0.00000000  1
  Cu  Cu16  1  0.94386412  0.20360192  -0.00000000  1
  Cu  Cu17  1  0.05613588  0.79639808  -0.00000000  1
  Cu  Cu18  1  -0.00000000  0.50000000  -0.00000000  1
  Cu  Cu19  1  0.50000000  0.00000000  -0.00000000  1
  Sn  Sn20  1  0.94068623  0.80816488  0.24885111  1
  Sn  Sn21  1  0.30816488  0.44068623  0.24885111  1
  Sn  Sn22  1  0.80816488  0.30816488  0.24885111  1
  Sn  Sn23  1  0.44068623  0.94068623  0.24885111  1
  Sn  Sn24  1  0.05931377  0.19183512  0.75114889  1
  Sn  Sn25  1  0.69183512  0.55931377  0.75114889  1
  Sn  Sn26  1  0.19183512  0.69183512  0.75114889  1
  Sn  Sn27  1  0.55931377  0.05931377  0.75114889  1
