# generated using pymatgen
data_K3Ho(PO4)2
_symmetry_space_group_name_H-M   'P 1'
_cell_length_a   5.68538305
_cell_length_b   7.50368628
_cell_length_c   9.44489918
_cell_angle_alpha   91.18492612
_cell_angle_beta   90.00000000
_cell_angle_gamma   90.00000000
_symmetry_Int_Tables_number   1
_chemical_formula_structural   K3Ho(PO4)2
_chemical_formula_sum   'K6 Ho2 P4 O16'
_cell_volume   402.84580492
_cell_formula_units_Z   2
loop_
 _symmetry_equiv_pos_site_id
 _symmetry_equiv_pos_as_xyz
  1  'x, y, z'
loop_
 _atom_site_type_symbol
 _atom_site_label
 _atom_site_symmetry_multiplicity
 _atom_site_fract_x
 _atom_site_fract_y
 _atom_site_fract_z
 _atom_site_occupancy
  K  K0  1  0.75000000  0.20404575  0.08195350  1
  K  K1  1  0.25000000  0.79595425  0.91804650  1
  K  K2  1  0.75000000  0.63821181  0.41204566  1
  K  K3  1  0.25000000  0.36178819  0.58795434  1
  K  K4  1  0.75000000  0.49691920  0.80845671  1
  K  K5  1  0.25000000  0.50308080  0.19154329  1
  Ho  Ho6  1  0.75000000  0.99390482  0.71211098  1
  Ho  Ho7  1  0.25000000  0.00609518  0.28788902  1
  P  P8  1  0.75000000  0.18248188  0.42857629  1
  P  P9  1  0.25000000  0.81751812  0.57142371  1
  P  P10  1  0.25000000  0.22620192  0.90919742  1
  P  P11  1  0.75000000  0.77379808  0.09080258  1
  O  O12  1  0.75000000  0.98201597  0.46440040  1
  O  O13  1  0.25000000  0.01798403  0.53559960  1
  O  O14  1  0.75000000  0.28409883  0.57483611  1
  O  O15  1  0.25000000  0.71590117  0.42516389  1
  O  O16  1  0.52655105  0.23148830  0.34080438  1
  O  O17  1  0.02655105  0.76851170  0.65919562  1
  O  O18  1  0.47344895  0.76851170  0.65919562  1
  O  O19  1  0.97344895  0.23148830  0.34080438  1
  O  O20  1  0.47389492  0.14774859  0.83385918  1
  O  O21  1  0.97389492  0.85225141  0.16614082  1
  O  O22  1  0.52610508  0.85225141  0.16614082  1
  O  O23  1  0.02610508  0.14774859  0.83385918  1
  O  O24  1  0.25000000  0.17031565  0.06758289  1
  O  O25  1  0.75000000  0.82968435  0.93241711  1
  O  O26  1  0.25000000  0.43073861  0.89648807  1
  O  O27  1  0.75000000  0.56926139  0.10351193  1
