# generated using pymatgen
data_MnH2Cl2O
_symmetry_space_group_name_H-M   'P 1'
_cell_length_a   3.72520513
_cell_length_b   9.12953702
_cell_length_c   11.66761802
_cell_angle_alpha   90.00000000
_cell_angle_beta   90.00000000
_cell_angle_gamma   90.00000000
_symmetry_Int_Tables_number   1
_chemical_formula_structural   MnH2Cl2O
_chemical_formula_sum   'Mn4 H8 Cl8 O4'
_cell_volume   396.80866660
_cell_formula_units_Z   4
loop_
 _symmetry_equiv_pos_site_id
 _symmetry_equiv_pos_as_xyz
  1  'x, y, z'
loop_
 _atom_site_type_symbol
 _atom_site_label
 _atom_site_symmetry_multiplicity
 _atom_site_fract_x
 _atom_site_fract_y
 _atom_site_fract_z
 _atom_site_occupancy
  Mn  Mn0  1  0.75000000  0.31834936  0.98239759  1
  Mn  Mn1  1  0.75000000  0.81834936  0.51760241  1
  Mn  Mn2  1  0.25000000  0.68165064  0.01760241  1
  Mn  Mn3  1  0.25000000  0.18165064  0.48239759  1
  H  H4  1  0.75000000  0.18877061  0.76339569  1
  H  H5  1  0.75000000  0.68877061  0.73660431  1
  H  H6  1  0.25000000  0.81122939  0.23660431  1
  H  H7  1  0.25000000  0.31122939  0.26339569  1
  H  H8  1  0.75000000  0.05452167  0.85194858  1
  H  H9  1  0.75000000  0.55452167  0.64805142  1
  H  H10  1  0.25000000  0.94547833  0.14805142  1
  H  H11  1  0.25000000  0.44547833  0.35194858  1
  Cl  Cl12  1  0.25000000  0.18859846  0.09090197  1
  Cl  Cl13  1  0.25000000  0.68859846  0.40909803  1
  Cl  Cl14  1  0.75000000  0.81140154  0.90909803  1
  Cl  Cl15  1  0.75000000  0.31140154  0.59090197  1
  Cl  Cl16  1  0.25000000  0.46515945  0.87411369  1
  Cl  Cl17  1  0.25000000  0.96515945  0.62588631  1
  Cl  Cl18  1  0.75000000  0.53484055  0.12588631  1
  Cl  Cl19  1  0.75000000  0.03484055  0.37411369  1
  O  O20  1  0.75000000  0.16194287  0.84508292  1
  O  O21  1  0.75000000  0.66194287  0.65491708  1
  O  O22  1  0.25000000  0.83805713  0.15491708  1
  O  O23  1  0.25000000  0.33805713  0.34508292  1
