# generated using pymatgen
data_Na5Ho4Si4O16F
_symmetry_space_group_name_H-M   'P 1'
_cell_length_a   5.42772672
_cell_length_b   8.66707545
_cell_length_c   8.66707545
_cell_angle_alpha   84.37332442
_cell_angle_beta   71.75243963
_cell_angle_gamma   71.75243963
_symmetry_Int_Tables_number   1
_chemical_formula_structural   Na5Ho4Si4O16F
_chemical_formula_sum   'Na5 Ho4 Si4 O16 F1'
_cell_volume   367.74552753
_cell_formula_units_Z   1
loop_
 _symmetry_equiv_pos_site_id
 _symmetry_equiv_pos_as_xyz
  1  'x, y, z'
loop_
 _atom_site_type_symbol
 _atom_site_label
 _atom_site_symmetry_multiplicity
 _atom_site_fract_x
 _atom_site_fract_y
 _atom_site_fract_z
 _atom_site_occupancy
  Na  Na0  1  0.59641378  0.30577496  0.51574029  1
  Na  Na1  1  0.41792903  0.69422504  0.48425971  1
  Na  Na2  1  0.09781126  0.48425971  0.30577496  1
  Na  Na3  1  0.88784594  0.51574029  0.69422504  1
  Na  Na4  1  0.00000000  -0.00000000  -0.00000000  1
  Ho  Ho5  1  0.63844972  0.70204882  0.06695762  1
  Ho  Ho6  1  0.40745617  0.29795118  0.93304238  1
  Ho  Ho7  1  0.65950145  0.93304238  0.70204882  1
  Ho  Ho8  1  0.29459266  0.06695762  0.29795118  1
  Si  Si9  1  0.74251364  0.35014143  0.14282943  1
  Si  Si10  1  0.23548450  0.64985857  0.85717057  1
  Si  Si11  1  0.90734493  0.85717057  0.35014143  1
  Si  Si12  1  0.11465693  0.14282943  0.64985857  1
  O  O13  1  0.62539031  0.49716845  0.27741552  1
  O  O14  1  0.39997428  0.50283155  0.72258448  1
  O  O15  1  0.87744124  0.72258448  0.49716845  1
  O  O16  1  0.09719417  0.27741552  0.50283155  1
  O  O17  1  0.04862819  0.23577611  0.13833950  1
  O  O18  1  0.42274381  0.76422389  0.86166050  1
  O  O19  1  0.71559569  0.86166050  0.23577611  1
  O  O20  1  0.81303231  0.13833950  0.76422389  1
  O  O21  1  0.53690828  0.23838762  0.17113112  1
  O  O22  1  0.94642702  0.76161238  0.82886888  1
  O  O23  1  0.22470411  0.82886888  0.23838762  1
  O  O24  1  0.29196060  0.17113112  0.76161238  1
  O  O25  1  0.73120008  0.43962323  0.96667343  1
  O  O26  1  0.13749674  0.56037677  0.03332657  1
  O  O27  1  0.82917669  0.03332657  0.43962323  1
  O  O28  1  0.30212649  0.96667343  0.56037677  1
  F  F29  1  0.50000000  -0.00000000  -0.00000000  1
