# generated using pymatgen
data_BaGePbO4
_symmetry_space_group_name_H-M   'P 1'
_cell_length_a   6.29304695
_cell_length_b   7.74832245
_cell_length_c   10.36706741
_cell_angle_alpha   90.00000000
_cell_angle_beta   90.00000000
_cell_angle_gamma   90.00000000
_symmetry_Int_Tables_number   1
_chemical_formula_structural   BaGePbO4
_chemical_formula_sum   'Ba4 Ge4 Pb4 O16'
_cell_volume   505.50398097
_cell_formula_units_Z   4
loop_
 _symmetry_equiv_pos_site_id
 _symmetry_equiv_pos_as_xyz
  1  'x, y, z'
loop_
 _atom_site_type_symbol
 _atom_site_label
 _atom_site_symmetry_multiplicity
 _atom_site_fract_x
 _atom_site_fract_y
 _atom_site_fract_z
 _atom_site_occupancy
  Ba  Ba0  1  0.72875474  0.00106216  0.03855749  1
  Ba  Ba1  1  0.22875474  0.99893784  0.46144251  1
  Ba  Ba2  1  0.27124526  0.49893784  0.53855749  1
  Ba  Ba3  1  0.77124526  0.50106216  0.96144251  1
  Ge  Ge4  1  0.76843848  0.20986731  0.33990209  1
  Ge  Ge5  1  0.26843848  0.79013269  0.16009791  1
  Ge  Ge6  1  0.23156152  0.29013269  0.83990209  1
  Ge  Ge7  1  0.73156152  0.70986731  0.66009791  1
  Pb  Pb8  1  0.68189256  0.19953680  0.65771964  1
  Pb  Pb9  1  0.18189256  0.80046320  0.84228036  1
  Pb  Pb10  1  0.31810744  0.30046320  0.15771964  1
  Pb  Pb11  1  0.81810744  0.69953680  0.34228036  1
  O  O12  1  0.68829009  0.30480468  0.18994549  1
  O  O13  1  0.18829009  0.69519532  0.31005451  1
  O  O14  1  0.31170991  0.19519532  0.68994549  1
  O  O15  1  0.81170991  0.80480468  0.81005451  1
  O  O16  1  0.99446824  0.29759446  0.41519198  1
  O  O17  1  0.49446824  0.70240554  0.08480802  1
  O  O18  1  0.00553176  0.20240554  0.91519198  1
  O  O19  1  0.50553176  0.79759446  0.58480802  1
  O  O20  1  0.83216076  0.98883044  0.30464232  1
  O  O21  1  0.33216076  0.01116956  0.19535768  1
  O  O22  1  0.16783924  0.51116956  0.80464232  1
  O  O23  1  0.66783924  0.48883044  0.69535768  1
  O  O24  1  0.54799457  0.23575502  0.44827183  1
  O  O25  1  0.04799457  0.76424498  0.05172817  1
  O  O26  1  0.45200543  0.26424498  0.94827183  1
  O  O27  1  0.95200543  0.73575502  0.55172817  1
