# generated using pymatgen
data_U8TiSe17
_symmetry_space_group_name_H-M   'P 1'
_cell_length_a   8.23096928
_cell_length_b   8.23096928
_cell_length_c   10.84782002
_cell_angle_alpha   80.56349411
_cell_angle_beta   80.56349411
_cell_angle_gamma   64.90191207
_symmetry_Int_Tables_number   1
_chemical_formula_structural   U8TiSe17
_chemical_formula_sum   'U8 Ti1 Se17'
_cell_volume   652.85489849
_cell_formula_units_Z   1
loop_
 _symmetry_equiv_pos_site_id
 _symmetry_equiv_pos_as_xyz
  1  'x, y, z'
loop_
 _atom_site_type_symbol
 _atom_site_label
 _atom_site_symmetry_multiplicity
 _atom_site_fract_x
 _atom_site_fract_y
 _atom_site_fract_z
 _atom_site_occupancy
  U  U0  1  0.81894556  0.30048742  0.29842535  1
  U  U1  1  0.30048742  0.81894556  0.29842535  1
  U  U2  1  0.18105444  0.69951258  0.70157465  1
  U  U3  1  0.69951258  0.18105444  0.70157465  1
  U  U4  1  0.79699476  0.79699476  0.46022256  1
  U  U5  1  0.20300524  0.20300524  0.53977744  1
  U  U6  1  0.31863684  0.31863684  0.01334643  1
  U  U7  1  0.68136316  0.68136316  0.98665357  1
  Ti  Ti8  1  0.00000000  -0.00000000  -0.00000000  1
  Se  Se9  1  0.17950650  0.56668090  0.46370807  1
  Se  Se10  1  0.56668090  0.17950650  0.46370807  1
  Se  Se11  1  0.82049350  0.43331910  0.53629193  1
  Se  Se12  1  0.43331910  0.82049350  0.53629193  1
  Se  Se13  1  0.94045734  0.32478791  0.02694017  1
  Se  Se14  1  0.32478791  0.94045734  0.02694017  1
  Se  Se15  1  0.05954266  0.67521209  0.97305983  1
  Se  Se16  1  0.67521209  0.05954266  0.97305983  1
  Se  Se17  1  0.93768458  0.93768458  0.22970182  1
  Se  Se18  1  0.06231542  0.06231542  0.77029818  1
  Se  Se19  1  0.78704946  0.78704946  0.72539838  1
  Se  Se20  1  0.21295054  0.21295054  0.27460162  1
  Se  Se21  1  0.69806377  0.69806377  0.24703054  1
  Se  Se22  1  0.30193623  0.30193623  0.75296946  1
  Se  Se23  1  0.47869726  0.47869726  0.16868932  1
  Se  Se24  1  0.52130274  0.52130274  0.83131068  1
  Se  Se25  1  0.00000000  -0.00000000  0.50000000  1
