# generated using pymatgen
data_KV3Ge2O9
_symmetry_space_group_name_H-M   'P 1'
_cell_length_a   5.99131347
_cell_length_b   5.99131347
_cell_length_c   13.81017920
_cell_angle_alpha   90.00000000
_cell_angle_beta   90.00000000
_cell_angle_gamma   119.99858512
_symmetry_Int_Tables_number   1
_chemical_formula_structural   KV3Ge2O9
_chemical_formula_sum   'K2 V6 Ge4 O18'
_cell_volume   429.31911271
_cell_formula_units_Z   2
loop_
 _symmetry_equiv_pos_site_id
 _symmetry_equiv_pos_as_xyz
  1  'x, y, z'
loop_
 _atom_site_type_symbol
 _atom_site_label
 _atom_site_symmetry_multiplicity
 _atom_site_fract_x
 _atom_site_fract_y
 _atom_site_fract_z
 _atom_site_occupancy
  K  K0  1  0.33330622  0.66669378  0.75000000  1
  K  K1  1  0.66669378  0.33330622  0.25000000  1
  V  V2  1  -0.00000000  0.50000000  0.50000000  1
  V  V3  1  0.50000000  0.00000000  0.50000000  1
  V  V4  1  0.50000000  0.50000000  0.50000000  1
  V  V5  1  0.00000000  0.50000000  0.00000000  1
  V  V6  1  0.50000000  0.00000000  -0.00000000  1
  V  V7  1  0.50000000  0.50000000  -0.00000000  1
  Ge  Ge8  1  0.99999599  0.00000401  0.62239948  1
  Ge  Ge9  1  0.00000401  0.99999599  0.37760052  1
  Ge  Ge10  1  0.00000401  0.99999599  0.12239948  1
  Ge  Ge11  1  0.99999599  0.00000401  0.87760052  1
  O  O12  1  0.99999720  0.00000280  0.75000000  1
  O  O13  1  0.00000280  0.99999720  0.25000000  1
  O  O14  1  0.16508150  0.83491850  0.58609571  1
  O  O15  1  0.66983650  0.83492007  0.58609371  1
  O  O16  1  0.16507993  0.33016350  0.58609371  1
  O  O17  1  0.83491850  0.16508150  0.41390429  1
  O  O18  1  0.33016350  0.16507993  0.41390629  1
  O  O19  1  0.83492007  0.66983650  0.41390629  1
  O  O20  1  0.83491850  0.16508150  0.08609571  1
  O  O21  1  0.33016350  0.16507993  0.08609371  1
  O  O22  1  0.83492007  0.66983650  0.08609371  1
  O  O23  1  0.16508150  0.83491850  0.91390429  1
  O  O24  1  0.66983650  0.83492007  0.91390629  1
  O  O25  1  0.16507993  0.33016350  0.91390629  1
  O  O26  1  0.66666795  0.33333205  0.56732370  1
  O  O27  1  0.33333205  0.66666795  0.43267630  1
  O  O28  1  0.33333205  0.66666795  0.06732370  1
  O  O29  1  0.66666795  0.33333205  0.93267630  1
