# generated using pymatgen
data_Mg2SiSe4
_symmetry_space_group_name_H-M   'P 1'
_cell_length_a   6.29472759
_cell_length_b   7.92620615
_cell_length_c   13.50787566
_cell_angle_alpha   90.00000000
_cell_angle_beta   90.00000000
_cell_angle_gamma   90.00000000
_symmetry_Int_Tables_number   1
_chemical_formula_structural   Mg2SiSe4
_chemical_formula_sum   'Mg8 Si4 Se16'
_cell_volume   673.95260798
_cell_formula_units_Z   4
loop_
 _symmetry_equiv_pos_site_id
 _symmetry_equiv_pos_as_xyz
  1  'x, y, z'
loop_
 _atom_site_type_symbol
 _atom_site_label
 _atom_site_symmetry_multiplicity
 _atom_site_fract_x
 _atom_site_fract_y
 _atom_site_fract_z
 _atom_site_occupancy
  Mg  Mg0  1  0.50000000  0.00000000  0.50000000  1
  Mg  Mg1  1  -0.00000000  0.50000000  0.00000000  1
  Mg  Mg2  1  0.50000000  0.50000000  0.50000000  1
  Mg  Mg3  1  -0.00000000  -0.00000000  0.00000000  1
  Mg  Mg4  1  0.00472219  0.75000000  0.26804219  1
  Mg  Mg5  1  0.49527781  0.75000000  0.76804219  1
  Mg  Mg6  1  0.99527781  0.25000000  0.73195781  1
  Mg  Mg7  1  0.50472219  0.25000000  0.23195781  1
  Si  Si8  1  0.59269309  0.75000000  0.08886621  1
  Si  Si9  1  0.90730691  0.75000000  0.58886621  1
  Si  Si10  1  0.40730691  0.25000000  0.91113379  1
  Si  Si11  1  0.09269309  0.25000000  0.41113379  1
  Se  Se12  1  0.23132059  0.75000000  0.09270131  1
  Se  Se13  1  0.26867941  0.75000000  0.59270131  1
  Se  Se14  1  0.76867941  0.25000000  0.90729869  1
  Se  Se15  1  0.73132059  0.25000000  0.40729869  1
  Se  Se16  1  0.74357107  0.75000000  0.93268466  1
  Se  Se17  1  0.75642893  0.75000000  0.43268466  1
  Se  Se18  1  0.25642893  0.25000000  0.06731534  1
  Se  Se19  1  0.24357107  0.25000000  0.56731534  1
  Se  Se20  1  0.74808821  0.97780176  0.16754360  1
  Se  Se21  1  0.75191179  0.52219824  0.66754360  1
  Se  Se22  1  0.25191179  0.47780176  0.83245640  1
  Se  Se23  1  0.24808821  0.02219824  0.33245640  1
  Se  Se24  1  0.25191179  0.02219824  0.83245640  1
  Se  Se25  1  0.24808821  0.47780176  0.33245640  1
  Se  Se26  1  0.74808821  0.52219824  0.16754360  1
  Se  Se27  1  0.75191179  0.97780176  0.66754360  1
