# generated using pymatgen
data_TiH19C6N3Cl2
_symmetry_space_group_name_H-M   'P 1'
_cell_length_a   8.98808719
_cell_length_b   12.82751205
_cell_length_c   14.60051432
_cell_angle_alpha   90.00000000
_cell_angle_beta   96.91797769
_cell_angle_gamma   90.00000000
_symmetry_Int_Tables_number   1
_chemical_formula_structural   TiH19C6N3Cl2
_chemical_formula_sum   'Ti4 H76 C24 N12 Cl8'
_cell_volume   1671.10776875
_cell_formula_units_Z   4
loop_
 _symmetry_equiv_pos_site_id
 _symmetry_equiv_pos_as_xyz
  1  'x, y, z'
loop_
 _atom_site_type_symbol
 _atom_site_label
 _atom_site_symmetry_multiplicity
 _atom_site_fract_x
 _atom_site_fract_y
 _atom_site_fract_z
 _atom_site_occupancy
  Ti  Ti0  1  0.72139077  0.28237917  0.25979742  1
  Ti  Ti1  1  0.27860923  0.78237917  0.24020258  1
  Ti  Ti2  1  0.27860923  0.71762083  0.74020258  1
  Ti  Ti3  1  0.72139077  0.21762083  0.75979742  1
  H  H4  1  0.76362040  0.34939972  0.08101306  1
  H  H5  1  0.23637960  0.84939972  0.41898694  1
  H  H6  1  0.23637960  0.65060028  0.91898694  1
  H  H7  1  0.76362040  0.15060028  0.58101306  1
  H  H8  1  0.83361351  0.53220820  0.39334548  1
  H  H9  1  0.16638649  0.03220820  0.10665452  1
  H  H10  1  0.16638649  0.46779180  0.60665452  1
  H  H11  1  0.83361351  0.96779180  0.89334548  1
  H  H12  1  0.64509177  0.49316829  0.35614701  1
  H  H13  1  0.35490823  0.99316829  0.14385299  1
  H  H14  1  0.35490823  0.50683171  0.64385299  1
  H  H15  1  0.64509177  0.00683171  0.85614701  1
  H  H16  1  0.73755923  0.44932597  0.46508534  1
  H  H17  1  0.26244077  0.94932597  0.03491466  1
  H  H18  1  0.26244077  0.55067403  0.53491466  1
  H  H19  1  0.73755923  0.05067403  0.96508534  1
  H  H20  1  0.94826087  0.32292944  0.46617516  1
  H  H21  1  0.05173913  0.82292944  0.03382484  1
  H  H22  1  0.05173913  0.67707056  0.53382484  1
  H  H23  1  0.94826087  0.17707056  0.96617516  1
  H  H24  1  0.03908114  0.40765435  0.39206927  1
  H  H25  1  0.96091886  0.90765435  0.10793073  1
  H  H26  1  0.96091886  0.59234565  0.60793073  1
  H  H27  1  0.03908114  0.09234565  0.89206927  1
  H  H28  1  0.99636710  0.27554225  0.35920691  1
  H  H29  1  0.00363290  0.77554225  0.14079309  1
  H  H30  1  0.00363290  0.72445775  0.64079309  1
  H  H31  1  0.99636710  0.22445775  0.85920691  1
  H  H32  1  0.35807601  0.24031048  0.12329859  1
  H  H33  1  0.64192399  0.74031048  0.37670141  1
  H  H34  1  0.64192399  0.75968952  0.87670141  1
  H  H35  1  0.35807601  0.25968952  0.62329859  1
  H  H36  1  0.39172722  0.37437050  0.09927711  1
  H  H37  1  0.60827278  0.87437050  0.40072289  1
  H  H38  1  0.60827278  0.62562950  0.90072289  1
  H  H39  1  0.39172722  0.12562950  0.59927711  1
  H  H40  1  0.52533698  0.27664777  0.07756913  1
  H  H41  1  0.47466302  0.77664777  0.42243087  1
  H  H42  1  0.47466302  0.72335223  0.92243087  1
  H  H43  1  0.52533698  0.22335223  0.57756913  1
  H  H44  1  0.46942123  0.33921182  0.35394121  1
  H  H45  1  0.53057877  0.83921182  0.14605879  1
  H  H46  1  0.53057877  0.66078818  0.64605879  1
  H  H47  1  0.46942123  0.16078818  0.85394121  1
  H  H48  1  0.32785886  0.27503370  0.27908144  1
  H  H49  1  0.67214114  0.77503370  0.22091856  1
  H  H50  1  0.67214114  0.72496630  0.72091856  1
  H  H51  1  0.32785886  0.22496630  0.77908144  1
  H  H52  1  0.35695647  0.41236077  0.26620841  1
  H  H53  1  0.64304353  0.91236077  0.23379159  1
  H  H54  1  0.64304353  0.58763923  0.73379159  1
  H  H55  1  0.35695647  0.08763923  0.76620841  1
  H  H56  1  0.62167762  0.49442134  0.12842783  1
  H  H57  1  0.37832238  0.99442134  0.37157217  1
  H  H58  1  0.37832238  0.50557866  0.87157217  1
  H  H59  1  0.62167762  0.00557866  0.62842783  1
  H  H60  1  0.78999170  0.54096338  0.19299698  1
  H  H61  1  0.21000830  0.04096338  0.30700302  1
  H  H62  1  0.21000830  0.45903662  0.80700302  1
  H  H63  1  0.78999170  0.95903662  0.69299698  1
  H  H64  1  0.77525358  0.53550920  0.07020675  1
  H  H65  1  0.22474642  0.03550920  0.42979325  1
  H  H66  1  0.22474642  0.46449080  0.92979325  1
  H  H67  1  0.77525358  0.96449080  0.57020675  1
  H  H68  1  0.99705694  0.43791537  0.07640878  1
  H  H69  1  0.00294306  0.93791537  0.42359122  1
  H  H70  1  0.00294306  0.56208463  0.92359122  1
  H  H71  1  0.99705694  0.06208463  0.57640878  1
  H  H72  1  0.02482374  0.43507753  0.19891515  1
  H  H73  1  0.97517626  0.93507753  0.30108485  1
  H  H74  1  0.97517626  0.56492247  0.80108485  1
  H  H75  1  0.02482374  0.06492247  0.69891515  1
  H  H76  1  0.01722599  0.31547091  0.13540740  1
  H  H77  1  0.98277401  0.81547091  0.36459260  1
  H  H78  1  0.98277401  0.68452909  0.86459260  1
  H  H79  1  0.01722599  0.18452909  0.63540740  1
  C  C80  1  0.75281074  0.46720017  0.39269799  1
  C  C81  1  0.24718926  0.96720017  0.10730201  1
  C  C82  1  0.24718926  0.53279983  0.60730201  1
  C  C83  1  0.75281074  0.03279983  0.89269799  1
  C  C84  1  0.95578033  0.34461643  0.39354584  1
  C  C85  1  0.04421967  0.84461643  0.10645416  1
  C  C86  1  0.04421967  0.65538357  0.60645416  1
  C  C87  1  0.95578033  0.15538357  0.89354584  1
  C  C88  1  0.44595597  0.30094962  0.12492811  1
  C  C89  1  0.55404403  0.80094962  0.37507189  1
  C  C90  1  0.55404403  0.69905038  0.87507189  1
  C  C91  1  0.44595597  0.19905038  0.62492811  1
  C  C92  1  0.41376646  0.33719635  0.28288548  1
  C  C93  1  0.58623354  0.83719635  0.21711452  1
  C  C94  1  0.58623354  0.66280365  0.71711452  1
  C  C95  1  0.41376646  0.16280365  0.78288548  1
  C  C96  1  0.74396313  0.49578314  0.13218546  1
  C  C97  1  0.25603687  0.99578314  0.36781454  1
  C  C98  1  0.25603687  0.50421686  0.86781454  1
  C  C99  1  0.74396313  0.00421686  0.63218546  1
  C  C100  1  0.97087324  0.39408515  0.13750662  1
  C  C101  1  0.02912676  0.89408515  0.36249338  1
  C  C102  1  0.02912676  0.60591485  0.86249338  1
  C  C103  1  0.97087324  0.10591485  0.63750662  1
  N  N104  1  0.81068697  0.37766268  0.34838689  1
  N  N105  1  0.18931303  0.87766268  0.15161311  1
  N  N106  1  0.18931303  0.62233732  0.65161311  1
  N  N107  1  0.81068697  0.12233732  0.84838689  1
  N  N108  1  0.52001617  0.31494103  0.21788454  1
  N  N109  1  0.47998383  0.81494103  0.28211546  1
  N  N110  1  0.47998383  0.68505897  0.78211546  1
  N  N111  1  0.52001617  0.18505897  0.71788454  1
  N  N112  1  0.80649793  0.38906580  0.13962587  1
  N  N113  1  0.19350207  0.88906580  0.36037413  1
  N  N114  1  0.19350207  0.61093420  0.86037413  1
  N  N115  1  0.80649793  0.11093420  0.63962587  1
  Cl  Cl116  1  0.67281902  0.15729344  0.37270090  1
  Cl  Cl117  1  0.32718098  0.65729344  0.12729910  1
  Cl  Cl118  1  0.32718098  0.84270656  0.62729910  1
  Cl  Cl119  1  0.67281902  0.34270656  0.87270090  1
  Cl  Cl120  1  0.83801817  0.15656746  0.17779150  1
  Cl  Cl121  1  0.16198183  0.65656746  0.32220850  1
  Cl  Cl122  1  0.16198183  0.84343254  0.82220850  1
  Cl  Cl123  1  0.83801817  0.34343254  0.67779150  1
