# generated using pymatgen
data_Cs3H(SeO4)2
_symmetry_space_group_name_H-M   'P 1'
_cell_length_a   6.50183227
_cell_length_b   8.86001401
_cell_length_c   11.24088486
_cell_angle_alpha   101.01112741
_cell_angle_beta   89.99999998
_cell_angle_gamma   111.52578614
_symmetry_Int_Tables_number   1
_chemical_formula_structural   Cs3H(SeO4)2
_chemical_formula_sum   'Cs6 H2 Se4 O16'
_cell_volume   589.54754244
_cell_formula_units_Z   2
loop_
 _symmetry_equiv_pos_site_id
 _symmetry_equiv_pos_as_xyz
  1  'x, y, z'
loop_
 _atom_site_type_symbol
 _atom_site_label
 _atom_site_symmetry_multiplicity
 _atom_site_fract_x
 _atom_site_fract_y
 _atom_site_fract_z
 _atom_site_occupancy
  Cs  Cs0  1  0.74588563  1.00000000  0.25000000  1
  Cs  Cs1  1  0.25411437  0.00000000  0.75000000  1
  Cs  Cs2  1  0.53387181  0.61820197  0.84783926  1
  Cs  Cs3  1  0.08433016  0.61820197  0.34783926  1
  Cs  Cs4  1  0.46612819  0.38179803  0.15216074  1
  Cs  Cs5  1  0.91566984  0.38179803  0.65216074  1
  H  H6  1  -0.00000000  -0.00000000  -0.00000000  1
  H  H7  1  -0.00000000  -0.00000000  0.50000000  1
  Se  Se8  1  0.09829682  0.76913493  0.03471454  1
  Se  Se9  1  0.67083811  0.76913493  0.53471454  1
  Se  Se10  1  0.90170318  0.23086507  0.96528546  1
  Se  Se11  1  0.32916189  0.23086507  0.46528546  1
  O  O12  1  0.86134057  0.68936636  0.09861135  1
  O  O13  1  0.82802579  0.68936636  0.59861135  1
  O  O14  1  0.13865943  0.31063364  0.90138865  1
  O  O15  1  0.17197421  0.31063364  0.40138865  1
  O  O16  1  0.15175751  0.97959473  0.05037279  1
  O  O17  1  0.82783722  0.97959473  0.55037279  1
  O  O18  1  0.84824249  0.02040527  0.94962721  1
  O  O19  1  0.17216278  0.02040527  0.44962721  1
  O  O20  1  0.07554335  0.69193026  0.88583946  1
  O  O21  1  0.61638691  0.69193026  0.38583946  1
  O  O22  1  0.92445665  0.30806974  0.11416054  1
  O  O23  1  0.38361309  0.30806974  0.61416054  1
  O  O24  1  0.31242557  0.75422830  0.10547367  1
  O  O25  1  0.44180273  0.75422830  0.60547367  1
  O  O26  1  0.68757443  0.24577170  0.89452633  1
  O  O27  1  0.55819727  0.24577170  0.39452633  1
