# generated using pymatgen
data_Li4MnSn2Se7
_symmetry_space_group_name_H-M   'P 1'
_cell_length_a   7.34889094
_cell_length_b   9.90910900
_cell_length_c   10.87464397
_cell_angle_alpha   93.01183015
_cell_angle_beta   90.00000000
_cell_angle_gamma   111.76588435
_symmetry_Int_Tables_number   1
_chemical_formula_structural   Li4MnSn2Se7
_chemical_formula_sum   'Li8 Mn2 Sn4 Se14'
_cell_volume   734.26683842
_cell_formula_units_Z   2
loop_
 _symmetry_equiv_pos_site_id
 _symmetry_equiv_pos_as_xyz
  1  'x, y, z'
loop_
 _atom_site_type_symbol
 _atom_site_label
 _atom_site_symmetry_multiplicity
 _atom_site_fract_x
 _atom_site_fract_y
 _atom_site_fract_z
 _atom_site_occupancy
  Li  Li0  1  0.81857098  0.29125068  0.41236861  1
  Li  Li1  1  0.47267970  0.29125068  0.91236861  1
  Li  Li2  1  0.78303646  0.86718978  0.33559090  1
  Li  Li3  1  0.08415333  0.86718978  0.83559090  1
  Li  Li4  1  0.69047716  0.00842541  0.69767805  1
  Li  Li5  1  0.31794826  0.00842541  0.19767805  1
  Li  Li6  1  0.61609799  0.57504984  0.61493397  1
  Li  Li7  1  0.95895185  0.57504984  0.11493397  1
  Mn  Mn8  1  0.36442344  0.43465805  0.25902132  1
  Mn  Mn9  1  0.07023462  0.43465805  0.75902132  1
  Sn  Sn10  1  0.19012978  0.71839398  0.47014144  1
  Sn  Sn11  1  0.52826420  0.71839398  0.97014144  1
  Sn  Sn12  1  0.23240629  0.15297720  0.53828240  1
  Sn  Sn13  1  0.92057092  0.15297720  0.03828240  1
  Se  Se14  1  0.30927308  0.94050922  0.63552997  1
  Se  Se15  1  0.63123614  0.94050922  0.13552997  1
  Se  Se16  1  0.45039291  0.23159881  0.35001607  1
  Se  Se17  1  0.78120590  0.23159881  0.85001607  1
  Se  Se18  1  0.35507264  0.35753826  0.70882965  1
  Se  Se19  1  0.00246562  0.35753826  0.20882965  1
  Se  Se20  1  0.05947297  0.78581919  0.27839786  1
  Se  Se21  1  0.72634622  0.78581919  0.77839786  1
  Se  Se22  1  0.92509932  0.50892147  0.57329953  1
  Se  Se23  1  0.58382214  0.50892147  0.07329953  1
  Se  Se24  1  0.48578678  0.64945412  0.41651160  1
  Se  Se25  1  0.16366733  0.64945412  0.91651160  1
  Se  Se26  1  0.86875005  0.07371400  0.49772864  1
  Se  Se27  1  0.20496395  0.07371400  0.99772864  1
