# generated using pymatgen
data_CoH4(NO4)2
_symmetry_space_group_name_H-M   'P 1'
_cell_length_a   5.84645531
_cell_length_b   6.47343954
_cell_length_c   8.69588636
_cell_angle_alpha   90.00000000
_cell_angle_beta   90.00000000
_cell_angle_gamma   95.87599349
_symmetry_Int_Tables_number   1
_chemical_formula_structural   CoH4(NO4)2
_chemical_formula_sum   'Co2 H8 N4 O16'
_cell_volume   327.38117251
_cell_formula_units_Z   2
loop_
 _symmetry_equiv_pos_site_id
 _symmetry_equiv_pos_as_xyz
  1  'x, y, z'
loop_
 _atom_site_type_symbol
 _atom_site_label
 _atom_site_symmetry_multiplicity
 _atom_site_fract_x
 _atom_site_fract_y
 _atom_site_fract_z
 _atom_site_occupancy
  Co  Co0  1  0.50000000  0.50000000  0.50000000  1
  Co  Co1  1  0.00000000  0.00000000  0.00000000  1
  H  H2  1  0.38888344  0.79764300  0.99214197  1
  H  H3  1  0.88888344  0.29764300  0.50785803  1
  H  H4  1  0.61111656  0.20235700  0.00785803  1
  H  H5  1  0.11111656  0.70235700  0.49214197  1
  H  H6  1  0.20378636  0.69330507  0.10695305  1
  H  H7  1  0.70378636  0.19330507  0.39304695  1
  H  H8  1  0.79621364  0.30669493  0.89304695  1
  H  H9  1  0.29621364  0.80669493  0.60695305  1
  N  N10  1  0.25868953  0.32474147  0.79233721  1
  N  N11  1  0.75868953  0.82474147  0.70766279  1
  N  N12  1  0.74131047  0.67525853  0.20766279  1
  N  N13  1  0.24131047  0.17525853  0.29233721  1
  O  O14  1  0.44984145  0.39098259  0.73047735  1
  O  O15  1  0.94984145  0.89098259  0.76952265  1
  O  O16  1  0.55015855  0.60901741  0.26952265  1
  O  O17  1  0.05015855  0.10901741  0.23047735  1
  O  O18  1  0.07084285  0.36418428  0.73879258  1
  O  O19  1  0.57084285  0.86418428  0.76120742  1
  O  O20  1  0.92915715  0.63581572  0.26120742  1
  O  O21  1  0.42915715  0.13581572  0.23879258  1
  O  O22  1  0.27069190  0.21527661  0.91514189  1
  O  O23  1  0.77069190  0.71527661  0.58485811  1
  O  O24  1  0.72930810  0.78472339  0.08485811  1
  O  O25  1  0.22930810  0.28472339  0.41514189  1
  O  O26  1  0.22316806  0.76763113  0.00885717  1
  O  O27  1  0.72316806  0.26763113  0.49114283  1
  O  O28  1  0.77683194  0.23236887  0.99114283  1
  O  O29  1  0.27683194  0.73236887  0.50885717  1
