# generated using pymatgen
data_Eu(In2Au)2
_symmetry_space_group_name_H-M   'P 1'
_cell_length_a   4.71755133
_cell_length_b   7.54058129
_cell_length_c   18.89985649
_cell_angle_alpha   90.00000000
_cell_angle_beta   90.00000000
_cell_angle_gamma   90.00000000
_symmetry_Int_Tables_number   1
_chemical_formula_structural   Eu(In2Au)2
_chemical_formula_sum   'Eu4 In16 Au8'
_cell_volume   672.32609356
_cell_formula_units_Z   4
loop_
 _symmetry_equiv_pos_site_id
 _symmetry_equiv_pos_as_xyz
  1  'x, y, z'
loop_
 _atom_site_type_symbol
 _atom_site_label
 _atom_site_symmetry_multiplicity
 _atom_site_fract_x
 _atom_site_fract_y
 _atom_site_fract_z
 _atom_site_occupancy
  Eu  Eu0  1  0.75000000  0.97315681  0.85816686  1
  Eu  Eu1  1  0.75000000  0.52684319  0.35816686  1
  Eu  Eu2  1  0.25000000  0.02684319  0.14183314  1
  Eu  Eu3  1  0.25000000  0.47315681  0.64183314  1
  In  In4  1  0.25000000  0.00898129  0.56883748  1
  In  In5  1  0.25000000  0.49101871  0.06883748  1
  In  In6  1  0.75000000  0.99101871  0.43116252  1
  In  In7  1  0.75000000  0.50898129  0.93116252  1
  In  In8  1  0.25000000  0.14741058  0.96472132  1
  In  In9  1  0.25000000  0.35258942  0.46472132  1
  In  In10  1  0.75000000  0.85258942  0.03527868  1
  In  In11  1  0.75000000  0.64741058  0.53527868  1
  In  In12  1  0.25000000  0.26626920  0.81128823  1
  In  In13  1  0.25000000  0.23373080  0.31128823  1
  In  In14  1  0.75000000  0.73373080  0.18871177  1
  In  In15  1  0.75000000  0.76626920  0.68871177  1
  In  In16  1  0.25000000  0.67172750  0.81382794  1
  In  In17  1  0.25000000  0.82827250  0.31382794  1
  In  In18  1  0.75000000  0.32827250  0.18617206  1
  In  In19  1  0.75000000  0.17172750  0.68617206  1
  Au  Au20  1  0.25000000  0.96650463  0.71888297  1
  Au  Au21  1  0.25000000  0.53349537  0.21888297  1
  Au  Au22  1  0.75000000  0.03349537  0.28111703  1
  Au  Au23  1  0.75000000  0.46650463  0.78111703  1
  Au  Au24  1  0.25000000  0.75422185  0.96008183  1
  Au  Au25  1  0.25000000  0.74577815  0.46008183  1
  Au  Au26  1  0.75000000  0.24577815  0.03991817  1
  Au  Au27  1  0.75000000  0.25422185  0.53991817  1
