# generated using pymatgen
data_SrGePbO4
_symmetry_space_group_name_H-M   'P 1'
_cell_length_a   6.06871902
_cell_length_b   7.41987028
_cell_length_c   10.06289116
_cell_angle_alpha   90.00000000
_cell_angle_beta   90.00000000
_cell_angle_gamma   90.00000000
_symmetry_Int_Tables_number   1
_chemical_formula_structural   SrGePbO4
_chemical_formula_sum   'Sr4 Ge4 Pb4 O16'
_cell_volume   453.12301177
_cell_formula_units_Z   4
loop_
 _symmetry_equiv_pos_site_id
 _symmetry_equiv_pos_as_xyz
  1  'x, y, z'
loop_
 _atom_site_type_symbol
 _atom_site_label
 _atom_site_symmetry_multiplicity
 _atom_site_fract_x
 _atom_site_fract_y
 _atom_site_fract_z
 _atom_site_occupancy
  Sr  Sr0  1  0.73097953  0.99889209  0.04103780  1
  Sr  Sr1  1  0.23097953  0.00110791  0.45896220  1
  Sr  Sr2  1  0.26902047  0.50110791  0.54103780  1
  Sr  Sr3  1  0.76902047  0.49889209  0.95896220  1
  Ge  Ge4  1  0.77401396  0.21237414  0.33721055  1
  Ge  Ge5  1  0.27401396  0.78762586  0.16278945  1
  Ge  Ge6  1  0.22598604  0.28762586  0.83721055  1
  Ge  Ge7  1  0.72598604  0.71237414  0.66278945  1
  Pb  Pb8  1  0.68436293  0.18824568  0.65887466  1
  Pb  Pb9  1  0.18436293  0.81175432  0.84112534  1
  Pb  Pb10  1  0.31563707  0.31175432  0.15887466  1
  Pb  Pb11  1  0.81563707  0.68824568  0.34112534  1
  O  O12  1  0.70517031  0.31118086  0.18098961  1
  O  O13  1  0.20517031  0.68881914  0.31901039  1
  O  O14  1  0.29482969  0.18881914  0.68098961  1
  O  O15  1  0.79482969  0.81118086  0.81901039  1
  O  O16  1  0.00170308  0.30142850  0.42408733  1
  O  O17  1  0.50170308  0.69857150  0.07591267  1
  O  O18  1  0.99829692  0.19857150  0.92408733  1
  O  O19  1  0.49829692  0.80142850  0.57591267  1
  O  O20  1  0.85526823  0.98655664  0.29910567  1
  O  O21  1  0.35526823  0.01344336  0.20089433  1
  O  O22  1  0.14473177  0.51344336  0.79910567  1
  O  O23  1  0.64473177  0.48655664  0.70089433  1
  O  O24  1  0.53847968  0.23747133  0.44269319  1
  O  O25  1  0.03847968  0.76252867  0.05730681  1
  O  O26  1  0.46152032  0.26252867  0.94269319  1
  O  O27  1  0.96152032  0.73747133  0.55730681  1
