# generated using pymatgen
data_Cr3(P2O7)2
_symmetry_space_group_name_H-M   'P 1'
_cell_length_a   5.28008486
_cell_length_b   6.41346858
_cell_length_c   16.25684907
_cell_angle_alpha   91.27493045
_cell_angle_beta   80.31654295
_cell_angle_gamma   74.28756369
_symmetry_Int_Tables_number   1
_chemical_formula_structural   Cr3(P2O7)2
_chemical_formula_sum   'Cr6 P8 O28'
_cell_volume   521.05942004
_cell_formula_units_Z   2
loop_
 _symmetry_equiv_pos_site_id
 _symmetry_equiv_pos_as_xyz
  1  'x, y, z'
loop_
 _atom_site_type_symbol
 _atom_site_label
 _atom_site_symmetry_multiplicity
 _atom_site_fract_x
 _atom_site_fract_y
 _atom_site_fract_z
 _atom_site_occupancy
  Cr  Cr0  1  0.13650900  0.37319784  0.82154323  1
  Cr  Cr1  1  0.78225768  0.27694218  0.40749191  1
  Cr  Cr2  1  0.55342035  0.97802696  0.68292137  1
  Cr  Cr3  1  0.21774232  0.72305782  0.59250809  1
  Cr  Cr4  1  0.44657965  0.02197304  0.31707863  1
  Cr  Cr5  1  0.86349100  0.62680216  0.17845677  1
  P  P6  1  0.01564984  0.89887140  0.79611252  1
  P  P7  1  0.36704904  0.76826322  0.07542015  1
  P  P8  1  0.14529346  0.22746413  0.54749984  1
  P  P9  1  0.63295096  0.23173678  0.92457985  1
  P  P10  1  0.98435016  0.10112860  0.20388748  1
  P  P11  1  0.85470654  0.77253587  0.45250016  1
  P  P12  1  0.30994625  0.56590627  0.31580711  1
  P  P13  1  0.69005375  0.43409373  0.68419289  1
  O  O14  1  0.16531036  0.69792745  0.40495923  1
  O  O15  1  0.70743303  0.97191268  0.41003843  1
  O  O16  1  0.88319475  0.83331376  0.54138051  1
  O  O17  1  0.52792756  0.65998482  0.66167050  1
  O  O18  1  0.29256697  0.02808732  0.58996157  1
  O  O19  1  0.20917252  0.04607188  0.78766508  1
  O  O20  1  0.79082748  0.95392812  0.21233492  1
  O  O21  1  0.49527573  0.30285932  0.72024100  1
  O  O22  1  0.11680525  0.16668624  0.45861949  1
  O  O23  1  0.35309086  0.84822853  0.98965526  1
  O  O24  1  0.07069394  0.12203627  0.29097969  1
  O  O25  1  0.85652199  0.31845418  0.17379105  1
  O  O26  1  0.92930606  0.87796373  0.70902031  1
  O  O27  1  0.81269147  0.38254191  0.90013328  1
  O  O28  1  0.72436837  0.59029109  0.44670205  1
  O  O29  1  0.14347801  0.68154582  0.82620895  1
  O  O30  1  0.18730853  0.61745809  0.09986672  1
  O  O31  1  0.90528490  0.44674481  0.73153963  1
  O  O32  1  0.83468964  0.30207255  0.59504077  1
  O  O33  1  0.64993393  0.67134517  0.09145334  1
  O  O34  1  0.25323334  0.98009566  0.14504626  1
  O  O35  1  0.47207244  0.34001518  0.33832950  1
  O  O36  1  0.09471510  0.55325519  0.26846037  1
  O  O37  1  0.35006607  0.32865483  0.90854666  1
  O  O38  1  0.74676666  0.01990434  0.85495374  1
  O  O39  1  0.64690914  0.15177147  0.01034474  1
  O  O40  1  0.50472427  0.69714068  0.27975900  1
  O  O41  1  0.27563163  0.40970891  0.55329795  1
