# generated using pymatgen
data_Li4MnGe2S7
_symmetry_space_group_name_H-M   'P 1'
_cell_length_a   6.74786841
_cell_length_b   9.17476749
_cell_length_c   10.20299683
_cell_angle_alpha   94.21419914
_cell_angle_beta   90.00000000
_cell_angle_gamma   111.57634273
_symmetry_Int_Tables_number   1
_chemical_formula_structural   Li4MnGe2S7
_chemical_formula_sum   'Li8 Mn2 Ge4 S14'
_cell_volume   585.56983185
_cell_formula_units_Z   2
loop_
 _symmetry_equiv_pos_site_id
 _symmetry_equiv_pos_as_xyz
  1  'x, y, z'
loop_
 _atom_site_type_symbol
 _atom_site_label
 _atom_site_symmetry_multiplicity
 _atom_site_fract_x
 _atom_site_fract_y
 _atom_site_fract_z
 _atom_site_occupancy
  Li  Li0  1  0.72251958  0.16042227  0.29443571  1
  Li  Li1  1  0.43790269  0.16042227  0.79443571  1
  Li  Li2  1  0.32292720  0.29765716  0.13704281  1
  Li  Li3  1  0.97472996  0.29765716  0.63704281  1
  Li  Li4  1  0.69222799  0.71465250  0.22078691  1
  Li  Li5  1  0.02242451  0.71465250  0.72078691  1
  Li  Li6  1  0.47195474  0.57670596  0.85637575  1
  Li  Li7  1  0.10475122  0.57670596  0.35637575  1
  Mn  Mn8  1  0.83124976  0.01333482  0.94310790  1
  Mn  Mn9  1  0.18208506  0.01333482  0.44310790  1
  Ge  Ge10  1  0.88680998  0.43386770  0.01795122  1
  Ge  Ge11  1  0.54705772  0.43386770  0.51795122  1
  Ge  Ge12  1  0.25714715  0.86231512  0.08102524  1
  Ge  Ge13  1  0.60516797  0.86231512  0.58102524  1
  S  S14  1  0.15505457  0.64510224  0.93088495  1
  S  S15  1  0.49004767  0.64510224  0.43088495  1
  S  S16  1  0.60442428  0.92821263  0.12784905  1
  S  S17  1  0.32378835  0.92821263  0.62784905  1
  S  S18  1  0.07696154  0.80649117  0.26567434  1
  S  S19  1  0.72952962  0.80649117  0.76567434  1
  S  S20  1  0.20180349  0.05629813  0.98570187  1
  S  S21  1  0.85449464  0.05629813  0.48570187  1
  S  S22  1  0.01434318  0.36304860  0.18958109  1
  S  S23  1  0.34870542  0.36304860  0.68958109  1
  S  S24  1  0.61176720  0.50565900  0.04886228  1
  S  S25  1  0.89389180  0.50565900  0.54886228  1
  S  S26  1  0.81829458  0.24251269  0.85374088  1
  S  S27  1  0.42421811  0.24251269  0.35374088  1
