# generated using pymatgen
data_Hf9GeMo4
_symmetry_space_group_name_H-M   'P 1'
_cell_length_a   8.68449881
_cell_length_b   8.68449881
_cell_length_c   8.70137216
_cell_angle_alpha   90.00000000
_cell_angle_beta   90.00000000
_cell_angle_gamma   119.99946956
_symmetry_Int_Tables_number   1
_chemical_formula_structural   Hf9GeMo4
_chemical_formula_sum   'Hf18 Ge2 Mo8'
_cell_volume   568.34260965
_cell_formula_units_Z   2
loop_
 _symmetry_equiv_pos_site_id
 _symmetry_equiv_pos_as_xyz
  1  'x, y, z'
loop_
 _atom_site_type_symbol
 _atom_site_label
 _atom_site_symmetry_multiplicity
 _atom_site_fract_x
 _atom_site_fract_y
 _atom_site_fract_z
 _atom_site_occupancy
  Hf  Hf0  1  0.80268101  0.60535814  0.54354562  1
  Hf  Hf1  1  0.80268318  0.19731682  0.54353283  1
  Hf  Hf2  1  0.39464186  0.19731899  0.54354562  1
  Hf  Hf3  1  0.19731899  0.39464186  0.45645438  1
  Hf  Hf4  1  0.19731682  0.80268318  0.45646717  1
  Hf  Hf5  1  0.60535814  0.80268101  0.45645438  1
  Hf  Hf6  1  0.19731899  0.39464186  0.04354562  1
  Hf  Hf7  1  0.19731682  0.80268318  0.04353283  1
  Hf  Hf8  1  0.60535814  0.80268101  0.04354562  1
  Hf  Hf9  1  0.80268101  0.60535814  0.95645438  1
  Hf  Hf10  1  0.80268318  0.19731682  0.95646717  1
  Hf  Hf11  1  0.39464186  0.19731899  0.95645438  1
  Hf  Hf12  1  0.46044352  0.92088672  0.75000000  1
  Hf  Hf13  1  0.46044330  0.53955670  0.75000000  1
  Hf  Hf14  1  0.07911328  0.53955648  0.75000000  1
  Hf  Hf15  1  0.53955648  0.07911328  0.25000000  1
  Hf  Hf16  1  0.53955670  0.46044330  0.25000000  1
  Hf  Hf17  1  0.92088672  0.46044352  0.25000000  1
  Ge  Ge18  1  0.66667585  0.33332415  0.75000000  1
  Ge  Ge19  1  0.33332415  0.66667585  0.25000000  1
  Mo  Mo20  1  0.10978961  0.21956698  0.75000000  1
  Mo  Mo21  1  0.10978316  0.89021684  0.75000000  1
  Mo  Mo22  1  0.78043302  0.89021039  0.75000000  1
  Mo  Mo23  1  0.89021039  0.78043302  0.25000000  1
  Mo  Mo24  1  0.89021684  0.10978316  0.25000000  1
  Mo  Mo25  1  0.21956698  0.10978961  0.25000000  1
  Mo  Mo26  1  -0.00000000  -0.00000000  0.50000000  1
  Mo  Mo27  1  -0.00000000  -0.00000000  -0.00000000  1
