# generated using pymatgen
data_LiMnVF6
_symmetry_space_group_name_H-M   'P 1'
_cell_length_a   4.73795440
_cell_length_b   8.85599672
_cell_length_c   8.85573814
_cell_angle_alpha   119.99903257
_cell_angle_beta   90.00000004
_cell_angle_gamma   90.00070954
_symmetry_Int_Tables_number   1
_chemical_formula_structural   LiMnVF6
_chemical_formula_sum   'Li3 Mn3 V3 F18'
_cell_volume   321.80141934
_cell_formula_units_Z   3
loop_
 _symmetry_equiv_pos_site_id
 _symmetry_equiv_pos_as_xyz
  1  'x, y, z'
loop_
 _atom_site_type_symbol
 _atom_site_label
 _atom_site_symmetry_multiplicity
 _atom_site_fract_x
 _atom_site_fract_y
 _atom_site_fract_z
 _atom_site_occupancy
  Li  Li0  1  -0.00000000  -0.00000000  0.00000251  1
  Li  Li1  1  0.49868992  0.33335048  0.66668442  1
  Li  Li2  1  0.50131008  0.66664952  0.33333394  1
  Mn  Mn3  1  0.99998741  0.64601923  0.64600695  1
  Mn  Mn4  1  0.00001259  0.35398077  0.99998771  1
  Mn  Mn5  1  -0.00000000  0.00000000  0.35395450  1
  V  V6  1  0.49999984  0.31435129  0.31435382  1
  V  V7  1  0.50000016  0.68564871  0.00000253  1
  V  V8  1  0.50000000  0.00000000  0.68566009  1
  F  F9  1  0.27074435  0.89072666  0.46912014  1
  F  F10  1  0.27072667  0.53087654  0.42160353  1
  F  F11  1  0.27072716  0.57839691  0.10928903  1
  F  F12  1  0.72925565  0.10927334  0.57839348  1
  F  F13  1  0.72927284  0.42160309  0.53089212  1
  F  F14  1  0.72927333  0.46912346  0.89072698  1
  F  F15  1  0.27534302  0.21934380  0.78027584  1
  F  F16  1  0.27534602  0.21972198  0.43904721  1
  F  F17  1  0.27535104  0.56096388  0.78068009  1
  F  F18  1  0.72465698  0.78065620  0.56093203  1
  F  F19  1  0.72464896  0.43903612  0.21971621  1
  F  F20  1  0.72465398  0.78027802  0.21932523  1
  F  F21  1  0.24323416  0.89176596  0.77889533  1
  F  F22  1  0.24322245  0.22110270  0.11286869  1
  F  F23  1  0.24322346  0.88712997  0.10824113  1
  F  F24  1  0.75676584  0.10823404  0.88712937  1
  F  F25  1  0.75677654  0.11287003  0.22111115  1
  F  F26  1  0.75677755  0.77889730  0.89176599  1
