# generated using pymatgen
data_Ba(HoS2)2
_symmetry_space_group_name_H-M   'P 1'
_cell_length_a   4.03931922
_cell_length_b   12.28285438
_cell_length_c   14.52575298
_cell_angle_alpha   90.00000000
_cell_angle_beta   90.00000000
_cell_angle_gamma   90.00000000
_symmetry_Int_Tables_number   1
_chemical_formula_structural   Ba(HoS2)2
_chemical_formula_sum   'Ba4 Ho8 S16'
_cell_volume   720.68607959
_cell_formula_units_Z   4
loop_
 _symmetry_equiv_pos_site_id
 _symmetry_equiv_pos_as_xyz
  1  'x, y, z'
loop_
 _atom_site_type_symbol
 _atom_site_label
 _atom_site_symmetry_multiplicity
 _atom_site_fract_x
 _atom_site_fract_y
 _atom_site_fract_z
 _atom_site_occupancy
  Ba  Ba0  1  0.75000000  0.74372692  0.16063146  1
  Ba  Ba1  1  0.75000000  0.24372692  0.33936854  1
  Ba  Ba2  1  0.25000000  0.25627308  0.83936854  1
  Ba  Ba3  1  0.25000000  0.75627308  0.66063146  1
  Ho  Ho4  1  0.75000000  0.06855264  0.10869946  1
  Ho  Ho5  1  0.75000000  0.56855264  0.39130054  1
  Ho  Ho6  1  0.25000000  0.93144736  0.89130054  1
  Ho  Ho7  1  0.25000000  0.43144736  0.60869946  1
  Ho  Ho8  1  0.75000000  0.07775029  0.60195946  1
  Ho  Ho9  1  0.75000000  0.57775029  0.89804054  1
  Ho  Ho10  1  0.25000000  0.92224971  0.39804054  1
  Ho  Ho11  1  0.25000000  0.42224971  0.10195946  1
  S  S12  1  0.75000000  0.29189173  0.66278193  1
  S  S13  1  0.75000000  0.79189173  0.83721807  1
  S  S14  1  0.25000000  0.70810827  0.33721807  1
  S  S15  1  0.25000000  0.20810827  0.16278193  1
  S  S16  1  0.75000000  0.37609874  0.97766837  1
  S  S17  1  0.75000000  0.87609874  0.52233163  1
  S  S18  1  0.25000000  0.62390126  0.02233163  1
  S  S19  1  0.25000000  0.12390126  0.47766837  1
  S  S20  1  0.75000000  0.47840750  0.21715251  1
  S  S21  1  0.75000000  0.97840750  0.28284749  1
  S  S22  1  0.25000000  0.52159250  0.78284749  1
  S  S23  1  0.25000000  0.02159250  0.71715251  1
  S  S24  1  0.75000000  0.07946920  0.92370486  1
  S  S25  1  0.75000000  0.57946920  0.57629514  1
  S  S26  1  0.25000000  0.92053080  0.07629514  1
  S  S27  1  0.25000000  0.42053080  0.42370486  1
