# generated using pymatgen
data_Cs5Ga3Se7
_symmetry_space_group_name_H-M   'P 1'
_cell_length_a   9.84791843
_cell_length_b   11.40907124
_cell_length_c   11.40907124
_cell_angle_alpha   71.13937252
_cell_angle_beta   75.47760536
_cell_angle_gamma   75.47760536
_symmetry_Int_Tables_number   1
_chemical_formula_structural   Cs5Ga3Se7
_chemical_formula_sum   'Cs10 Ga6 Se14'
_cell_volume   1153.96540015
_cell_formula_units_Z   2
loop_
 _symmetry_equiv_pos_site_id
 _symmetry_equiv_pos_as_xyz
  1  'x, y, z'
loop_
 _atom_site_type_symbol
 _atom_site_label
 _atom_site_symmetry_multiplicity
 _atom_site_fract_x
 _atom_site_fract_y
 _atom_site_fract_z
 _atom_site_occupancy
  Cs  Cs0  1  0.71863799  0.43797073  0.02530774  1
  Cs  Cs1  1  0.71863799  0.02530774  0.43797073  1
  Cs  Cs2  1  0.28136201  0.56202927  0.97469226  1
  Cs  Cs3  1  0.28136201  0.97469226  0.56202927  1
  Cs  Cs4  1  0.00000000  0.71230307  0.28769693  1
  Cs  Cs5  1  0.00000000  0.28769693  0.71230307  1
  Cs  Cs6  1  0.50000000  0.15183115  0.84816885  1
  Cs  Cs7  1  0.50000000  0.84816885  0.15183115  1
  Cs  Cs8  1  0.69188424  0.42579074  0.42579074  1
  Cs  Cs9  1  0.30811576  0.57420926  0.57420926  1
  Ga  Ga10  1  0.18278038  0.21324168  0.21324168  1
  Ga  Ga11  1  0.81721962  0.78675832  0.78675832  1
  Ga  Ga12  1  0.05777155  0.07167830  0.07167830  1
  Ga  Ga13  1  0.94222845  0.92832170  0.92832170  1
  Ga  Ga14  1  0.33554088  0.34718661  0.34718661  1
  Ga  Ga15  1  0.66445912  0.65281339  0.65281339  1
  Se  Se16  1  0.11374354  0.28410999  0.00317809  1
  Se  Se17  1  0.11374354  0.00317809  0.28410999  1
  Se  Se18  1  0.88625646  0.71589001  0.99682191  1
  Se  Se19  1  0.88625646  0.99682191  0.71589001  1
  Se  Se20  1  0.43325898  0.20463771  0.20463771  1
  Se  Se21  1  0.56674102  0.79536229  0.79536229  1
  Se  Se22  1  0.81327576  0.06431814  0.06431814  1
  Se  Se23  1  0.18672424  0.93568186  0.93568186  1
  Se  Se24  1  0.07621698  0.35027732  0.35027732  1
  Se  Se25  1  0.92378302  0.64972268  0.64972268  1
  Se  Se26  1  0.39466225  0.55335167  0.25035672  1
  Se  Se27  1  0.39466225  0.25035672  0.55335167  1
  Se  Se28  1  0.60533775  0.44664833  0.74964328  1
  Se  Se29  1  0.60533775  0.74964328  0.44664833  1
