# generated using pymatgen
data_Ta4SnO12
_symmetry_space_group_name_H-M   'P 1'
_cell_length_a   5.04019275
_cell_length_b   5.56620658
_cell_length_c   9.20195905
_cell_angle_alpha   97.46858671
_cell_angle_beta   104.45884117
_cell_angle_gamma   90.12171771
_symmetry_Int_Tables_number   1
_chemical_formula_structural   Ta4SnO12
_chemical_formula_sum   'Ta4 Sn1 O12'
_cell_volume   247.70051799
_cell_formula_units_Z   1
loop_
 _symmetry_equiv_pos_site_id
 _symmetry_equiv_pos_as_xyz
  1  'x, y, z'
loop_
 _atom_site_type_symbol
 _atom_site_label
 _atom_site_symmetry_multiplicity
 _atom_site_fract_x
 _atom_site_fract_y
 _atom_site_fract_z
 _atom_site_occupancy
  Ta  Ta0  1  0.06126116  0.35880089  0.64917558  1
  Ta  Ta1  1  0.42398736  0.14119909  0.34724098  1
  Ta  Ta2  1  0.55848294  0.85948230  0.65592303  1
  Ta  Ta3  1  0.91822299  0.64568185  0.34753811  1
  Sn  Sn4  1  0.96053128  0.24255806  0.00113852  1
  O  O5  1  0.02140238  0.44004178  0.85052450  1
  O  O6  1  0.14142348  0.33306287  0.43194377  1
  O  O7  1  0.20379829  0.05805232  0.14358708  1
  O  O8  1  0.27085603  0.08909417  0.69217823  1
  O  O9  1  0.28256191  0.83359463  0.43323061  1
  O  O10  1  0.38488196  0.59205932  0.69844985  1
  O  O11  1  0.59634174  0.41260468  0.30937458  1
  O  O12  1  0.70041413  0.16570433  0.56672662  1
  O  O13  1  0.70626832  0.91235862  0.29944464  1
  O  O14  1  0.76081821  0.96973025  0.85896785  1
  O  O15  1  0.84258114  0.66886421  0.56724918  1
  O  O16  1  0.93666666  0.52711062  0.14730687  1
