# generated using pymatgen
data_Li2Mn(SO4)2
_symmetry_space_group_name_H-M   'P 1'
_cell_length_a   5.06074324
_cell_length_b   7.76627946
_cell_length_c   8.44682663
_cell_angle_alpha   90.00000000
_cell_angle_beta   90.00000000
_cell_angle_gamma   93.08188626
_symmetry_Int_Tables_number   1
_chemical_formula_structural   Li2Mn(SO4)2
_chemical_formula_sum   'Li4 Mn2 S4 O16'
_cell_volume   331.50671559
_cell_formula_units_Z   2
loop_
 _symmetry_equiv_pos_site_id
 _symmetry_equiv_pos_as_xyz
  1  'x, y, z'
loop_
 _atom_site_type_symbol
 _atom_site_label
 _atom_site_symmetry_multiplicity
 _atom_site_fract_x
 _atom_site_fract_y
 _atom_site_fract_z
 _atom_site_occupancy
  Li  Li0  1  0.41892414  0.39743688  0.86732759  1
  Li  Li1  1  0.08107586  0.10256312  0.36732759  1
  Li  Li2  1  0.58107586  0.60256312  0.13267241  1
  Li  Li3  1  0.91892414  0.89743688  0.63267241  1
  Mn  Mn4  1  0.50000000  0.50000000  0.50000000  1
  Mn  Mn5  1  -0.00000000  -0.00000000  0.00000000  1
  S  S6  1  0.53052655  0.20442432  0.19671312  1
  S  S7  1  0.96947345  0.29557568  0.69671312  1
  S  S8  1  0.46947345  0.79557568  0.80328688  1
  S  S9  1  0.03052655  0.70442432  0.30328688  1
  O  O10  1  0.52615408  0.35127430  0.08607461  1
  O  O11  1  0.97384592  0.14872570  0.58607461  1
  O  O12  1  0.47384592  0.64872570  0.91392539  1
  O  O13  1  0.02615408  0.85127430  0.41392539  1
  O  O14  1  0.44938949  0.25703875  0.35932463  1
  O  O15  1  0.05061051  0.24296125  0.85932463  1
  O  O16  1  0.55061051  0.74296125  0.64067537  1
  O  O17  1  0.94938949  0.75703875  0.14067537  1
  O  O18  1  0.33765159  0.06214893  0.14728391  1
  O  O19  1  0.16234841  0.43785107  0.64728391  1
  O  O20  1  0.66234841  0.93785107  0.85271609  1
  O  O21  1  0.83765159  0.56214893  0.35271609  1
  O  O22  1  0.80129565  0.13681042  0.20049719  1
  O  O23  1  0.69870435  0.36318958  0.70049719  1
  O  O24  1  0.19870435  0.86318958  0.79950281  1
  O  O25  1  0.30129565  0.63681042  0.29950281  1
