# generated using pymatgen
data_Ho4Zn5Ge6
_symmetry_space_group_name_H-M   'P 1'
_cell_length_a   4.22345444
_cell_length_b   9.56958929
_cell_length_c   15.25947781
_cell_angle_alpha   90.00000000
_cell_angle_beta   90.00000000
_cell_angle_gamma   102.74842489
_symmetry_Int_Tables_number   1
_chemical_formula_structural   Ho4Zn5Ge6
_chemical_formula_sum   'Ho8 Zn10 Ge12'
_cell_volume   601.53451970
_cell_formula_units_Z   2
loop_
 _symmetry_equiv_pos_site_id
 _symmetry_equiv_pos_as_xyz
  1  'x, y, z'
loop_
 _atom_site_type_symbol
 _atom_site_label
 _atom_site_symmetry_multiplicity
 _atom_site_fract_x
 _atom_site_fract_y
 _atom_site_fract_z
 _atom_site_occupancy
  Ho  Ho0  1  0.98158502  0.96317003  0.76373999  1
  Ho  Ho1  1  0.01841498  0.03682997  0.26373999  1
  Ho  Ho2  1  0.82521139  0.65042277  0.31852426  1
  Ho  Ho3  1  0.17478861  0.34957723  0.81852426  1
  Ho  Ho4  1  0.83269158  0.66538316  0.96035080  1
  Ho  Ho5  1  0.16730842  0.33461684  0.46035080  1
  Ho  Ho6  1  0.96687305  0.93374610  0.49980603  1
  Ho  Ho7  1  0.03312695  0.06625390  0.99980603  1
  Zn  Zn8  1  0.65523146  0.31046292  0.99004078  1
  Zn  Zn9  1  0.34476854  0.68953708  0.49004078  1
  Zn  Zn10  1  0.69907434  0.39814869  0.63919901  1
  Zn  Zn11  1  0.30092566  0.60185131  0.13919901  1
  Zn  Zn12  1  0.34995514  0.69991028  0.78257238  1
  Zn  Zn13  1  0.65004486  0.30008972  0.28257238  1
  Zn  Zn14  1  0.84828939  0.69657878  0.63654420  1
  Zn  Zn15  1  0.15171061  0.30342122  0.13654420  1
  Zn  Zn16  1  0.56530577  0.13061153  0.57871816  1
  Zn  Zn17  1  0.43469423  0.86938847  0.07871816  1
  Ge  Ge18  1  0.77157647  0.54315294  0.49814671  1
  Ge  Ge19  1  0.22842353  0.45684706  0.99814671  1
  Ge  Ge20  1  0.56944056  0.13888112  0.85648287  1
  Ge  Ge21  1  0.43055944  0.86111888  0.35648287  1
  Ge  Ge22  1  0.77681292  0.55362585  0.77804708  1
  Ge  Ge23  1  0.22318708  0.44637415  0.27804708  1
  Ge  Ge24  1  0.43994208  0.87988417  0.90909078  1
  Ge  Ge25  1  0.56005792  0.12011583  0.40909078  1
  Ge  Ge26  1  0.43263307  0.86526613  0.63399073  1
  Ge  Ge27  1  0.56736693  0.13473387  0.13399073  1
  Ge  Ge28  1  0.88699370  0.77398739  0.14637622  1
  Ge  Ge29  1  0.11300630  0.22601261  0.64637622  1
