# generated using pymatgen
data_Sr(ErS2)2
_symmetry_space_group_name_H-M   'P 1'
_cell_length_a   3.97035175
_cell_length_b   11.97009885
_cell_length_c   14.28198238
_cell_angle_alpha   90.00000000
_cell_angle_beta   90.00000000
_cell_angle_gamma   90.00000000
_symmetry_Int_Tables_number   1
_chemical_formula_structural   Sr(ErS2)2
_chemical_formula_sum   'Sr4 Er8 S16'
_cell_volume   678.75839526
_cell_formula_units_Z   4
loop_
 _symmetry_equiv_pos_site_id
 _symmetry_equiv_pos_as_xyz
  1  'x, y, z'
loop_
 _atom_site_type_symbol
 _atom_site_label
 _atom_site_symmetry_multiplicity
 _atom_site_fract_x
 _atom_site_fract_y
 _atom_site_fract_z
 _atom_site_occupancy
  Sr  Sr0  1  0.75000000  0.74317874  0.16174384  1
  Sr  Sr1  1  0.75000000  0.24317874  0.33825616  1
  Sr  Sr2  1  0.25000000  0.25682126  0.83825616  1
  Sr  Sr3  1  0.25000000  0.75682126  0.66174384  1
  Er  Er4  1  0.75000000  0.06888867  0.10952312  1
  Er  Er5  1  0.75000000  0.56888867  0.39047688  1
  Er  Er6  1  0.25000000  0.93111133  0.89047688  1
  Er  Er7  1  0.25000000  0.43111133  0.60952312  1
  Er  Er8  1  0.75000000  0.07985705  0.60080334  1
  Er  Er9  1  0.75000000  0.57985705  0.89919666  1
  Er  Er10  1  0.25000000  0.92014295  0.39919666  1
  Er  Er11  1  0.25000000  0.42014295  0.10080334  1
  S  S12  1  0.75000000  0.29190609  0.67246091  1
  S  S13  1  0.75000000  0.79190609  0.82753909  1
  S  S14  1  0.25000000  0.70809391  0.32753909  1
  S  S15  1  0.25000000  0.20809391  0.17246091  1
  S  S16  1  0.75000000  0.37017579  0.97364316  1
  S  S17  1  0.75000000  0.87017579  0.52635684  1
  S  S18  1  0.25000000  0.62982421  0.02635684  1
  S  S19  1  0.25000000  0.12982421  0.47364316  1
  S  S20  1  0.75000000  0.47855591  0.21595180  1
  S  S21  1  0.75000000  0.97855591  0.28404820  1
  S  S22  1  0.25000000  0.52144409  0.78404820  1
  S  S23  1  0.25000000  0.02144409  0.71595180  1
  S  S24  1  0.75000000  0.08409124  0.92179021  1
  S  S25  1  0.75000000  0.58409124  0.57820979  1
  S  S26  1  0.25000000  0.91590876  0.07820979  1
  S  S27  1  0.25000000  0.41590876  0.42179021  1
