# generated using pymatgen
data_Eu3(Ga2Ge3)2
_symmetry_space_group_name_H-M   'P 1'
_cell_length_a   4.46506833
_cell_length_b   10.85576393
_cell_length_c   12.13113504
_cell_angle_alpha   91.54414344
_cell_angle_beta   100.60478338
_cell_angle_gamma   90.00000000
_symmetry_Int_Tables_number   1
_chemical_formula_structural   Eu3(Ga2Ge3)2
_chemical_formula_sum   'Eu6 Ga8 Ge12'
_cell_volume   577.75649180
_cell_formula_units_Z   2
loop_
 _symmetry_equiv_pos_site_id
 _symmetry_equiv_pos_as_xyz
  1  'x, y, z'
loop_
 _atom_site_type_symbol
 _atom_site_label
 _atom_site_symmetry_multiplicity
 _atom_site_fract_x
 _atom_site_fract_y
 _atom_site_fract_z
 _atom_site_occupancy
  Eu  Eu0  1  0.82672243  0.45612625  0.65344486  1
  Eu  Eu1  1  0.17327757  0.54387375  0.34655514  1
  Eu  Eu2  1  0.52302978  0.83162004  0.04605955  1
  Eu  Eu3  1  0.47697022  0.16837996  0.95394045  1
  Eu  Eu4  1  0.35518840  0.89957800  0.71037680  1
  Eu  Eu5  1  0.64481160  0.10042200  0.28962320  1
  Ga  Ga6  1  0.57627222  0.58315855  0.15254444  1
  Ga  Ga7  1  0.42372778  0.41684145  0.84745556  1
  Ga  Ga8  1  0.75976257  0.74254387  0.51952515  1
  Ga  Ga9  1  0.24023743  0.25745613  0.48047485  1
  Ga  Ga10  1  0.93370199  0.72587958  0.86740398  1
  Ga  Ga11  1  0.06629801  0.27412042  0.13259602  1
  Ga  Ga12  1  0.13794036  0.87822734  0.27588071  1
  Ga  Ga13  1  0.86205964  0.12177266  0.72411929  1
  Ge  Ge14  1  0.97509648  0.39705748  0.95019295  1
  Ge  Ge15  1  0.02490352  0.60294252  0.04980705  1
  Ge  Ge16  1  0.77153154  0.97889219  0.54306309  1
  Ge  Ge17  1  0.22846846  0.02110781  0.45693691  1
  Ge  Ge18  1  0.70932803  0.35638606  0.41865606  1
  Ge  Ge19  1  0.29067197  0.64361394  0.58134394  1
  Ge  Ge20  1  0.65195857  0.76336274  0.30391714  1
  Ge  Ge21  1  0.34804143  0.23663726  0.69608286  1
  Ge  Ge22  1  0.39618594  0.63753909  0.79237187  1
  Ge  Ge23  1  0.60381406  0.36246091  0.20762813  1
  Ge  Ge24  1  0.94783519  0.96545665  0.89567037  1
  Ge  Ge25  1  0.05216481  0.03454335  0.10432963  1
