# generated using pymatgen
data_Li2SiF6
_symmetry_space_group_name_H-M   'P 1'
_cell_length_a   4.62967483
_cell_length_b   8.35121275
_cell_length_c   8.35124270
_cell_angle_alpha   120.00012219
_cell_angle_beta   89.99999999
_cell_angle_gamma   89.99834419
_symmetry_Int_Tables_number   1
_chemical_formula_structural   Li2SiF6
_chemical_formula_sum   'Li6 Si3 F18'
_cell_volume   279.62837475
_cell_formula_units_Z   3
loop_
 _symmetry_equiv_pos_site_id
 _symmetry_equiv_pos_as_xyz
  1  'x, y, z'
loop_
 _atom_site_type_symbol
 _atom_site_label
 _atom_site_symmetry_multiplicity
 _atom_site_fract_x
 _atom_site_fract_y
 _atom_site_fract_z
 _atom_site_occupancy
  Li  Li0  1  0.50000182  0.70488390  0.70488899  1
  Li  Li1  1  0.49999818  0.29511610  0.00000508  1
  Li  Li2  1  0.50000000  1.00000000  0.29510641  1
  Li  Li3  1  0.00000575  0.36941527  0.36941275  1
  Li  Li4  1  -0.00000575  0.63058473  -0.00000252  1
  Li  Li5  1  0.00000000  1.00000000  0.63058638  1
  Si  Si6  1  0.00000000  0.00000000  0.00000459  1
  Si  Si7  1  0.48452379  0.33348029  0.66674155  1
  Si  Si8  1  0.51547621  0.66651971  0.33326126  1
  F  F9  1  0.20966385  0.09316079  0.89807867  1
  F  F10  1  0.20965831  0.10190644  0.19508902  1
  F  F11  1  0.20965088  0.80492606  0.90683204  1
  F  F12  1  0.79033615  0.90683921  0.80491788  1
  F  F13  1  0.79034912  0.19507394  0.10190598  1
  F  F14  1  0.79034169  0.89809356  0.09318258  1
  F  F15  1  0.27360679  0.41645036  0.86089946  1
  F  F16  1  0.27355606  0.13903076  0.55550454  1
  F  F17  1  0.27361251  0.44444544  0.58355319  1
  F  F18  1  0.72639321  0.58354964  0.44444911  1
  F  F19  1  0.72638749  0.55555456  0.13910775  1
  F  F20  1  0.72644394  0.86096924  0.41647379  1
  F  F21  1  0.30533084  0.77232188  0.52849575  1
  F  F22  1  0.30539740  0.47154758  0.24384353  1
  F  F23  1  0.30533363  0.75617789  0.22768514  1
  F  F24  1  0.69466916  0.22767812  0.75617387  1
  F  F25  1  0.69466637  0.24382211  0.47150725  1
  F  F26  1  0.69460260  0.52845242  0.77229595  1
