# generated using pymatgen
data_Nb15Ir13Se56
_symmetry_space_group_name_H-M   'P 1'
_cell_length_a   3.65477084
_cell_length_b   3.65477047
_cell_length_c   160.30997615
_cell_angle_alpha   90.00000000
_cell_angle_beta   90.00000000
_cell_angle_gamma   120.00000331
_symmetry_Int_Tables_number   1
_chemical_formula_structural   Nb15Ir13Se56
_chemical_formula_sum   'Nb15 Ir13 Se56'
_cell_volume   1854.43418946
_cell_formula_units_Z   1
loop_
 _symmetry_equiv_pos_site_id
 _symmetry_equiv_pos_as_xyz
  1  'x, y, z'
loop_
 _atom_site_type_symbol
 _atom_site_label
 _atom_site_symmetry_multiplicity
 _atom_site_fract_x
 _atom_site_fract_y
 _atom_site_fract_z
 _atom_site_occupancy
  Nb  Nb0  1  0.00000000  0.00000000  -0.00000586  1
  Nb  Nb1  1  0.00000000  0.00000000  0.07079629  1
  Nb  Nb2  1  0.00000000  0.00000000  0.14283747  1
  Nb  Nb3  1  -0.00000000  -0.00000000  0.17857132  1
  Nb  Nb4  1  -0.00000000  -0.00000000  0.28570316  1
  Nb  Nb5  1  0.00000000  0.00000000  0.32142438  1
  Nb  Nb6  1  0.00000000  0.00000000  0.35714462  1
  Nb  Nb7  1  -0.00000000  -0.00000000  0.39287389  1
  Nb  Nb8  1  -0.00000000  -0.00000000  0.46492317  1
  Nb  Nb9  1  0.00000000  0.00000000  0.60716152  1
  Nb  Nb10  1  0.00000000  0.00000000  0.10706791  1
  Nb  Nb11  1  -0.00000000  0.00000000  0.21428330  1
  Nb  Nb12  1  0.00000000  0.00000000  0.24999930  1
  Nb  Nb13  1  -0.00000000  -0.00000000  0.42866620  1
  Nb  Nb14  1  0.00000000  0.00000000  0.53573128  1
  Ir  Ir15  1  0.00000000  0.00000000  0.03567626  1
  Ir  Ir16  1  -0.00000000  -0.00000000  0.57143212  1
  Ir  Ir17  1  -0.00000000  -0.00000000  0.64329343  1
  Ir  Ir18  1  -0.00000000  -0.00000000  0.67859832  1
  Ir  Ir19  1  -0.00000000  -0.00000000  0.71427764  1
  Ir  Ir20  1  -0.00000000  -0.00000000  0.74998543  1
  Ir  Ir21  1  -0.00000000  -0.00000000  0.78572058  1
  Ir  Ir22  1  0.00000000  0.00000000  0.82141464  1
  Ir  Ir23  1  0.00000000  0.00000000  0.89284294  1
  Ir  Ir24  1  0.00000000  0.00000000  0.92856209  1
  Ir  Ir25  1  0.00000000  0.00000000  0.96387102  1
  Ir  Ir26  1  -0.00000000  -0.00000000  0.50002449  1
  Ir  Ir27  1  0.00000000  0.00000000  0.85712997  1
  Se  Se28  1  0.33333300  0.66666700  0.01002956  1
  Se  Se29  1  0.33333300  0.66666700  0.04394493  1
  Se  Se30  1  0.33333300  0.66666700  0.08072475  1
  Se  Se31  1  0.33333300  0.66666700  0.11694289  1
  Se  Se32  1  0.33333300  0.66666700  0.15269543  1
  Se  Se33  1  0.33333300  0.66666700  0.18842628  1
  Se  Se34  1  0.33333300  0.66666700  0.22413928  1
  Se  Se35  1  0.33333300  0.66666700  0.25985500  1
  Se  Se36  1  0.33333300  0.66666700  0.29555842  1
  Se  Se37  1  0.33333300  0.66666700  0.36700362  1
  Se  Se38  1  0.33333300  0.66666700  0.33128287  1
  Se  Se39  1  0.33333300  0.66666700  0.40274129  1
  Se  Se40  1  0.33333300  0.66666700  0.43854123  1
  Se  Se41  1  0.33333300  0.66666700  0.47489208  1
  Se  Se42  1  0.33333300  0.66666700  0.54575338  1
  Se  Se43  1  0.33333300  0.66666700  0.50832480  1
  Se  Se44  1  0.33333300  0.66666700  0.57972976  1
  Se  Se45  1  0.33333300  0.66666700  0.61717448  1
  Se  Se46  1  0.33333300  0.66666700  0.65162459  1
  Se  Se47  1  0.33333300  0.66666700  0.72266881  1
  Se  Se48  1  0.33333300  0.66666700  0.68696985  1
  Se  Se49  1  0.33333300  0.66666700  0.75837819  1
  Se  Se50  1  0.33333300  0.66666700  0.79411520  1
  Se  Se51  1  0.33333300  0.66666700  0.82981612  1
  Se  Se52  1  0.33333300  0.66666700  0.86553682  1
  Se  Se53  1  0.33333300  0.66666700  0.90124857  1
  Se  Se54  1  0.33333300  0.66666700  0.93699038  1
  Se  Se55  1  0.33333300  0.66666700  0.97222487  1
  Se  Se56  1  0.66666700  0.33333300  0.02737253  1
  Se  Se57  1  0.66666700  0.33333300  0.06082101  1
  Se  Se58  1  0.66666700  0.33333300  0.09718844  1
  Se  Se59  1  0.66666700  0.33333300  0.13298169  1
  Se  Se60  1  0.66666700  0.33333300  0.16871477  1
  Se  Se61  1  0.66666700  0.33333300  0.20442633  1
  Se  Se62  1  0.66666700  0.33333300  0.24014392  1
  Se  Se63  1  0.66666700  0.33333300  0.27584636  1
  Se  Se64  1  0.66666700  0.33333300  0.34728877  1
  Se  Se65  1  0.66666700  0.33333300  0.31156965  1
  Se  Se66  1  0.66666700  0.33333300  0.38300687  1
  Se  Se67  1  0.66666700  0.33333300  0.41879293  1
  Se  Se68  1  0.66666700  0.33333300  0.52570793  1
  Se  Se69  1  0.66666700  0.33333300  0.49175773  1
  Se  Se70  1  0.66666700  0.33333300  0.45499906  1
  Se  Se71  1  0.66666700  0.33333300  0.56312994  1
  Se  Se72  1  0.66666700  0.33333300  0.59713208  1
  Se  Se73  1  0.66666700  0.33333300  0.63493930  1
  Se  Se74  1  0.66666700  0.33333300  0.70587122  1
  Se  Se75  1  0.66666700  0.33333300  0.67016878  1
  Se  Se76  1  0.66666700  0.33333300  0.74158210  1
  Se  Se77  1  0.66666700  0.33333300  0.77732199  1
  Se  Se78  1  0.66666700  0.33333300  0.81301823  1
  Se  Se79  1  0.66666700  0.33333300  0.84873532  1
  Se  Se80  1  0.66666700  0.33333300  0.92018469  1
  Se  Se81  1  0.66666700  0.33333300  0.88444634  1
  Se  Se82  1  0.66666700  0.33333300  0.95553116  1
  Se  Se83  1  0.66666700  0.33333300  0.98998055  1
