# generated using pymatgen
data_Ca(ErS2)2
_symmetry_space_group_name_H-M   'P 1'
_cell_length_a   3.87222238
_cell_length_b   12.87970440
_cell_length_c   13.10979080
_cell_angle_alpha   90.00000000
_cell_angle_beta   90.00000000
_cell_angle_gamma   90.00000000
_symmetry_Int_Tables_number   1
_chemical_formula_structural   Ca(ErS2)2
_chemical_formula_sum   'Ca4 Er8 S16'
_cell_volume   653.82564044
_cell_formula_units_Z   4
loop_
 _symmetry_equiv_pos_site_id
 _symmetry_equiv_pos_as_xyz
  1  'x, y, z'
loop_
 _atom_site_type_symbol
 _atom_site_label
 _atom_site_symmetry_multiplicity
 _atom_site_fract_x
 _atom_site_fract_y
 _atom_site_fract_z
 _atom_site_occupancy
  Ca  Ca0  1  0.75000000  0.13071606  0.92196965  1
  Ca  Ca1  1  0.75000000  0.63071606  0.57803035  1
  Ca  Ca2  1  0.25000000  0.86928394  0.07803035  1
  Ca  Ca3  1  0.25000000  0.36928394  0.42196965  1
  Er  Er4  1  0.75000000  0.39317914  0.08430332  1
  Er  Er5  1  0.75000000  0.89317914  0.41569668  1
  Er  Er6  1  0.25000000  0.60682086  0.91569668  1
  Er  Er7  1  0.25000000  0.10682086  0.58430332  1
  Er  Er8  1  0.75000000  0.35269937  0.70367416  1
  Er  Er9  1  0.75000000  0.85269937  0.79632584  1
  Er  Er10  1  0.25000000  0.64730063  0.29632584  1
  Er  Er11  1  0.25000000  0.14730063  0.20367416  1
  S  S12  1  0.75000000  0.28292507  0.26234768  1
  S  S13  1  0.75000000  0.78292507  0.23765232  1
  S  S14  1  0.25000000  0.71707493  0.73765232  1
  S  S15  1  0.25000000  0.21707493  0.76234768  1
  S  S16  1  0.75000000  0.24183508  0.52695833  1
  S  S17  1  0.75000000  0.74183508  0.97304167  1
  S  S18  1  0.25000000  0.75816492  0.47304167  1
  S  S19  1  0.25000000  0.25816492  0.02695833  1
  S  S20  1  0.75000000  0.02995150  0.11839229  1
  S  S21  1  0.75000000  0.52995150  0.38160771  1
  S  S22  1  0.25000000  0.97004850  0.88160771  1
  S  S23  1  0.25000000  0.47004850  0.61839229  1
  S  S24  1  0.75000000  0.46607021  0.88252588  1
  S  S25  1  0.75000000  0.96607021  0.61747412  1
  S  S26  1  0.25000000  0.53392979  0.11747412  1
  S  S27  1  0.25000000  0.03392979  0.38252588  1
