# generated using pymatgen
data_Cs2MoO4
_symmetry_space_group_name_H-M   'P 1'
_cell_length_a   6.67968770
_cell_length_b   8.64794707
_cell_length_c   11.82829970
_cell_angle_alpha   90.00000000
_cell_angle_beta   90.00000000
_cell_angle_gamma   90.00000000
_symmetry_Int_Tables_number   1
_chemical_formula_structural   Cs2MoO4
_chemical_formula_sum   'Cs8 Mo4 O16'
_cell_volume   683.26865969
_cell_formula_units_Z   4
loop_
 _symmetry_equiv_pos_site_id
 _symmetry_equiv_pos_as_xyz
  1  'x, y, z'
loop_
 _atom_site_type_symbol
 _atom_site_label
 _atom_site_symmetry_multiplicity
 _atom_site_fract_x
 _atom_site_fract_y
 _atom_site_fract_z
 _atom_site_occupancy
  Cs  Cs0  1  0.25000000  0.17220862  0.08533021  1
  Cs  Cs1  1  0.25000000  0.67220862  0.41466979  1
  Cs  Cs2  1  0.75000000  0.82779138  0.91466979  1
  Cs  Cs3  1  0.75000000  0.32779138  0.58533021  1
  Cs  Cs4  1  0.25000000  0.49086712  0.79253214  1
  Cs  Cs5  1  0.25000000  0.99086712  0.70746786  1
  Cs  Cs6  1  0.75000000  0.50913288  0.20746786  1
  Cs  Cs7  1  0.75000000  0.00913288  0.29253214  1
  Mo  Mo8  1  0.25000000  0.72584079  0.07924552  1
  Mo  Mo9  1  0.25000000  0.22584079  0.42075448  1
  Mo  Mo10  1  0.75000000  0.27415921  0.92075448  1
  Mo  Mo11  1  0.75000000  0.77415921  0.57924552  1
  O  O12  1  0.25000000  0.51874837  0.08160909  1
  O  O13  1  0.25000000  0.01874837  0.41839091  1
  O  O14  1  0.75000000  0.48125163  0.91839091  1
  O  O15  1  0.75000000  0.98125163  0.58160909  1
  O  O16  1  0.25000000  0.79477051  0.93503736  1
  O  O17  1  0.25000000  0.29477051  0.56496264  1
  O  O18  1  0.75000000  0.20522949  0.06496264  1
  O  O19  1  0.75000000  0.70522949  0.43503736  1
  O  O20  1  0.02916522  0.79781247  0.14944821  1
  O  O21  1  0.47083478  0.29781247  0.35055179  1
  O  O22  1  0.52916522  0.20218753  0.85055179  1
  O  O23  1  0.97083478  0.70218753  0.64944821  1
  O  O24  1  0.97083478  0.20218753  0.85055179  1
  O  O25  1  0.52916522  0.70218753  0.64944821  1
  O  O26  1  0.47083478  0.79781247  0.14944821  1
  O  O27  1  0.02916522  0.29781247  0.35055179  1
