# generated using pymatgen
data_Ce(Al5Fe)2
_symmetry_space_group_name_H-M   'P 1'
_cell_length_a   6.77209873
_cell_length_b   6.77209873
_cell_length_c   8.95486242
_cell_angle_alpha   90.00000000
_cell_angle_beta   90.00000000
_cell_angle_gamma   97.71944815
_symmetry_Int_Tables_number   1
_chemical_formula_structural   Ce(Al5Fe)2
_chemical_formula_sum   'Ce2 Al20 Fe4'
_cell_volume   406.96008435
_cell_formula_units_Z   2
loop_
 _symmetry_equiv_pos_site_id
 _symmetry_equiv_pos_as_xyz
  1  'x, y, z'
loop_
 _atom_site_type_symbol
 _atom_site_label
 _atom_site_symmetry_multiplicity
 _atom_site_fract_x
 _atom_site_fract_y
 _atom_site_fract_z
 _atom_site_occupancy
  Ce  Ce0  1  0.87655522  0.12344478  0.75000000  1
  Ce  Ce1  1  0.12344478  0.87655522  0.25000000  1
  Al  Al2  1  0.86704132  0.58837553  0.75000000  1
  Al  Al3  1  0.58837553  0.86704132  0.25000000  1
  Al  Al4  1  0.13295868  0.41162447  0.25000000  1
  Al  Al5  1  0.41162447  0.13295868  0.75000000  1
  Al  Al6  1  0.22179614  0.47834441  0.75000000  1
  Al  Al7  1  0.47834441  0.22179614  0.25000000  1
  Al  Al8  1  0.77820386  0.52165559  0.25000000  1
  Al  Al9  1  0.52165559  0.77820386  0.75000000  1
  Al  Al10  1  0.83903923  0.16096077  0.09850786  1
  Al  Al11  1  0.16096077  0.83903923  0.90149214  1
  Al  Al12  1  0.83903923  0.16096077  0.40149214  1
  Al  Al13  1  0.16096077  0.83903923  0.59850786  1
  Al  Al14  1  0.62416927  0.37583073  0.55190141  1
  Al  Al15  1  0.37583073  0.62416927  0.44809859  1
  Al  Al16  1  0.62416927  0.37583073  0.94809859  1
  Al  Al17  1  0.37583073  0.62416927  0.05190141  1
  Al  Al18  1  0.22755076  0.22755076  0.50000000  1
  Al  Al19  1  0.22755076  0.22755076  -0.00000000  1
  Al  Al20  1  0.77244924  0.77244924  0.50000000  1
  Al  Al21  1  0.77244924  0.77244924  -0.00000000  1
  Fe  Fe22  1  0.00000000  0.50000000  0.50000000  1
  Fe  Fe23  1  0.50000000  0.00000000  0.50000000  1
  Fe  Fe24  1  0.00000000  0.50000000  0.00000000  1
  Fe  Fe25  1  0.50000000  0.00000000  0.00000000  1
