# generated using pymatgen
data_ErBO3
_symmetry_space_group_name_H-M   'P 1'
_cell_length_a   6.52705350
_cell_length_b   6.52705350
_cell_length_c   9.57116636
_cell_angle_alpha   70.41551038
_cell_angle_beta   70.41551038
_cell_angle_gamma   60.08312953
_symmetry_Int_Tables_number   1
_chemical_formula_structural   ErBO3
_chemical_formula_sum   'Er6 B6 O18'
_cell_volume   325.85110318
_cell_formula_units_Z   6
loop_
 _symmetry_equiv_pos_site_id
 _symmetry_equiv_pos_as_xyz
  1  'x, y, z'
loop_
 _atom_site_type_symbol
 _atom_site_label
 _atom_site_symmetry_multiplicity
 _atom_site_fract_x
 _atom_site_fract_y
 _atom_site_fract_z
 _atom_site_occupancy
  Er  Er0  1  -0.00000000  0.50000000  0.50000000  1
  Er  Er1  1  0.50000000  0.00000000  0.00000000  1
  Er  Er2  1  0.82969594  0.34132432  0.00063939  1
  Er  Er3  1  0.65867568  0.17030406  0.49936061  1
  Er  Er4  1  0.17030406  0.65867568  0.99936061  1
  Er  Er5  1  0.34132432  0.82969594  0.50063939  1
  B  B6  1  0.08219804  0.15899545  0.25318699  1
  B  B7  1  0.84100455  0.91780196  0.24681301  1
  B  B8  1  0.91780196  0.84100455  0.74681301  1
  B  B9  1  0.15899545  0.08219804  0.75318699  1
  B  B10  1  0.32544787  0.67455213  0.25000000  1
  B  B11  1  0.67455213  0.32544787  0.75000000  1
  O  O12  1  0.03361367  0.21791558  0.39821025  1
  O  O13  1  0.78208442  0.96638633  0.10178975  1
  O  O14  1  0.96638633  0.78208442  0.60178975  1
  O  O15  1  0.21791558  0.03361367  0.89821025  1
  O  O16  1  0.12984216  0.31645969  0.11124442  1
  O  O17  1  0.68354031  0.87015784  0.38875558  1
  O  O18  1  0.87015784  0.68354031  0.88875558  1
  O  O19  1  0.31645969  0.12984216  0.61124442  1
  O  O20  1  0.48295384  0.61396506  0.10762593  1
  O  O21  1  0.38603494  0.51704616  0.39237407  1
  O  O22  1  0.51704616  0.38603494  0.89237407  1
  O  O23  1  0.61396506  0.48295384  0.60762593  1
  O  O24  1  0.08326746  0.69841845  0.24818807  1
  O  O25  1  0.30158155  0.91673254  0.25181193  1
  O  O26  1  0.91673254  0.30158155  0.75181193  1
  O  O27  1  0.69841845  0.08326746  0.74818807  1
  O  O28  1  0.86362067  0.13637933  0.25000000  1
  O  O29  1  0.13637933  0.86362067  0.75000000  1
