# generated using pymatgen
data_Sr(TbS2)2
_symmetry_space_group_name_H-M   'P 1'
_cell_length_a   4.01790547
_cell_length_b   12.11005173
_cell_length_c   14.44611787
_cell_angle_alpha   90.00000000
_cell_angle_beta   90.00000000
_cell_angle_gamma   90.00000000
_symmetry_Int_Tables_number   1
_chemical_formula_structural   Sr(TbS2)2
_chemical_formula_sum   'Sr4 Tb8 S16'
_cell_volume   702.90537965
_cell_formula_units_Z   4
loop_
 _symmetry_equiv_pos_site_id
 _symmetry_equiv_pos_as_xyz
  1  'x, y, z'
loop_
 _atom_site_type_symbol
 _atom_site_label
 _atom_site_symmetry_multiplicity
 _atom_site_fract_x
 _atom_site_fract_y
 _atom_site_fract_z
 _atom_site_occupancy
  Sr  Sr0  1  0.75000000  0.73971731  0.16389883  1
  Sr  Sr1  1  0.75000000  0.23971731  0.33610117  1
  Sr  Sr2  1  0.25000000  0.26028269  0.83610117  1
  Sr  Sr3  1  0.25000000  0.76028269  0.66389883  1
  Tb  Tb4  1  0.75000000  0.06450371  0.11023822  1
  Tb  Tb5  1  0.75000000  0.56450371  0.38976178  1
  Tb  Tb6  1  0.25000000  0.93549629  0.88976178  1
  Tb  Tb7  1  0.25000000  0.43549629  0.61023822  1
  Tb  Tb8  1  0.75000000  0.08371399  0.59974761  1
  Tb  Tb9  1  0.75000000  0.58371399  0.90025239  1
  Tb  Tb10  1  0.25000000  0.91628601  0.40025239  1
  Tb  Tb11  1  0.25000000  0.41628601  0.09974761  1
  S  S12  1  0.75000000  0.29570233  0.67451891  1
  S  S13  1  0.75000000  0.79570233  0.82548109  1
  S  S14  1  0.25000000  0.70429767  0.32548109  1
  S  S15  1  0.25000000  0.20429767  0.17451891  1
  S  S16  1  0.75000000  0.37077370  0.97061438  1
  S  S17  1  0.75000000  0.87077370  0.52938562  1
  S  S18  1  0.25000000  0.62922630  0.02938562  1
  S  S19  1  0.25000000  0.12922630  0.47061438  1
  S  S20  1  0.75000000  0.47302470  0.21568597  1
  S  S21  1  0.75000000  0.97302470  0.28431403  1
  S  S22  1  0.25000000  0.52697530  0.78431403  1
  S  S23  1  0.25000000  0.02697530  0.71568597  1
  S  S24  1  0.75000000  0.08771675  0.92197039  1
  S  S25  1  0.75000000  0.58771675  0.57802961  1
  S  S26  1  0.25000000  0.91228325  0.07802961  1
  S  S27  1  0.25000000  0.41228325  0.42197039  1
