# generated using pymatgen
data_Ag5HgSbO6
_symmetry_space_group_name_H-M   'P 1'
_cell_length_a   6.04180563
_cell_length_b   6.04434581
_cell_length_c   12.55737546
_cell_angle_alpha   89.99434214
_cell_angle_beta   90.00283013
_cell_angle_gamma   120.01391517
_symmetry_Int_Tables_number   1
_chemical_formula_structural   Ag5HgSbO6
_chemical_formula_sum   'Ag10 Hg2 Sb2 O12'
_cell_volume   397.08606728
_cell_formula_units_Z   2
loop_
 _symmetry_equiv_pos_site_id
 _symmetry_equiv_pos_as_xyz
  1  'x, y, z'
loop_
 _atom_site_type_symbol
 _atom_site_label
 _atom_site_symmetry_multiplicity
 _atom_site_fract_x
 _atom_site_fract_y
 _atom_site_fract_z
 _atom_site_occupancy
  Ag  Ag0  1  0.00005666  0.00001539  0.62168010  1
  Ag  Ag1  1  0.99994334  0.99995873  0.12168010  1
  Ag  Ag2  1  0.99994334  -0.00001539  0.37831990  1
  Ag  Ag3  1  0.00005666  0.00004127  0.87831990  1
  Ag  Ag4  1  0.50000000  0.50000000  0.50000000  1
  Ag  Ag5  1  0.50000000  -0.00000000  0.50000000  1
  Ag  Ag6  1  -0.00000000  0.50000000  0.50000000  1
  Ag  Ag7  1  0.50000000  -0.00000000  -0.00000000  1
  Ag  Ag8  1  -0.00000000  0.50000000  -0.00000000  1
  Ag  Ag9  1  0.50000000  0.50000000  -0.00000000  1
  Hg  Hg10  1  0.66661806  0.33330903  0.75000000  1
  Hg  Hg11  1  0.33338194  0.66669097  0.25000000  1
  Sb  Sb12  1  0.33341415  0.66670707  0.75000000  1
  Sb  Sb13  1  0.66658585  0.33329293  0.25000000  1
  O  O14  1  0.34893623  0.39518999  0.65786243  1
  O  O15  1  0.60488749  0.95384225  0.65801348  1
  O  O16  1  0.04633758  0.65125197  0.65800363  1
  O  O17  1  0.65106377  0.04625376  0.15786243  1
  O  O18  1  0.95366242  0.60491440  0.15800363  1
  O  O19  1  0.39511251  0.34895476  0.15801348  1
  O  O20  1  0.65106377  0.60481001  0.34213757  1
  O  O21  1  0.39511251  0.04615775  0.34198652  1
  O  O22  1  0.95366242  0.34874803  0.34199637  1
  O  O23  1  0.34893623  0.95374624  0.84213757  1
  O  O24  1  0.04633758  0.39508560  0.84199637  1
  O  O25  1  0.60488749  0.65104524  0.84198652  1
