# generated using pymatgen
data_Fe3B7IO13
_symmetry_space_group_name_H-M   'P 1'
_cell_length_a   8.77187730
_cell_length_b   8.76586199
_cell_length_c   8.77187730
_cell_angle_alpha   59.97729994
_cell_angle_beta   59.99999398
_cell_angle_gamma   59.97729994
_symmetry_Int_Tables_number   1
_chemical_formula_structural   Fe3B7IO13
_chemical_formula_sum   'Fe6 B14 I2 O26'
_cell_volume   476.77734478
_cell_formula_units_Z   2
loop_
 _symmetry_equiv_pos_site_id
 _symmetry_equiv_pos_as_xyz
  1  'x, y, z'
loop_
 _atom_site_type_symbol
 _atom_site_label
 _atom_site_symmetry_multiplicity
 _atom_site_fract_x
 _atom_site_fract_y
 _atom_site_fract_z
 _atom_site_occupancy
  Fe  Fe0  1  0.50217858  0.02862606  0.96644014  1
  Fe  Fe1  1  0.96644014  0.02862606  0.50275522  1
  Fe  Fe2  1  0.50275522  0.02862606  0.50217858  1
  Fe  Fe3  1  0.00217858  0.52862606  0.00275522  1
  Fe  Fe4  1  0.00275522  0.52862606  0.46644014  1
  Fe  Fe5  1  0.46644014  0.52862606  0.00217858  1
  B  B6  1  0.73929441  0.28494891  0.74171802  1
  B  B7  1  0.74171802  0.28494891  0.23403867  1
  B  B8  1  0.23403867  0.28494891  0.73929441  1
  B  B9  1  0.23929441  0.78494891  0.73403867  1
  B  B10  1  0.73403867  0.78494891  0.24171802  1
  B  B11  1  0.24171802  0.78494891  0.23929441  1
  B  B12  1  0.41399618  0.45063928  0.71849517  1
  B  B13  1  0.71849517  0.45063928  0.41686937  1
  B  B14  1  0.41686937  0.45063928  0.41399618  1
  B  B15  1  0.91399618  0.95063928  0.91686937  1
  B  B16  1  0.91686937  0.95063928  0.21849517  1
  B  B17  1  0.21849517  0.95063928  0.91399618  1
  B  B18  1  0.88631900  0.34104301  0.88631900  1
  B  B19  1  0.38631900  0.84104301  0.38631900  1
  I  I20  1  0.73209858  0.80370426  0.73209858  1
  I  I21  1  0.23209858  0.30370426  0.23209858  1
  O  O22  1  0.50080786  0.49757642  0.50080786  1
  O  O23  1  0.00080786  0.99757642  0.00080786  1
  O  O24  1  0.78322023  0.42227469  0.55550098  1
  O  O25  1  0.55550098  0.42227469  0.23900410  1
  O  O26  1  0.23900410  0.42227469  0.78322023  1
  O  O27  1  0.28322023  0.92227469  0.73900410  1
  O  O28  1  0.73900410  0.92227469  0.05550098  1
  O  O29  1  0.05550098  0.92227469  0.28322023  1
  O  O30  1  0.88360547  0.10124644  0.74563006  1
  O  O31  1  0.74563006  0.10124644  0.26951802  1
  O  O32  1  0.26951802  0.10124644  0.88360547  1
  O  O33  1  0.38360547  0.60124644  0.76951802  1
  O  O34  1  0.76951802  0.60124644  0.24563006  1
  O  O35  1  0.24563006  0.60124644  0.38360547  1
  O  O36  1  0.87897307  0.35199275  0.04229937  1
  O  O37  1  0.04229937  0.35199275  0.72673480  1
  O  O38  1  0.72673480  0.35199275  0.87897307  1
  O  O39  1  0.37897307  0.85199275  0.22673480  1
  O  O40  1  0.22673480  0.85199275  0.54229937  1
  O  O41  1  0.54229937  0.85199275  0.37897307  1
  O  O42  1  0.55267545  0.27667731  0.79784736  1
  O  O43  1  0.79784736  0.27667731  0.37279988  1
  O  O44  1  0.37279988  0.27667731  0.55267545  1
  O  O45  1  0.05267545  0.77667731  0.87279988  1
  O  O46  1  0.87279988  0.77667731  0.29784736  1
  O  O47  1  0.29784736  0.77667731  0.05267545  1
