# generated using pymatgen
data_Dy2SeOF2
_symmetry_space_group_name_H-M   'P 1'
_cell_length_a   3.74213934
_cell_length_b   13.43104247
_cell_length_c   13.43104246
_cell_angle_alpha   119.99999809
_cell_angle_beta   90.00000000
_cell_angle_gamma   90.00000000
_symmetry_Int_Tables_number   1
_chemical_formula_structural   Dy2SeOF2
_chemical_formula_sum   'Dy12 Se6 O6 F12'
_cell_volume   584.61511396
_cell_formula_units_Z   6
loop_
 _symmetry_equiv_pos_site_id
 _symmetry_equiv_pos_as_xyz
  1  'x, y, z'
loop_
 _atom_site_type_symbol
 _atom_site_label
 _atom_site_symmetry_multiplicity
 _atom_site_fract_x
 _atom_site_fract_y
 _atom_site_fract_z
 _atom_site_occupancy
  Dy  Dy0  1  0.75000000  0.60208588  0.48558206  1
  Dy  Dy1  1  0.75000000  0.51441794  0.11650382  1
  Dy  Dy2  1  0.75000000  0.88349618  0.39791412  1
  Dy  Dy3  1  0.25000000  0.39791412  0.51441794  1
  Dy  Dy4  1  0.25000000  0.48558206  0.88349618  1
  Dy  Dy5  1  0.25000000  0.11650382  0.60208588  1
  Dy  Dy6  1  0.75000000  0.94480661  0.71096546  1
  Dy  Dy7  1  0.75000000  0.28903454  0.23384115  1
  Dy  Dy8  1  0.75000000  0.76615885  0.05519339  1
  Dy  Dy9  1  0.25000000  0.05519339  0.28903454  1
  Dy  Dy10  1  0.25000000  0.71096546  0.76615885  1
  Dy  Dy11  1  0.25000000  0.23384115  0.94480661  1
  Se  Se12  1  0.75000000  0.28094767  0.79359653  1
  Se  Se13  1  0.75000000  0.20640347  0.48735114  1
  Se  Se14  1  0.75000000  0.51264886  0.71905233  1
  Se  Se15  1  0.25000000  0.71905233  0.20640347  1
  Se  Se16  1  0.25000000  0.79359653  0.51264886  1
  Se  Se17  1  0.25000000  0.48735114  0.28094767  1
  O  O18  1  0.75000000  0.01424829  0.58761930  1
  O  O19  1  0.75000000  0.41238070  0.42662899  1
  O  O20  1  0.75000000  0.57337101  0.98575171  1
  O  O21  1  0.25000000  0.98575171  0.41238070  1
  O  O22  1  0.25000000  0.58761930  0.57337101  1
  O  O23  1  0.25000000  0.42662899  0.01424829  1
  F  F24  1  0.75000000  0.10598880  0.89878396  1
  F  F25  1  0.75000000  0.10121604  0.20720484  1
  F  F26  1  0.75000000  0.79279516  0.89401120  1
  F  F27  1  0.25000000  0.89401120  0.10121604  1
  F  F28  1  0.25000000  0.89878396  0.79279516  1
  F  F29  1  0.25000000  0.20720484  0.10598880  1
  F  F30  1  0.75000000  0.75247812  0.68580997  1
  F  F31  1  0.75000000  0.31419003  0.06666815  1
  F  F32  1  0.75000000  0.93333185  0.24752188  1
  F  F33  1  0.25000000  0.24752188  0.31419003  1
  F  F34  1  0.25000000  0.68580997  0.93333185  1
  F  F35  1  0.25000000  0.06666815  0.75247812  1
