# generated using pymatgen
data_PdPb2Se2(ClO3)2
_symmetry_space_group_name_H-M   'P 1'
_cell_length_a   5.34615249
_cell_length_b   8.54043447
_cell_length_c   10.98388216
_cell_angle_alpha   95.03074067
_cell_angle_beta   90.00000000
_cell_angle_gamma   90.00000000
_symmetry_Int_Tables_number   1
_chemical_formula_structural   PdPb2Se2(ClO3)2
_chemical_formula_sum   'Pd2 Pb4 Se4 Cl4 O12'
_cell_volume   499.57529007
_cell_formula_units_Z   2
loop_
 _symmetry_equiv_pos_site_id
 _symmetry_equiv_pos_as_xyz
  1  'x, y, z'
loop_
 _atom_site_type_symbol
 _atom_site_label
 _atom_site_symmetry_multiplicity
 _atom_site_fract_x
 _atom_site_fract_y
 _atom_site_fract_z
 _atom_site_occupancy
  Pd  Pd0  1  0.50000000  0.50000000  0.00000000  1
  Pd  Pd1  1  0.00000000  0.00000000  0.50000000  1
  Pb  Pb2  1  0.44422157  0.03141667  0.19520168  1
  Pb  Pb3  1  0.94422157  0.46858333  0.30479832  1
  Pb  Pb4  1  0.55577843  0.96858333  0.80479832  1
  Pb  Pb5  1  0.05577843  0.53141667  0.69520168  1
  Se  Se6  1  0.96268708  0.23481419  0.02311274  1
  Se  Se7  1  0.46268708  0.26518581  0.47688726  1
  Se  Se8  1  0.03731292  0.76518581  0.97688726  1
  Se  Se9  1  0.53731292  0.73481419  0.52311274  1
  Cl  Cl10  1  0.92876535  0.86795011  0.30912501  1
  Cl  Cl11  1  0.42876535  0.63204989  0.19087499  1
  Cl  Cl12  1  0.07123465  0.13204989  0.69087499  1
  Cl  Cl13  1  0.57123465  0.36795011  0.80912501  1
  O  O14  1  0.12167153  0.22270331  0.15995978  1
  O  O15  1  0.62167153  0.27729669  0.34004022  1
  O  O16  1  0.87832847  0.77729669  0.84004022  1
  O  O17  1  0.37832847  0.72270331  0.65995978  1
  O  O18  1  0.79926418  0.40537514  0.07999230  1
  O  O19  1  0.29926418  0.09462486  0.42000770  1
  O  O20  1  0.20073582  0.59462486  0.92000770  1
  O  O21  1  0.70073582  0.90537514  0.57999230  1
  O  O22  1  0.73618734  0.09106891  0.02207814  1
  O  O23  1  0.23618734  0.40893109  0.47792186  1
  O  O24  1  0.26381266  0.90893109  0.97792186  1
  O  O25  1  0.76381266  0.59106891  0.52207814  1
