# generated using pymatgen
data_Nd10As8Au3O10
_symmetry_space_group_name_H-M   'P 1'
_cell_length_a   9.26369243
_cell_length_b   9.26369243
_cell_length_c   9.87175165
_cell_angle_alpha   117.98250957
_cell_angle_beta   117.98250957
_cell_angle_gamma   90.00000000
_symmetry_Int_Tables_number   1
_chemical_formula_structural   Nd10As8Au3O10
_chemical_formula_sum   'Nd10 As8 Au3 O10'
_cell_volume   633.78174049
_cell_formula_units_Z   1
loop_
 _symmetry_equiv_pos_site_id
 _symmetry_equiv_pos_as_xyz
  1  'x, y, z'
loop_
 _atom_site_type_symbol
 _atom_site_label
 _atom_site_symmetry_multiplicity
 _atom_site_fract_x
 _atom_site_fract_y
 _atom_site_fract_z
 _atom_site_occupancy
  Nd  Nd0  1  0.33735921  0.33735921  0.67471841  1
  Nd  Nd1  1  0.66264079  0.66264079  0.32528159  1
  Nd  Nd2  1  0.72546315  0.11974866  0.64979470  1
  Nd  Nd3  1  0.92433155  0.53004603  0.64979470  1
  Nd  Nd4  1  0.53004603  0.72546315  0.64979470  1
  Nd  Nd5  1  0.11974866  0.92433155  0.64979470  1
  Nd  Nd6  1  0.27453685  0.88025134  0.35020530  1
  Nd  Nd7  1  0.07566845  0.46995397  0.35020530  1
  Nd  Nd8  1  0.46995397  0.27453685  0.35020530  1
  Nd  Nd9  1  0.88025134  0.07566845  0.35020530  1
  As  As10  1  0.12851341  0.24757615  -0.00000000  1
  As  As11  1  0.87148659  0.75242385  0.00000000  1
  As  As12  1  0.75242385  0.12851341  0.00000000  1
  As  As13  1  0.24757615  0.87148659  1.00000000  1
  As  As14  1  0.40790686  0.26967684  0.00000000  1
  As  As15  1  0.59209314  0.73032316  1.00000000  1
  As  As16  1  0.73032316  0.40790686  1.00000000  1
  As  As17  1  0.26967684  0.59209314  0.00000000  1
  Au  Au18  1  0.00000000  -0.00000000  -0.00000000  1
  Au  Au19  1  0.50000000  -0.00000000  -0.00000000  1
  Au  Au20  1  0.00000000  0.50000000  -0.00000000  1
  O  O21  1  0.35495312  0.45167620  0.50872232  1
  O  O22  1  0.15376921  0.05704612  0.50872232  1
  O  O23  1  0.05704612  0.35495312  0.50872232  1
  O  O24  1  0.45167620  0.15376921  0.50872232  1
  O  O25  1  0.64504688  0.54832380  0.49127768  1
  O  O26  1  0.84623079  0.94295388  0.49127768  1
  O  O27  1  0.94295388  0.64504688  0.49127768  1
  O  O28  1  0.54832380  0.84623079  0.49127768  1
  O  O29  1  0.75000000  0.25000000  0.50000000  1
  O  O30  1  0.25000000  0.75000000  0.50000000  1
