# generated using pymatgen
data_Al2Ag2Bi2S3Cl8
_symmetry_space_group_name_H-M   'P 1'
_cell_length_a   7.01062354
_cell_length_b   7.01076043
_cell_length_c   22.79432534
_cell_angle_alpha   90.00000000
_cell_angle_beta   90.00000000
_cell_angle_gamma   119.99934902
_symmetry_Int_Tables_number   1
_chemical_formula_structural   Al2Ag2Bi2S3Cl8
_chemical_formula_sum   'Al4 Ag4 Bi4 S6 Cl16'
_cell_volume   970.24630371
_cell_formula_units_Z   2
loop_
 _symmetry_equiv_pos_site_id
 _symmetry_equiv_pos_as_xyz
  1  'x, y, z'
loop_
 _atom_site_type_symbol
 _atom_site_label
 _atom_site_symmetry_multiplicity
 _atom_site_fract_x
 _atom_site_fract_y
 _atom_site_fract_z
 _atom_site_occupancy
  Al  Al0  1  0.33332413  0.66667475  0.08031826  1
  Al  Al1  1  0.33332413  0.66667475  0.41968174  1
  Al  Al2  1  0.66664938  0.33332525  0.58031826  1
  Al  Al3  1  0.66664938  0.33332525  0.91968174  1
  Ag  Ag4  1  0.33333088  0.66666947  0.25000000  1
  Ag  Ag5  1  0.66666141  0.33333053  0.75000000  1
  Ag  Ag6  1  0.99998152  0.99995638  0.25000000  1
  Ag  Ag7  1  0.00002514  0.00004362  0.75000000  1
  Bi  Bi8  1  0.66667280  0.33332700  0.17283695  1
  Bi  Bi9  1  0.66667280  0.33332700  0.32716305  1
  Bi  Bi10  1  0.33334581  0.66667300  0.67283695  1
  Bi  Bi11  1  0.33334581  0.66667300  0.82716305  1
  S  S12  1  0.37983074  0.04786751  0.25000000  1
  S  S13  1  0.66803575  0.62015927  0.25000000  1
  S  S14  1  0.95213682  0.33193833  0.25000000  1
  S  S15  1  0.33196323  0.95213249  0.75000000  1
  S  S16  1  0.04787647  0.37984073  0.75000000  1
  S  S17  1  0.62019849  0.66806167  0.75000000  1
  Cl  Cl18  1  0.33330527  0.66669286  0.98717570  1
  Cl  Cl19  1  0.33330527  0.66669286  0.51282430  1
  Cl  Cl20  1  0.66661242  0.33330714  0.48717570  1
  Cl  Cl21  1  0.66661242  0.33330714  0.01282430  1
  Cl  Cl22  1  0.24855124  0.34529747  0.11610839  1
  Cl  Cl23  1  0.09670973  0.75144603  0.11611460  1
  Cl  Cl24  1  0.65470937  0.90327722  0.11611043  1
  Cl  Cl25  1  0.24855124  0.34529747  0.38389161  1
  Cl  Cl26  1  0.09670973  0.75144603  0.38388540  1
  Cl  Cl27  1  0.65470937  0.90327722  0.38388957  1
  Cl  Cl28  1  0.90325377  0.65470253  0.61610839  1
  Cl  Cl29  1  0.34526370  0.24855397  0.61611460  1
  Cl  Cl30  1  0.75143215  0.09672278  0.61611043  1
  Cl  Cl31  1  0.90325377  0.65470253  0.88389161  1
  Cl  Cl32  1  0.34526370  0.24855397  0.88388540  1
  Cl  Cl33  1  0.75143215  0.09672278  0.88388957  1
