# generated using pymatgen
data_CuHg(SeO3)2
_symmetry_space_group_name_H-M   'P 1'
_cell_length_a   7.53892233
_cell_length_b   7.73782781
_cell_length_c   10.57372562
_cell_angle_alpha   90.00000000
_cell_angle_beta   90.00000000
_cell_angle_gamma   94.84125888
_symmetry_Int_Tables_number   1
_chemical_formula_structural   CuHg(SeO3)2
_chemical_formula_sum   'Cu4 Hg4 Se8 O24'
_cell_volume   614.61645498
_cell_formula_units_Z   4
loop_
 _symmetry_equiv_pos_site_id
 _symmetry_equiv_pos_as_xyz
  1  'x, y, z'
loop_
 _atom_site_type_symbol
 _atom_site_label
 _atom_site_symmetry_multiplicity
 _atom_site_fract_x
 _atom_site_fract_y
 _atom_site_fract_z
 _atom_site_occupancy
  Cu  Cu0  1  0.01893442  0.31647275  0.08303325  1
  Cu  Cu1  1  0.48106558  0.68352725  0.58303325  1
  Cu  Cu2  1  0.98106558  0.68352725  0.91696675  1
  Cu  Cu3  1  0.51893442  0.31647275  0.41696675  1
  Hg  Hg4  1  0.48986213  0.26069429  0.05533541  1
  Hg  Hg5  1  0.01013787  0.73930571  0.55533541  1
  Hg  Hg6  1  0.51013787  0.73930571  0.94466459  1
  Hg  Hg7  1  0.98986213  0.26069429  0.44466459  1
  Se  Se8  1  0.81087886  0.04863593  0.89130605  1
  Se  Se9  1  0.68912114  0.95136407  0.39130605  1
  Se  Se10  1  0.18912114  0.95136407  0.10869395  1
  Se  Se11  1  0.31087886  0.04863593  0.60869395  1
  Se  Se12  1  0.74467715  0.56747418  0.21904964  1
  Se  Se13  1  0.75532285  0.43252582  0.71904964  1
  Se  Se14  1  0.25532285  0.43252582  0.78095036  1
  Se  Se15  1  0.24467715  0.56747418  0.28095036  1
  O  O16  1  0.84157976  0.86701999  0.98493479  1
  O  O17  1  0.65842024  0.13298001  0.48493479  1
  O  O18  1  0.15842024  0.13298001  0.01506521  1
  O  O19  1  0.34157976  0.86701999  0.51506521  1
  O  O20  1  0.58748258  0.00426572  0.85713374  1
  O  O21  1  0.91251742  0.99573428  0.35713374  1
  O  O22  1  0.41251742  0.99573428  0.14286626  1
  O  O23  1  0.08748258  0.00426572  0.64286626  1
  O  O24  1  0.79368201  0.20835071  0.00789378  1
  O  O25  1  0.70631799  0.79164929  0.50789378  1
  O  O26  1  0.20631799  0.79164929  0.99210622  1
  O  O27  1  0.29368201  0.20835071  0.49210622  1
  O  O28  1  0.91985337  0.53807275  0.11713125  1
  O  O29  1  0.58014663  0.46192725  0.61713125  1
  O  O30  1  0.08014663  0.46192725  0.88286875  1
  O  O31  1  0.41985337  0.53807275  0.38286875  1
  O  O32  1  0.71236709  0.36386062  0.28919717  1
  O  O33  1  0.78763291  0.63613938  0.78919717  1
  O  O34  1  0.28763291  0.63613938  0.71080283  1
  O  O35  1  0.21236709  0.36386062  0.21080283  1
  O  O36  1  0.56304794  0.55019262  0.11566211  1
  O  O37  1  0.93695206  0.44980738  0.61566211  1
  O  O38  1  0.43695206  0.44980738  0.88433789  1
  O  O39  1  0.06304794  0.55019262  0.38433789  1
