# generated using pymatgen
data_LiSc(GeO3)2
_symmetry_space_group_name_H-M   'P 1'
_cell_length_a   5.53131573
_cell_length_b   9.22124079
_cell_length_c   9.83326287
_cell_angle_alpha   90.00000000
_cell_angle_beta   102.81008824
_cell_angle_gamma   90.00000000
_symmetry_Int_Tables_number   1
_chemical_formula_structural   LiSc(GeO3)2
_chemical_formula_sum   'Li4 Sc4 Ge8 O24'
_cell_volume   489.06796693
_cell_formula_units_Z   4
loop_
 _symmetry_equiv_pos_site_id
 _symmetry_equiv_pos_as_xyz
  1  'x, y, z'
loop_
 _atom_site_type_symbol
 _atom_site_label
 _atom_site_symmetry_multiplicity
 _atom_site_fract_x
 _atom_site_fract_y
 _atom_site_fract_z
 _atom_site_occupancy
  Li  Li0  1  0.53257384  0.49131085  0.25473494  1
  Li  Li1  1  0.96742616  0.99131085  0.74526506  1
  Li  Li2  1  0.46742616  0.50868915  0.74526506  1
  Li  Li3  1  0.03257384  0.00868915  0.25473494  1
  Sc  Sc4  1  0.46912645  0.14652901  0.74906760  1
  Sc  Sc5  1  0.03087355  0.64652901  0.25093240  1
  Sc  Sc6  1  0.53087355  0.85347099  0.25093240  1
  Sc  Sc7  1  0.96912645  0.35347099  0.74906760  1
  Ge  Ge8  1  0.75489438  0.33897284  0.04930069  1
  Ge  Ge9  1  0.74510562  0.83897284  0.95069931  1
  Ge  Ge10  1  0.24510562  0.66102716  0.95069931  1
  Ge  Ge11  1  0.25489438  0.16102716  0.04930069  1
  Ge  Ge12  1  0.18998568  0.33689875  0.44658910  1
  Ge  Ge13  1  0.31001432  0.83689875  0.55341090  1
  Ge  Ge14  1  0.81001432  0.66310125  0.55341090  1
  Ge  Ge15  1  0.68998568  0.16310125  0.44658910  1
  O  O16  1  0.80957639  0.51174636  0.11920561  1
  O  O17  1  0.69042361  0.01174636  0.88079439  1
  O  O18  1  0.19042361  0.48825364  0.88079439  1
  O  O19  1  0.30957639  0.98825364  0.11920561  1
  O  O20  1  0.68818586  0.32938512  0.86446376  1
  O  O21  1  0.81181414  0.82938512  0.13553624  1
  O  O22  1  0.31181414  0.67061488  0.13553624  1
  O  O23  1  0.18818586  0.17061488  0.86446376  1
  O  O24  1  0.99796160  0.21494499  0.12005722  1
  O  O25  1  0.50203840  0.71494499  0.87994278  1
  O  O26  1  0.00203840  0.78505501  0.87994278  1
  O  O27  1  0.49796160  0.28505501  0.12005722  1
  O  O28  1  0.25721477  0.49535045  0.36687350  1
  O  O29  1  0.24278523  0.99535045  0.63312650  1
  O  O30  1  0.74278523  0.50464955  0.63312650  1
  O  O31  1  0.75721477  0.00464955  0.36687350  1
  O  O32  1  0.25230178  0.33174808  0.63251299  1
  O  O33  1  0.24769822  0.83174808  0.36748701  1
  O  O34  1  0.74769822  0.66825192  0.36748701  1
  O  O35  1  0.75230178  0.16825192  0.63251299  1
  O  O36  1  0.86138933  0.30803230  0.39050768  1
  O  O37  1  0.63861067  0.80803230  0.60949232  1
  O  O38  1  0.13861067  0.69196770  0.60949232  1
  O  O39  1  0.36138933  0.19196770  0.39050768  1
