# generated using pymatgen
data_K8NbSnAs5
_symmetry_space_group_name_H-M   'P 1'
_cell_length_a   9.51921780
_cell_length_b   13.59332842
_cell_length_c   16.61705378
_cell_angle_alpha   94.93641656
_cell_angle_beta   106.64429582
_cell_angle_gamma   90.00000000
_symmetry_Int_Tables_number   1
_chemical_formula_structural   K8NbSnAs5
_chemical_formula_sum   'K32 Nb4 Sn4 As20'
_cell_volume   2051.79459014
_cell_formula_units_Z   4
loop_
 _symmetry_equiv_pos_site_id
 _symmetry_equiv_pos_as_xyz
  1  'x, y, z'
loop_
 _atom_site_type_symbol
 _atom_site_label
 _atom_site_symmetry_multiplicity
 _atom_site_fract_x
 _atom_site_fract_y
 _atom_site_fract_z
 _atom_site_occupancy
  K  K0  1  0.52038646  0.04267013  0.70496265  1
  K  K1  1  0.81542381  0.45732987  0.29503735  1
  K  K2  1  0.47961354  0.95732987  0.29503735  1
  K  K3  1  0.18457619  0.54267013  0.70496265  1
  K  K4  1  0.72217804  0.94536466  0.53085626  1
  K  K5  1  0.19132177  0.55463534  0.46914374  1
  K  K6  1  0.27782196  0.05463534  0.46914374  1
  K  K7  1  0.80867823  0.44536466  0.53085626  1
  K  K8  1  0.60463812  0.79318865  0.87278164  1
  K  K9  1  0.73185649  0.70681135  0.12721836  1
  K  K10  1  0.39536188  0.20681135  0.12721836  1
  K  K11  1  0.26814351  0.29318865  0.87278164  1
  K  K12  1  0.36436010  0.78337839  0.64899688  1
  K  K13  1  0.71536322  0.71662161  0.35100312  1
  K  K14  1  0.63563990  0.21662161  0.35100312  1
  K  K15  1  0.28463678  0.28337839  0.64899688  1
  K  K16  1  0.98569654  0.87994350  0.92207851  1
  K  K17  1  0.06361802  0.62005650  0.07792149  1
  K  K18  1  0.01430346  0.12005650  0.07792149  1
  K  K19  1  0.93638198  0.37994350  0.92207851  1
  K  K20  1  0.92328317  0.10252210  0.76985951  1
  K  K21  1  0.15342366  0.39747790  0.23014049  1
  K  K22  1  0.07671683  0.89747790  0.23014049  1
  K  K23  1  0.84657634  0.60252210  0.76985951  1
  K  K24  1  0.40652765  0.89517682  0.04060312  1
  K  K25  1  0.36592452  0.60482318  0.95939688  1
  K  K26  1  0.59347235  0.10482318  0.95939688  1
  K  K27  1  0.63407548  0.39517682  0.04060312  1
  K  K28  1  0.06824262  0.83152256  0.44789651  1
  K  K29  1  0.62034611  0.66847744  0.55210349  1
  K  K30  1  0.93175738  0.16847744  0.55210349  1
  K  K31  1  0.37965389  0.33152256  0.44789651  1
  Nb  Nb32  1  0.00374496  0.81943652  0.68719936  1
  Nb  Nb33  1  0.31654560  0.68056348  0.31280064  1
  Nb  Nb34  1  0.99625504  0.18056348  0.31280064  1
  Nb  Nb35  1  0.68345440  0.31943652  0.68719936  1
  Sn  Sn36  1  0.28540989  0.96283006  0.81838335  1
  Sn  Sn37  1  0.46702654  0.53716994  0.18161665  1
  Sn  Sn38  1  0.71459011  0.03716994  0.18161665  1
  Sn  Sn39  1  0.53297346  0.46283006  0.81838335  1
  As  As40  1  0.21255409  0.07657802  0.93864150  1
  As  As41  1  0.27391259  0.42342198  0.06135850  1
  As  As42  1  0.78744591  0.92342198  0.06135850  1
  As  As43  1  0.72608741  0.57657802  0.93864150  1
  As  As44  1  0.12209352  0.97368404  0.65044389  1
  As  As45  1  0.47164963  0.52631596  0.34955611  1
  As  As46  1  0.87790648  0.02631596  0.34955611  1
  As  As47  1  0.52835037  0.47368404  0.65044389  1
  As  As48  1  0.97059979  0.68586433  0.57038083  1
  As  As49  1  0.40021897  0.81413567  0.42961917  1
  As  As50  1  0.02940021  0.31413567  0.42961917  1
  As  As51  1  0.59978103  0.18586433  0.57038083  1
  As  As52  1  0.76437661  0.85207266  0.71788245  1
  As  As53  1  0.04649416  0.64792734  0.28211755  1
  As  As54  1  0.23562339  0.14792734  0.28211755  1
  As  As55  1  0.95350584  0.35207266  0.71788245  1
  As  As56  1  0.20169758  0.76698510  0.81525535  1
  As  As57  1  0.38644223  0.73301490  0.18474465  1
  As  As58  1  0.79830242  0.23301490  0.18474465  1
  As  As59  1  0.61355777  0.26698510  0.81525535  1
