# generated using pymatgen
data_KY(TeO3)2
_symmetry_space_group_name_H-M   'P 1'
_cell_length_a   6.09500714
_cell_length_b   8.74077571
_cell_length_c   13.85303869
_cell_angle_alpha   90.00000000
_cell_angle_beta   90.00000000
_cell_angle_gamma   90.00000000
_symmetry_Int_Tables_number   1
_chemical_formula_structural   KY(TeO3)2
_chemical_formula_sum   'K4 Y4 Te8 O24'
_cell_volume   738.02188799
_cell_formula_units_Z   4
loop_
 _symmetry_equiv_pos_site_id
 _symmetry_equiv_pos_as_xyz
  1  'x, y, z'
loop_
 _atom_site_type_symbol
 _atom_site_label
 _atom_site_symmetry_multiplicity
 _atom_site_fract_x
 _atom_site_fract_y
 _atom_site_fract_z
 _atom_site_occupancy
  K  K0  1  0.25000000  0.00370932  0.62902297  1
  K  K1  1  0.25000000  0.49629068  0.12902297  1
  K  K2  1  0.75000000  0.99629068  0.37097703  1
  K  K3  1  0.75000000  0.50370932  0.87097703  1
  Y  Y4  1  0.25000000  0.78868618  0.90850897  1
  Y  Y5  1  0.25000000  0.71131382  0.40850897  1
  Y  Y6  1  0.75000000  0.21131382  0.09149103  1
  Y  Y7  1  0.75000000  0.28868618  0.59149103  1
  Te  Te8  1  0.75000000  0.00396563  0.80280808  1
  Te  Te9  1  0.75000000  0.49603437  0.30280808  1
  Te  Te10  1  0.25000000  0.99603437  0.19719192  1
  Te  Te11  1  0.25000000  0.50396563  0.69719192  1
  Te  Te12  1  0.75000000  0.72061370  0.57856431  1
  Te  Te13  1  0.75000000  0.77938630  0.07856431  1
  Te  Te14  1  0.25000000  0.27938630  0.42143569  1
  Te  Te15  1  0.25000000  0.22061370  0.92143569  1
  O  O16  1  0.98981601  0.86706421  0.79962173  1
  O  O17  1  0.51018399  0.63293579  0.29962173  1
  O  O18  1  0.48981601  0.13293579  0.20037827  1
  O  O19  1  0.01018399  0.36706421  0.70037827  1
  O  O20  1  0.01018399  0.13293579  0.20037827  1
  O  O21  1  0.48981601  0.36706421  0.70037827  1
  O  O22  1  0.51018399  0.86706421  0.79962173  1
  O  O23  1  0.98981601  0.63293579  0.29962173  1
  O  O24  1  0.75000000  0.05483625  0.66937719  1
  O  O25  1  0.75000000  0.44516375  0.16937719  1
  O  O26  1  0.25000000  0.94516375  0.33062281  1
  O  O27  1  0.25000000  0.55483625  0.83062281  1
  O  O28  1  0.98819675  0.80524621  0.50948514  1
  O  O29  1  0.51180325  0.69475379  0.00948514  1
  O  O30  1  0.48819675  0.19475379  0.49051486  1
  O  O31  1  0.01180325  0.30524621  0.99051486  1
  O  O32  1  0.01180325  0.19475379  0.49051486  1
  O  O33  1  0.48819675  0.30524621  0.99051486  1
  O  O34  1  0.51180325  0.80524621  0.50948514  1
  O  O35  1  0.98819675  0.69475379  0.00948514  1
  O  O36  1  0.75000000  0.52307935  0.52278809  1
  O  O37  1  0.75000000  0.97692065  0.02278809  1
  O  O38  1  0.25000000  0.47692065  0.47721191  1
  O  O39  1  0.25000000  0.02307935  0.97721191  1
