# generated using pymatgen
data_BaSc2Si3O10
_symmetry_space_group_name_H-M   'P 1'
_cell_length_a   5.33832790
_cell_length_b   6.65947067
_cell_length_c   12.08429588
_cell_angle_alpha   90.00000000
_cell_angle_beta   90.00000000
_cell_angle_gamma   106.92867246
_symmetry_Int_Tables_number   1
_chemical_formula_structural   BaSc2Si3O10
_chemical_formula_sum   'Ba2 Sc4 Si6 O20'
_cell_volume   410.98649314
_cell_formula_units_Z   2
loop_
 _symmetry_equiv_pos_site_id
 _symmetry_equiv_pos_as_xyz
  1  'x, y, z'
loop_
 _atom_site_type_symbol
 _atom_site_label
 _atom_site_symmetry_multiplicity
 _atom_site_fract_x
 _atom_site_fract_y
 _atom_site_fract_z
 _atom_site_occupancy
  Ba  Ba0  1  0.23912326  0.97785425  0.75000000  1
  Ba  Ba1  1  0.76087674  0.02214575  0.25000000  1
  Sc  Sc2  1  0.84623433  0.32221921  0.60093305  1
  Sc  Sc3  1  0.15376567  0.67778079  0.10093305  1
  Sc  Sc4  1  0.15376567  0.67778079  0.39906695  1
  Sc  Sc5  1  0.84623433  0.32221921  0.89906695  1
  Si  Si6  1  0.42856446  0.51336305  0.75000000  1
  Si  Si7  1  0.57143554  0.48663695  0.25000000  1
  Si  Si8  1  0.69818514  0.78969914  0.55399100  1
  Si  Si9  1  0.30181486  0.21030086  0.05399100  1
  Si  Si10  1  0.30181486  0.21030086  0.44600900  1
  Si  Si11  1  0.69818514  0.78969914  0.94600900  1
  O  O12  1  0.65664316  0.39407132  0.75000000  1
  O  O13  1  0.34335684  0.60592868  0.25000000  1
  O  O14  1  0.12509476  0.36510398  0.75000000  1
  O  O15  1  0.87490524  0.63489602  0.25000000  1
  O  O16  1  0.46165247  0.67058354  0.64300396  1
  O  O17  1  0.53834753  0.32941646  0.14300396  1
  O  O18  1  0.53834753  0.32941646  0.35699604  1
  O  O19  1  0.46165247  0.67058354  0.85699604  1
  O  O20  1  0.54167952  0.79828074  0.44001816  1
  O  O21  1  0.45832048  0.20171926  0.94001816  1
  O  O22  1  0.45832048  0.20171926  0.55998184  1
  O  O23  1  0.54167952  0.79828074  0.05998184  1
  O  O24  1  0.84996213  0.01410792  0.61168855  1
  O  O25  1  0.15003787  0.98589208  0.11168855  1
  O  O26  1  0.15003787  0.98589208  0.38831145  1
  O  O27  1  0.84996213  0.01410792  0.88831145  1
  O  O28  1  0.90024007  0.64334865  0.54200950  1
  O  O29  1  0.09975993  0.35665135  0.04200950  1
  O  O30  1  0.09975993  0.35665135  0.45799050  1
  O  O31  1  0.90024007  0.64334865  0.95799050  1
