# generated using pymatgen
data_H3S
_symmetry_space_group_name_H-M   'P 1'
_cell_length_a   6.70861535
_cell_length_b   8.13260750
_cell_length_c   8.25359390
_cell_angle_alpha   90.15246056
_cell_angle_beta   90.38283935
_cell_angle_gamma   89.39094080
_symmetry_Int_Tables_number   1
_chemical_formula_structural   H3S
_chemical_formula_sum   'H24 S8'
_cell_volume   450.26699221
_cell_formula_units_Z   8
loop_
 _symmetry_equiv_pos_site_id
 _symmetry_equiv_pos_as_xyz
  1  'x, y, z'
loop_
 _atom_site_type_symbol
 _atom_site_label
 _atom_site_symmetry_multiplicity
 _atom_site_fract_x
 _atom_site_fract_y
 _atom_site_fract_z
 _atom_site_occupancy
  H  H0  1  0.28129026  0.95634293  0.40787588  1
  H  H1  1  0.92581001  0.36911681  0.25795230  1
  H  H2  1  0.43734438  0.37799976  0.94079891  1
  H  H3  1  0.43214093  0.52747198  0.25351987  1
  H  H4  1  0.75998935  0.65911723  0.10499037  1
  H  H5  1  0.75615468  0.24150845  0.10958713  1
  H  H6  1  0.92113688  0.53065256  0.95017273  1
  H  H7  1  0.77498954  0.95737476  0.81749832  1
  H  H8  1  0.09613491  0.09693192  0.53188583  1
  H  H9  1  0.76786189  0.95516885  0.40160704  1
  H  H10  1  0.60581563  0.79817878  0.52534931  1
  H  H11  1  0.10320057  0.78649196  0.67272478  1
  H  H12  1  0.29171505  0.23253909  0.79295129  1
  H  H13  1  0.61483901  0.10692083  0.67998966  1
  H  H14  1  0.27183470  0.67916944  0.11760546  1
  H  H15  1  0.25636264  0.61698655  0.78898570  1
  H  H16  1  0.03555927  0.99264501  0.13819670  1
  H  H17  1  0.53758675  0.93519416  0.13732386  1
  H  H18  1  0.47758396  0.98951331  0.08058153  1
  H  H19  1  0.00559003  0.92299299  0.08231799  1
  H  H20  1  0.02584049  0.48090133  0.56853822  1
  H  H21  1  0.98118227  0.41392746  0.61995310  1
  H  H22  1  0.57169013  0.47043325  0.63020821  1
  H  H23  1  0.50062449  0.42424489  0.57585054  1
  S  S24  1  0.74891765  0.29027156  0.26662672  1
  S  S25  1  0.25677829  0.61157703  0.26670666  1
  S  S26  1  0.25640161  0.30504686  0.93829520  1
  S  S27  1  0.75789301  0.63055370  0.94306802  1
  S  S28  1  0.77901626  0.11858928  0.77611708  1
  S  S29  1  0.26899222  0.11742430  0.45007259  1
  S  S30  1  0.27790644  0.77948427  0.75633611  1
  S  S31  1  0.77486668  0.79209867  0.43570291  1
