# generated using pymatgen
data_Sn2H22S6N4O3
_symmetry_space_group_name_H-M   'P 1'
_cell_length_a   8.79086272
_cell_length_b   8.79086272
_cell_length_c   23.42808635
_cell_angle_alpha   90.00000000
_cell_angle_beta   90.00000000
_cell_angle_gamma   90.00000000
_symmetry_Int_Tables_number   1
_chemical_formula_structural   Sn2H22S6N4O3
_chemical_formula_sum   'Sn8 H88 S24 N16 O12'
_cell_volume   1810.50534882
_cell_formula_units_Z   4
loop_
 _symmetry_equiv_pos_site_id
 _symmetry_equiv_pos_as_xyz
  1  'x, y, z'
loop_
 _atom_site_type_symbol
 _atom_site_label
 _atom_site_symmetry_multiplicity
 _atom_site_fract_x
 _atom_site_fract_y
 _atom_site_fract_z
 _atom_site_occupancy
  Sn  Sn0  1  0.02480448  0.02295554  0.42753604  1
  Sn  Sn1  1  0.97519552  0.97704446  0.92753604  1
  Sn  Sn2  1  0.52295554  0.47519552  0.17753604  1
  Sn  Sn3  1  0.47704446  0.52480448  0.67753604  1
  Sn  Sn4  1  0.97704446  0.97519552  0.07246396  1
  Sn  Sn5  1  0.02295554  0.02480448  0.57246396  1
  Sn  Sn6  1  0.47519552  0.52295554  0.82246396  1
  Sn  Sn7  1  0.52480448  0.47704446  0.32246396  1
  H  H8  1  0.56092910  0.95551646  0.28782098  1
  H  H9  1  0.43907090  0.04448354  0.78782098  1
  H  H10  1  0.45551646  0.93907090  0.03782098  1
  H  H11  1  0.54448354  0.06092910  0.53782098  1
  H  H12  1  0.04448354  0.43907090  0.21217902  1
  H  H13  1  0.95551646  0.56092910  0.71217902  1
  H  H14  1  0.93907090  0.45551646  0.96217902  1
  H  H15  1  0.06092910  0.54448354  0.46217902  1
  H  H16  1  0.30685176  0.15203968  0.27201584  1
  H  H17  1  0.69314824  0.84796032  0.77201584  1
  H  H18  1  0.65203968  0.19314824  0.02201584  1
  H  H19  1  0.34796032  0.80685176  0.52201584  1
  H  H20  1  0.84796032  0.69314824  0.22798416  1
  H  H21  1  0.15203968  0.30685176  0.72798416  1
  H  H22  1  0.19314824  0.65203968  0.97798416  1
  H  H23  1  0.80685176  0.34796032  0.47798416  1
  H  H24  1  0.59504755  0.84682519  0.34689960  1
  H  H25  1  0.40495245  0.15317481  0.84689960  1
  H  H26  1  0.34682519  0.90495245  0.09689960  1
  H  H27  1  0.65317481  0.09504755  0.59689960  1
  H  H28  1  0.15317481  0.40495245  0.15310040  1
  H  H29  1  0.84682519  0.59504755  0.65310040  1
  H  H30  1  0.90495245  0.34682519  0.90310040  1
  H  H31  1  0.09504755  0.65317481  0.40310040  1
  H  H32  1  0.16059182  0.06881047  0.23679611  1
  H  H33  1  0.83940818  0.93118953  0.73679611  1
  H  H34  1  0.56881047  0.33940818  0.98679611  1
  H  H35  1  0.43118953  0.66059182  0.48679611  1
  H  H36  1  0.93118953  0.83940818  0.26320389  1
  H  H37  1  0.06881047  0.16059182  0.76320389  1
  H  H38  1  0.33940818  0.56881047  0.01320389  1
  H  H39  1  0.66059182  0.43118953  0.51320389  1
  H  H40  1  0.63720741  0.03591978  0.34736259  1
  H  H41  1  0.36279259  0.96408022  0.84736259  1
  H  H42  1  0.53591978  0.86279259  0.09736259  1
  H  H43  1  0.46408022  0.13720741  0.59736259  1
  H  H44  1  0.96408022  0.36279259  0.15263741  1
  H  H45  1  0.03591978  0.63720741  0.65263741  1
  H  H46  1  0.86279259  0.53591978  0.90263741  1
  H  H47  1  0.13720741  0.46408022  0.40263741  1
  H  H48  1  0.97797893  0.36188925  0.30693246  1
  H  H49  1  0.02202107  0.63811075  0.80693246  1
  H  H50  1  0.86188925  0.52202107  0.05693246  1
  H  H51  1  0.13811075  0.47797893  0.55693246  1
  H  H52  1  0.63811075  0.02202107  0.19306754  1
  H  H53  1  0.36188925  0.97797893  0.69306754  1
  H  H54  1  0.52202107  0.86188925  0.94306754  1
  H  H55  1  0.47797893  0.13811075  0.44306754  1
  H  H56  1  0.91843477  0.09542500  0.28400019  1
  H  H57  1  0.08156523  0.90457500  0.78400019  1
  H  H58  1  0.59542500  0.58156523  0.03400019  1
  H  H59  1  0.40457500  0.41843477  0.53400019  1
  H  H60  1  0.90457500  0.08156523  0.21599981  1
  H  H61  1  0.09542500  0.91843477  0.71599981  1
  H  H62  1  0.58156523  0.59542500  0.96599981  1
  H  H63  1  0.41843477  0.40457500  0.46599981  1
  H  H64  1  0.34446290  0.00490709  0.22774901  1
  H  H65  1  0.65553710  0.99509291  0.72774901  1
  H  H66  1  0.50490709  0.15553710  0.97774901  1
  H  H67  1  0.49509291  0.84446290  0.47774901  1
  H  H68  1  0.99509291  0.65553710  0.27225099  1
  H  H69  1  0.00490709  0.34446290  0.77225099  1
  H  H70  1  0.15553710  0.50490709  0.02225099  1
  H  H71  1  0.84446290  0.49509291  0.52225099  1
  H  H72  1  0.29699356  0.17294093  0.19948272  1
  H  H73  1  0.70300644  0.82705907  0.69948272  1
  H  H74  1  0.67294093  0.20300644  0.94948272  1
  H  H75  1  0.32705907  0.79699356  0.44948272  1
  H  H76  1  0.82705907  0.70300644  0.30051728  1
  H  H77  1  0.17294093  0.29699356  0.80051728  1
  H  H78  1  0.20300644  0.67294093  0.05051728  1
  H  H79  1  0.79699356  0.32705907  0.55051728  1
  H  H80  1  0.45158684  0.97653725  0.34800457  1
  H  H81  1  0.54841316  0.02346275  0.84800457  1
  H  H82  1  0.47653725  0.04841316  0.09800457  1
  H  H83  1  0.52346275  0.95158684  0.59800457  1
  H  H84  1  0.02346275  0.54841316  0.15199543  1
  H  H85  1  0.97653725  0.45158684  0.65199543  1
  H  H86  1  0.04841316  0.47653725  0.90199543  1
  H  H87  1  0.95158684  0.52346275  0.40199543  1
  H  H88  1  0.15084223  0.40821919  0.30495376  1
  H  H89  1  0.84915777  0.59178081  0.80495376  1
  H  H90  1  0.90821919  0.34915777  0.05495376  1
  H  H91  1  0.09178081  0.65084223  0.55495376  1
  H  H92  1  0.59178081  0.84915777  0.19504624  1
  H  H93  1  0.40821919  0.15084223  0.69504624  1
  H  H94  1  0.34915777  0.90821919  0.94504624  1
  H  H95  1  0.65084223  0.09178081  0.44504624  1
  S  S96  1  0.16865101  0.16865101  0.50000000  1
  S  S97  1  0.83134899  0.83134899  -0.00000000  1
  S  S98  1  0.66865101  0.33134899  0.25000000  1
  S  S99  1  0.33134899  0.66865101  0.75000000  1
  S  S100  1  0.87799324  0.87799324  0.50000000  1
  S  S101  1  0.12200676  0.12200676  -0.00000000  1
  S  S102  1  0.37799324  0.62200676  0.25000000  1
  S  S103  1  0.62200676  0.37799324  0.75000000  1
  S  S104  1  0.84919229  0.18468608  0.37853853  1
  S  S105  1  0.15080771  0.81531392  0.87853853  1
  S  S106  1  0.68468608  0.65080771  0.12853853  1
  S  S107  1  0.31531392  0.34919229  0.62853853  1
  S  S108  1  0.81531392  0.15080771  0.12146147  1
  S  S109  1  0.18468608  0.84919229  0.62146147  1
  S  S110  1  0.65080771  0.68468608  0.87146147  1
  S  S111  1  0.34919229  0.31531392  0.37146147  1
  S  S112  1  0.19104225  0.86251614  0.37476889  1
  S  S113  1  0.80895775  0.13748386  0.87476889  1
  S  S114  1  0.36251614  0.30895775  0.12476889  1
  S  S115  1  0.63748386  0.69104225  0.62476889  1
  S  S116  1  0.13748386  0.80895775  0.12523111  1
  S  S117  1  0.86251614  0.19104225  0.62523111  1
  S  S118  1  0.30895775  0.36251614  0.87523111  1
  S  S119  1  0.69104225  0.63748386  0.37523111  1
  N  N120  1  0.55984908  0.95557709  0.33231685  1
  N  N121  1  0.44015092  0.04442291  0.83231685  1
  N  N122  1  0.45557709  0.94015092  0.08231685  1
  N  N123  1  0.54442291  0.05984908  0.58231685  1
  N  N124  1  0.04442291  0.44015092  0.16768315  1
  N  N125  1  0.95557709  0.55984908  0.66768315  1
  N  N126  1  0.94015092  0.45557709  0.91768315  1
  N  N127  1  0.05984908  0.54442291  0.41768315  1
  N  N128  1  0.27562159  0.09865241  0.23440249  1
  N  N129  1  0.72437841  0.90134759  0.73440249  1
  N  N130  1  0.59865241  0.22437841  0.98440249  1
  N  N131  1  0.40134759  0.77562159  0.48440249  1
  N  N132  1  0.90134759  0.72437841  0.26559751  1
  N  N133  1  0.09865241  0.27562159  0.76559751  1
  N  N134  1  0.22437841  0.59865241  0.01559751  1
  N  N135  1  0.77562159  0.40134759  0.51559751  1
  O  O136  1  0.95875189  0.04124811  0.25000000  1
  O  O137  1  0.04124811  0.95875189  0.75000000  1
  O  O138  1  0.54124811  0.54124811  -0.00000000  1
  O  O139  1  0.45875189  0.45875189  0.50000000  1
  O  O140  1  0.05050972  0.43089331  0.28787424  1
  O  O141  1  0.94949028  0.56910669  0.78787424  1
  O  O142  1  0.93089331  0.44949028  0.03787424  1
  O  O143  1  0.06910669  0.55050972  0.53787424  1
  O  O144  1  0.56910669  0.94949028  0.21212576  1
  O  O145  1  0.43089331  0.05050972  0.71212576  1
  O  O146  1  0.44949028  0.93089331  0.96212576  1
  O  O147  1  0.55050972  0.06910669  0.46212576  1
