# generated using pymatgen
data_Na2U2O7
_symmetry_space_group_name_H-M   'P 1'
_cell_length_a   6.92819357
_cell_length_b   7.91957747
_cell_length_c   12.45284347
_cell_angle_alpha   90.00000000
_cell_angle_beta   79.33119332
_cell_angle_gamma   90.00000000
_symmetry_Int_Tables_number   1
_chemical_formula_structural   Na2U2O7
_chemical_formula_sum   'Na8 U8 O28'
_cell_volume   671.45603044
_cell_formula_units_Z   4
loop_
 _symmetry_equiv_pos_site_id
 _symmetry_equiv_pos_as_xyz
  1  'x, y, z'
loop_
 _atom_site_type_symbol
 _atom_site_label
 _atom_site_symmetry_multiplicity
 _atom_site_fract_x
 _atom_site_fract_y
 _atom_site_fract_z
 _atom_site_occupancy
  Na  Na0  1  0.50000000  0.50000000  0.50000000  1
  Na  Na1  1  -0.00000000  -0.00000000  -0.00000000  1
  Na  Na2  1  -0.00000000  0.50000000  -0.00000000  1
  Na  Na3  1  0.50000000  -0.00000000  0.50000000  1
  Na  Na4  1  0.99959545  0.74578901  0.50596487  1
  Na  Na5  1  0.50040455  0.24578901  0.99403513  1
  Na  Na6  1  0.00040455  0.25421099  0.49403513  1
  Na  Na7  1  0.49959545  0.75421099  0.00596487  1
  U  U8  1  0.73892612  0.75217835  0.25176231  1
  U  U9  1  0.76107388  0.25217835  0.24823769  1
  U  U10  1  0.26107388  0.24782165  0.74823769  1
  U  U11  1  0.23892612  0.74782165  0.75176231  1
  U  U12  1  0.28021549  0.50702320  0.25628891  1
  U  U13  1  0.21978451  0.00702320  0.24371109  1
  U  U14  1  0.71978451  0.49297680  0.74371109  1
  U  U15  1  0.78021549  0.99297680  0.75628891  1
  O  O16  1  0.60993367  0.49879115  0.27009301  1
  O  O17  1  0.89006633  0.99879115  0.22990699  1
  O  O18  1  0.39006633  0.50120885  0.72990699  1
  O  O19  1  0.10993367  0.00120885  0.77009301  1
  O  O20  1  0.46298254  0.18002236  0.23768018  1
  O  O21  1  0.03701746  0.68002236  0.26231982  1
  O  O22  1  0.53701746  0.81997764  0.76231982  1
  O  O23  1  0.96298254  0.31997764  0.73768018  1
  O  O24  1  0.42104842  0.78416895  0.24136843  1
  O  O25  1  0.07895158  0.28416895  0.25863157  1
  O  O26  1  0.57895158  0.21583105  0.75863157  1
  O  O27  1  0.92104842  0.71583105  0.74136843  1
  O  O28  1  0.81966259  0.27556095  0.09428188  1
  O  O29  1  0.68033741  0.77556095  0.40571812  1
  O  O30  1  0.18033741  0.72443905  0.90571812  1
  O  O31  1  0.31966259  0.22443905  0.59428188  1
  O  O32  1  0.79329683  0.72921392  0.09785399  1
  O  O33  1  0.70670317  0.22921392  0.40214601  1
  O  O34  1  0.20670317  0.27078608  0.90214601  1
  O  O35  1  0.29329683  0.77078608  0.59785399  1
  O  O36  1  0.27488115  0.00308730  0.08945077  1
  O  O37  1  0.22511885  0.50308730  0.41054923  1
  O  O38  1  0.72511885  0.99691270  0.91054923  1
  O  O39  1  0.77488115  0.49691270  0.58945077  1
  O  O40  1  0.32942983  0.50177527  0.10362228  1
  O  O41  1  0.17057017  0.00177527  0.39637772  1
  O  O42  1  0.67057017  0.49822473  0.89637772  1
  O  O43  1  0.82942983  0.99822473  0.60362228  1
