# generated using pymatgen
data_Ba4Zn4B14Pb2O31
_symmetry_space_group_name_H-M   'P 1'
_cell_length_a   7.18499891
_cell_length_b   7.18499891
_cell_length_c   47.82856966
_cell_angle_alpha   90.00000000
_cell_angle_beta   90.00000000
_cell_angle_gamma   119.99999756
_symmetry_Int_Tables_number   1
_chemical_formula_structural   Ba4Zn4B14Pb2O31
_chemical_formula_sum   'Ba12 Zn12 B42 Pb6 O93'
_cell_volume   2138.31385235
_cell_formula_units_Z   3
loop_
 _symmetry_equiv_pos_site_id
 _symmetry_equiv_pos_as_xyz
  1  'x, y, z'
loop_
 _atom_site_type_symbol
 _atom_site_label
 _atom_site_symmetry_multiplicity
 _atom_site_fract_x
 _atom_site_fract_y
 _atom_site_fract_z
 _atom_site_occupancy
  Ba  Ba0  1  0.07666093  0.24096281  0.22289333  1
  Ba  Ba1  1  0.75903719  0.83569813  0.88955933  1
  Ba  Ba2  1  0.16430187  0.92333907  0.55622633  1
  Ba  Ba3  1  0.73097216  0.81291103  0.35878135  1
  Ba  Ba4  1  0.18708897  0.91806112  0.02544735  1
  Ba  Ba5  1  0.08193888  0.26902784  0.69211435  1
  Ba  Ba6  1  0.48705616  0.23834744  0.41297260  1
  Ba  Ba7  1  0.76165256  0.24870871  0.07963860  1
  Ba  Ba8  1  0.75129129  0.51294384  0.74630560  1
  Ba  Ba9  1  0.41009280  0.81418153  0.27633988  1
  Ba  Ba10  1  0.18581847  0.59591127  0.94300588  1
  Ba  Ba11  1  0.40408873  0.58990720  0.60967288  1
  Zn  Zn12  1  0.40081563  0.14498620  0.33442695  1
  Zn  Zn13  1  0.85501380  0.25582942  0.00109295  1
  Zn  Zn14  1  0.74417058  0.59918437  0.66775995  1
  Zn  Zn15  1  0.81456422  0.90236570  0.43201456  1
  Zn  Zn16  1  0.09763430  0.91219852  0.09868056  1
  Zn  Zn17  1  0.08780148  0.18543578  0.76534756  1
  Zn  Zn18  1  0.39744104  0.88919701  0.20279827  1
  Zn  Zn19  1  0.11080299  0.50824403  0.86946427  1
  Zn  Zn20  1  0.49175597  0.60255896  0.53613127  1
  Zn  Zn21  1  0.07504877  0.14418521  0.30071548  1
  Zn  Zn22  1  0.85581479  0.93086355  0.96738148  1
  Zn  Zn23  1  0.06913645  0.92495123  0.63404848  1
  B  B24  1  0.67995573  0.73001483  0.21946168  1
  B  B25  1  0.26998517  0.94994090  0.88612768  1
  B  B26  1  0.05005910  0.32004427  0.55279468  1
  B  B27  1  0.78140670  0.67645999  0.28636765  1
  B  B28  1  0.32354001  0.10494671  0.95303365  1
  B  B29  1  0.89505329  0.21859330  0.61970065  1
  B  B30  1  0.10559620  0.28838035  0.36059914  1
  B  B31  1  0.71161965  0.81721586  0.02726514  1
  B  B32  1  0.18278414  0.89440380  0.69393214  1
  B  B33  1  0.10725114  0.33387003  0.41532983  1
  B  B34  1  0.66612997  0.77338111  0.08199583  1
  B  B35  1  0.22661889  0.89274886  0.74866283  1
  B  B36  1  0.51363763  0.29001573  0.27385878  1
  B  B37  1  0.70998427  0.22362190  0.94052478  1
  B  B38  1  0.77637810  0.48636237  0.60719178  1
  B  B39  1  0.94782876  0.61455323  0.22169750  1
  B  B40  1  0.38544677  0.33327553  0.88836350  1
  B  B41  1  0.66672447  0.05217124  0.55503050  1
  B  B42  1  0.22319951  0.67498851  0.34820176  1
  B  B43  1  0.32501149  0.54821101  0.01486776  1
  B  B44  1  0.45178899  0.77680049  0.68153476  1
  B  B45  1  0.37744774  0.73353522  0.41473425  1
  B  B46  1  0.26646478  0.64391252  0.08140025  1
  B  B47  1  0.35608748  0.62255226  0.74806725  1
  B  B48  1  0.99394746  0.61981188  0.41383537  1
  B  B49  1  0.38018812  0.37413558  0.08050137  1
  B  B50  1  0.62586442  0.00605254  0.74716837  1
  B  B51  1  0.55040997  0.32981230  0.21928621  1
  B  B52  1  0.67018770  0.22059767  0.88595221  1
  B  B53  1  0.77940233  0.44959003  0.55261921  1
  B  B54  1  0.90893340  0.41819556  0.28203683  1
  B  B55  1  0.58180444  0.49073785  0.94870283  1
  B  B56  1  0.50926215  0.09106660  0.61536983  1
  B  B57  1  0.38854505  0.04096129  0.48275541  1
  B  B58  1  0.95903871  0.34758376  0.14942141  1
  B  B59  1  0.65241624  0.61145495  0.81608841  1
  B  B60  1  0.83915319  0.41722908  0.35331638  1
  B  B61  1  0.58277092  0.42192411  0.01998238  1
  B  B62  1  0.57807589  0.16084681  0.68664938  1
  B  B63  1  0.21396304  0.75874217  0.14892068  1
  B  B64  1  0.24125783  0.45522087  0.81558668  1
  B  B65  1  0.54477913  0.78603696  0.48225368  1
  Pb  Pb66  1  0.13497337  0.24048734  0.48506411  1
  Pb  Pb67  1  0.75951266  0.89448603  0.15173011  1
  Pb  Pb68  1  0.10551397  0.86502663  0.81839711  1
  Pb  Pb69  1  0.84870994  0.56066237  0.48596523  1
  Pb  Pb70  1  0.43933763  0.28804758  0.15263123  1
  Pb  Pb71  1  0.71195242  0.15129006  0.81929823  1
  O  O72  1  0.88452373  0.25460716  0.35401165  1
  O  O73  1  0.74539284  0.62991657  0.02067765  1
  O  O74  1  0.37008343  0.11547627  0.68734465  1
  O  O75  1  0.15564042  0.66210221  0.22419989  1
  O  O76  1  0.33789779  0.49353821  0.89086589  1
  O  O77  1  0.50646179  0.84435958  0.55753289  1
  O  O78  1  0.83172170  0.66539317  0.41339602  1
  O  O79  1  0.33460683  0.16632854  0.08006202  1
  O  O80  1  0.83367146  0.16827830  0.74672902  1
  O  O81  1  0.44012089  0.22098686  0.24498320  1
  O  O82  1  0.77901314  0.21913403  0.91164920  1
  O  O83  1  0.78086597  0.55987911  0.57831620  1
  O  O84  1  0.06785505  0.18255283  0.43836500  1
  O  O85  1  0.81744717  0.88530222  0.10503100  1
  O  O86  1  0.11469778  0.93214495  0.77169800  1
  O  O87  1  0.43232058  0.17548334  0.19644234  1
  O  O88  1  0.82451666  0.25683724  0.86310834  1
  O  O89  1  0.74316276  0.56767942  0.52977534  1
  O  O90  1  0.63486058  0.38413569  0.35512115  1
  O  O91  1  0.61586431  0.25072489  0.02178715  1
  O  O92  1  0.74927511  0.36513942  0.68845415  1
  O  O93  1  0.10937937  0.22254253  0.38969271  1
  O  O94  1  0.77745747  0.88683683  0.05635871  1
  O  O95  1  0.11316317  0.89062063  0.72302571  1
  O  O96  1  0.57957019  0.90025536  0.41023836  1
  O  O97  1  0.09974464  0.67931482  0.07690436  1
  O  O98  1  0.32068518  0.42042981  0.74357136  1
  O  O99  1  0.78564572  0.40351343  0.21903437  1
  O  O100  1  0.59648657  0.38213229  0.88570037  1
  O  O101  1  0.61786771  0.21435428  0.55236737  1
  O  O102  1  0.64657452  0.89994216  0.22211281  1
  O  O103  1  0.10005784  0.74663236  0.88877881  1
  O  O104  1  0.25336764  0.35342548  0.55544581  1
  O  O105  1  0.08128374  0.38648608  0.28074858  1
  O  O106  1  0.61351392  0.69479766  0.94741458  1
  O  O107  1  0.30520234  0.91871626  0.61408158  1
  O  O108  1  0.38669864  0.86553146  0.33870778  1
  O  O109  1  0.13446854  0.52116717  0.00537378  1
  O  O110  1  0.47883283  0.61330136  0.67204078  1
  O  O111  1  0.32850671  0.52681000  0.42019535  1
  O  O112  1  0.47319000  0.80169671  0.08686135  1
  O  O113  1  0.19830329  0.67149329  0.75352835  1
  O  O114  1  0.57826605  0.52040955  0.27828353  1
  O  O115  1  0.47959045  0.05785651  0.94494953  1
  O  O116  1  0.94214349  0.42173395  0.61161653  1
  O  O117  1  0.12935114  0.14205859  0.34190933  1
  O  O118  1  0.85794141  0.98729255  0.00857533  1
  O  O119  1  0.01270745  0.87064886  0.67524233  1
  O  O120  1  0.34603938  0.14583292  0.29297936  1
  O  O121  1  0.85416708  0.20020647  0.95964536  1
  O  O122  1  0.79979353  0.65396062  0.62631236  1
  O  O123  1  0.89647767  0.77991406  0.22180527  1
  O  O124  1  0.22008594  0.11656361  0.88847127  1
  O  O125  1  0.88343639  0.10352233  0.55513827  1
  O  O126  1  0.72966622  0.79159843  0.47217175  1
  O  O127  1  0.20840157  0.93806778  0.13883775  1
  O  O128  1  0.06193222  0.27033378  0.80550475  1
  O  O129  1  0.80773332  0.86759796  0.29550156  1
  O  O130  1  0.13240204  0.94013536  0.96216756  1
  O  O131  1  0.05986464  0.19226668  0.62883456  1
  O  O132  1  0.95225494  0.63243713  0.28512880  1
  O  O133  1  0.36756287  0.31981781  0.95179480  1
  O  O134  1  0.68018219  0.04774506  0.61846180  1
  O  O135  1  0.45180253  0.24799950  0.47336847  1
  O  O136  1  0.75200050  0.20380303  0.14003447  1
  O  O137  1  0.79619697  0.54819747  0.80670147  1
  O  O138  1  0.19655137  0.92712964  0.49679137  1
  O  O139  1  0.07287036  0.26942173  0.16345737  1
  O  O140  1  0.73057827  0.80344863  0.83012437  1
  O  O141  1  0.94521970  0.40797407  0.41478343  1
  O  O142  1  0.59202593  0.53724563  0.08144943  1
  O  O143  1  0.46275437  0.05478030  0.74811643  1
  O  O144  1  0.00926550  0.63251670  0.35070980  1
  O  O145  1  0.36748330  0.37674880  0.01737580  1
  O  O146  1  0.62325120  0.99073450  0.68404280  1
  O  O147  1  0.52197741  0.52295896  0.21419925  1
  O  O148  1  0.47704104  0.99901845  0.88086525  1
  O  O149  1  0.00098155  0.47802259  0.54753225  1
  O  O150  1  0.70170805  0.25577110  0.27994975  1
  O  O151  1  0.74422890  0.44593695  0.94661575  1
  O  O152  1  0.55406305  0.29829195  0.61328275  1
  O  O153  1  0.37994454  0.77246405  0.16431114  1
  O  O154  1  0.22753595  0.60748050  0.83097714  1
  O  O155  1  0.39251950  0.62005546  0.49764414  1
  O  O156  1  0.21060960  0.78464464  0.41365542  1
  O  O157  1  0.21535536  0.42596496  0.08032142  1
  O  O158  1  0.57403504  0.78939040  0.74698842  1
  O  O159  1  0.27105434  0.51798315  0.35549463  1
  O  O160  1  0.48201685  0.75307118  0.02216063  1
  O  O161  1  0.24692882  0.72894566  0.68882763  1
  O  O162  1  0.53262259  0.96989017  0.47575967  1
  O  O163  1  0.03010983  0.56273242  0.14242567  1
  O  O164  1  0.43726758  0.46737741  0.80909267  1
