# generated using pymatgen
data_TbP4HO12
_symmetry_space_group_name_H-M   'P 1'
_cell_length_a   7.21465363
_cell_length_b   9.80551736
_cell_length_c   13.83781961
_cell_angle_alpha   101.11991838
_cell_angle_beta   90.00000000
_cell_angle_gamma   90.00000000
_symmetry_Int_Tables_number   1
_chemical_formula_structural   TbP4HO12
_chemical_formula_sum   'Tb4 P16 H4 O48'
_cell_volume   960.55573109
_cell_formula_units_Z   4
loop_
 _symmetry_equiv_pos_site_id
 _symmetry_equiv_pos_as_xyz
  1  'x, y, z'
loop_
 _atom_site_type_symbol
 _atom_site_label
 _atom_site_symmetry_multiplicity
 _atom_site_fract_x
 _atom_site_fract_y
 _atom_site_fract_z
 _atom_site_occupancy
  Tb  Tb0  1  0.44206737  0.55916572  0.72921327  1
  Tb  Tb1  1  0.94206737  0.94083428  0.27078673  1
  Tb  Tb2  1  0.55793263  0.44083428  0.27078673  1
  Tb  Tb3  1  0.05793263  0.05916572  0.72921327  1
  P  P4  1  0.82161150  0.62722859  0.90134071  1
  P  P5  1  0.32161150  0.87277141  0.09865929  1
  P  P6  1  0.17838850  0.37277141  0.09865929  1
  P  P7  1  0.67838850  0.12722859  0.90134071  1
  P  P8  1  0.34849805  0.31102045  0.89799666  1
  P  P9  1  0.84849805  0.18897955  0.10200334  1
  P  P10  1  0.65150195  0.68897955  0.10200334  1
  P  P11  1  0.15150195  0.81102045  0.89799666  1
  P  P12  1  0.71138551  0.79484140  0.61328682  1
  P  P13  1  0.21138551  0.70515860  0.38671318  1
  P  P14  1  0.28861449  0.20515860  0.38671318  1
  P  P15  1  0.78861449  0.29484140  0.61328682  1
  P  P16  1  0.10057110  0.71161256  0.59414056  1
  P  P17  1  0.60057110  0.78838744  0.40585944  1
  P  P18  1  0.89942890  0.28838744  0.40585944  1
  P  P19  1  0.39942890  0.21161256  0.59414056  1
  H  H20  1  0.85959103  0.44236138  0.79375695  1
  H  H21  1  0.35959103  0.05763862  0.20624305  1
  H  H22  1  0.14040897  0.55763862  0.20624305  1
  H  H23  1  0.64040897  0.94236138  0.79375695  1
  O  O24  1  0.97616359  0.73803934  0.94286192  1
  O  O25  1  0.47616359  0.76196066  0.05713808  1
  O  O26  1  0.02383641  0.26196066  0.05713808  1
  O  O27  1  0.52383641  0.23803934  0.94286192  1
  O  O28  1  0.73186483  0.59763869  0.00060551  1
  O  O29  1  0.23186483  0.90236131  0.99939449  1
  O  O30  1  0.26813517  0.40236131  0.99939449  1
  O  O31  1  0.76813517  0.09763869  0.00060551  1
  O  O32  1  0.87921783  0.68786120  0.58172692  1
  O  O33  1  0.37921783  0.81213880  0.41827308  1
  O  O34  1  0.12078217  0.31213880  0.41827308  1
  O  O35  1  0.62078217  0.18786120  0.58172692  1
  O  O36  1  0.67173620  0.85557637  0.51544904  1
  O  O37  1  0.17173620  0.64442363  0.48455096  1
  O  O38  1  0.32826380  0.14442363  0.48455096  1
  O  O39  1  0.82826380  0.35557637  0.51544904  1
  O  O40  1  0.68554216  0.67485531  0.83399587  1
  O  O41  1  0.18554216  0.82514469  0.16600413  1
  O  O42  1  0.31445784  0.32514469  0.16600413  1
  O  O43  1  0.81445784  0.17485531  0.83399587  1
  O  O44  1  0.42073696  0.41187589  0.83928205  1
  O  O45  1  0.92073696  0.08812411  0.16071795  1
  O  O46  1  0.57926304  0.58812411  0.16071795  1
  O  O47  1  0.07926304  0.91187589  0.83928205  1
  O  O48  1  0.21125860  0.20286066  0.85520011  1
  O  O49  1  0.71125860  0.29713934  0.14479989  1
  O  O50  1  0.78874140  0.79713934  0.14479989  1
  O  O51  1  0.28874140  0.70286066  0.85520011  1
  O  O52  1  0.54987167  0.71074044  0.63687658  1
  O  O53  1  0.04987167  0.78925956  0.36312342  1
  O  O54  1  0.45012833  0.28925956  0.36312342  1
  O  O55  1  0.95012833  0.21074044  0.63687658  1
  O  O56  1  0.77138584  0.91656310  0.69139640  1
  O  O57  1  0.27138584  0.58343690  0.30860360  1
  O  O58  1  0.22861416  0.08343690  0.30860360  1
  O  O59  1  0.72861416  0.41656310  0.69139640  1
  O  O60  1  0.14032588  0.86460743  0.61757692  1
  O  O61  1  0.64032588  0.63539257  0.38242308  1
  O  O62  1  0.85967412  0.13539257  0.38242308  1
  O  O63  1  0.35967412  0.36460743  0.61757692  1
  O  O64  1  0.16899434  0.61972919  0.66089263  1
  O  O65  1  0.66899434  0.88027081  0.33910737  1
  O  O66  1  0.83100566  0.38027081  0.33910737  1
  O  O67  1  0.33100566  0.11972919  0.66089263  1
  O  O68  1  0.92290972  0.48931949  0.85706552  1
  O  O69  1  0.42290972  0.01068051  0.14293448  1
  O  O70  1  0.07709028  0.51068051  0.14293448  1
  O  O71  1  0.57709028  0.98931949  0.85706552  1
