# generated using pymatgen
data_Na2Lu2B2TeO10
_symmetry_space_group_name_H-M   'P 1'
_cell_length_a   6.30354581
_cell_length_b   6.69661907
_cell_length_c   9.87805463
_cell_angle_alpha   90.00000000
_cell_angle_beta   90.00000000
_cell_angle_gamma   103.52798536
_symmetry_Int_Tables_number   1
_chemical_formula_structural   Na2Lu2B2TeO10
_chemical_formula_sum   'Na4 Lu4 B4 Te2 O20'
_cell_volume   405.40814162
_cell_formula_units_Z   2
loop_
 _symmetry_equiv_pos_site_id
 _symmetry_equiv_pos_as_xyz
  1  'x, y, z'
loop_
 _atom_site_type_symbol
 _atom_site_label
 _atom_site_symmetry_multiplicity
 _atom_site_fract_x
 _atom_site_fract_y
 _atom_site_fract_z
 _atom_site_occupancy
  Na  Na0  1  0.41728849  0.33236159  0.11095856  1
  Na  Na1  1  0.58271151  0.16763841  0.61095856  1
  Na  Na2  1  0.58271151  0.66763841  0.88904144  1
  Na  Na3  1  0.41728849  0.83236159  0.38904144  1
  Lu  Lu4  1  0.87301106  0.47658549  0.33511851  1
  Lu  Lu5  1  0.12698894  0.02341451  0.83511851  1
  Lu  Lu6  1  0.12698894  0.52341451  0.66488149  1
  Lu  Lu7  1  0.87301106  0.97658549  0.16488149  1
  B  B8  1  0.66246838  0.12579148  0.89952576  1
  B  B9  1  0.33753162  0.37420852  0.39952576  1
  B  B10  1  0.33753162  0.87420852  0.10047424  1
  B  B11  1  0.66246838  0.62579148  0.60047424  1
  Te  Te12  1  -0.00000000  0.50000000  -0.00000000  1
  Te  Te13  1  -0.00000000  0.00000000  0.50000000  1
  O  O14  1  0.52455246  0.44929191  0.33022608  1
  O  O15  1  0.47544754  0.05070809  0.83022608  1
  O  O16  1  0.47544754  0.55070809  0.66977392  1
  O  O17  1  0.52455246  0.94929191  0.16977392  1
  O  O18  1  0.99979070  0.31925528  0.15336025  1
  O  O19  1  0.00020930  0.18074472  0.65336025  1
  O  O20  1  0.00020930  0.68074472  0.84663975  1
  O  O21  1  0.99979070  0.81925528  0.34663975  1
  O  O22  1  0.70838881  0.33798275  0.93425115  1
  O  O23  1  0.29161119  0.16201725  0.43425115  1
  O  O24  1  0.29161119  0.66201725  0.06574885  1
  O  O25  1  0.70838881  0.83798275  0.56574885  1
  O  O26  1  0.19485202  0.49150655  0.43782913  1
  O  O27  1  0.80514798  0.00849345  0.93782913  1
  O  O28  1  0.80514798  0.50849345  0.56217087  1
  O  O29  1  0.19485202  0.99150655  0.06217087  1
  O  O30  1  0.16487279  0.36210679  0.88288009  1
  O  O31  1  0.83512721  0.13789321  0.38288009  1
  O  O32  1  0.83512721  0.63789321  0.11711991  1
  O  O33  1  0.16487279  0.86210679  0.61711991  1
