# generated using pymatgen
data_CaNpH7O8
_symmetry_space_group_name_H-M   'P 1'
_cell_length_a   7.90837151
_cell_length_b   8.70319559
_cell_length_c   11.19540479
_cell_angle_alpha   90.00000000
_cell_angle_beta   105.35152702
_cell_angle_gamma   90.00000000
_symmetry_Int_Tables_number   1
_chemical_formula_structural   CaNpH7O8
_chemical_formula_sum   'Ca4 Np4 H28 O32'
_cell_volume   743.06474623
_cell_formula_units_Z   4
loop_
 _symmetry_equiv_pos_site_id
 _symmetry_equiv_pos_as_xyz
  1  'x, y, z'
loop_
 _atom_site_type_symbol
 _atom_site_label
 _atom_site_symmetry_multiplicity
 _atom_site_fract_x
 _atom_site_fract_y
 _atom_site_fract_z
 _atom_site_occupancy
  Ca  Ca0  1  0.10787200  0.39245798  0.37514946  1
  Ca  Ca1  1  0.60787200  0.10754202  0.87514946  1
  Ca  Ca2  1  0.89212800  0.60754202  0.62485054  1
  Ca  Ca3  1  0.39212800  0.89245798  0.12485054  1
  Np  Np4  1  0.75560413  0.13318451  0.26195847  1
  Np  Np5  1  0.25560413  0.36681549  0.76195847  1
  Np  Np6  1  0.24439587  0.86681549  0.73804153  1
  Np  Np7  1  0.74439587  0.63318451  0.23804153  1
  H  H8  1  0.94033567  0.86647361  0.39034642  1
  H  H9  1  0.44033567  0.63352639  0.89034642  1
  H  H10  1  0.05966433  0.13352639  0.60965358  1
  H  H11  1  0.55966433  0.36647361  0.10965358  1
  H  H12  1  0.35506489  0.14694344  0.53911792  1
  H  H13  1  0.85506489  0.35305656  0.03911792  1
  H  H14  1  0.64493511  0.85305656  0.46088208  1
  H  H15  1  0.14493511  0.64694344  0.96088208  1
  H  H16  1  0.39387017  0.13905971  0.40742941  1
  H  H17  1  0.89387017  0.36094029  0.90742941  1
  H  H18  1  0.60612983  0.86094029  0.59257059  1
  H  H19  1  0.10612983  0.63905971  0.09257059  1
  H  H20  1  0.29973729  0.65951636  0.51220654  1
  H  H21  1  0.79973729  0.84048364  0.01220654  1
  H  H22  1  0.70026271  0.34048364  0.48779346  1
  H  H23  1  0.20026271  0.15951636  0.98779346  1
  H  H24  1  0.41781863  0.62938592  0.41826727  1
  H  H25  1  0.91781863  0.87061408  0.91826727  1
  H  H26  1  0.58218137  0.37061408  0.58173273  1
  H  H27  1  0.08218137  0.12938592  0.08173273  1
  H  H28  1  0.22017980  0.36002971  0.14670338  1
  H  H29  1  0.72017980  0.13997029  0.64670338  1
  H  H30  1  0.77982020  0.63997029  0.85329662  1
  H  H31  1  0.27982020  0.86002971  0.35329662  1
  H  H32  1  0.40563453  0.39080657  0.23275649  1
  H  H33  1  0.90563453  0.10919343  0.73275649  1
  H  H34  1  0.59436547  0.60919343  0.76724351  1
  H  H35  1  0.09436547  0.89080657  0.26724351  1
  O  O36  1  0.86951853  0.21134919  0.42180237  1
  O  O37  1  0.36951853  0.28865081  0.92180237  1
  O  O38  1  0.13048147  0.78865081  0.57819763  1
  O  O39  1  0.63048147  0.71134919  0.07819763  1
  O  O40  1  0.95006707  0.20808551  0.21030218  1
  O  O41  1  0.45006707  0.29191449  0.71030218  1
  O  O42  1  0.04993293  0.79191449  0.78969782  1
  O  O43  1  0.54993293  0.70808551  0.28969782  1
  O  O44  1  0.63719513  0.06259770  0.09950506  1
  O  O45  1  0.13719513  0.43740230  0.59950506  1
  O  O46  1  0.36280487  0.93740230  0.90049494  1
  O  O47  1  0.86280487  0.56259770  0.40049494  1
  O  O48  1  0.56209841  0.05815938  0.31555982  1
  O  O49  1  0.06209841  0.44184062  0.81555982  1
  O  O50  1  0.43790159  0.94184062  0.68444018  1
  O  O51  1  0.93790159  0.55815938  0.18444018  1
  O  O52  1  0.88483478  0.87954005  0.30166856  1
  O  O53  1  0.38483478  0.62045995  0.80166856  1
  O  O54  1  0.11516522  0.12045995  0.69833144  1
  O  O55  1  0.61516522  0.37954005  0.19833144  1
  O  O56  1  0.32122803  0.18896048  0.45504167  1
  O  O57  1  0.82122803  0.31103952  0.95504167  1
  O  O58  1  0.67877197  0.81103952  0.54495833  1
  O  O59  1  0.17877197  0.68896048  0.04495833  1
  O  O60  1  0.31230165  0.59800261  0.44212026  1
  O  O61  1  0.81230165  0.90199739  0.94212026  1
  O  O62  1  0.68769835  0.40199739  0.55787974  1
  O  O63  1  0.18769835  0.09800261  0.05787974  1
  O  O64  1  0.27919421  0.39266898  0.23024120  1
  O  O65  1  0.77919421  0.10733102  0.73024120  1
  O  O66  1  0.72080579  0.60733102  0.76975880  1
  O  O67  1  0.22080579  0.89266898  0.26975880  1
