# generated using pymatgen
data_Ba7Ga4As9
_symmetry_space_group_name_H-M   'P 1'
_cell_length_a   6.91529311
_cell_length_b   10.26184563
_cell_length_c   17.28098578
_cell_angle_alpha   90.00000000
_cell_angle_beta   90.00000000
_cell_angle_gamma   90.00000000
_symmetry_Int_Tables_number   1
_chemical_formula_structural   Ba7Ga4As9
_chemical_formula_sum   'Ba14 Ga8 As18'
_cell_volume   1226.32217875
_cell_formula_units_Z   2
loop_
 _symmetry_equiv_pos_site_id
 _symmetry_equiv_pos_as_xyz
  1  'x, y, z'
loop_
 _atom_site_type_symbol
 _atom_site_label
 _atom_site_symmetry_multiplicity
 _atom_site_fract_x
 _atom_site_fract_y
 _atom_site_fract_z
 _atom_site_occupancy
  Ba  Ba0  1  0.45132236  0.75000000  0.03486813  1
  Ba  Ba1  1  0.45132236  0.75000000  0.46513187  1
  Ba  Ba2  1  0.54867764  0.25000000  0.96513187  1
  Ba  Ba3  1  0.54867764  0.25000000  0.53486813  1
  Ba  Ba4  1  0.94530530  0.52655546  0.12501782  1
  Ba  Ba5  1  0.94530530  0.97344454  0.12501782  1
  Ba  Ba6  1  0.94530530  0.52655546  0.37498218  1
  Ba  Ba7  1  0.94530530  0.97344454  0.37498218  1
  Ba  Ba8  1  0.05469470  0.47344454  0.87498218  1
  Ba  Ba9  1  0.05469470  0.02655546  0.87498218  1
  Ba  Ba10  1  0.05469470  0.47344454  0.62501782  1
  Ba  Ba11  1  0.05469470  0.02655546  0.62501782  1
  Ba  Ba12  1  0.40767907  0.75000000  0.75000000  1
  Ba  Ba13  1  0.59232093  0.25000000  0.25000000  1
  Ga  Ga14  1  0.76519350  0.75000000  0.62560844  1
  Ga  Ga15  1  0.76519350  0.75000000  0.87439156  1
  Ga  Ga16  1  0.23480650  0.25000000  0.37439156  1
  Ga  Ga17  1  0.23480650  0.25000000  0.12560844  1
  Ga  Ga18  1  0.57009457  0.07513898  0.75000000  1
  Ga  Ga19  1  0.57009457  0.42486102  0.75000000  1
  Ga  Ga20  1  0.42990543  0.92486102  0.25000000  1
  Ga  Ga21  1  0.42990543  0.57513898  0.25000000  1
  As  As22  1  0.55832419  0.54139553  0.62105095  1
  As  As23  1  0.55832419  0.95860447  0.62105095  1
  As  As24  1  0.55832419  0.54139553  0.87894905  1
  As  As25  1  0.55832419  0.95860447  0.87894905  1
  As  As26  1  0.44167581  0.45860447  0.37894905  1
  As  As27  1  0.44167581  0.04139553  0.37894905  1
  As  As28  1  0.44167581  0.45860447  0.12105095  1
  As  As29  1  0.44167581  0.04139553  0.12105095  1
  As  As30  1  0.97986478  0.75000000  0.51185856  1
  As  As31  1  0.97986478  0.75000000  0.98814144  1
  As  As32  1  0.02013522  0.25000000  0.48814144  1
  As  As33  1  0.02013522  0.25000000  0.01185856  1
  As  As34  1  0.69884815  0.75000000  0.25000000  1
  As  As35  1  0.30115185  0.25000000  0.75000000  1
  As  As36  1  0.16168954  0.75000000  0.25000000  1
  As  As37  1  0.83831046  0.25000000  0.75000000  1
  As  As38  1  0.95429330  0.75000000  0.75000000  1
  As  As39  1  0.04570670  0.25000000  0.25000000  1
