# generated using pymatgen
data_Li3MnCoO5
_symmetry_space_group_name_H-M   'P 1'
_cell_length_a   2.91226455
_cell_length_b   12.19029781
_cell_length_c   5.23601700
_cell_angle_alpha   92.68295895
_cell_angle_beta   90.00000000
_cell_angle_gamma   83.13963275
_symmetry_Int_Tables_number   1
_chemical_formula_structural   Li3MnCoO5
_chemical_formula_sum   'Li6 Mn2 Co2 O10'
_cell_volume   184.34965279
_cell_formula_units_Z   2
loop_
 _symmetry_equiv_pos_site_id
 _symmetry_equiv_pos_as_xyz
  1  'x, y, z'
loop_
 _atom_site_type_symbol
 _atom_site_label
 _atom_site_symmetry_multiplicity
 _atom_site_fract_x
 _atom_site_fract_y
 _atom_site_fract_z
 _atom_site_occupancy
  Li  Li0  1  0.49466946  0.01066109  0.49124715  1
  Li  Li1  1  0.89101156  0.21797687  0.71693443  1
  Li  Li2  1  0.30000000  0.40000000  0.90000000  1
  Li  Li3  1  0.70898844  0.58202313  0.08306557  1
  Li  Li4  1  0.10533054  0.78933891  0.30875285  1
  Li  Li5  1  0.80000000  0.40000000  0.40000000  1
  Mn  Mn6  1  0.99914051  0.00171899  0.99954909  1
  Mn  Mn7  1  0.60085949  0.79828101  0.80045091  1
  Co  Co8  1  0.39133754  0.21732492  0.23135482  1
  Co  Co9  1  0.20866246  0.58267508  0.56864518  1
  O  O10  1  0.54765437  0.90469127  0.11869123  1
  O  O11  1  0.95494989  0.09010022  0.30336398  1
  O  O12  1  0.35572678  0.28854645  0.53666387  1
  O  O13  1  0.74569692  0.50860615  0.74354431  1
  O  O14  1  0.14150411  0.71699178  0.94115967  1
  O  O15  1  0.45849589  0.08300822  0.85884033  1
  O  O16  1  0.85430308  0.29139385  0.05645569  1
  O  O17  1  0.24427322  0.51145355  0.26333613  1
  O  O18  1  0.64505011  0.70989978  0.49663602  1
  O  O19  1  0.05234563  0.89530873  0.68130877  1
