# generated using pymatgen
data_Ba5LaSi6
_symmetry_space_group_name_H-M   'P 1'
_cell_length_a   4.88559367
_cell_length_b   17.32973268
_cell_length_c   17.99127901
_cell_angle_alpha   90.00000000
_cell_angle_beta   90.00000000
_cell_angle_gamma   90.00000000
_symmetry_Int_Tables_number   1
_chemical_formula_structural   Ba5LaSi6
_chemical_formula_sum   'Ba20 La4 Si24'
_cell_volume   1523.25020949
_cell_formula_units_Z   4
loop_
 _symmetry_equiv_pos_site_id
 _symmetry_equiv_pos_as_xyz
  1  'x, y, z'
loop_
 _atom_site_type_symbol
 _atom_site_label
 _atom_site_symmetry_multiplicity
 _atom_site_fract_x
 _atom_site_fract_y
 _atom_site_fract_z
 _atom_site_occupancy
  Ba  Ba0  1  0.75000000  0.43183110  0.19162464  1
  Ba  Ba1  1  0.75000000  0.93183110  0.30837536  1
  Ba  Ba2  1  0.25000000  0.56816890  0.80837536  1
  Ba  Ba3  1  0.25000000  0.06816890  0.69162464  1
  Ba  Ba4  1  0.75000000  0.42275698  0.93489788  1
  Ba  Ba5  1  0.75000000  0.92275698  0.56510212  1
  Ba  Ba6  1  0.25000000  0.57724302  0.06510212  1
  Ba  Ba7  1  0.25000000  0.07724302  0.43489788  1
  Ba  Ba8  1  0.75000000  0.17862286  0.26866518  1
  Ba  Ba9  1  0.75000000  0.67862286  0.23133482  1
  Ba  Ba10  1  0.25000000  0.82137714  0.73133482  1
  Ba  Ba11  1  0.25000000  0.32137714  0.76866518  1
  Ba  Ba12  1  0.75000000  0.15835659  0.86898257  1
  Ba  Ba13  1  0.75000000  0.65835659  0.63101743  1
  Ba  Ba14  1  0.25000000  0.84164341  0.13101743  1
  Ba  Ba15  1  0.25000000  0.34164341  0.36898257  1
  Ba  Ba16  1  0.75000000  0.02961731  0.09305226  1
  Ba  Ba17  1  0.75000000  0.52961731  0.40694774  1
  Ba  Ba18  1  0.25000000  0.97038269  0.90694774  1
  Ba  Ba19  1  0.25000000  0.47038269  0.59305226  1
  La  La20  1  0.75000000  0.24830181  0.06702202  1
  La  La21  1  0.75000000  0.74830181  0.43297798  1
  La  La22  1  0.25000000  0.75169819  0.93297798  1
  La  La23  1  0.25000000  0.25169819  0.56702202  1
  Si  Si24  1  0.75000000  0.45374185  0.72477537  1
  Si  Si25  1  0.75000000  0.95374185  0.77522463  1
  Si  Si26  1  0.25000000  0.54625815  0.27522463  1
  Si  Si27  1  0.25000000  0.04625815  0.22477537  1
  Si  Si28  1  0.75000000  0.35474748  0.50458936  1
  Si  Si29  1  0.75000000  0.85474748  0.99541064  1
  Si  Si30  1  0.25000000  0.64525252  0.49541064  1
  Si  Si31  1  0.25000000  0.14525252  0.00458936  1
  Si  Si32  1  0.75000000  0.34497250  0.64021695  1
  Si  Si33  1  0.75000000  0.84497250  0.85978305  1
  Si  Si34  1  0.25000000  0.65502750  0.35978305  1
  Si  Si35  1  0.25000000  0.15502750  0.14021695  1
  Si  Si36  1  0.75000000  0.21021656  0.67697598  1
  Si  Si37  1  0.75000000  0.71021656  0.82302402  1
  Si  Si38  1  0.25000000  0.78978344  0.32302402  1
  Si  Si39  1  0.25000000  0.28978344  0.17697598  1
  Si  Si40  1  0.75000000  0.13265421  0.56304681  1
  Si  Si41  1  0.75000000  0.63265421  0.93695319  1
  Si  Si42  1  0.25000000  0.86734579  0.43695319  1
  Si  Si43  1  0.25000000  0.36734579  0.06304681  1
  Si  Si44  1  0.75000000  0.72205532  0.04303402  1
  Si  Si45  1  0.75000000  0.22205532  0.45696598  1
  Si  Si46  1  0.25000000  0.27794468  0.95696598  1
  Si  Si47  1  0.25000000  0.77794468  0.54303402  1
