# generated using pymatgen
data_Tl5Ag3(PS3)4
_symmetry_space_group_name_H-M   'P 1'
_cell_length_a   7.58901234
_cell_length_b   13.17735168
_cell_length_c   13.57394896
_cell_angle_alpha   108.91779546
_cell_angle_beta   106.23294793
_cell_angle_gamma   90.00000000
_symmetry_Int_Tables_number   1
_chemical_formula_structural   Tl5Ag3(PS3)4
_chemical_formula_sum   'Tl10 Ag6 P8 S24'
_cell_volume   1226.76737623
_cell_formula_units_Z   2
loop_
 _symmetry_equiv_pos_site_id
 _symmetry_equiv_pos_as_xyz
  1  'x, y, z'
loop_
 _atom_site_type_symbol
 _atom_site_label
 _atom_site_symmetry_multiplicity
 _atom_site_fract_x
 _atom_site_fract_y
 _atom_site_fract_z
 _atom_site_occupancy
  Tl  Tl0  1  0.76572197  0.61529008  0.31560638  1
  Tl  Tl1  1  0.45011560  0.88470992  0.68439362  1
  Tl  Tl2  1  0.23427803  0.38470992  0.68439362  1
  Tl  Tl3  1  0.54988440  0.11529008  0.31560638  1
  Tl  Tl4  1  0.96672231  0.72747418  0.67686090  1
  Tl  Tl5  1  0.28986141  0.77252582  0.32313910  1
  Tl  Tl6  1  0.03327769  0.27252582  0.32313910  1
  Tl  Tl7  1  0.71013859  0.22747418  0.67686090  1
  Tl  Tl8  1  0.49836754  0.75000000  -0.00000000  1
  Tl  Tl9  1  0.50163246  0.25000000  -0.00000000  1
  Ag  Ag10  1  0.98460785  0.75000000  -0.00000000  1
  Ag  Ag11  1  0.01539215  0.25000000  -0.00000000  1
  Ag  Ag12  1  0.96530113  0.96519530  0.23597388  1
  Ag  Ag13  1  0.72932725  0.53480470  0.76402612  1
  Ag  Ag14  1  0.03469887  0.03480470  0.76402612  1
  Ag  Ag15  1  0.27067275  0.46519530  0.23597388  1
  P  P16  1  0.90109406  0.92476638  0.47826200  1
  P  P17  1  0.42283206  0.57523362  0.52173800  1
  P  P18  1  0.09890594  0.07523362  0.52173800  1
  P  P19  1  0.57716794  0.42476638  0.47826200  1
  P  P20  1  0.86973919  0.50771789  0.02923836  1
  P  P21  1  0.84050083  0.99228211  0.97076164  1
  P  P22  1  0.13026081  0.49228211  0.97076164  1
  P  P23  1  0.15949917  0.00771789  0.02923836  1
  S  S24  1  0.06415151  0.80352992  0.49260499  1
  S  S25  1  0.57154652  0.69647008  0.50739501  1
  S  S26  1  0.93584849  0.19647008  0.50739501  1
  S  S27  1  0.42845348  0.30352992  0.49260499  1
  S  S28  1  0.88147187  0.66598585  0.12323867  1
  S  S29  1  0.75823320  0.83401415  0.87676133  1
  S  S30  1  0.11852813  0.33401415  0.87676133  1
  S  S31  1  0.24176680  0.16598585  0.12323867  1
  S  S32  1  0.16743499  0.53290273  0.41106433  1
  S  S33  1  0.75637066  0.96709727  0.58893567  1
  S  S34  1  0.83256501  0.46709727  0.58893567  1
  S  S35  1  0.24362934  0.03290273  0.41106433  1
  S  S36  1  0.73683602  0.88954883  0.32191195  1
  S  S37  1  0.41492407  0.61045117  0.67808805  1
  S  S38  1  0.26316398  0.11045117  0.67808805  1
  S  S39  1  0.58507593  0.38954883  0.32191195  1
  S  S40  1  0.10871581  0.58893128  0.87644582  1
  S  S41  1  0.23226999  0.91106872  0.12355418  1
  S  S42  1  0.89128419  0.41106872  0.12355418  1
  S  S43  1  0.76773001  0.08893128  0.87644582  1
  S  S44  1  0.35479746  0.54476363  0.10496664  1
  S  S45  1  0.24983082  0.95523637  0.89503336  1
  S  S46  1  0.64520254  0.45523637  0.89503336  1
  S  S47  1  0.75016918  0.04476363  0.10496664  1
