# generated using pymatgen
data_RbY(SeO3)2
_symmetry_space_group_name_H-M   'P 1'
_cell_length_a   5.86168501
_cell_length_b   8.95031404
_cell_length_c   14.02783966
_cell_angle_alpha   90.00000000
_cell_angle_beta   90.00000000
_cell_angle_gamma   90.00000000
_symmetry_Int_Tables_number   1
_chemical_formula_structural   RbY(SeO3)2
_chemical_formula_sum   'Rb4 Y4 Se8 O24'
_cell_volume   735.95548074
_cell_formula_units_Z   4
loop_
 _symmetry_equiv_pos_site_id
 _symmetry_equiv_pos_as_xyz
  1  'x, y, z'
loop_
 _atom_site_type_symbol
 _atom_site_label
 _atom_site_symmetry_multiplicity
 _atom_site_fract_x
 _atom_site_fract_y
 _atom_site_fract_z
 _atom_site_occupancy
  Rb  Rb0  1  0.25000000  0.99180897  0.62684712  1
  Rb  Rb1  1  0.25000000  0.50819103  0.12684712  1
  Rb  Rb2  1  0.75000000  0.00819103  0.37315288  1
  Rb  Rb3  1  0.75000000  0.49180897  0.87315288  1
  Y  Y4  1  0.25000000  0.81084937  0.89911880  1
  Y  Y5  1  0.25000000  0.68915063  0.39911880  1
  Y  Y6  1  0.75000000  0.18915063  0.10088120  1
  Y  Y7  1  0.75000000  0.31084937  0.60088120  1
  Se  Se8  1  0.75000000  0.01763262  0.79747455  1
  Se  Se9  1  0.75000000  0.48236738  0.29747455  1
  Se  Se10  1  0.25000000  0.98236738  0.20252545  1
  Se  Se11  1  0.25000000  0.51763262  0.70252545  1
  Se  Se12  1  0.75000000  0.71485081  0.56187894  1
  Se  Se13  1  0.75000000  0.78514919  0.06187894  1
  Se  Se14  1  0.25000000  0.28514919  0.43812106  1
  Se  Se15  1  0.25000000  0.21485081  0.93812106  1
  O  O16  1  0.97948379  0.89712010  0.79531357  1
  O  O17  1  0.52051621  0.60287990  0.29531357  1
  O  O18  1  0.47948379  0.10287990  0.20468643  1
  O  O19  1  0.02051621  0.39712010  0.70468643  1
  O  O20  1  0.02051621  0.10287990  0.20468643  1
  O  O21  1  0.47948379  0.39712010  0.70468643  1
  O  O22  1  0.52051621  0.89712010  0.79531357  1
  O  O23  1  0.97948379  0.60287990  0.29531357  1
  O  O24  1  0.75000000  0.08484389  0.68131506  1
  O  O25  1  0.75000000  0.41515611  0.18131506  1
  O  O26  1  0.25000000  0.91515611  0.31868494  1
  O  O27  1  0.25000000  0.58484389  0.81868494  1
  O  O28  1  0.97995634  0.78780195  0.49991946  1
  O  O29  1  0.52004366  0.71219805  0.99991946  1
  O  O30  1  0.47995634  0.21219805  0.50008054  1
  O  O31  1  0.02004366  0.28780195  0.00008054  1
  O  O32  1  0.02004366  0.21219805  0.50008054  1
  O  O33  1  0.47995634  0.28780195  0.00008054  1
  O  O34  1  0.52004366  0.78780195  0.49991946  1
  O  O35  1  0.97995634  0.71219805  0.99991946  1
  O  O36  1  0.75000000  0.53221595  0.52604472  1
  O  O37  1  0.75000000  0.96778405  0.02604472  1
  O  O38  1  0.25000000  0.46778405  0.47395528  1
  O  O39  1  0.25000000  0.03221595  0.97395528  1
