# generated using pymatgen
data_KAl(BH4)4
_symmetry_space_group_name_H-M   'P 1'
_cell_length_a   8.37535275
_cell_length_b   8.37535275
_cell_length_c   8.91983310
_cell_angle_alpha   109.26232501
_cell_angle_beta   109.26232501
_cell_angle_gamma   107.29669969
_symmetry_Int_Tables_number   1
_chemical_formula_structural   KAl(BH4)4
_chemical_formula_sum   'K2 Al2 B8 H32'
_cell_volume   496.32537089
_cell_formula_units_Z   2
loop_
 _symmetry_equiv_pos_site_id
 _symmetry_equiv_pos_as_xyz
  1  'x, y, z'
loop_
 _atom_site_type_symbol
 _atom_site_label
 _atom_site_symmetry_multiplicity
 _atom_site_fract_x
 _atom_site_fract_y
 _atom_site_fract_z
 _atom_site_occupancy
  K  K0  1  0.37500000  0.12500000  0.25000000  1
  K  K1  1  0.62500000  0.87500000  0.75000000  1
  Al  Al2  1  0.12500000  0.37500000  0.75000000  1
  Al  Al3  1  0.87500000  0.62500000  0.25000000  1
  B  B4  1  0.75761737  0.64369948  0.44461283  1
  B  B5  1  0.69908665  0.31300455  0.05538717  1
  B  B6  1  0.85630052  0.74238263  0.05538717  1
  B  B7  1  0.18699545  0.80091335  0.44461283  1
  B  B8  1  0.24238263  0.35630052  0.55538717  1
  B  B9  1  0.30091335  0.68699545  0.94461283  1
  B  B10  1  0.14369948  0.25761737  0.94461283  1
  B  B11  1  0.81300455  0.19908665  0.55538717  1
  H  H12  1  0.74825440  0.72981133  0.35406471  1
  H  H13  1  0.87574662  0.39418969  0.14593529  1
  H  H14  1  0.77018867  0.75174560  0.14593529  1
  H  H15  1  0.10581031  0.62425338  0.35406471  1
  H  H16  1  0.25174560  0.27018867  0.64593529  1
  H  H17  1  0.12425338  0.60581031  0.85406471  1
  H  H18  1  0.22981133  0.24825440  0.85406471  1
  H  H19  1  0.89418969  0.37574662  0.64593529  1
  H  H20  1  0.84645045  0.76591441  0.60046619  1
  H  H21  1  0.66544822  0.24598426  0.89953381  1
  H  H22  1  0.73408559  0.65354955  0.89953381  1
  H  H23  1  0.25401574  0.83455178  0.60046619  1
  H  H24  1  0.15354955  0.23408559  0.39953381  1
  H  H25  1  0.33455178  0.75401574  0.10046619  1
  H  H26  1  0.26591441  0.34645045  0.10046619  1
  H  H27  1  0.74598426  0.16544822  0.39953381  1
  H  H28  1  0.85034296  0.55455315  0.42325936  1
  H  H29  1  0.63129379  0.42708360  0.07674064  1
  H  H30  1  0.94544685  0.64965704  0.07674064  1
  H  H31  1  0.07291640  0.86870621  0.42325936  1
  H  H32  1  0.14965704  0.44544685  0.57674064  1
  H  H33  1  0.36870621  0.57291640  0.92325936  1
  H  H34  1  0.05455315  0.35034296  0.92325936  1
  H  H35  1  0.92708360  0.13129379  0.57674064  1
  H  H36  1  0.59525319  0.52982760  0.38699603  1
  H  H37  1  0.64283157  0.20825716  0.11300397  1
  H  H38  1  0.97017240  0.90474681  0.11300397  1
  H  H39  1  0.29174284  0.85716843  0.38699603  1
  H  H40  1  0.40474681  0.47017240  0.61300397  1
  H  H41  1  0.35716843  0.79174284  0.88699603  1
  H  H42  1  0.02982760  0.09525319  0.88699603  1
  H  H43  1  0.70825716  0.14283157  0.61300397  1
