# generated using pymatgen
data_Rb2Pd(S4O13)2
_symmetry_space_group_name_H-M   'P 1'
_cell_length_a   7.72249810
_cell_length_b   8.85841524
_cell_length_c   9.53331068
_cell_angle_alpha   72.10555963
_cell_angle_beta   88.93529427
_cell_angle_gamma   72.67882886
_symmetry_Int_Tables_number   1
_chemical_formula_structural   Rb2Pd(S4O13)2
_chemical_formula_sum   'Rb2 Pd1 S8 O26'
_cell_volume   590.56115366
_cell_formula_units_Z   1
loop_
 _symmetry_equiv_pos_site_id
 _symmetry_equiv_pos_as_xyz
  1  'x, y, z'
loop_
 _atom_site_type_symbol
 _atom_site_label
 _atom_site_symmetry_multiplicity
 _atom_site_fract_x
 _atom_site_fract_y
 _atom_site_fract_z
 _atom_site_occupancy
  Rb  Rb0  1  0.86792770  0.26982888  0.11556761  1
  Rb  Rb1  1  0.13207230  0.73017112  0.88443239  1
  Pd  Pd2  1  0.50000000  0.50000000  0.50000000  1
  S  S3  1  0.32995801  0.36005488  0.29178155  1
  S  S4  1  0.67004199  0.63994512  0.70821845  1
  S  S5  1  0.12427543  0.19112922  0.51706393  1
  S  S6  1  0.87572457  0.80887078  0.48293607  1
  S  S7  1  0.61145176  0.15160922  0.77430248  1
  S  S8  1  0.38854824  0.84839078  0.22569752  1
  S  S9  1  0.21206420  0.22239461  0.80324795  1
  S  S10  1  0.78793580  0.77760539  0.19675205  1
  O  O11  1  0.29973685  0.18637454  0.42751689  1
  O  O12  1  0.70026315  0.81362546  0.57248311  1
  O  O13  1  0.29992002  0.48455579  0.37332063  1
  O  O14  1  0.70007998  0.51544421  0.62667937  1
  O  O15  1  0.18585298  0.40975328  0.17810771  1
  O  O16  1  0.81414702  0.59024672  0.82189229  1
  O  O17  1  0.15219838  0.29933056  0.62389685  1
  O  O18  1  0.84780162  0.70066944  0.37610315  1
  O  O19  1  0.96259172  0.29619654  0.42548973  1
  O  O20  1  0.03740828  0.70380346  0.57451027  1
  O  O21  1  0.51435290  0.29082768  0.26317145  1
  O  O22  1  0.48564710  0.70917232  0.73682855  1
  O  O23  1  0.14645455  0.02341162  0.60468235  1
  O  O24  1  0.85354545  0.97658838  0.39531765  1
  O  O25  1  0.57629705  0.24710373  0.61350469  1
  O  O26  1  0.42370295  0.75289627  0.38649531  1
  O  O27  1  0.40556717  0.09459160  0.81284134  1
  O  O28  1  0.59443283  0.90540840  0.18715866  1
  O  O29  1  0.21696445  0.36642411  0.83855103  1
  O  O30  1  0.78303555  0.63357589  0.16144897  1
  O  O31  1  0.09420477  0.12837548  0.87175884  1
  O  O32  1  0.90579523  0.87162452  0.12824116  1
  O  O33  1  0.61978688  0.24469160  0.87208035  1
  O  O34  1  0.38021312  0.75530840  0.12791965  1
  O  O35  1  0.73371364  0.98676159  0.80128743  1
  O  O36  1  0.26628636  0.01323841  0.19871257  1
