# generated using pymatgen
data_BaU2Se5
_symmetry_space_group_name_H-M   'P 1'
_cell_length_a   7.87804282
_cell_length_b   8.84811011
_cell_length_c   12.29712500
_cell_angle_alpha   90.26156861
_cell_angle_beta   90.00000000
_cell_angle_gamma   90.00000000
_symmetry_Int_Tables_number   1
_chemical_formula_structural   BaU2Se5
_chemical_formula_sum   'Ba4 U8 Se20'
_cell_volume   857.17188391
_cell_formula_units_Z   4
loop_
 _symmetry_equiv_pos_site_id
 _symmetry_equiv_pos_as_xyz
  1  'x, y, z'
loop_
 _atom_site_type_symbol
 _atom_site_label
 _atom_site_symmetry_multiplicity
 _atom_site_fract_x
 _atom_site_fract_y
 _atom_site_fract_z
 _atom_site_occupancy
  Ba  Ba0  1  0.55527422  0.49219624  0.16905041  1
  Ba  Ba1  1  0.05527422  0.50780376  0.33094959  1
  Ba  Ba2  1  0.44472578  0.50780376  0.83094959  1
  Ba  Ba3  1  0.94472578  0.49219624  0.66905041  1
  U  U4  1  0.52334086  0.99923556  0.18164278  1
  U  U5  1  0.02334086  0.00076444  0.31835722  1
  U  U6  1  0.47665914  0.00076444  0.81835722  1
  U  U7  1  0.97665914  0.99923556  0.68164278  1
  U  U8  1  0.57075171  0.75652555  0.49206738  1
  U  U9  1  0.07075171  0.24347445  0.00793262  1
  U  U10  1  0.42924829  0.24347445  0.50793262  1
  U  U11  1  0.92924829  0.75652555  0.99206738  1
  Se  Se12  1  0.16366384  0.95518278  0.09732572  1
  Se  Se13  1  0.66366384  0.04481722  0.40267428  1
  Se  Se14  1  0.83633616  0.04481722  0.90267428  1
  Se  Se15  1  0.33633616  0.95518278  0.59732572  1
  Se  Se16  1  0.95197419  0.79211746  0.49843973  1
  Se  Se17  1  0.45197419  0.20788254  0.00156027  1
  Se  Se18  1  0.04802581  0.20788254  0.50156027  1
  Se  Se19  1  0.54802581  0.79211746  0.99843973  1
  Se  Se20  1  0.33977579  0.78403821  0.31186251  1
  Se  Se21  1  0.83977579  0.21596179  0.18813749  1
  Se  Se22  1  0.66022421  0.21596179  0.68813749  1
  Se  Se23  1  0.16022421  0.78403821  0.81186251  1
  Se  Se24  1  0.81262879  0.77473228  0.21573022  1
  Se  Se25  1  0.31262879  0.22526772  0.28426978  1
  Se  Se26  1  0.18737121  0.22526772  0.78426978  1
  Se  Se27  1  0.68737121  0.77473228  0.71573022  1
  Se  Se28  1  0.67680083  0.46094099  0.42894017  1
  Se  Se29  1  0.17680083  0.53905901  0.07105983  1
  Se  Se30  1  0.32319917  0.53905901  0.57105983  1
  Se  Se31  1  0.82319917  0.46094099  0.92894017  1
