# generated using pymatgen
data_Th(PO3)4
_symmetry_space_group_name_H-M   'P 1'
_cell_length_a   8.34799213
_cell_length_b   8.90543027
_cell_length_c   14.82849054
_cell_angle_alpha   78.56434573
_cell_angle_beta   74.64188801
_cell_angle_gamma   62.23392221
_symmetry_Int_Tables_number   1
_chemical_formula_structural   Th(PO3)4
_chemical_formula_sum   'Th4 P16 O48'
_cell_volume   936.99083219
_cell_formula_units_Z   4
loop_
 _symmetry_equiv_pos_site_id
 _symmetry_equiv_pos_as_xyz
  1  'x, y, z'
loop_
 _atom_site_type_symbol
 _atom_site_label
 _atom_site_symmetry_multiplicity
 _atom_site_fract_x
 _atom_site_fract_y
 _atom_site_fract_z
 _atom_site_occupancy
  Th  Th0  1  0.62674927  0.67262640  0.60810919  1
  Th  Th1  1  0.37325073  0.32737360  0.39189081  1
  Th  Th2  1  0.90719530  0.83833881  0.88987043  1
  Th  Th3  1  0.09280470  0.16166119  0.11012957  1
  P  P4  1  0.24692031  0.01406190  0.74377417  1
  P  P5  1  0.75307969  0.98593810  0.25622583  1
  P  P6  1  0.30419007  0.46865265  0.74628628  1
  P  P7  1  0.69580993  0.53134735  0.25371372  1
  P  P8  1  0.60289718  0.86528521  0.13284733  1
  P  P9  1  0.39710282  0.13471479  0.86715267  1
  P  P10  1  0.88835804  0.64692011  0.35869710  1
  P  P11  1  0.11164196  0.35307989  0.64130290  1
  P  P12  1  0.87909891  0.92129921  0.63149770  1
  P  P13  1  0.12090109  0.07870079  0.36850230  1
  P  P14  1  0.26548665  0.72320076  0.02078481  1
  P  P15  1  0.73451335  0.27679924  0.97921519  1
  P  P16  1  0.62621862  0.62256900  0.87586394  1
  P  P17  1  0.37378138  0.37743100  0.12413606  1
  P  P18  1  0.23603518  0.74614928  0.49433372  1
  P  P19  1  0.76396482  0.25385072  0.50566628  1
  O  O20  1  0.78210350  0.64321569  0.89531047  1
  O  O21  1  0.21789650  0.35678431  0.10468953  1
  O  O22  1  0.34754152  0.57115051  0.09949254  1
  O  O23  1  0.65245848  0.42884949  0.90050746  1
  O  O24  1  0.79732220  0.71117106  0.45406615  1
  O  O25  1  0.20267780  0.28882894  0.54593385  1
  O  O26  1  0.86610346  0.10104120  0.57879313  1
  O  O27  1  0.13389654  0.89895880  0.42120687  1
  O  O28  1  0.74579267  0.87526465  0.60699750  1
  O  O29  1  0.25420733  0.12473535  0.39300250  1
  O  O30  1  0.90767310  0.79784397  0.28274480  1
  O  O31  1  0.09232690  0.20215603  0.71725520  1
  O  O32  1  0.61816518  0.94587758  0.21619886  1
  O  O33  1  0.38183482  0.05412242  0.78380114  1
  O  O34  1  0.41257181  0.30425488  0.81222447  1
  O  O35  1  0.58742819  0.69574512  0.18777553  1
  O  O36  1  0.42017422  0.98103184  0.10655640  1
  O  O37  1  0.57982578  0.01896816  0.89344360  1
  O  O38  1  0.77418622  0.81899694  0.05725582  1
  O  O39  1  0.22581378  0.18100306  0.94274418  1
  O  O40  1  0.15959388  0.67968466  0.97108320  1
  O  O41  1  0.84040612  0.32031534  0.02891680  1
  O  O42  1  0.35914106  0.92724318  0.65551754  1
  O  O43  1  0.64085894  0.07275682  0.34448246  1
  O  O44  1  0.58449315  0.67619043  0.77937567  1
  O  O45  1  0.41550685  0.32380957  0.22062433  1
  O  O46  1  0.41023229  0.74464133  0.50510611  1
  O  O47  1  0.58976771  0.25535867  0.49489389  1
  O  O48  1  0.07639150  0.49872114  0.34687661  1
  O  O49  1  0.92360850  0.50127886  0.65312339  1
  O  O50  1  0.15025429  0.92777147  0.81793690  1
  O  O51  1  0.84974571  0.07222853  0.18206310  1
  O  O52  1  0.86746338  0.92971381  0.73315813  1
  O  O53  1  0.13253662  0.07028619  0.26684187  1
  O  O54  1  0.44668569  0.52599751  0.68858387  1
  O  O55  1  0.55331431  0.47400249  0.31141613  1
  O  O56  1  0.24530776  0.58899819  0.46649110  1
  O  O57  1  0.75469224  0.41100181  0.53350890  1
  O  O58  1  0.74344228  0.61123650  0.32508205  1
  O  O59  1  0.25655772  0.38876350  0.67491795  1
  O  O60  1  0.08964433  0.79489300  0.59192827  1
  O  O61  1  0.91035567  0.20510700  0.40807173  1
  O  O62  1  0.44859294  0.72512867  0.95243429  1
  O  O63  1  0.55140706  0.27487133  0.04756571  1
  O  O64  1  0.16917499  0.88695191  0.06604120  1
  O  O65  1  0.83082501  0.11304809  0.93395880  1
  O  O66  1  0.13328125  0.59372665  0.80203803  1
  O  O67  1  0.86671875  0.40627335  0.19796197  1
