# generated using pymatgen
data_Li4Co3O7
_symmetry_space_group_name_H-M   'P 1'
_cell_length_a   5.16209688
_cell_length_b   10.48400023
_cell_length_c   5.09720299
_cell_angle_alpha   104.06924872
_cell_angle_beta   70.19926362
_cell_angle_gamma   94.72355565
_symmetry_Int_Tables_number   1
_chemical_formula_structural   Li4Co3O7
_chemical_formula_sum   'Li8 Co6 O14'
_cell_volume   251.76223988
_cell_formula_units_Z   2
loop_
 _symmetry_equiv_pos_site_id
 _symmetry_equiv_pos_as_xyz
  1  'x, y, z'
loop_
 _atom_site_type_symbol
 _atom_site_label
 _atom_site_symmetry_multiplicity
 _atom_site_fract_x
 _atom_site_fract_y
 _atom_site_fract_z
 _atom_site_occupancy
  Li  Li0  1  0.50000000  0.14361684  0.07180892  1
  Li  Li1  1  0.50000000  0.28452147  0.64226073  1
  Li  Li2  1  0.50000000  0.42976353  0.21488227  1
  Li  Li3  1  0.50000000  0.57066916  0.78533408  1
  Li  Li4  1  0.50000000  0.71960495  0.35980247  1
  Li  Li5  1  0.50000000  0.85714300  0.92857100  1
  Li  Li6  1  0.50000000  0.99468105  0.49734053  1
  Li  Li7  1  -0.00000000  0.85714300  0.42857100  1
  Co  Co8  1  1.00000000  0.99729812  0.99864906  1
  Co  Co9  1  0.00000000  0.71698788  0.85849394  1
  Co  Co10  1  1.00000000  0.13646831  0.56823466  1
  Co  Co11  1  1.00000000  0.28677443  0.14338722  1
  Co  Co12  1  0.00000000  0.42751057  0.71375578  1
  Co  Co13  1  0.00000000  0.57781769  0.28890834  1
  O  O14  1  0.22994997  0.14333838  0.83165197  1
  O  O15  1  0.22639139  0.28558794  0.40689676  1
  O  O16  1  0.22639139  0.42869706  0.97845183  1
  O  O17  1  0.22994997  0.57094762  0.54545559  1
  O  O18  1  0.22536041  0.70500873  0.09795911  1
  O  O19  1  0.23398812  0.85714300  0.70546488  1
  O  O20  1  0.22536041  0.00927727  0.25009338  1
  O  O21  1  0.77005003  0.14333838  0.31168741  1
  O  O22  1  0.77360861  0.28558794  0.87869117  1
  O  O23  1  0.77360861  0.42869706  0.45024624  1
  O  O24  1  0.77005003  0.57094762  0.02549103  1
  O  O25  1  0.77463959  0.70500873  0.60704962  1
  O  O26  1  0.76601188  0.85714300  0.15167712  1
  O  O27  1  0.77463959  0.00927727  0.75918389  1
