# generated using pymatgen
data_SmFeGe2O7
_symmetry_space_group_name_H-M   'P 1'
_cell_length_a   6.66708657
_cell_length_b   7.31476632
_cell_length_c   11.65399865
_cell_angle_alpha   83.77511598
_cell_angle_beta   90.00000000
_cell_angle_gamma   90.00000000
_symmetry_Int_Tables_number   1
_chemical_formula_structural   SmFeGe2O7
_chemical_formula_sum   'Sm4 Fe4 Ge8 O28'
_cell_volume   564.99332986
_cell_formula_units_Z   4
loop_
 _symmetry_equiv_pos_site_id
 _symmetry_equiv_pos_as_xyz
  1  'x, y, z'
loop_
 _atom_site_type_symbol
 _atom_site_label
 _atom_site_symmetry_multiplicity
 _atom_site_fract_x
 _atom_site_fract_y
 _atom_site_fract_z
 _atom_site_occupancy
  Sm  Sm0  1  0.64892116  0.76647364  0.47461060  1
  Sm  Sm1  1  0.14892116  0.73352636  0.02538940  1
  Sm  Sm2  1  0.35107884  0.23352636  0.52538940  1
  Sm  Sm3  1  0.85107884  0.26647364  0.97461060  1
  Fe  Fe4  1  0.90439427  0.97896272  0.23024060  1
  Fe  Fe5  1  0.40439427  0.52103728  0.26975940  1
  Fe  Fe6  1  0.09560573  0.02103728  0.76975940  1
  Fe  Fe7  1  0.59560573  0.47896272  0.73024060  1
  Ge  Ge8  1  0.15940741  0.75664660  0.46171863  1
  Ge  Ge9  1  0.65940741  0.74335340  0.03828137  1
  Ge  Ge10  1  0.84059259  0.24335340  0.53828137  1
  Ge  Ge11  1  0.34059259  0.25664660  0.96171863  1
  Ge  Ge12  1  0.91522168  0.42300306  0.27693669  1
  Ge  Ge13  1  0.41522168  0.07699694  0.22306331  1
  Ge  Ge14  1  0.08477832  0.57699694  0.72306331  1
  Ge  Ge15  1  0.58477832  0.92300306  0.77693669  1
  O  O16  1  0.32931333  0.92845197  0.48297398  1
  O  O17  1  0.82931333  0.57154803  0.01702602  1
  O  O18  1  0.67068667  0.07154803  0.51702602  1
  O  O19  1  0.17068667  0.42845197  0.98297398  1
  O  O20  1  0.61346240  0.93717802  0.28147254  1
  O  O21  1  0.11346240  0.56282198  0.21852746  1
  O  O22  1  0.38653760  0.06282198  0.71852746  1
  O  O23  1  0.88653760  0.43717802  0.78147254  1
  O  O24  1  0.87806824  0.24072059  0.18982696  1
  O  O25  1  0.37806824  0.25927941  0.31017304  1
  O  O26  1  0.12193176  0.75927941  0.81017304  1
  O  O27  1  0.62193176  0.74072059  0.68982696  1
  O  O28  1  0.83943353  0.91242347  0.07396866  1
  O  O29  1  0.33943353  0.58757653  0.42603134  1
  O  O30  1  0.16056647  0.08757653  0.92603134  1
  O  O31  1  0.66056647  0.41242347  0.57396866  1
  O  O32  1  0.50100320  0.17910839  0.08145284  1
  O  O33  1  0.00100320  0.32089161  0.41854716  1
  O  O34  1  0.49899680  0.82089161  0.91854716  1
  O  O35  1  0.99899680  0.67910839  0.58145284  1
  O  O36  1  0.95362080  0.83149028  0.37483511  1
  O  O37  1  0.45362080  0.66850972  0.12516489  1
  O  O38  1  0.04637920  0.16850972  0.62516489  1
  O  O39  1  0.54637920  0.33149028  0.87483511  1
  O  O40  1  0.69360728  0.53511806  0.31393186  1
  O  O41  1  0.19360728  0.96488194  0.18606814  1
  O  O42  1  0.30639272  0.46488194  0.68606814  1
  O  O43  1  0.80639272  0.03511806  0.81393186  1
