# generated using pymatgen
data_FeGe3H4PbO10
_symmetry_space_group_name_H-M   'P 1'
_cell_length_a   5.48014979
_cell_length_b   6.01749089
_cell_length_c   13.75037624
_cell_angle_alpha   90.00000000
_cell_angle_beta   90.00000000
_cell_angle_gamma   112.16266302
_symmetry_Int_Tables_number   1
_chemical_formula_structural   FeGe3H4PbO10
_chemical_formula_sum   'Fe2 Ge6 H8 Pb2 O20'
_cell_volume   419.94085272
_cell_formula_units_Z   2
loop_
 _symmetry_equiv_pos_site_id
 _symmetry_equiv_pos_as_xyz
  1  'x, y, z'
loop_
 _atom_site_type_symbol
 _atom_site_label
 _atom_site_symmetry_multiplicity
 _atom_site_fract_x
 _atom_site_fract_y
 _atom_site_fract_z
 _atom_site_occupancy
  Fe  Fe0  1  0.00000000  0.50000000  0.50000000  1
  Fe  Fe1  1  0.00000000  0.50000000  -0.00000000  1
  Ge  Ge2  1  0.50000000  -0.00000000  0.50000000  1
  Ge  Ge3  1  0.50000000  -0.00000000  -0.00000000  1
  Ge  Ge4  1  0.00202644  0.96304441  0.62908534  1
  Ge  Ge5  1  0.99797356  0.03695559  0.12908534  1
  Ge  Ge6  1  0.99797356  0.03695559  0.37091466  1
  Ge  Ge7  1  0.00202644  0.96304441  0.87091466  1
  H  H8  1  0.54023143  0.63704405  0.56533366  1
  H  H9  1  0.45976857  0.36295595  0.06533366  1
  H  H10  1  0.45976857  0.36295595  0.43466634  1
  H  H11  1  0.54023143  0.63704405  0.93466634  1
  H  H12  1  0.65232224  0.34996403  0.30955453  1
  H  H13  1  0.34767776  0.65003597  0.80955453  1
  H  H14  1  0.34767776  0.65003597  0.69044547  1
  H  H15  1  0.65232224  0.34996403  0.19044547  1
  Pb  Pb16  1  0.32330874  0.64700470  0.25000000  1
  Pb  Pb17  1  0.67669126  0.35299530  0.75000000  1
  O  O18  1  0.06790332  0.96794659  0.25000000  1
  O  O19  1  0.93209668  0.03205341  0.75000000  1
  O  O20  1  0.34724109  0.10022553  0.61129252  1
  O  O21  1  0.65275891  0.89977447  0.11129252  1
  O  O22  1  0.65275891  0.89977447  0.38870748  1
  O  O23  1  0.34724109  0.10022553  0.88870748  1
  O  O24  1  0.85437813  0.64911805  0.88699338  1
  O  O25  1  0.14562187  0.35088195  0.38699338  1
  O  O26  1  0.14562187  0.35088195  0.11300662  1
  O  O27  1  0.85437813  0.64911805  0.61300662  1
  O  O28  1  0.84121791  0.12577753  0.56231765  1
  O  O29  1  0.15878209  0.87422247  0.06231765  1
  O  O30  1  0.15878209  0.87422247  0.43768235  1
  O  O31  1  0.84121791  0.12577753  0.93768235  1
  O  O32  1  0.38965367  0.69020223  0.55763660  1
  O  O33  1  0.61034633  0.30979777  0.05763660  1
  O  O34  1  0.61034633  0.30979777  0.44236340  1
  O  O35  1  0.38965367  0.69020223  0.94236340  1
  O  O36  1  0.67393524  0.44875626  0.25000000  1
  O  O37  1  0.32606476  0.55124374  0.75000000  1
