# generated using pymatgen
data_Th(SeO3)2
_symmetry_space_group_name_H-M   'P 1'
_cell_length_a   7.27729493
_cell_length_b   7.53360183
_cell_length_c   10.94187797
_cell_angle_alpha   90.00000000
_cell_angle_beta   90.00000000
_cell_angle_gamma   107.55907347
_symmetry_Int_Tables_number   1
_chemical_formula_structural   Th(SeO3)2
_chemical_formula_sum   'Th4 Se8 O24'
_cell_volume   571.92959822
_cell_formula_units_Z   4
loop_
 _symmetry_equiv_pos_site_id
 _symmetry_equiv_pos_as_xyz
  1  'x, y, z'
loop_
 _atom_site_type_symbol
 _atom_site_label
 _atom_site_symmetry_multiplicity
 _atom_site_fract_x
 _atom_site_fract_y
 _atom_site_fract_z
 _atom_site_occupancy
  Th  Th0  1  0.26210143  0.01704411  0.09840262  1
  Th  Th1  1  0.76210143  0.51704411  0.40159738  1
  Th  Th2  1  0.73789857  0.98295589  0.90159738  1
  Th  Th3  1  0.23789857  0.48295589  0.59840262  1
  Se  Se4  1  0.22626779  0.93764492  0.43519420  1
  Se  Se5  1  0.72626779  0.43764492  0.06480580  1
  Se  Se6  1  0.77373221  0.06235508  0.56480580  1
  Se  Se7  1  0.27373221  0.56235508  0.93519420  1
  Se  Se8  1  0.26147837  0.06433581  0.78523495  1
  Se  Se9  1  0.76147837  0.56433581  0.71476505  1
  Se  Se10  1  0.73852163  0.93566419  0.21476505  1
  Se  Se11  1  0.23852163  0.43566419  0.28523495  1
  O  O12  1  0.09608836  0.08235259  0.89873640  1
  O  O13  1  0.59608836  0.58235259  0.60126360  1
  O  O14  1  0.90391164  0.91764741  0.10126360  1
  O  O15  1  0.40391164  0.41764741  0.39873640  1
  O  O16  1  0.31267572  0.78816943  0.52264166  1
  O  O17  1  0.81267572  0.28816943  0.97735834  1
  O  O18  1  0.68732428  0.21183057  0.47735834  1
  O  O19  1  0.18732428  0.71183057  0.02264166  1
  O  O20  1  0.42900958  0.04515175  0.89545466  1
  O  O21  1  0.92900958  0.54515175  0.60454534  1
  O  O22  1  0.57099042  0.95484825  0.10454534  1
  O  O23  1  0.07099042  0.45484825  0.39545466  1
  O  O24  1  0.35288095  0.28998973  0.73880385  1
  O  O25  1  0.85288095  0.78998973  0.76119615  1
  O  O26  1  0.64711905  0.71001027  0.26119615  1
  O  O27  1  0.14711905  0.21001027  0.23880385  1
  O  O28  1  0.31700559  0.91137465  0.29205068  1
  O  O29  1  0.81700559  0.41137465  0.20794932  1
  O  O30  1  0.68299441  0.08862535  0.70794932  1
  O  O31  1  0.18299441  0.58862535  0.79205068  1
  O  O32  1  0.98478562  0.81746196  0.40912471  1
  O  O33  1  0.48478562  0.31746196  0.09087529  1
  O  O34  1  0.01521438  0.18253804  0.59087529  1
  O  O35  1  0.51521438  0.68253804  0.90912471  1
