# generated using pymatgen
data_YAg(IO3)4
_symmetry_space_group_name_H-M   'P 1'
_cell_length_a   5.64476218
_cell_length_b   12.68526760
_cell_length_c   16.15183254
_cell_angle_alpha   90.95729049
_cell_angle_beta   100.06356364
_cell_angle_gamma   90.00000000
_symmetry_Int_Tables_number   1
_chemical_formula_structural   YAg(IO3)4
_chemical_formula_sum   'Y4 Ag4 I16 O48'
_cell_volume   1138.59896466
_cell_formula_units_Z   4
loop_
 _symmetry_equiv_pos_site_id
 _symmetry_equiv_pos_as_xyz
  1  'x, y, z'
loop_
 _atom_site_type_symbol
 _atom_site_label
 _atom_site_symmetry_multiplicity
 _atom_site_fract_x
 _atom_site_fract_y
 _atom_site_fract_z
 _atom_site_occupancy
  Y  Y0  1  0.22921785  0.16840688  0.03373553  1
  Y  Y1  1  0.80451768  0.66840688  0.03373553  1
  Y  Y2  1  0.03073135  0.17385898  0.44488287  1
  Y  Y3  1  0.41415152  0.67385898  0.44488287  1
  Ag  Ag4  1  0.42364120  0.28912215  0.26670168  1
  Ag  Ag5  1  0.84306048  0.78912215  0.26670168  1
  Ag  Ag6  1  0.29376095  0.87616683  0.12063966  1
  Ag  Ag7  1  0.82687871  0.37616683  0.12063966  1
  I  I8  1  0.68167881  0.26019954  0.88165220  1
  I  I9  1  0.19997339  0.76019954  0.88165220  1
  I  I10  1  0.08685434  0.03142980  0.80339843  1
  I  I11  1  0.71654409  0.53142980  0.80339843  1
  I  I12  1  0.69508872  0.96292828  0.99430684  1
  I  I13  1  0.29921811  0.46292828  0.99430684  1
  I  I14  1  0.84603747  0.12776962  0.20383602  1
  I  I15  1  0.35779855  0.62776962  0.20383602  1
  I  I16  1  0.36353234  0.97046078  0.32410927  1
  I  I17  1  0.96057692  0.47046078  0.32410927  1
  I  I18  1  0.56366701  0.07584831  0.59904382  1
  I  I19  1  0.03537681  0.57584831  0.59904382  1
  I  I20  1  0.16230349  0.30599586  0.67685052  1
  I  I21  1  0.51454703  0.80599586  0.67685052  1
  I  I22  1  0.53897152  0.38016658  0.48257552  1
  I  I23  1  0.94360400  0.88016658  0.48257552  1
  O  O24  1  0.92274221  0.28726831  0.97345823  1
  O  O25  1  0.05071602  0.78726831  0.97345823  1
  O  O26  1  0.50434411  0.38116246  0.88905009  1
  O  O27  1  0.38470598  0.88116246  0.88905009  1
  O  O28  1  0.50100793  0.16867690  0.93300228  1
  O  O29  1  0.43199434  0.66867690  0.93300228  1
  O  O30  1  0.01433370  0.09295350  0.90130826  1
  O  O31  1  0.88697456  0.59295350  0.90130826  1
  O  O32  1  0.88614741  0.11417093  0.72998573  1
  O  O33  1  0.84383832  0.61417093  0.72998573  1
  O  O34  1  0.90213943  0.91243415  0.80112761  1
  O  O35  1  0.89898818  0.41243415  0.80112761  1
  O  O36  1  0.93636945  0.03901708  0.06407159  1
  O  O37  1  0.12770214  0.53901708  0.06407159  1
  O  O38  1  0.43570652  0.01050490  0.03962700  1
  O  O39  1  0.60392047  0.51050490  0.03962700  1
  O  O40  1  0.70524676  0.84357878  0.05664180  1
  O  O41  1  0.35139504  0.34357878  0.05664180  1
  O  O42  1  0.06220103  0.21300125  0.15939923  1
  O  O43  1  0.09719821  0.71300125  0.15939923  1
  O  O44  1  0.57318454  0.19098515  0.14629557  1
  O  O45  1  0.57311102  0.69098515  0.14629557  1
  O  O46  1  0.82639302  0.20378076  0.30214464  1
  O  O47  1  0.47575161  0.70378076  0.30214464  1
  O  O48  1  0.26561174  0.10821834  0.33533204  1
  O  O49  1  0.06972031  0.60821834  0.33533204  1
  O  O50  1  0.57203747  0.98188058  0.24946403  1
  O  O51  1  0.67742656  0.48188058  0.24946403  1
  O  O52  1  0.11041063  0.92498441  0.24377355  1
  O  O53  1  0.13336292  0.42498441  0.24377355  1
  O  O54  1  0.31115201  0.04961973  0.51085295  1
  O  O55  1  0.19970094  0.54961973  0.51085295  1
  O  O56  1  0.72757401  0.95127081  0.58995604  1
  O  O57  1  0.86238203  0.45127081  0.58995604  1
  O  O58  1  0.74282514  0.16423227  0.54505107  1
  O  O59  1  0.80222594  0.66423227  0.54505107  1
  O  O60  1  0.23120601  0.25045865  0.57663845  1
  O  O61  1  0.34543244  0.75045865  0.57663845  1
  O  O62  1  0.36846279  0.22136751  0.74709291  1
  O  O63  1  0.37863012  0.72136751  0.74709291  1
  O  O64  1  0.34329628  0.42644592  0.68243891  1
  O  O65  1  0.33914263  0.92644592  0.68243891  1
  O  O66  1  0.28621684  0.31192447  0.41236262  1
  O  O67  1  0.12614578  0.81192447  0.41236262  1
  O  O68  1  0.77869044  0.31934230  0.43604298  1
  O  O69  1  0.65735255  0.81934230  0.43604298  1
  O  O70  1  0.54148135  0.50153721  0.42144007  1
  O  O71  1  0.87995871  0.00153721  0.42144007  1
