# generated using pymatgen
data_Li3MnCoO5
_symmetry_space_group_name_H-M   'P 1'
_cell_length_a   2.97311036
_cell_length_b   12.50563567
_cell_length_c   5.07517847
_cell_angle_alpha   101.07798519
_cell_angle_beta   76.32322837
_cell_angle_gamma   91.78319304
_symmetry_Int_Tables_number   1
_chemical_formula_structural   Li3MnCoO5
_chemical_formula_sum   'Li6 Mn2 Co2 O10'
_cell_volume   179.91115263
_cell_formula_units_Z   2
loop_
 _symmetry_equiv_pos_site_id
 _symmetry_equiv_pos_as_xyz
  1  'x, y, z'
loop_
 _atom_site_type_symbol
 _atom_site_label
 _atom_site_symmetry_multiplicity
 _atom_site_fract_x
 _atom_site_fract_y
 _atom_site_fract_z
 _atom_site_occupancy
  Li  Li0  1  0.68552914  0.10304718  0.60980762  1
  Li  Li1  1  0.10130656  0.29937709  0.80410155  1
  Li  Li2  1  0.49323711  0.50399190  0.99781558  1
  Li  Li3  1  0.90171799  0.70216340  0.19014751  1
  Li  Li4  1  0.32967497  0.88978786  0.38741099  1
  Li  Li5  1  0.58164760  0.79950642  0.81676175  1
  Mn  Mn6  1  0.00572749  0.99425085  0.99841461  1
  Mn  Mn7  1  0.79752127  0.40137226  0.40031605  1
  Co  Co8  1  0.41630034  0.19958691  0.19328185  1
  Co  Co9  1  0.18693879  0.60945333  0.60623936  1
  O  O10  1  0.39610086  0.05131434  0.26202609  1
  O  O11  1  0.73422062  0.25144523  0.47998907  1
  O  O12  1  0.12834771  0.45896796  0.68478667  1
  O  O13  1  0.53279367  0.64556624  0.87213804  1
  O  O14  1  0.94226963  0.86199564  0.10761244  1
  O  O15  1  0.07488667  0.14624610  0.91907746  1
  O  O16  1  0.47277272  0.34402506  0.10864453  1
  O  O17  1  0.86194652  0.54694200  0.31838402  1
  O  O18  1  0.25178331  0.73420732  0.50047571  1
  O  O19  1  0.60527702  0.95675291  0.74256909  1
