# generated using pymatgen
data_TmCo5P3
_symmetry_space_group_name_H-M   'P 1'
_cell_length_a   3.62933516
_cell_length_b   10.26026208
_cell_length_c   11.69013896
_cell_angle_alpha   90.00000000
_cell_angle_beta   90.00000000
_cell_angle_gamma   90.00000000
_symmetry_Int_Tables_number   1
_chemical_formula_structural   TmCo5P3
_chemical_formula_sum   'Tm4 Co20 P12'
_cell_volume   435.31657532
_cell_formula_units_Z   4
loop_
 _symmetry_equiv_pos_site_id
 _symmetry_equiv_pos_as_xyz
  1  'x, y, z'
loop_
 _atom_site_type_symbol
 _atom_site_label
 _atom_site_symmetry_multiplicity
 _atom_site_fract_x
 _atom_site_fract_y
 _atom_site_fract_z
 _atom_site_occupancy
  Tm  Tm0  1  0.25000000  0.58287231  0.70300621  1
  Tm  Tm1  1  0.25000000  0.91712769  0.20300621  1
  Tm  Tm2  1  0.75000000  0.41712769  0.29699379  1
  Tm  Tm3  1  0.75000000  0.08287231  0.79699379  1
  Co  Co4  1  0.25000000  0.71668703  0.99038782  1
  Co  Co5  1  0.25000000  0.78331297  0.49038782  1
  Co  Co6  1  0.75000000  0.28331297  0.00961218  1
  Co  Co7  1  0.75000000  0.21668703  0.50961218  1
  Co  Co8  1  0.25000000  0.40698968  0.48696431  1
  Co  Co9  1  0.25000000  0.09301032  0.98696431  1
  Co  Co10  1  0.75000000  0.59301032  0.51303569  1
  Co  Co11  1  0.75000000  0.90698968  0.01303569  1
  Co  Co12  1  0.25000000  0.22092389  0.17647569  1
  Co  Co13  1  0.25000000  0.27907611  0.67647569  1
  Co  Co14  1  0.75000000  0.77907611  0.82352431  1
  Co  Co15  1  0.75000000  0.72092389  0.32352431  1
  Co  Co16  1  0.25000000  0.88279940  0.69850733  1
  Co  Co17  1  0.25000000  0.61720060  0.19850733  1
  Co  Co18  1  0.75000000  0.11720060  0.30149267  1
  Co  Co19  1  0.75000000  0.38279940  0.80149267  1
  Co  Co20  1  0.25000000  0.46738537  0.93134314  1
  Co  Co21  1  0.25000000  0.03261463  0.43134314  1
  Co  Co22  1  0.75000000  0.53261463  0.06865686  1
  Co  Co23  1  0.75000000  0.96738537  0.56865686  1
  P  P24  1  0.25000000  0.41815814  0.11252735  1
  P  P25  1  0.25000000  0.08184186  0.61252735  1
  P  P26  1  0.75000000  0.58184186  0.88747265  1
  P  P27  1  0.75000000  0.91815814  0.38747265  1
  P  P28  1  0.25000000  0.26930341  0.87001240  1
  P  P29  1  0.25000000  0.23069659  0.37001240  1
  P  P30  1  0.75000000  0.73069659  0.12998760  1
  P  P31  1  0.75000000  0.76930341  0.62998760  1
  P  P32  1  0.25000000  0.60082918  0.39044943  1
  P  P33  1  0.25000000  0.89917082  0.89044943  1
  P  P34  1  0.75000000  0.39917082  0.60955057  1
  P  P35  1  0.75000000  0.10082918  0.10955057  1
