# generated using pymatgen
data_VPb2Se3O10
_symmetry_space_group_name_H-M   'P 1'
_cell_length_a   5.29279625
_cell_length_b   11.48218773
_cell_length_c   16.33586308
_cell_angle_alpha   90.00000000
_cell_angle_beta   90.00000000
_cell_angle_gamma   90.46885877
_symmetry_Int_Tables_number   1
_chemical_formula_structural   VPb2Se3O10
_chemical_formula_sum   'V4 Pb8 Se12 O40'
_cell_volume   992.74421058
_cell_formula_units_Z   4
loop_
 _symmetry_equiv_pos_site_id
 _symmetry_equiv_pos_as_xyz
  1  'x, y, z'
loop_
 _atom_site_type_symbol
 _atom_site_label
 _atom_site_symmetry_multiplicity
 _atom_site_fract_x
 _atom_site_fract_y
 _atom_site_fract_z
 _atom_site_occupancy
  V  V0  1  0.75860892  0.94035423  0.19264171  1
  V  V1  1  0.25860892  0.44035423  0.30735829  1
  V  V2  1  0.24139108  0.05964577  0.80735829  1
  V  V3  1  0.74139108  0.55964577  0.69264171  1
  Pb  Pb4  1  0.73066263  0.93361206  0.41385753  1
  Pb  Pb5  1  0.23066263  0.43361206  0.08614247  1
  Pb  Pb6  1  0.26933737  0.06638794  0.58614247  1
  Pb  Pb7  1  0.76933737  0.56638794  0.91385753  1
  Pb  Pb8  1  0.75294978  0.31668886  0.49046861  1
  Pb  Pb9  1  0.25294978  0.81668886  0.00953139  1
  Pb  Pb10  1  0.24705022  0.68331114  0.50953139  1
  Pb  Pb11  1  0.74705022  0.18331114  0.99046861  1
  Se  Se12  1  0.74396218  0.84302331  0.62615569  1
  Se  Se13  1  0.24396218  0.34302331  0.87384431  1
  Se  Se14  1  0.25603782  0.15697669  0.37384431  1
  Se  Se15  1  0.75603782  0.65697669  0.12615569  1
  Se  Se16  1  0.77061980  0.58662575  0.35387508  1
  Se  Se17  1  0.27061980  0.08662575  0.14612492  1
  Se  Se18  1  0.22938020  0.41337425  0.64612492  1
  Se  Se19  1  0.72938020  0.91337425  0.85387508  1
  Se  Se20  1  0.75777650  0.29500082  0.20894027  1
  Se  Se21  1  0.25777650  0.79500082  0.29105973  1
  Se  Se22  1  0.24222350  0.70499918  0.79105973  1
  Se  Se23  1  0.74222350  0.20499918  0.70894027  1
  O  O24  1  0.82828119  0.68712558  0.42911024  1
  O  O25  1  0.32828119  0.18712558  0.07088976  1
  O  O26  1  0.17171881  0.31287442  0.57088976  1
  O  O27  1  0.67171881  0.81287442  0.92911024  1
  O  O28  1  0.54566214  0.90344698  0.55177096  1
  O  O29  1  0.04566214  0.40344698  0.94822904  1
  O  O30  1  0.45433786  0.09655302  0.44822904  1
  O  O31  1  0.95433786  0.59655302  0.05177096  1
  O  O32  1  0.55814274  0.80619408  0.24849984  1
  O  O33  1  0.05814274  0.30619408  0.25150016  1
  O  O34  1  0.44185726  0.19380592  0.75150016  1
  O  O35  1  0.94185726  0.69380592  0.74849984  1
  O  O36  1  0.47080843  0.53653305  0.38605378  1
  O  O37  1  0.97080843  0.03653305  0.11394622  1
  O  O38  1  0.52919157  0.46346695  0.61394622  1
  O  O39  1  0.02919157  0.96346695  0.88605378  1
  O  O40  1  0.63268490  0.70030263  0.61775938  1
  O  O41  1  0.13268490  0.20030263  0.88224062  1
  O  O42  1  0.36731510  0.29969737  0.38224062  1
  O  O43  1  0.86731510  0.79969737  0.11775938  1
  O  O44  1  0.97855117  0.15576197  0.42919730  1
  O  O45  1  0.47855117  0.65576197  0.07080270  1
  O  O46  1  0.02144883  0.84423803  0.57080270  1
  O  O47  1  0.52144883  0.34423803  0.92919730  1
  O  O48  1  0.67053228  0.03768117  0.26371861  1
  O  O49  1  0.17053228  0.53768117  0.23628139  1
  O  O50  1  0.32946772  0.96231883  0.73628139  1
  O  O51  1  0.82946772  0.46231883  0.76371861  1
  O  O52  1  0.96585367  0.47121474  0.38681602  1
  O  O53  1  0.46585367  0.97121474  0.11318398  1
  O  O54  1  0.03414633  0.52878526  0.61318398  1
  O  O55  1  0.53414633  0.02878526  0.88681602  1
  O  O56  1  0.32271326  0.83905382  0.39106360  1
  O  O57  1  0.82271326  0.33905382  0.10893640  1
  O  O58  1  0.67728674  0.16094618  0.60893640  1
  O  O59  1  0.17728674  0.66094618  0.89106360  1
  O  O60  1  0.59181166  0.41520758  0.24142751  1
  O  O61  1  0.09181166  0.91520758  0.25857249  1
  O  O62  1  0.40818834  0.58479242  0.75857249  1
  O  O63  1  0.90818834  0.08479242  0.74142751  1
