# generated using pymatgen
data_LaAg(IO3)4
_symmetry_space_group_name_H-M   'P 1'
_cell_length_a   5.77184066
_cell_length_b   13.07818043
_cell_length_c   16.42935922
_cell_angle_alpha   90.65042303
_cell_angle_beta   100.11685253
_cell_angle_gamma   90.00000000
_symmetry_Int_Tables_number   1
_chemical_formula_structural   LaAg(IO3)4
_chemical_formula_sum   'La4 Ag4 I16 O48'
_cell_volume   1220.80910102
_cell_formula_units_Z   4
loop_
 _symmetry_equiv_pos_site_id
 _symmetry_equiv_pos_as_xyz
  1  'x, y, z'
loop_
 _atom_site_type_symbol
 _atom_site_label
 _atom_site_symmetry_multiplicity
 _atom_site_fract_x
 _atom_site_fract_y
 _atom_site_fract_z
 _atom_site_occupancy
  La  La0  1  0.72655088  0.49977744  0.04211520  1
  La  La1  1  0.31556432  0.99977744  0.04211520  1
  La  La2  1  0.53542643  0.50116806  0.45936955  1
  La  La3  1  0.92394312  0.00116806  0.45936955  1
  Ag  Ag4  1  0.92271882  0.61856989  0.27762147  1
  Ag  Ag5  1  0.35490266  0.11856989  0.27762147  1
  Ag  Ag6  1  0.32897592  0.70628948  0.13008115  1
  Ag  Ag7  1  0.80110524  0.20628948  0.13008115  1
  I  I8  1  0.34253543  0.46073047  0.21592800  1
  I  I9  1  0.87339257  0.96073047  0.21592800  1
  I  I10  1  0.59187521  0.36354570  0.81182749  1
  I  I11  1  0.21995228  0.86354570  0.81182749  1
  I  I12  1  0.17806262  0.59544978  0.89118738  1
  I  I13  1  0.71312477  0.09544978  0.89118738  1
  I  I14  1  0.44865145  0.20873382  0.49299568  1
  I  I15  1  0.04434423  0.70873382  0.49299568  1
  I  I16  1  0.07348950  0.39771338  0.61164393  1
  I  I17  1  0.53815444  0.89771338  0.61164393  1
  I  I18  1  0.86253748  0.29811692  0.33056875  1
  I  I19  1  0.46803128  0.79811692  0.33056875  1
  I  I20  1  0.67095848  0.63331622  0.69171921  1
  I  I21  1  0.02076074  0.13331622  0.69171921  1
  I  I22  1  0.80722623  0.79350065  0.00553537  1
  I  I23  1  0.19830914  0.29350065  0.00553537  1
  O  O24  1  0.54953705  0.54498402  0.17258575  1
  O  O25  1  0.62304870  0.04498402  0.17258575  1
  O  O26  1  0.07148577  0.51885375  0.15964262  1
  O  O27  1  0.08815686  0.01885375  0.15964262  1
  O  O28  1  0.32111542  0.53298614  0.31188724  1
  O  O29  1  0.99077182  0.03298614  0.31188724  1
  O  O30  1  0.40143432  0.44056884  0.73549701  1
  O  O31  1  0.33406269  0.94056884  0.73549701  1
  O  O32  1  0.41906461  0.24629227  0.81180462  1
  O  O33  1  0.39274001  0.74629227  0.81180462  1
  O  O34  1  0.51601965  0.42633369  0.90572572  1
  O  O35  1  0.38970607  0.92633369  0.90572572  1
  O  O36  1  0.99165560  0.70815745  0.89922915  1
  O  O37  1  0.90757355  0.20815745  0.89922915  1
  O  O38  1  0.01812756  0.50071291  0.94280435  1
  O  O39  1  0.92467679  0.00071291  0.94280435  1
  O  O40  1  0.41617888  0.62426805  0.98045170  1
  O  O41  1  0.56427283  0.12426805  0.98045170  1
  O  O42  1  0.16592767  0.15062646  0.44986855  1
  O  O43  1  0.28394087  0.65062646  0.44986855  1
  O  O44  1  0.38962626  0.32577023  0.43237456  1
  O  O45  1  0.04274830  0.82577023  0.43237456  1
  O  O46  1  0.62197295  0.14123919  0.42345716  1
  O  O47  1  0.80148421  0.64123919  0.42345716  1
  O  O48  1  0.23285229  0.48775976  0.55621250  1
  O  O49  1  0.32336022  0.98775976  0.55621250  1
  O  O50  1  0.23978208  0.27943500  0.60122946  1
  O  O51  1  0.36144738  0.77943500  0.60122946  1
  O  O52  1  0.81966544  0.37216949  0.52743337  1
  O  O53  1  0.70776793  0.87216949  0.52743337  1
  O  O54  1  0.07015389  0.30915084  0.25825296  1
  O  O55  1  0.18809907  0.80915084  0.25825296  1
  O  O56  1  0.61513502  0.25175223  0.25234724  1
  O  O57  1  0.63721222  0.75175223  0.25234724  1
  O  O58  1  0.76676248  0.43143351  0.34134930  1
  O  O59  1  0.57458683  0.93143351  0.34134930  1
  O  O60  1  0.84151083  0.75150756  0.69659772  1
  O  O61  1  0.85508688  0.25150756  0.69659772  1
  O  O62  1  0.87029887  0.55129029  0.76220541  1
  O  O63  1  0.89190654  0.05129029  0.76220541  1
  O  O64  1  0.73681930  0.57886373  0.59389347  1
  O  O65  1  0.85707417  0.07886373  0.59389347  1
  O  O66  1  0.85115093  0.67809442  0.06796396  1
  O  O67  1  0.21681303  0.17809442  0.06796396  1
  O  O68  1  0.10936445  0.83719968  0.04656666  1
  O  O69  1  0.93720221  0.33719968  0.04656666  1
  O  O70  1  0.64861501  0.87009868  0.07440430  1
  O  O71  1  0.42578929  0.37009868  0.07440430  1
