# generated using pymatgen
data_Tm5Zr3(Ni4As3)4
_symmetry_space_group_name_H-M   'P 1'
_cell_length_a   3.89946524
_cell_length_b   12.73126233
_cell_length_c   12.73679618
_cell_angle_alpha   119.98562713
_cell_angle_beta   90.00000000
_cell_angle_gamma   90.00000000
_symmetry_Int_Tables_number   1
_chemical_formula_structural   Tm5Zr3(Ni4As3)4
_chemical_formula_sum   'Tm5 Zr3 Ni16 As12'
_cell_volume   547.68422487
_cell_formula_units_Z   1
loop_
 _symmetry_equiv_pos_site_id
 _symmetry_equiv_pos_as_xyz
  1  'x, y, z'
loop_
 _atom_site_type_symbol
 _atom_site_label
 _atom_site_symmetry_multiplicity
 _atom_site_fract_x
 _atom_site_fract_y
 _atom_site_fract_z
 _atom_site_occupancy
  Tm  Tm0  1  0.50000000  -0.00000792  0.18118999  1
  Tm  Tm1  1  0.50000000  0.18117132  1.00000000  1
  Tm  Tm2  1  0.50000000  0.81880209  0.81881001  1
  Tm  Tm3  1  0.00000000  0.33329362  0.66653792  1
  Tm  Tm4  1  0.00000000  0.66675570  0.33346208  1
  Zr  Zr5  1  0.00000000  0.00002715  0.56234629  1
  Zr  Zr6  1  0.00000000  0.56233394  0.00000000  1
  Zr  Zr7  1  0.00000000  0.43768086  0.43765371  1
  Ni  Ni8  1  0.50000000  0.00017924  0.72323419  1
  Ni  Ni9  1  0.50000000  0.72302216  0.00000000  1
  Ni  Ni10  1  0.50000000  0.27694506  0.27676581  1
  Ni  Ni11  1  0.00000000  0.19150058  0.37328540  1
  Ni  Ni12  1  0.00000000  0.18153648  0.80838743  1
  Ni  Ni13  1  0.00000000  0.62653438  0.81769072  1
  Ni  Ni14  1  -0.00000000  0.81821518  0.62671460  1
  Ni  Ni15  1  0.00000000  0.37314905  0.19161257  1
  Ni  Ni16  1  0.00000000  0.80884365  0.18230928  1
  Ni  Ni17  1  0.50000000  0.12164553  0.48171453  1
  Ni  Ni18  1  0.50000000  0.36009824  0.87824053  1
  Ni  Ni19  1  0.50000000  0.51828493  0.64030110  1
  Ni  Ni20  1  0.50000000  0.63993100  0.51828547  1
  Ni  Ni21  1  0.50000000  0.48185770  0.12175947  1
  Ni  Ni22  1  0.50000000  0.87798383  0.35969890  1
  Ni  Ni23  1  0.00000000  0.00002657  1.00000000  1
  As  As24  1  0.00000000  0.99991901  0.82315479  1
  As  As25  1  0.00000000  0.82316020  0.00000000  1
  As  As26  1  0.00000000  0.17676423  0.17684521  1
  As  As27  1  0.50000000  0.30788924  0.48093956  1
  As  As28  1  0.50000000  0.17310570  0.69191134  1
  As  As29  1  0.50000000  0.51899433  0.82698442  1
  As  As30  1  0.50000000  0.82694967  0.51906044  1
  As  As31  1  0.50000000  0.48119436  0.30808866  1
  As  As32  1  0.50000000  0.69200990  0.17301558  1
  As  As33  1  0.00000000  0.00024805  0.35469577  1
  As  As34  1  0.00000000  0.35430266  1.00000000  1
  As  As35  1  0.00000000  0.64555228  0.64530423  1
