# generated using pymatgen
data_BaMnP(O2F)2
_symmetry_space_group_name_H-M   'P 1'
_cell_length_a   5.26544830
_cell_length_b   7.42781631
_cell_length_c   13.01595310
_cell_angle_alpha   90.00000000
_cell_angle_beta   90.00000000
_cell_angle_gamma   103.41024600
_symmetry_Int_Tables_number   1
_chemical_formula_structural   BaMnP(O2F)2
_chemical_formula_sum   'Ba4 Mn4 P4 O16 F8'
_cell_volume   495.18418598
_cell_formula_units_Z   4
loop_
 _symmetry_equiv_pos_site_id
 _symmetry_equiv_pos_as_xyz
  1  'x, y, z'
loop_
 _atom_site_type_symbol
 _atom_site_label
 _atom_site_symmetry_multiplicity
 _atom_site_fract_x
 _atom_site_fract_y
 _atom_site_fract_z
 _atom_site_occupancy
  Ba  Ba0  1  0.45851629  0.31010657  0.29695684  1
  Ba  Ba1  1  0.04148371  0.18989343  0.79695684  1
  Ba  Ba2  1  0.54148371  0.68989343  0.70304316  1
  Ba  Ba3  1  0.95851629  0.81010657  0.20304316  1
  Mn  Mn4  1  0.50000000  0.50000000  -0.00000000  1
  Mn  Mn5  1  0.00000000  0.00000000  0.50000000  1
  Mn  Mn6  1  0.50000000  0.00000000  0.00000000  1
  Mn  Mn7  1  0.00000000  0.50000000  0.50000000  1
  P  P8  1  0.93260818  0.30278765  0.10980959  1
  P  P9  1  0.56739182  0.19721235  0.60980959  1
  P  P10  1  0.06739182  0.69721235  0.89019041  1
  P  P11  1  0.43260818  0.80278765  0.39019041  1
  O  O12  1  0.92612824  0.20277432  0.21293708  1
  O  O13  1  0.57387176  0.29722568  0.71293708  1
  O  O14  1  0.07387176  0.79722568  0.78706292  1
  O  O15  1  0.42612824  0.70277432  0.28706292  1
  O  O16  1  0.21381979  0.42579878  0.09476604  1
  O  O17  1  0.28618021  0.07420122  0.59476604  1
  O  O18  1  0.78618021  0.57420122  0.90523396  1
  O  O19  1  0.71381979  0.92579878  0.40523396  1
  O  O20  1  0.85302691  0.16331789  0.01868138  1
  O  O21  1  0.64697309  0.33668211  0.51868138  1
  O  O22  1  0.14697309  0.83668211  0.98131862  1
  O  O23  1  0.35302691  0.66331789  0.48131862  1
  O  O24  1  0.74274794  0.43825400  0.11399849  1
  O  O25  1  0.75725206  0.06174600  0.61399849  1
  O  O26  1  0.25725206  0.56174600  0.88600151  1
  O  O27  1  0.24274794  0.93825400  0.38600151  1
  F  F28  1  0.39098408  0.05285682  0.13503562  1
  F  F29  1  0.10901592  0.44714318  0.63503562  1
  F  F30  1  0.60901592  0.94714318  0.86496438  1
  F  F31  1  0.89098408  0.55285682  0.36496438  1
  F  F32  1  0.40393232  0.23570841  0.93762045  1
  F  F33  1  0.09606768  0.26429159  0.43762045  1
  F  F34  1  0.59606768  0.76429159  0.06237955  1
  F  F35  1  0.90393232  0.73570841  0.56237955  1
