# generated using pymatgen
data_RbNa2Fe3P4ClO14
_symmetry_space_group_name_H-M   'P 1'
_cell_length_a   5.25984326
_cell_length_b   10.88329213
_cell_length_c   13.04315720
_cell_angle_alpha   70.37920155
_cell_angle_beta   78.36757520
_cell_angle_gamma   76.01619813
_symmetry_Int_Tables_number   1
_chemical_formula_structural   RbNa2Fe3P4ClO14
_chemical_formula_sum   'Rb2 Na4 Fe6 P8 Cl2 O28'
_cell_volume   676.49590194
_cell_formula_units_Z   2
loop_
 _symmetry_equiv_pos_site_id
 _symmetry_equiv_pos_as_xyz
  1  'x, y, z'
loop_
 _atom_site_type_symbol
 _atom_site_label
 _atom_site_symmetry_multiplicity
 _atom_site_fract_x
 _atom_site_fract_y
 _atom_site_fract_z
 _atom_site_occupancy
  Rb  Rb0  1  0.50000000  0.50000000  0.50000000  1
  Rb  Rb1  1  0.50000000  -0.00000000  0.00000000  1
  Na  Na2  1  0.24794455  0.79111786  0.65099275  1
  Na  Na3  1  0.69005516  0.70888214  0.84900725  1
  Na  Na4  1  0.75205545  0.20888214  0.34900725  1
  Na  Na5  1  0.30994484  0.29111786  0.15099275  1
  Fe  Fe6  1  0.66421304  0.03452984  0.65773252  1
  Fe  Fe7  1  0.35647541  0.46547016  0.84226748  1
  Fe  Fe8  1  0.33578696  0.96547016  0.34226748  1
  Fe  Fe9  1  0.64352459  0.53452984  0.15773252  1
  Fe  Fe10  1  0.93952777  0.25000000  0.75000000  1
  Fe  Fe11  1  0.06047223  0.75000000  0.25000000  1
  P  P12  1  0.17896855  0.17652160  0.50729633  1
  P  P13  1  0.86278648  0.32347840  0.99270367  1
  P  P14  1  0.82103145  0.82347840  0.49270367  1
  P  P15  1  0.13721352  0.67652160  0.00729633  1
  P  P16  1  0.87155911  0.56368557  0.67239270  1
  P  P17  1  0.10763737  0.93631443  0.82760730  1
  P  P18  1  0.12844089  0.43631443  0.32760730  1
  P  P19  1  0.89236263  0.06368557  0.17239270  1
  Cl  Cl20  1  0.46102325  0.25000000  0.75000000  1
  Cl  Cl21  1  0.53897675  0.75000000  0.25000000  1
  O  O22  1  0.95490824  0.43083237  0.64791410  1
  O  O23  1  0.03365471  0.06916763  0.85208590  1
  O  O24  1  0.04509176  0.56916763  0.35208590  1
  O  O25  1  0.96634529  0.93083237  0.14791410  1
  O  O26  1  0.06767422  0.33502067  0.45024929  1
  O  O27  1  0.85294418  0.16497933  0.04975071  1
  O  O28  1  0.93232578  0.66497933  0.54975071  1
  O  O29  1  0.14705582  0.83502067  0.95024929  1
  O  O30  1  0.88207286  0.90209316  0.78989266  1
  O  O31  1  0.57405868  0.59790684  0.71010734  1
  O  O32  1  0.11792714  0.09790684  0.21010734  1
  O  O33  1  0.42594132  0.40209316  0.28989266  1
  O  O34  1  0.98761603  0.14608786  0.61469970  1
  O  O35  1  0.74840359  0.35391214  0.88530030  1
  O  O36  1  0.01238397  0.85391214  0.38530030  1
  O  O37  1  0.25159641  0.64608786  0.11469970  1
  O  O38  1  0.46500470  0.16341531  0.52614509  1
  O  O39  1  0.15456510  0.33658469  0.97385491  1
  O  O40  1  0.53499530  0.83658469  0.47385491  1
  O  O41  1  0.84543490  0.66341531  0.02614509  1
  O  O42  1  0.04012075  0.58537132  0.74587933  1
  O  O43  1  0.37137140  0.91462868  0.75412067  1
  O  O44  1  0.95987925  0.41462868  0.25412067  1
  O  O45  1  0.62862860  0.08537132  0.24587933  1
  O  O46  1  0.84648518  0.89148032  0.57376877  1
  O  O47  1  0.31173427  0.60851968  0.92623123  1
  O  O48  1  0.15351482  0.10851968  0.42623123  1
  O  O49  1  0.68826573  0.39148032  0.07376877  1
