# generated using pymatgen
data_Zr2Mn4P3
_symmetry_space_group_name_H-M   'P 1'
_cell_length_a   3.58499312
_cell_length_b   12.62949020
_cell_length_c   12.63527169
_cell_angle_alpha   119.98486859
_cell_angle_beta   90.00000000
_cell_angle_gamma   90.00000000
_symmetry_Int_Tables_number   1
_chemical_formula_structural   Zr2Mn4P3
_chemical_formula_sum   'Zr8 Mn16 P12'
_cell_volume   495.51358043
_cell_formula_units_Z   4
loop_
 _symmetry_equiv_pos_site_id
 _symmetry_equiv_pos_as_xyz
  1  'x, y, z'
loop_
 _atom_site_type_symbol
 _atom_site_label
 _atom_site_symmetry_multiplicity
 _atom_site_fract_x
 _atom_site_fract_y
 _atom_site_fract_z
 _atom_site_occupancy
  Zr  Zr0  1  0.50000000  0.99985244  0.17165003  1
  Zr  Zr1  1  0.50000000  0.17160328  1.00000000  1
  Zr  Zr2  1  0.50000000  0.82820240  0.82834997  1
  Zr  Zr3  1  -0.00000000  0.33336920  0.66661342  1
  Zr  Zr4  1  -0.00000000  0.66675578  0.33338658  1
  Zr  Zr5  1  -0.00000000  0.99994836  0.54445759  1
  Zr  Zr6  1  0.00000000  0.54449496  1.00000000  1
  Zr  Zr7  1  -0.00000000  0.45549077  0.45554241  1
  Mn  Mn8  1  0.50000000  0.99992362  0.71622634  1
  Mn  Mn9  1  0.50000000  0.71632486  1.00000000  1
  Mn  Mn10  1  0.50000000  0.28369729  0.28377366  1
  Mn  Mn11  1  0.00000000  0.19823939  0.37266611  1
  Mn  Mn12  1  0.00000000  0.17433448  0.80170168  1
  Mn  Mn13  1  -0.00000000  0.62738685  0.82558414  1
  Mn  Mn14  1  0.00000000  0.82557329  0.62733389  1
  Mn  Mn15  1  0.00000000  0.37263280  0.19829832  1
  Mn  Mn16  1  -0.00000000  0.80180271  0.17441586  1
  Mn  Mn17  1  0.50000000  0.12534872  0.46813863  1
  Mn  Mn18  1  0.50000000  0.34281478  0.87455412  1
  Mn  Mn19  1  0.50000000  0.53183267  0.65726591  1
  Mn  Mn20  1  0.50000000  0.65721009  0.53186137  1
  Mn  Mn21  1  0.50000000  0.46826066  0.12544588  1
  Mn  Mn22  1  0.50000000  0.87456675  0.34273409  1
  Mn  Mn23  1  0.00000000  -0.00019015  0.00000000  1
  P  P24  1  0.00000000  0.99992418  0.82600329  1
  P  P25  1  -0.00000000  0.82632661  0.00000000  1
  P  P26  1  0.00000000  0.17392090  0.17399671  1
  P  P27  1  0.50000000  0.32045562  0.49106621  1
  P  P28  1  0.50000000  0.17055889  0.67951326  1
  P  P29  1  0.50000000  0.50904030  0.82938368  1
  P  P30  1  0.50000000  0.82938941  0.50893379  1
  P  P31  1  0.50000000  0.49104563  0.32048674  1
  P  P32  1  0.50000000  0.67965662  0.17061632  1
  P  P33  1  0.00000000  0.99998023  0.33665839  1
  P  P34  1  0.00000000  0.33680381  1.00000000  1
  P  P35  1  0.00000000  0.66332184  0.66334161  1
