# generated using pymatgen
data_Ga3Sb7(S4Cl7)2
_symmetry_space_group_name_H-M   'P 1'
_cell_length_a   8.99959880
_cell_length_b   12.29762795
_cell_length_c   17.46858498
_cell_angle_alpha   90.00000000
_cell_angle_beta   93.11738788
_cell_angle_gamma   90.00000000
_symmetry_Int_Tables_number   1
_chemical_formula_structural   Ga3Sb7(S4Cl7)2
_chemical_formula_sum   'Ga6 Sb14 S16 Cl28'
_cell_volume   1930.45235157
_cell_formula_units_Z   2
loop_
 _symmetry_equiv_pos_site_id
 _symmetry_equiv_pos_as_xyz
  1  'x, y, z'
loop_
 _atom_site_type_symbol
 _atom_site_label
 _atom_site_symmetry_multiplicity
 _atom_site_fract_x
 _atom_site_fract_y
 _atom_site_fract_z
 _atom_site_occupancy
  Ga  Ga0  1  0.27999461  0.85728388  0.96320885  1
  Ga  Ga1  1  0.72000539  0.35728388  0.03679115  1
  Ga  Ga2  1  0.23316903  0.38068764  0.73577088  1
  Ga  Ga3  1  0.76683097  0.88068764  0.26422912  1
  Ga  Ga4  1  0.26606411  0.86804644  0.52999916  1
  Ga  Ga5  1  0.73393589  0.36804644  0.47000084  1
  Sb  Sb6  1  0.68500160  0.86922405  0.75527611  1
  Sb  Sb7  1  0.31499840  0.36922405  0.24472389  1
  Sb  Sb8  1  0.95328393  0.07525793  0.85271994  1
  Sb  Sb9  1  0.04671607  0.57525793  0.14728006  1
  Sb  Sb10  1  0.56242584  0.14315900  0.84921145  1
  Sb  Sb11  1  0.43757416  0.64315900  0.15078855  1
  Sb  Sb12  1  0.75096479  0.15039444  0.65554868  1
  Sb  Sb13  1  0.24903521  0.65039444  0.34445132  1
  Sb  Sb14  1  0.57206202  0.59640241  0.65607064  1
  Sb  Sb15  1  0.42793798  0.09640241  0.34392936  1
  Sb  Sb16  1  0.96211447  0.66445626  0.67549220  1
  Sb  Sb17  1  0.03788553  0.16445626  0.32450780  1
  Sb  Sb18  1  0.75621942  0.58482871  0.85929993  1
  Sb  Sb19  1  0.24378058  0.08482871  0.14070007  1
  S  S20  1  0.91252790  0.99044333  0.71731372  1
  S  S21  1  0.08747210  0.49044333  0.28268628  1
  S  S22  1  0.79941314  0.24016183  0.82595133  1
  S  S23  1  0.20058686  0.74016183  0.17404867  1
  S  S24  1  0.72196900  0.97837062  0.89317950  1
  S  S25  1  0.27803100  0.47837062  0.10682050  1
  S  S26  1  0.52380978  0.07748191  0.71298976  1
  S  S27  1  0.47619022  0.57748191  0.28701024  1
  S  S28  1  0.73207850  0.75954455  0.61948473  1
  S  S29  1  0.26792150  0.25954455  0.38051527  1
  S  S30  1  0.81057610  0.49922599  0.69298049  1
  S  S31  1  0.18942390  0.99922599  0.30701951  1
  S  S32  1  0.91191561  0.74702703  0.80922111  1
  S  S33  1  0.08808439  0.24702703  0.19077889  1
  S  S34  1  0.52745799  0.66012319  0.79050920  1
  S  S35  1  0.47254201  0.16012319  0.20949080  1
  Cl  Cl36  1  0.72236726  0.69099510  0.97398140  1
  Cl  Cl37  1  0.27763274  0.19099510  0.02601860  1
  Cl  Cl38  1  0.69478350  0.03588916  0.54658127  1
  Cl  Cl39  1  0.30521650  0.53588916  0.45341873  1
  Cl  Cl40  1  0.28589885  0.67971155  0.96198474  1
  Cl  Cl41  1  0.71410115  0.17971155  0.03801526  1
  Cl  Cl42  1  0.45398968  0.92020874  0.04576434  1
  Cl  Cl43  1  0.54601032  0.42020874  0.95423566  1
  Cl  Cl44  1  0.05903849  0.91185249  0.99773504  1
  Cl  Cl45  1  0.94096151  0.41185249  0.00226496  1
  Cl  Cl46  1  0.31643928  0.92647568  0.84784589  1
  Cl  Cl47  1  0.68356072  0.42647568  0.15215411  1
  Cl  Cl48  1  0.48103035  0.36954175  0.75343112  1
  Cl  Cl49  1  0.51896965  0.86954175  0.24656888  1
  Cl  Cl50  1  0.18824864  0.45826466  0.62430969  1
  Cl  Cl51  1  0.81175136  0.95826466  0.37569031  1
  Cl  Cl52  1  0.15224475  0.21030504  0.73737568  1
  Cl  Cl53  1  0.84775525  0.71030504  0.26262432  1
  Cl  Cl54  1  0.13889345  0.48156330  0.82432102  1
  Cl  Cl55  1  0.86110655  0.98156330  0.17567898  1
  Cl  Cl56  1  0.33832152  0.81038752  0.64803789  1
  Cl  Cl57  1  0.66167848  0.31038752  0.35196211  1
  Cl  Cl58  1  0.23683306  0.04406917  0.52884347  1
  Cl  Cl59  1  0.76316694  0.54406917  0.47115653  1
  Cl  Cl60  1  0.43964678  0.82138353  0.45036797  1
  Cl  Cl61  1  0.56035322  0.32138353  0.54963203  1
  Cl  Cl62  1  0.05938435  0.77928309  0.49799473  1
  Cl  Cl63  1  0.94061565  0.27928309  0.50200527  1
