# generated using pymatgen
data_AgSO4
_symmetry_space_group_name_H-M   'P 1'
_cell_length_a   9.68067182
_cell_length_b   9.68488249
_cell_length_c   9.69893996
_cell_angle_alpha   117.24149879
_cell_angle_beta   117.12419241
_cell_angle_gamma   93.69922794
_symmetry_Int_Tables_number   1
_chemical_formula_structural   AgSO4
_chemical_formula_sum   'Ag8 S8 O32'
_cell_volume   675.31027044
_cell_formula_units_Z   8
loop_
 _symmetry_equiv_pos_site_id
 _symmetry_equiv_pos_as_xyz
  1  'x, y, z'
loop_
 _atom_site_type_symbol
 _atom_site_label
 _atom_site_symmetry_multiplicity
 _atom_site_fract_x
 _atom_site_fract_y
 _atom_site_fract_z
 _atom_site_occupancy
  Ag  Ag0  1  0.50000000  0.00000000  0.50000000  1
  Ag  Ag1  1  0.50000000  0.50000000  0.50000000  1
  Ag  Ag2  1  0.50000000  0.50000000  -0.00000000  1
  Ag  Ag3  1  0.50000000  0.00000000  -0.00000000  1
  Ag  Ag4  1  0.00000000  0.50000000  -0.00000000  1
  Ag  Ag5  1  0.00000000  0.00000000  -0.00000000  1
  Ag  Ag6  1  0.00000000  0.00000000  0.50000000  1
  Ag  Ag7  1  0.00000000  0.50000000  0.50000000  1
  S  S8  1  0.76292575  0.29523814  0.05792671  1
  S  S9  1  0.23707425  0.70476186  0.94207329  1
  S  S10  1  0.70514499  0.23739272  0.44275212  1
  S  S11  1  0.29485501  0.76260728  0.55724788  1
  S  S12  1  0.20260481  0.25216103  0.95659757  1
  S  S13  1  0.79739519  0.74783897  0.04340243  1
  S  S14  1  0.74743162  0.79622313  0.54175533  1
  S  S15  1  0.25256838  0.20377687  0.45824467  1
  O  O16  1  0.89657386  0.29329028  0.21548939  1
  O  O17  1  0.10342614  0.70670972  0.78451061  1
  O  O18  1  0.70712721  0.10354658  0.28499911  1
  O  O19  1  0.29287279  0.89645342  0.71500089  1
  O  O20  1  0.71848609  0.44355145  0.14028797  1
  O  O21  1  0.28151391  0.55644855  0.85971203  1
  O  O22  1  0.55654508  0.28139531  0.36038568  1
  O  O23  1  0.44345492  0.71860469  0.63961432  1
  O  O24  1  0.81908692  0.29897193  0.93909816  1
  O  O25  1  0.18091308  0.70102807  0.06090184  1
  O  O26  1  0.70122742  0.18139503  0.56138858  1
  O  O27  1  0.29877258  0.81860497  0.43861142  1
  O  O28  1  0.62049731  0.13683614  0.93095119  1
  O  O29  1  0.37950269  0.86316386  0.06904881  1
  O  O30  1  0.86307790  0.38002300  0.56958326  1
  O  O31  1  0.13692210  0.61997700  0.43041674  1
  O  O32  1  0.19509700  0.11521360  0.98834962  1
  O  O33  1  0.80490300  0.88478640  0.01165038  1
  O  O34  1  0.88355634  0.80388574  0.50914669  1
  O  O35  1  0.11644366  0.19611426  0.49085331  1
  O  O36  1  0.19609957  0.40054141  0.09870126  1
  O  O37  1  0.80390043  0.59945859  0.90129874  1
  O  O38  1  0.59924791  0.80413616  0.40129455  1
  O  O39  1  0.40075209  0.19586384  0.59870545  1
  O  O40  1  0.36572031  0.29060013  0.97797673  1
  O  O41  1  0.63427969  0.70939987  0.02202327  1
  O  O42  1  0.70784571  0.63247467  0.51822185  1
  O  O43  1  0.29215429  0.36752533  0.48177815  1
  O  O44  1  0.06122097  0.20363151  0.77156490  1
  O  O45  1  0.93877903  0.79636849  0.22843510  1
  O  O46  1  0.79668021  0.93717646  0.72800109  1
  O  O47  1  0.20331979  0.06282354  0.27199891  1
