# generated using pymatgen
data_Sm2ZrS5
_symmetry_space_group_name_H-M   'P 1'
_cell_length_a   7.36234046
_cell_length_b   7.89357878
_cell_length_c   11.72090163
_cell_angle_alpha   90.00000000
_cell_angle_beta   90.00000000
_cell_angle_gamma   90.00000000
_symmetry_Int_Tables_number   1
_chemical_formula_structural   Sm2ZrS5
_chemical_formula_sum   'Sm8 Zr4 S20'
_cell_volume   681.16271150
_cell_formula_units_Z   4
loop_
 _symmetry_equiv_pos_site_id
 _symmetry_equiv_pos_as_xyz
  1  'x, y, z'
loop_
 _atom_site_type_symbol
 _atom_site_label
 _atom_site_symmetry_multiplicity
 _atom_site_fract_x
 _atom_site_fract_y
 _atom_site_fract_z
 _atom_site_occupancy
  Sm  Sm0  1  0.97449025  0.00196896  0.17784452  1
  Sm  Sm1  1  0.52550975  0.49803104  0.67784452  1
  Sm  Sm2  1  0.02550975  0.50196896  0.82215548  1
  Sm  Sm3  1  0.47449025  0.99803104  0.32215548  1
  Sm  Sm4  1  0.02550975  0.99803104  0.82215548  1
  Sm  Sm5  1  0.47449025  0.50196896  0.32215548  1
  Sm  Sm6  1  0.97449025  0.49803104  0.17784452  1
  Sm  Sm7  1  0.52550975  0.00196896  0.67784452  1
  Zr  Zr8  1  0.42280604  0.75000000  0.00725422  1
  Zr  Zr9  1  0.07719396  0.75000000  0.50725422  1
  Zr  Zr10  1  0.57719396  0.25000000  0.99274578  1
  Zr  Zr11  1  0.92280604  0.25000000  0.49274578  1
  S  S12  1  0.66065809  0.53619794  0.90824849  1
  S  S13  1  0.83934191  0.96380206  0.40824849  1
  S  S14  1  0.33934191  0.03619794  0.09175151  1
  S  S15  1  0.16065809  0.46380206  0.59175151  1
  S  S16  1  0.33934191  0.46380206  0.09175151  1
  S  S17  1  0.16065809  0.03619794  0.59175151  1
  S  S18  1  0.66065809  0.96380206  0.90824849  1
  S  S19  1  0.83934191  0.53619794  0.40824849  1
  S  S20  1  0.66595924  0.75000000  0.18174691  1
  S  S21  1  0.83404076  0.75000000  0.68174691  1
  S  S22  1  0.33404076  0.25000000  0.81825309  1
  S  S23  1  0.16595924  0.25000000  0.31825309  1
  S  S24  1  0.05404283  0.75000000  0.00369743  1
  S  S25  1  0.44595717  0.75000000  0.50369743  1
  S  S26  1  0.94595717  0.25000000  0.99630257  1
  S  S27  1  0.55404283  0.25000000  0.49630257  1
  S  S28  1  0.31272366  0.75000000  0.79278820  1
  S  S29  1  0.18727634  0.75000000  0.29278820  1
  S  S30  1  0.68727634  0.25000000  0.20721180  1
  S  S31  1  0.81272366  0.25000000  0.70721180  1
