# generated using pymatgen
data_Li4Co3O7
_symmetry_space_group_name_H-M   'P 1'
_cell_length_a   2.91648344
_cell_length_b   7.84059252
_cell_length_c   11.33322327
_cell_angle_alpha   82.94946175
_cell_angle_beta   97.39272376
_cell_angle_gamma   79.28136605
_symmetry_Int_Tables_number   1
_chemical_formula_structural   Li4Co3O7
_chemical_formula_sum   'Li8 Co6 O14'
_cell_volume   249.64064226
_cell_formula_units_Z   2
loop_
 _symmetry_equiv_pos_site_id
 _symmetry_equiv_pos_as_xyz
  1  'x, y, z'
loop_
 _atom_site_type_symbol
 _atom_site_label
 _atom_site_symmetry_multiplicity
 _atom_site_fract_x
 _atom_site_fract_y
 _atom_site_fract_z
 _atom_site_occupancy
  Li  Li0  1  0.56931318  0.07288450  0.21150985  1
  Li  Li1  1  0.71471205  0.21685089  0.64627399  1
  Li  Li2  1  0.85671695  0.35457811  0.06801201  1
  Li  Li3  1  0.28571400  0.78571400  0.35714300  1
  Li  Li4  1  0.43116331  0.92714155  0.78946917  1
  Li  Li5  1  0.00211582  0.49854450  0.50277615  1
  Li  Li6  1  0.14026469  0.64428645  0.92481583  1
  Li  Li7  1  0.28571400  0.28571400  0.85714300  1
  Co  Co8  1  0.99007482  0.01176271  0.99191235  1
  Co  Co9  1  0.58135418  0.55966629  0.72237365  1
  Co  Co10  1  0.14391908  0.14181368  0.42965184  1
  Co  Co11  1  0.42750892  0.42961432  0.28463316  1
  Co  Co12  1  0.71250382  0.71316239  0.13816903  1
  Co  Co13  1  0.85892518  0.85826661  0.57611697  1
  O  O14  1  0.43337961  0.16571284  0.03247105  1
  O  O15  1  0.57371454  0.31236649  0.45979557  1
  O  O16  1  0.69827117  0.47698991  0.87353225  1
  O  O17  1  0.13252943  0.89437619  0.15943606  1
  O  O18  1  0.28877625  0.02878259  0.60633410  1
  O  O19  1  0.85585087  0.60396522  0.31566696  1
  O  O20  1  0.00427552  0.73680571  0.74535776  1
  O  O21  1  0.71557713  0.96746278  0.39861804  1
  O  O22  1  0.87315783  0.09443909  0.84075375  1
  O  O23  1  0.99771446  0.25906251  0.25449043  1
  O  O24  1  0.43889857  0.67705181  0.55484894  1
  O  O25  1  0.56715248  0.83462229  0.96892824  1
  O  O26  1  0.13804939  0.40571616  0.68181495  1
  O  O27  1  0.28265275  0.54264641  0.10795190  1
