# generated using pymatgen
data_Dy6H40N8O49
_symmetry_space_group_name_H-M   'P 1'
_cell_length_a   10.24338190
_cell_length_b   10.19388751
_cell_length_c   11.48428151
_cell_angle_alpha   109.00308415
_cell_angle_beta   95.36615217
_cell_angle_gamma   111.50023701
_symmetry_Int_Tables_number   1
_chemical_formula_structural   Dy6H40N8O49
_chemical_formula_sum   'Dy6 H40 N8 O49'
_cell_volume   1023.58815992
_cell_formula_units_Z   1
loop_
 _symmetry_equiv_pos_site_id
 _symmetry_equiv_pos_as_xyz
  1  'x, y, z'
loop_
 _atom_site_type_symbol
 _atom_site_label
 _atom_site_symmetry_multiplicity
 _atom_site_fract_x
 _atom_site_fract_y
 _atom_site_fract_z
 _atom_site_occupancy
  Dy  Dy0  1  0.52290594  0.26151482  0.38349010  1
  Dy  Dy1  1  0.47709406  0.73848518  0.61650990  1
  Dy  Dy2  1  0.23793159  0.34645602  0.47828546  1
  Dy  Dy3  1  0.76206841  0.65354398  0.52171454  1
  Dy  Dy4  1  0.43291300  0.51839860  0.29292349  1
  Dy  Dy5  1  0.56708700  0.48160140  0.70707651  1
  H  H6  1  0.25680979  0.19047156  0.21265598  1
  H  H7  1  0.74319021  0.80952844  0.78734402  1
  H  H8  1  0.35176121  0.15497334  0.55364462  1
  H  H9  1  0.64823879  0.84502666  0.44635538  1
  H  H10  1  0.20961155  0.58951341  0.40940992  1
  H  H11  1  0.79038845  0.41048659  0.59059008  1
  H  H12  1  0.67721526  0.44320501  0.24586066  1
  H  H13  1  0.32278474  0.55679499  0.75413934  1
  H  H14  1  0.45036179  0.03127856  0.12706058  1
  H  H15  1  0.54963821  0.96872144  0.87293942  1
  H  H16  1  0.59515035  0.16122211  0.12393618  1
  H  H17  1  0.40484965  0.83877789  0.87606382  1
  H  H18  1  0.23912488  0.98583565  0.29817273  1
  H  H19  1  0.76087512  0.01416435  0.70182727  1
  H  H20  1  0.35050919  0.90854225  0.29268478  1
  H  H21  1  0.64949081  0.09145775  0.70731522  1
  H  H22  1  0.01257966  0.04274409  0.30859719  1
  H  H23  1  0.98742034  0.95725591  0.69140281  1
  H  H24  1  0.05674541  0.97767273  0.40258516  1
  H  H25  1  0.94325459  0.02232727  0.59741484  1
  H  H26  1  0.93404491  0.25955912  0.31114037  1
  H  H27  1  0.06595509  0.74044088  0.68885963  1
  H  H28  1  0.05929959  0.31573994  0.24066103  1
  H  H29  1  0.94070041  0.68426006  0.75933897  1
  H  H30  1  0.15664154  0.51243924  0.14719148  1
  H  H31  1  0.84335846  0.48756076  0.85280852  1
  H  H32  1  0.15921090  0.35671938  0.06746625  1
  H  H33  1  0.84078910  0.64328062  0.93253375  1
  H  H34  1  0.42118024  0.35472692  0.00626289  1
  H  H35  1  0.57881976  0.64527308  0.99373711  1
  H  H36  1  0.41773023  0.24905207  0.08157769  1
  H  H37  1  0.58226977  0.75094793  0.91842231  1
  H  H38  1  0.01169562  0.27765986  0.88960900  1
  H  H39  1  0.98830438  0.72234014  0.11039100  1
  H  H40  1  0.15270379  0.26945569  0.85615337  1
  H  H41  1  0.84729621  0.73054431  0.14384663  1
  H  H42  1  0.19426967  0.96867996  0.01639671  1
  H  H43  1  0.80573033  0.03132004  0.98360329  1
  H  H44  1  0.06946258  0.95924273  0.08288561  1
  H  H45  1  0.93053742  0.04075727  0.91711439  1
  N  N46  1  0.71960849  0.10815300  0.39768507  1
  N  N47  1  0.28039151  0.89184700  0.60231493  1
  N  N48  1  0.01838322  0.31916133  0.62977823  1
  N  N49  1  0.98161678  0.68083867  0.37022177  1
  N  N50  1  0.49556803  0.75522008  0.18394464  1
  N  N51  1  0.50443197  0.24477992  0.81605536  1
  N  N52  1  0.78270902  0.31969056  0.04163454  1
  N  N53  1  0.21729098  0.68030944  0.95836546  1
  O  O54  1  0.50000000  0.50000000  0.50000000  1
  O  O55  1  0.31825737  0.27750025  0.29398103  1
  O  O56  1  0.68174263  0.72249975  0.70601897  1
  O  O57  1  0.39357025  0.25223350  0.54320623  1
  O  O58  1  0.60642975  0.74776650  0.45679377  1
  O  O59  1  0.29005231  0.56710546  0.43467865  1
  O  O60  1  0.70994769  0.43289454  0.56532135  1
  O  O61  1  0.63451657  0.46295979  0.31972723  1
  O  O62  1  0.36548343  0.53704021  0.68027277  1
  O  O63  1  0.50225948  0.14192689  0.15199414  1
  O  O64  1  0.49774052  0.85807311  0.84800586  1
  O  O65  1  0.33847087  0.00036876  0.29389709  1
  O  O66  1  0.66152913  0.99963124  0.70610291  1
  O  O67  1  0.09646014  0.05505515  0.36683513  1
  O  O68  1  0.90353986  0.94494485  0.63316487  1
  O  O69  1  0.03134645  0.26757986  0.30180386  1
  O  O70  1  0.96865355  0.73242014  0.69819614  1
  O  O71  1  0.18067883  0.43128635  0.15697951  1
  O  O72  1  0.81932117  0.56871365  0.84302049  1
  O  O73  1  0.40151114  0.33921350  0.08398809  1
  O  O74  1  0.59848886  0.66078650  0.91601191  1
  O  O75  1  0.08428386  0.24058945  0.90692169  1
  O  O76  1  0.91571614  0.75941055  0.09307831  1
  O  O77  1  0.15383458  0.03329836  0.06969747  1
  O  O78  1  0.84616542  0.96670164  0.93030253  1
  O  O79  1  0.60908067  0.08816076  0.44436657  1
  O  O80  1  0.39091933  0.91183924  0.55563343  1
  O  O81  1  0.75205477  0.20781351  0.34729768  1
  O  O82  1  0.24794523  0.79218649  0.65270232  1
  O  O83  1  0.79196810  0.03333564  0.40065298  1
  O  O84  1  0.20803190  0.96666436  0.59934702  1
  O  O85  1  0.04532051  0.40969445  0.57167421  1
  O  O86  1  0.95467949  0.59030555  0.42832579  1
  O  O87  1  0.09342839  0.24002881  0.62140714  1
  O  O88  1  0.90657161  0.75997119  0.37859286  1
  O  O89  1  0.92317727  0.30580626  0.69073509  1
  O  O90  1  0.07682273  0.69419374  0.30926491  1
  O  O91  1  0.54854990  0.65487876  0.15735197  1
  O  O92  1  0.45145010  0.34512124  0.84264803  1
  O  O93  1  0.40935694  0.74431005  0.25763996  1
  O  O94  1  0.59064306  0.25568995  0.74236004  1
  O  O95  1  0.52740105  0.85563445  0.13996576  1
  O  O96  1  0.47259895  0.14436555  0.86003424  1
  O  O97  1  0.74542594  0.42339573  0.10036323  1
  O  O98  1  0.25457406  0.57660427  0.89963677  1
  O  O99  1  0.85410054  0.33397933  0.95958352  1
  O  O100  1  0.14589946  0.66602067  0.04041648  1
  O  O101  1  0.74604816  0.19789264  0.06587589  1
  O  O102  1  0.25395184  0.80210736  0.93412411  1
