# generated using pymatgen
data_PrH4Cl3O11
_symmetry_space_group_name_H-M   'P 1'
_cell_length_a   5.80284893
_cell_length_b   12.80476206
_cell_length_c   13.72722315
_cell_angle_alpha   90.00000000
_cell_angle_beta   90.00000000
_cell_angle_gamma   90.00000000
_symmetry_Int_Tables_number   1
_chemical_formula_structural   PrH4Cl3O11
_chemical_formula_sum   'Pr4 H16 Cl12 O44'
_cell_volume   1019.98895917
_cell_formula_units_Z   4
loop_
 _symmetry_equiv_pos_site_id
 _symmetry_equiv_pos_as_xyz
  1  'x, y, z'
loop_
 _atom_site_type_symbol
 _atom_site_label
 _atom_site_symmetry_multiplicity
 _atom_site_fract_x
 _atom_site_fract_y
 _atom_site_fract_z
 _atom_site_occupancy
  Pr  Pr0  1  0.74785617  0.99698998  0.25847105  1
  Pr  Pr1  1  0.75214383  0.00301002  0.75847105  1
  Pr  Pr2  1  0.24785617  0.50301002  0.74152895  1
  Pr  Pr3  1  0.25214383  0.49698998  0.24152895  1
  H  H4  1  0.94251109  0.12567256  0.43500843  1
  H  H5  1  0.55748891  0.87432744  0.93500843  1
  H  H6  1  0.44251109  0.37432744  0.56499157  1
  H  H7  1  0.05748891  0.62567256  0.06499157  1
  H  H8  1  0.70628126  0.18175085  0.41507657  1
  H  H9  1  0.79371874  0.81824915  0.91507657  1
  H  H10  1  0.20628126  0.31824915  0.58492343  1
  H  H11  1  0.29371874  0.68175085  0.08492343  1
  H  H12  1  0.83029274  0.06880166  0.03904682  1
  H  H13  1  0.66970726  0.93119834  0.53904682  1
  H  H14  1  0.33029274  0.43119834  0.96095318  1
  H  H15  1  0.16970726  0.56880166  0.46095318  1
  H  H16  1  0.59245041  0.12199720  0.06414966  1
  H  H17  1  0.90754959  0.87800280  0.56414966  1
  H  H18  1  0.09245041  0.37800280  0.93585034  1
  H  H19  1  0.40754959  0.62199720  0.43585034  1
  Cl  Cl20  1  0.25110036  0.92370993  0.09782928  1
  Cl  Cl21  1  0.24889964  0.07629007  0.59782928  1
  Cl  Cl22  1  0.75110036  0.57629007  0.90217072  1
  Cl  Cl23  1  0.74889964  0.42370993  0.40217072  1
  Cl  Cl24  1  0.24122538  0.12431364  0.88954192  1
  Cl  Cl25  1  0.25877462  0.87568636  0.38954192  1
  Cl  Cl26  1  0.74122538  0.37568636  0.11045808  1
  Cl  Cl27  1  0.75877462  0.62431364  0.61045808  1
  Cl  Cl28  1  0.22997564  0.19415745  0.26474211  1
  Cl  Cl29  1  0.27002436  0.80584255  0.76474211  1
  Cl  Cl30  1  0.72997564  0.30584255  0.73525789  1
  Cl  Cl31  1  0.77002436  0.69415745  0.23525789  1
  O  O32  1  0.29720314  0.83906298  0.02549441  1
  O  O33  1  0.20279686  0.16093702  0.52549441  1
  O  O34  1  0.79720314  0.66093702  0.97450559  1
  O  O35  1  0.70279686  0.33906298  0.47450559  1
  O  O36  1  0.41744194  0.90591328  0.18160509  1
  O  O37  1  0.08255806  0.09408672  0.68160509  1
  O  O38  1  0.91744194  0.59408672  0.81839491  1
  O  O39  1  0.58255806  0.40591328  0.31839491  1
  O  O40  1  0.01488564  0.90228393  0.13990254  1
  O  O41  1  0.48511436  0.09771607  0.63990254  1
  O  O42  1  0.51488564  0.59771607  0.86009746  1
  O  O43  1  0.98511436  0.40228393  0.36009746  1
  O  O44  1  0.28515979  0.16891251  0.98645555  1
  O  O45  1  0.21484021  0.83108749  0.48645555  1
  O  O46  1  0.78515979  0.33108749  0.01354445  1
  O  O47  1  0.71484021  0.66891251  0.51354445  1
  O  O48  1  0.06971783  0.95575523  0.36984197  1
  O  O49  1  0.43028217  0.04424477  0.86984197  1
  O  O50  1  0.56971783  0.54424477  0.63015803  1
  O  O51  1  0.93028217  0.45575523  0.13015803  1
  O  O52  1  0.47853891  0.94206145  0.39804548  1
  O  O53  1  0.02146109  0.05793855  0.89804548  1
  O  O54  1  0.97853891  0.55793855  0.60195452  1
  O  O55  1  0.52146109  0.44206145  0.10195452  1
  O  O56  1  0.06088705  0.12502597  0.21231771  1
  O  O57  1  0.43911295  0.87497403  0.71231771  1
  O  O58  1  0.56088705  0.37497403  0.78768229  1
  O  O59  1  0.93911295  0.62502597  0.28768229  1
  O  O60  1  0.46293059  0.14367786  0.25261603  1
  O  O61  1  0.03706941  0.85632214  0.75261603  1
  O  O62  1  0.96293059  0.35632214  0.74738397  1
  O  O63  1  0.53706941  0.64367786  0.24738397  1
  O  O64  1  0.23820677  0.29300328  0.20724001  1
  O  O65  1  0.26179323  0.70699672  0.70724001  1
  O  O66  1  0.73820677  0.20699672  0.79275999  1
  O  O67  1  0.76179323  0.79300328  0.29275999  1
  O  O68  1  0.79699074  0.12002785  0.39904850  1
  O  O69  1  0.70300926  0.87997215  0.89904850  1
  O  O70  1  0.29699074  0.37997215  0.60095150  1
  O  O71  1  0.20300926  0.62002785  0.10095150  1
  O  O72  1  0.70341100  0.06933830  0.08631344  1
  O  O73  1  0.79658900  0.93066170  0.58631344  1
  O  O74  1  0.20341100  0.43066170  0.91368656  1
  O  O75  1  0.29658900  0.56933830  0.41368656  1
