# generated using pymatgen
data_RbUH2SeO7F
_symmetry_space_group_name_H-M   'P 1'
_cell_length_a   8.60937396
_cell_length_b   14.02727970
_cell_length_c   13.68505811
_cell_angle_alpha   90.00000000
_cell_angle_beta   90.00000000
_cell_angle_gamma   90.00000000
_symmetry_Int_Tables_number   1
_chemical_formula_structural   RbUH2SeO7F
_chemical_formula_sum   'Rb8 U8 H16 Se8 O56 F8'
_cell_volume   1652.69104940
_cell_formula_units_Z   8
loop_
 _symmetry_equiv_pos_site_id
 _symmetry_equiv_pos_as_xyz
  1  'x, y, z'
loop_
 _atom_site_type_symbol
 _atom_site_label
 _atom_site_symmetry_multiplicity
 _atom_site_fract_x
 _atom_site_fract_y
 _atom_site_fract_z
 _atom_site_occupancy
  Rb  Rb0  1  0.32523279  0.75000000  0.18259918  1
  Rb  Rb1  1  0.82523279  0.75000000  0.31740082  1
  Rb  Rb2  1  0.67476721  0.25000000  0.81740082  1
  Rb  Rb3  1  0.17476721  0.25000000  0.68259918  1
  Rb  Rb4  1  0.40144514  0.25000000  0.37136357  1
  Rb  Rb5  1  0.90144514  0.25000000  0.12863643  1
  Rb  Rb6  1  0.59855486  0.75000000  0.62863643  1
  Rb  Rb7  1  0.09855486  0.75000000  0.87136357  1
  U  U8  1  0.60962889  0.48882630  0.19720430  1
  U  U9  1  0.10962889  0.01117370  0.30279570  1
  U  U10  1  0.39037111  0.98882630  0.80279570  1
  U  U11  1  0.89037111  0.51117370  0.69720430  1
  U  U12  1  0.39037111  0.51117370  0.80279570  1
  U  U13  1  0.89037111  0.98882630  0.69720430  1
  U  U14  1  0.60962889  0.01117370  0.19720430  1
  U  U15  1  0.10962889  0.48882630  0.30279570  1
  H  H16  1  0.48414718  0.69464333  0.96420748  1
  H  H17  1  0.98414718  0.80535667  0.53579252  1
  H  H18  1  0.51585282  0.19464333  0.03579252  1
  H  H19  1  0.01585282  0.30535667  0.46420748  1
  H  H20  1  0.51585282  0.30535667  0.03579252  1
  H  H21  1  0.01585282  0.19464333  0.46420748  1
  H  H22  1  0.48414718  0.80535667  0.96420748  1
  H  H23  1  0.98414718  0.69464333  0.53579252  1
  H  H24  1  0.45996799  0.80549971  0.40375831  1
  H  H25  1  0.95996799  0.69450029  0.09624169  1
  H  H26  1  0.54003201  0.30549971  0.59624169  1
  H  H27  1  0.04003201  0.19450029  0.90375831  1
  H  H28  1  0.54003201  0.19450029  0.59624169  1
  H  H29  1  0.04003201  0.30549971  0.90375831  1
  H  H30  1  0.45996799  0.69450029  0.40375831  1
  H  H31  1  0.95996799  0.80549971  0.09624169  1
  Se  Se32  1  0.73627081  0.47198876  0.44985057  1
  Se  Se33  1  0.23627081  0.02801124  0.05014943  1
  Se  Se34  1  0.26372919  0.97198876  0.55014943  1
  Se  Se35  1  0.76372919  0.52801124  0.94985057  1
  Se  Se36  1  0.26372919  0.52801124  0.55014943  1
  Se  Se37  1  0.76372919  0.97198876  0.94985057  1
  Se  Se38  1  0.73627081  0.02801124  0.44985057  1
  Se  Se39  1  0.23627081  0.47198876  0.05014943  1
  O  O40  1  0.63219880  0.36619560  0.23565765  1
  O  O41  1  0.13219880  0.13380440  0.26434235  1
  O  O42  1  0.36780120  0.86619560  0.76434235  1
  O  O43  1  0.86780120  0.63380440  0.73565765  1
  O  O44  1  0.36780120  0.63380440  0.76434235  1
  O  O45  1  0.86780120  0.86619560  0.73565765  1
  O  O46  1  0.63219880  0.13380440  0.23565765  1
  O  O47  1  0.13219880  0.36619560  0.26434235  1
  O  O48  1  0.59171813  0.61276693  0.16091650  1
  O  O49  1  0.09171813  0.88723307  0.33908350  1
  O  O50  1  0.40828187  0.11276693  0.83908350  1
  O  O51  1  0.90828187  0.38723307  0.66091650  1
  O  O52  1  0.40828187  0.38723307  0.83908350  1
  O  O53  1  0.90828187  0.11276693  0.66091650  1
  O  O54  1  0.59171813  0.88723307  0.16091650  1
  O  O55  1  0.09171813  0.61276693  0.33908350  1
  O  O56  1  0.40947472  0.42887728  0.08921254  1
  O  O57  1  0.90947472  0.07112272  0.41078746  1
  O  O58  1  0.59052528  0.92887728  0.91078746  1
  O  O59  1  0.09052528  0.57112272  0.58921254  1
  O  O60  1  0.59052528  0.57112272  0.91078746  1
  O  O61  1  0.09052528  0.92887728  0.58921254  1
  O  O62  1  0.40947472  0.07112272  0.08921254  1
  O  O63  1  0.90947472  0.42887728  0.41078746  1
  O  O64  1  0.72969181  0.45455908  0.04534322  1
  O  O65  1  0.22969181  0.04544092  0.45465678  1
  O  O66  1  0.27030819  0.95455908  0.95465678  1
  O  O67  1  0.77030819  0.54544092  0.54534322  1
  O  O68  1  0.27030819  0.54544092  0.95465678  1
  O  O69  1  0.77030819  0.95455908  0.54534322  1
  O  O70  1  0.72969181  0.04544092  0.04534322  1
  O  O71  1  0.22969181  0.45455908  0.45465678  1
  O  O72  1  0.66724524  0.54336090  0.36025763  1
  O  O73  1  0.16724524  0.95663910  0.13974237  1
  O  O74  1  0.33275476  0.04336090  0.63974237  1
  O  O75  1  0.83275476  0.45663910  0.86025763  1
  O  O76  1  0.33275476  0.45663910  0.63974237  1
  O  O77  1  0.83275476  0.04336090  0.86025763  1
  O  O78  1  0.66724524  0.95663910  0.36025763  1
  O  O79  1  0.16724524  0.54336090  0.13974237  1
  O  O80  1  0.61700291  0.38516990  0.47784416  1
  O  O81  1  0.11700291  0.11483010  0.02215584  1
  O  O82  1  0.38299709  0.88516990  0.52215584  1
  O  O83  1  0.88299709  0.61483010  0.97784416  1
  O  O84  1  0.38299709  0.61483010  0.52215584  1
  O  O85  1  0.88299709  0.88516990  0.97784416  1
  O  O86  1  0.61700291  0.11483010  0.47784416  1
  O  O87  1  0.11700291  0.38516990  0.02215584  1
  O  O88  1  0.41917073  0.75000000  0.97899624  1
  O  O89  1  0.91917073  0.75000000  0.52100376  1
  O  O90  1  0.58082927  0.25000000  0.02100376  1
  O  O91  1  0.08082927  0.25000000  0.47899624  1
  O  O92  1  0.50093481  0.75000000  0.36859878  1
  O  O93  1  0.00093481  0.75000000  0.13140122  1
  O  O94  1  0.49906519  0.25000000  0.63140122  1
  O  O95  1  0.99906519  0.25000000  0.86859878  1
  F  F96  1  0.37824715  0.50333295  0.28065918  1
  F  F97  1  0.87824715  0.99666705  0.21934082  1
  F  F98  1  0.62175285  0.00333295  0.71934082  1
  F  F99  1  0.12175285  0.49666705  0.78065918  1
  F  F100  1  0.62175285  0.49666705  0.71934082  1
  F  F101  1  0.12175285  0.00333295  0.78065918  1
  F  F102  1  0.37824715  0.99666705  0.28065918  1
  F  F103  1  0.87824715  0.50333295  0.21934082  1
