# generated using pymatgen
data_Ho2(MoO4)3
_symmetry_space_group_name_H-M   'P 1'
_cell_length_a   10.45512428
_cell_length_b   10.44492991
_cell_length_c   10.65976687
_cell_angle_alpha   90.00000000
_cell_angle_beta   90.00000000
_cell_angle_gamma   90.00000000
_symmetry_Int_Tables_number   1
_chemical_formula_structural   Ho2(MoO4)3
_chemical_formula_sum   'Ho8 Mo12 O48'
_cell_volume   1164.07895115
_cell_formula_units_Z   4
loop_
 _symmetry_equiv_pos_site_id
 _symmetry_equiv_pos_as_xyz
  1  'x, y, z'
loop_
 _atom_site_type_symbol
 _atom_site_label
 _atom_site_symmetry_multiplicity
 _atom_site_fract_x
 _atom_site_fract_y
 _atom_site_fract_z
 _atom_site_occupancy
  Ho  Ho0  1  0.99876766  0.31339070  0.24833915  1
  Ho  Ho1  1  0.00123234  0.68660930  0.24833915  1
  Ho  Ho2  1  0.49876766  0.18660930  0.24833915  1
  Ho  Ho3  1  0.50123234  0.81339070  0.24833915  1
  Ho  Ho4  1  0.81305115  0.99891699  0.72314331  1
  Ho  Ho5  1  0.18694885  0.00108301  0.72314331  1
  Ho  Ho6  1  0.31305115  0.50108301  0.72314331  1
  Ho  Ho7  1  0.68694885  0.49891699  0.72314331  1
  Mo  Mo8  1  0.99166345  0.29485664  0.63059803  1
  Mo  Mo9  1  0.00833655  0.70514336  0.63059803  1
  Mo  Mo10  1  0.49166345  0.20514336  0.63059803  1
  Mo  Mo11  1  0.50833655  0.79485664  0.63059803  1
  Mo  Mo12  1  0.70387472  0.49312398  0.34099423  1
  Mo  Mo13  1  0.29612528  0.50687602  0.34099423  1
  Mo  Mo14  1  0.20387472  0.00687602  0.34099423  1
  Mo  Mo15  1  0.79612528  0.99312398  0.34099423  1
  Mo  Mo16  1  0.74557844  0.24400125  0.98633137  1
  Mo  Mo17  1  0.25442156  0.75599875  0.98633137  1
  Mo  Mo18  1  0.24557844  0.25599875  0.98633137  1
  Mo  Mo19  1  0.75442156  0.74400125  0.98633137  1
  O  O20  1  0.99718210  0.30609444  0.46385036  1
  O  O21  1  0.00281790  0.69390556  0.46385036  1
  O  O22  1  0.49718210  0.19390556  0.46385036  1
  O  O23  1  0.50281790  0.80609444  0.46385036  1
  O  O24  1  0.81012009  0.01385683  0.50662050  1
  O  O25  1  0.18987991  0.98614317  0.50662050  1
  O  O26  1  0.31012009  0.48614317  0.50662050  1
  O  O27  1  0.68987991  0.51385683  0.50662050  1
  O  O28  1  0.50590911  0.37285219  0.67913290  1
  O  O29  1  0.49409089  0.62714781  0.67913290  1
  O  O30  1  0.00590911  0.12714781  0.67913290  1
  O  O31  1  0.99409089  0.87285219  0.67913290  1
  O  O32  1  0.62737047  0.00413845  0.29443463  1
  O  O33  1  0.37262953  0.99586155  0.29443463  1
  O  O34  1  0.12737047  0.49586155  0.29443463  1
  O  O35  1  0.87262953  0.50413845  0.29443463  1
  O  O36  1  0.65300086  0.33593051  0.29735865  1
  O  O37  1  0.34699914  0.66406949  0.29735865  1
  O  O38  1  0.15300086  0.16406949  0.29735865  1
  O  O39  1  0.84699914  0.83593051  0.29735865  1
  O  O40  1  0.83637201  0.34632231  0.67832489  1
  O  O41  1  0.16362799  0.65367769  0.67832489  1
  O  O42  1  0.33637201  0.15367769  0.67832489  1
  O  O43  1  0.66362799  0.84632231  0.67832489  1
  O  O44  1  0.88803661  0.11531104  0.26660361  1
  O  O45  1  0.11196339  0.88468896  0.26660361  1
  O  O46  1  0.38803661  0.38468896  0.26660361  1
  O  O47  1  0.61196339  0.61531104  0.26660361  1
  O  O48  1  0.61787259  0.11284238  0.69827503  1
  O  O49  1  0.38212741  0.88715762  0.69827503  1
  O  O50  1  0.11787259  0.38715762  0.69827503  1
  O  O51  1  0.88212741  0.61284238  0.69827503  1
  O  O52  1  0.67766914  0.36593002  0.88942928  1
  O  O53  1  0.32233086  0.63406998  0.88942928  1
  O  O54  1  0.17766914  0.13406998  0.88942928  1
  O  O55  1  0.82233086  0.86593002  0.88942928  1
  O  O56  1  0.62271363  0.16881414  0.07813442  1
  O  O57  1  0.37728637  0.83118586  0.07813442  1
  O  O58  1  0.12271363  0.33118586  0.07813442  1
  O  O59  1  0.87728637  0.66881414  0.07813442  1
  O  O60  1  0.82442302  0.13021923  0.88710543  1
  O  O61  1  0.17557698  0.86978077  0.88710543  1
  O  O62  1  0.32442302  0.36978077  0.88710543  1
  O  O63  1  0.67557698  0.63021923  0.88710543  1
  O  O64  1  0.85824426  0.31603373  0.09102422  1
  O  O65  1  0.14175574  0.68396627  0.09102422  1
  O  O66  1  0.35824426  0.18396627  0.09102422  1
  O  O67  1  0.64175574  0.81603373  0.09102422  1
