# generated using pymatgen
data_Li7Co5O12
_symmetry_space_group_name_H-M   'P 1'
_cell_length_a   2.93112075
_cell_length_b   5.06362659
_cell_length_c   14.65236757
_cell_angle_alpha   80.58677311
_cell_angle_beta   84.25956943
_cell_angle_gamma   89.99999876
_symmetry_Int_Tables_number   1
_chemical_formula_structural   Li7Co5O12
_chemical_formula_sum   'Li7 Co5 O12'
_cell_volume   213.43800321
_cell_formula_units_Z   1
loop_
 _symmetry_equiv_pos_site_id
 _symmetry_equiv_pos_as_xyz
  1  'x, y, z'
loop_
 _atom_site_type_symbol
 _atom_site_label
 _atom_site_symmetry_multiplicity
 _atom_site_fract_x
 _atom_site_fract_y
 _atom_site_fract_z
 _atom_site_occupancy
  Li  Li0  1  0.75004393  0.75209118  0.49991214  1
  Li  Li1  1  0.58151712  0.91444957  0.83696476  1
  Li  Li2  1  0.41848288  0.08555043  0.16303524  1
  Li  Li3  1  0.08175772  0.42311658  0.83648356  1
  Li  Li4  1  0.91824228  0.57688342  0.16351644  1
  Li  Li5  1  0.24995607  0.24790882  0.50008786  1
  Li  Li6  1  0.50000000  0.50000000  -0.00000000  1
  Co  Co7  1  -0.00000000  -0.00000000  -0.00000000  1
  Co  Co8  1  0.83360778  0.16645269  0.33278344  1
  Co  Co9  1  0.66647951  0.33345051  0.66704197  1
  Co  Co10  1  0.33352049  0.66654949  0.33295803  1
  Co  Co11  1  0.16639222  0.83354731  0.66721656  1
  O  O12  1  0.62688659  0.63004344  0.74622682  1
  O  O13  1  0.46381867  0.81679829  0.07236167  1
  O  O14  1  0.29459600  0.96504521  0.41080900  1
  O  O15  1  0.96344458  0.25216711  0.07310984  1
  O  O16  1  0.79532799  0.46413665  0.40934502  1
  O  O17  1  0.12881762  0.13366176  0.74236475  1
  O  O18  1  0.87118238  0.86633824  0.25763525  1
  O  O19  1  0.70540400  0.03495479  0.58919100  1
  O  O20  1  0.53618133  0.18320171  0.92763833  1
  O  O21  1  0.20467201  0.53586335  0.59065498  1
  O  O22  1  0.03655542  0.74783289  0.92689016  1
  O  O23  1  0.37311341  0.36995656  0.25377318  1
