# generated using pymatgen
data_SrLa2WO7
_symmetry_space_group_name_H-M   'P 1'
_cell_length_a   5.83768197
_cell_length_b   8.95247333
_cell_length_c   12.79048694
_cell_angle_alpha   105.16472204
_cell_angle_beta   90.00000000
_cell_angle_gamma   90.00000000
_symmetry_Int_Tables_number   1
_chemical_formula_structural   SrLa2WO7
_chemical_formula_sum   'Sr4 La8 W4 O28'
_cell_volume   645.17546830
_cell_formula_units_Z   4
loop_
 _symmetry_equiv_pos_site_id
 _symmetry_equiv_pos_as_xyz
  1  'x, y, z'
loop_
 _atom_site_type_symbol
 _atom_site_label
 _atom_site_symmetry_multiplicity
 _atom_site_fract_x
 _atom_site_fract_y
 _atom_site_fract_z
 _atom_site_occupancy
  Sr  Sr0  1  0.01095227  0.49046533  0.63590730  1
  Sr  Sr1  1  0.51095227  0.50953467  0.86409270  1
  Sr  Sr2  1  0.98904773  0.50953467  0.36409270  1
  Sr  Sr3  1  0.48904773  0.49046533  0.13590730  1
  La  La4  1  0.51527280  0.20068483  0.58207216  1
  La  La5  1  0.01527280  0.79931517  0.91792784  1
  La  La6  1  0.48472720  0.79931517  0.41792784  1
  La  La7  1  0.98472720  0.20068483  0.08207216  1
  La  La8  1  0.01556505  0.07015761  0.37062294  1
  La  La9  1  0.51556505  0.92984239  0.12937706  1
  La  La10  1  0.98443495  0.92984239  0.62937706  1
  La  La11  1  0.48443495  0.07015761  0.87062294  1
  W  W12  1  0.03389171  0.28705458  0.83469260  1
  W  W13  1  0.53389171  0.71294542  0.66530740  1
  W  W14  1  0.96610829  0.71294542  0.16530740  1
  W  W15  1  0.46610829  0.28705458  0.33469260  1
  O  O16  1  0.04729877  0.50256886  0.83526018  1
  O  O17  1  0.54729877  0.49743114  0.66473982  1
  O  O18  1  0.95270123  0.49743114  0.16473982  1
  O  O19  1  0.45270123  0.50256886  0.33526018  1
  O  O20  1  0.04747290  0.06233727  0.82004132  1
  O  O21  1  0.54747290  0.93766273  0.67995868  1
  O  O22  1  0.95252710  0.93766273  0.17995868  1
  O  O23  1  0.45252710  0.06233727  0.32004132  1
  O  O24  1  0.76253216  0.30301098  0.92532730  1
  O  O25  1  0.26253216  0.69698902  0.57467270  1
  O  O26  1  0.23746784  0.69698902  0.07467270  1
  O  O27  1  0.73746784  0.30301098  0.42532730  1
  O  O28  1  0.33496478  0.25868970  0.75633166  1
  O  O29  1  0.83496478  0.74131030  0.74366834  1
  O  O30  1  0.66503522  0.74131030  0.24366834  1
  O  O31  1  0.16503522  0.25868970  0.25633166  1
  O  O32  1  0.23748307  0.31882624  0.96472674  1
  O  O33  1  0.73748307  0.68117376  0.53527326  1
  O  O34  1  0.76251693  0.68117376  0.03527326  1
  O  O35  1  0.26251693  0.31882624  0.46472674  1
  O  O36  1  0.87384799  0.24135780  0.69686667  1
  O  O37  1  0.37384799  0.75864220  0.80313333  1
  O  O38  1  0.12615201  0.75864220  0.30313333  1
  O  O39  1  0.62615201  0.24135780  0.19686667  1
  O  O40  1  0.24025222  0.00509229  0.50921054  1
  O  O41  1  0.74025222  0.99490771  0.99078946  1
  O  O42  1  0.75974778  0.99490771  0.49078946  1
  O  O43  1  0.25974778  0.00509229  0.00921054  1
