# generated using pymatgen
data_RbErP2O7
_symmetry_space_group_name_H-M   'P 1'
_cell_length_a   7.79844075
_cell_length_b   8.75211411
_cell_length_c   11.01625257
_cell_angle_alpha   90.00000000
_cell_angle_beta   90.00000000
_cell_angle_gamma   105.50731824
_symmetry_Int_Tables_number   1
_chemical_formula_structural   RbErP2O7
_chemical_formula_sum   'Rb4 Er4 P8 O28'
_cell_volume   724.51897105
_cell_formula_units_Z   4
loop_
 _symmetry_equiv_pos_site_id
 _symmetry_equiv_pos_as_xyz
  1  'x, y, z'
loop_
 _atom_site_type_symbol
 _atom_site_label
 _atom_site_symmetry_multiplicity
 _atom_site_fract_x
 _atom_site_fract_y
 _atom_site_fract_z
 _atom_site_occupancy
  Rb  Rb0  1  0.30981774  0.93930048  0.68008900  1
  Rb  Rb1  1  0.69018226  0.56069952  0.18008900  1
  Rb  Rb2  1  0.69018226  0.06069952  0.31991100  1
  Rb  Rb3  1  0.30981774  0.43930048  0.81991100  1
  Er  Er4  1  0.73386844  0.75135236  0.59764368  1
  Er  Er5  1  0.26613156  0.74864764  0.09764368  1
  Er  Er6  1  0.26613156  0.24864764  0.40235632  1
  Er  Er7  1  0.73386844  0.25135236  0.90235632  1
  P  P8  1  0.63058712  0.31626173  0.60004552  1
  P  P9  1  0.36941288  0.18373827  0.10004552  1
  P  P10  1  0.36941288  0.68373827  0.39995448  1
  P  P11  1  0.63058712  0.81626173  0.89995448  1
  P  P12  1  0.93703289  0.18557483  0.63789880  1
  P  P13  1  0.06296711  0.31442517  0.13789880  1
  P  P14  1  0.06296711  0.81442517  0.36210120  1
  P  P15  1  0.93703289  0.68557483  0.86210120  1
  O  O16  1  0.64329543  0.49201241  0.59119520  1
  O  O17  1  0.35670457  0.00798759  0.09119520  1
  O  O18  1  0.35670457  0.50798759  0.40880480  1
  O  O19  1  0.64329543  0.99201241  0.90880480  1
  O  O20  1  0.83273124  0.01491193  0.61060443  1
  O  O21  1  0.16726876  0.48508807  0.11060443  1
  O  O22  1  0.16726876  0.98508807  0.38939557  1
  O  O23  1  0.83273124  0.51491193  0.88939557  1
  O  O24  1  0.87837794  0.76719554  0.42091121  1
  O  O25  1  0.12162206  0.73280446  0.92091121  1
  O  O26  1  0.12162206  0.23280446  0.57908879  1
  O  O27  1  0.87837794  0.26719554  0.07908879  1
  O  O28  1  0.57740911  0.74835844  0.77228057  1
  O  O29  1  0.42259089  0.75164156  0.27228057  1
  O  O30  1  0.42259089  0.25164156  0.22771943  1
  O  O31  1  0.57740911  0.24835844  0.72771943  1
  O  O32  1  0.49164512  0.78155015  0.49782356  1
  O  O33  1  0.50835488  0.71844985  0.99782356  1
  O  O34  1  0.50835488  0.21844985  0.50217644  1
  O  O35  1  0.49164512  0.28155015  0.00217644  1
  O  O36  1  0.94842375  0.72818088  0.72672696  1
  O  O37  1  0.05157625  0.77181912  0.22672696  1
  O  O38  1  0.05157625  0.27181912  0.27327304  1
  O  O39  1  0.94842375  0.22818088  0.77327304  1
  O  O40  1  0.82947792  0.29908713  0.57073514  1
  O  O41  1  0.17052208  0.20091287  0.07073514  1
  O  O42  1  0.17052208  0.70091287  0.42926486  1
  O  O43  1  0.82947792  0.79908713  0.92926486  1
