# generated using pymatgen
data_Ba13Si6(Sn4As11)2
_symmetry_space_group_name_H-M   'P 1'
_cell_length_a   12.45805658
_cell_length_b   12.45805658
_cell_length_c   12.45805658
_cell_angle_alpha   107.76541703
_cell_angle_beta   107.76541703
_cell_angle_gamma   112.93949745
_symmetry_Int_Tables_number   1
_chemical_formula_structural   Ba13Si6(Sn4As11)2
_chemical_formula_sum   'Ba13 Si6 Sn8 As22'
_cell_volume   1484.31504958
_cell_formula_units_Z   1
loop_
 _symmetry_equiv_pos_site_id
 _symmetry_equiv_pos_as_xyz
  1  'x, y, z'
loop_
 _atom_site_type_symbol
 _atom_site_label
 _atom_site_symmetry_multiplicity
 _atom_site_fract_x
 _atom_site_fract_y
 _atom_site_fract_z
 _atom_site_occupancy
  Ba  Ba0  1  0.78238694  0.54059244  0.49235009  1
  Ba  Ba1  1  0.04824235  0.29003685  0.50764991  1
  Ba  Ba2  1  0.21761306  0.70996315  0.75820550  1
  Ba  Ba3  1  0.95175765  0.45940756  0.24179450  1
  Ba  Ba4  1  0.45940756  0.95175765  0.24179450  1
  Ba  Ba5  1  0.70996315  0.21761306  0.75820550  1
  Ba  Ba6  1  0.54059244  0.78238694  0.49235009  1
  Ba  Ba7  1  0.29003685  0.04824235  0.50764991  1
  Ba  Ba8  1  0.84190322  0.84190322  0.33475825  1
  Ba  Ba9  1  0.50714497  0.50714497  0.66524175  1
  Ba  Ba10  1  0.15809678  0.49285503  0.00000000  1
  Ba  Ba11  1  0.49285503  0.15809678  0.00000000  1
  Ba  Ba12  1  -0.00000000  -0.00000000  -0.00000000  1
  Si  Si13  1  0.31510076  0.31510076  0.83079489  1
  Si  Si14  1  0.48430587  0.48430587  0.16920511  1
  Si  Si15  1  0.68489924  0.51569413  0.00000000  1
  Si  Si16  1  0.51569413  0.68489924  -0.00000000  1
  Si  Si17  1  0.25000000  0.75000000  0.50000000  1
  Si  Si18  1  0.75000000  0.25000000  0.50000000  1
  Sn  Sn19  1  0.11664350  0.93837677  0.72339203  1
  Sn  Sn20  1  0.21498474  0.39325146  0.27660797  1
  Sn  Sn21  1  0.88335650  0.60674854  0.82173328  1
  Sn  Sn22  1  0.78501526  0.06162323  0.17826672  1
  Sn  Sn23  1  0.06162323  0.78501526  0.17826672  1
  Sn  Sn24  1  0.60674854  0.88335650  0.82173328  1
  Sn  Sn25  1  0.93837677  0.11664350  0.72339203  1
  Sn  Sn26  1  0.39325146  0.21498474  0.27660797  1
  As  As27  1  0.05364786  0.74803731  0.48983304  1
  As  As28  1  0.25820426  0.56381482  0.51016696  1
  As  As29  1  0.94635214  0.43618518  0.69438945  1
  As  As30  1  0.74179574  0.25196269  0.30561055  1
  As  As31  1  0.25196269  0.74179574  0.30561055  1
  As  As32  1  0.43618518  0.94635214  0.69438945  1
  As  As33  1  0.74803731  0.05364786  0.48983304  1
  As  As34  1  0.56381482  0.25820426  0.51016696  1
  As  As35  1  0.50000000  0.68612088  0.18612088  1
  As  As36  1  0.50000000  0.31387912  0.81387912  1
  As  As37  1  0.31387912  0.50000000  0.81387912  1
  As  As38  1  0.68612088  0.50000000  0.18612088  1
  As  As39  1  0.12258032  0.12258032  0.64238010  1
  As  As40  1  0.48020022  0.48020022  0.35761990  1
  As  As41  1  0.87741968  0.51979978  -0.00000000  1
  As  As42  1  0.51979978  0.87741968  0.00000000  1
  As  As43  1  0.85525123  0.85525123  0.66195010  1
  As  As44  1  0.19330113  0.19330113  0.33804990  1
  As  As45  1  0.14474877  0.80669887  -0.00000000  1
  As  As46  1  0.80669887  0.14474877  0.00000000  1
  As  As47  1  0.71737822  0.71737822  -0.00000000  1
  As  As48  1  0.28262178  0.28262178  -0.00000000  1
