# generated using pymatgen
data_Nd2Ge(BO4)2
_symmetry_space_group_name_H-M   'P 1'
_cell_length_a   4.52011107
_cell_length_b   9.58344122
_cell_length_c   13.83569555
_cell_angle_alpha   90.00000000
_cell_angle_beta   90.00000000
_cell_angle_gamma   90.00000000
_symmetry_Int_Tables_number   1
_chemical_formula_structural   Nd2Ge(BO4)2
_chemical_formula_sum   'Nd8 Ge4 B8 O32'
_cell_volume   599.33768635
_cell_formula_units_Z   4
loop_
 _symmetry_equiv_pos_site_id
 _symmetry_equiv_pos_as_xyz
  1  'x, y, z'
loop_
 _atom_site_type_symbol
 _atom_site_label
 _atom_site_symmetry_multiplicity
 _atom_site_fract_x
 _atom_site_fract_y
 _atom_site_fract_z
 _atom_site_occupancy
  Nd  Nd0  1  0.45839965  0.52595552  0.64037785  1
  Nd  Nd1  1  0.04160035  0.02595552  0.85962215  1
  Nd  Nd2  1  0.04160035  0.47404448  0.14037785  1
  Nd  Nd3  1  0.45839965  0.97404448  0.35962215  1
  Nd  Nd4  1  0.54160035  0.47404448  0.35962215  1
  Nd  Nd5  1  0.95839965  0.97404448  0.14037785  1
  Nd  Nd6  1  0.95839965  0.52595552  0.85962215  1
  Nd  Nd7  1  0.54160035  0.02595552  0.64037785  1
  Ge  Ge8  1  0.92274744  0.75000000  0.50000000  1
  Ge  Ge9  1  0.57725256  0.25000000  -0.00000000  1
  Ge  Ge10  1  0.07725256  0.25000000  0.50000000  1
  Ge  Ge11  1  0.42274744  0.75000000  -0.00000000  1
  B  B12  1  0.53257446  0.70433814  0.20053937  1
  B  B13  1  0.96742554  0.20433814  0.29946063  1
  B  B14  1  0.96742554  0.29566186  0.70053937  1
  B  B15  1  0.53257446  0.79566186  0.79946063  1
  B  B16  1  0.46742554  0.29566186  0.79946063  1
  B  B17  1  0.03257446  0.79566186  0.70053937  1
  B  B18  1  0.03257446  0.70433814  0.29946063  1
  B  B19  1  0.46742554  0.20433814  0.20053937  1
  O  O20  1  0.53767051  0.55400891  0.19286047  1
  O  O21  1  0.96232949  0.05400891  0.30713953  1
  O  O22  1  0.96232949  0.44599109  0.69286047  1
  O  O23  1  0.53767051  0.94599109  0.80713953  1
  O  O24  1  0.46232949  0.44599109  0.80713953  1
  O  O25  1  0.03767051  0.94599109  0.69286047  1
  O  O26  1  0.03767051  0.55400891  0.30713953  1
  O  O27  1  0.46232949  0.05400891  0.19286047  1
  O  O28  1  0.65002874  0.76678165  0.10661897  1
  O  O29  1  0.84997126  0.26678165  0.39338103  1
  O  O30  1  0.84997126  0.23321835  0.60661897  1
  O  O31  1  0.65002874  0.73321835  0.89338103  1
  O  O32  1  0.34997126  0.23321835  0.89338103  1
  O  O33  1  0.15002874  0.73321835  0.60661897  1
  O  O34  1  0.15002874  0.76678165  0.39338103  1
  O  O35  1  0.34997126  0.26678165  0.10661897  1
  O  O36  1  0.22657962  0.76044261  0.21936960  1
  O  O37  1  0.27342038  0.26044261  0.28063040  1
  O  O38  1  0.27342038  0.23955739  0.71936960  1
  O  O39  1  0.22657962  0.73955739  0.78063040  1
  O  O40  1  0.77342038  0.23955739  0.78063040  1
  O  O41  1  0.72657962  0.73955739  0.71936960  1
  O  O42  1  0.72657962  0.76044261  0.28063040  1
  O  O43  1  0.77342038  0.26044261  0.21936960  1
  O  O44  1  0.70490139  0.60023706  0.49537531  1
  O  O45  1  0.79509861  0.10023706  0.00462469  1
  O  O46  1  0.79509861  0.39976294  0.99537531  1
  O  O47  1  0.70490139  0.89976294  0.50462469  1
  O  O48  1  0.29509861  0.39976294  0.50462469  1
  O  O49  1  0.20490139  0.89976294  0.99537531  1
  O  O50  1  0.20490139  0.60023706  0.00462469  1
  O  O51  1  0.29509861  0.10023706  0.49537531  1
