# generated using pymatgen
data_Cd3B4(PbO4)3
_symmetry_space_group_name_H-M   'P 1'
_cell_length_a   7.11982848
_cell_length_b   10.14711243
_cell_length_c   10.14709793
_cell_angle_alpha   119.99985380
_cell_angle_beta   90.00000000
_cell_angle_gamma   90.00000000
_symmetry_Int_Tables_number   1
_chemical_formula_structural   Cd3B4(PbO4)3
_chemical_formula_sum   'Cd6 B8 Pb6 O24'
_cell_volume   634.87046968
_cell_formula_units_Z   2
loop_
 _symmetry_equiv_pos_site_id
 _symmetry_equiv_pos_as_xyz
  1  'x, y, z'
loop_
 _atom_site_type_symbol
 _atom_site_label
 _atom_site_symmetry_multiplicity
 _atom_site_fract_x
 _atom_site_fract_y
 _atom_site_fract_z
 _atom_site_occupancy
  Cd  Cd0  1  0.50000000  0.50000000  0.50000000  1
  Cd  Cd1  1  0.50000000  0.50000000  0.00000000  1
  Cd  Cd2  1  0.50000000  0.00000000  0.50000000  1
  Cd  Cd3  1  -0.00000000  0.50000000  0.50000000  1
  Cd  Cd4  1  -0.00000000  0.50000000  0.00000000  1
  Cd  Cd5  1  -0.00000000  0.00000000  0.50000000  1
  B  B6  1  0.75000000  0.39218540  0.20103858  1
  B  B7  1  0.75000000  0.79895831  0.19114244  1
  B  B8  1  0.75000000  0.80885398  0.60781393  1
  B  B9  1  0.25000000  0.60781460  0.79896142  1
  B  B10  1  0.25000000  0.20104169  0.80885756  1
  B  B11  1  0.25000000  0.19114602  0.39218607  1
  B  B12  1  0.75000000  0.33334358  0.66667187  1
  B  B13  1  0.25000000  0.66665642  0.33332813  1
  Pb  Pb14  1  0.75000000  0.15252718  0.28569167  1
  Pb  Pb15  1  0.75000000  0.71431919  0.86684099  1
  Pb  Pb16  1  0.75000000  0.13316568  0.84747592  1
  Pb  Pb17  1  0.25000000  0.84747282  0.71430833  1
  Pb  Pb18  1  0.25000000  0.28568081  0.13315901  1
  Pb  Pb19  1  0.25000000  0.86683432  0.15252408  1
  O  O20  1  0.75000000  0.34906335  0.53749290  1
  O  O21  1  0.75000000  0.46252143  0.81157071  1
  O  O22  1  0.75000000  0.18844489  0.65094995  1
  O  O23  1  0.25000000  0.65093665  0.46250710  1
  O  O24  1  0.25000000  0.53747857  0.18842929  1
  O  O25  1  0.25000000  0.81155511  0.34905005  1
  O  O26  1  0.75000000  0.65416564  0.54767531  1
  O  O27  1  0.75000000  0.45232506  0.10649192  1
  O  O28  1  0.75000000  0.89351386  0.34584012  1
  O  O29  1  0.25000000  0.34583436  0.45232469  1
  O  O30  1  0.25000000  0.54767494  0.89350808  1
  O  O31  1  0.25000000  0.10648614  0.65415988  1
  O  O32  1  0.58325352  0.35170889  0.24573277  1
  O  O33  1  0.58325412  0.75426785  0.10597754  1
  O  O34  1  0.58325332  0.89402400  0.64828960  1
  O  O35  1  0.08325352  0.64829111  0.75426723  1
  O  O36  1  0.08325412  0.24573215  0.89402246  1
  O  O37  1  0.08325332  0.10597600  0.35171040  1
  O  O38  1  0.41674648  0.64829111  0.75426723  1
  O  O39  1  0.41674588  0.24573215  0.89402246  1
  O  O40  1  0.41674668  0.10597600  0.35171040  1
  O  O41  1  0.91674648  0.35170889  0.24573277  1
  O  O42  1  0.91674588  0.75426785  0.10597754  1
  O  O43  1  0.91674668  0.89402400  0.64828960  1
