# generated using pymatgen
data_CsOsC3(ClO)3
_symmetry_space_group_name_H-M   'P 1'
_cell_length_a   9.33448511
_cell_length_b   10.15472529
_cell_length_c   11.38237243
_cell_angle_alpha   91.11040122
_cell_angle_beta   90.00000000
_cell_angle_gamma   90.00000000
_symmetry_Int_Tables_number   1
_chemical_formula_structural   CsOsC3(ClO)3
_chemical_formula_sum   'Cs4 Os4 C12 Cl12 O12'
_cell_volume   1078.72259244
_cell_formula_units_Z   4
loop_
 _symmetry_equiv_pos_site_id
 _symmetry_equiv_pos_as_xyz
  1  'x, y, z'
loop_
 _atom_site_type_symbol
 _atom_site_label
 _atom_site_symmetry_multiplicity
 _atom_site_fract_x
 _atom_site_fract_y
 _atom_site_fract_z
 _atom_site_occupancy
  Cs  Cs0  1  0.74757962  0.88142288  0.45739919  1
  Cs  Cs1  1  0.24757962  0.11857712  0.04260081  1
  Cs  Cs2  1  0.25242038  0.11857712  0.54260081  1
  Cs  Cs3  1  0.75242038  0.88142288  0.95739919  1
  Os  Os4  1  0.61953586  0.29578281  0.79038629  1
  Os  Os5  1  0.11953586  0.70421719  0.70961371  1
  Os  Os6  1  0.38046414  0.70421719  0.20961371  1
  Os  Os7  1  0.88046414  0.29578281  0.29038629  1
  C  C8  1  0.61952221  0.36757637  0.63820312  1
  C  C9  1  0.11952221  0.63242363  0.86179688  1
  C  C10  1  0.38047779  0.63242363  0.36179688  1
  C  C11  1  0.88047779  0.36757637  0.13820312  1
  C  C12  1  0.62922243  0.46422371  0.86427965  1
  C  C13  1  0.12922243  0.53577629  0.63572035  1
  C  C14  1  0.37077757  0.53577629  0.13572035  1
  C  C15  1  0.87077757  0.46422371  0.36427965  1
  C  C16  1  0.82149306  0.27579131  0.79053000  1
  C  C17  1  0.32149306  0.72420869  0.70947000  1
  C  C18  1  0.17850694  0.72420869  0.20947000  1
  C  C19  1  0.67850694  0.27579131  0.29053000  1
  Cl  Cl20  1  0.60934928  0.19770961  0.98564638  1
  Cl  Cl21  1  0.10934928  0.80229039  0.51435362  1
  Cl  Cl22  1  0.39065072  0.80229039  0.01435362  1
  Cl  Cl23  1  0.89065072  0.19770961  0.48564638  1
  Cl  Cl24  1  0.58724777  0.07113309  0.70832719  1
  Cl  Cl25  1  0.08724777  0.92886691  0.79167281  1
  Cl  Cl26  1  0.41275223  0.92886691  0.29167281  1
  Cl  Cl27  1  0.91275223  0.07113309  0.20832719  1
  Cl  Cl28  1  0.35688921  0.31402499  0.79511570  1
  Cl  Cl29  1  0.85688921  0.68597501  0.70488430  1
  Cl  Cl30  1  0.64311079  0.68597501  0.20488430  1
  Cl  Cl31  1  0.14311079  0.31402499  0.29511570  1
  O  O32  1  0.61626691  0.41227739  0.54535965  1
  O  O33  1  0.11626691  0.58772261  0.95464035  1
  O  O34  1  0.38373309  0.58772261  0.45464035  1
  O  O35  1  0.88373309  0.41227739  0.04535965  1
  O  O36  1  0.63215301  0.56600071  0.91193120  1
  O  O37  1  0.13215301  0.43399929  0.58806880  1
  O  O38  1  0.36784699  0.43399929  0.08806880  1
  O  O39  1  0.86784699  0.56600071  0.41193120  1
  O  O40  1  0.94491113  0.26267314  0.79376538  1
  O  O41  1  0.44491113  0.73732686  0.70623462  1
  O  O42  1  0.05508887  0.73732686  0.20623462  1
  O  O43  1  0.55508887  0.26267314  0.29376538  1
