# generated using pymatgen
data_Cs3H12N4F3
_symmetry_space_group_name_H-M   'P 1'
_cell_length_a   9.07498576
_cell_length_b   9.07498576
_cell_length_c   9.07498576
_cell_angle_alpha   109.47122063
_cell_angle_beta   109.47122063
_cell_angle_gamma   109.47122063
_symmetry_Int_Tables_number   1
_chemical_formula_structural   Cs3H12N4F3
_chemical_formula_sum   'Cs6 H24 N8 F6'
_cell_volume   575.32860258
_cell_formula_units_Z   2
loop_
 _symmetry_equiv_pos_site_id
 _symmetry_equiv_pos_as_xyz
  1  'x, y, z'
loop_
 _atom_site_type_symbol
 _atom_site_label
 _atom_site_symmetry_multiplicity
 _atom_site_fract_x
 _atom_site_fract_y
 _atom_site_fract_z
 _atom_site_occupancy
  Cs  Cs0  1  0.75000000  0.62500000  0.37500000  1
  Cs  Cs1  1  0.25000000  0.87500000  0.12500000  1
  Cs  Cs2  1  0.87500000  0.12500000  0.25000000  1
  Cs  Cs3  1  0.62500000  0.37500000  0.75000000  1
  Cs  Cs4  1  0.12500000  0.25000000  0.87500000  1
  Cs  Cs5  1  0.37500000  0.75000000  0.62500000  1
  H  H6  1  0.21340911  0.12730998  0.54504697  1
  H  H7  1  0.91773699  0.37269002  0.08609913  1
  H  H8  1  0.58226301  0.16836214  0.95495303  1
  H  H9  1  0.28659089  0.33163786  0.41390087  1
  H  H10  1  0.04504697  0.62730998  0.71340911  1
  H  H11  1  0.58609913  0.87269002  0.41773699  1
  H  H12  1  0.45495303  0.66836214  0.08226301  1
  H  H13  1  0.91390087  0.83163786  0.78659089  1
  H  H14  1  0.12730998  0.54504697  0.21340911  1
  H  H15  1  0.37269002  0.08609913  0.91773699  1
  H  H16  1  0.16836214  0.95495303  0.58226301  1
  H  H17  1  0.33163786  0.41390087  0.28659089  1
  H  H18  1  0.62730998  0.71340911  0.04504697  1
  H  H19  1  0.87269002  0.41773699  0.58609913  1
  H  H20  1  0.66836214  0.08226301  0.45495303  1
  H  H21  1  0.83163786  0.78659089  0.91390087  1
  H  H22  1  0.54504697  0.21340911  0.12730998  1
  H  H23  1  0.08609913  0.91773699  0.37269002  1
  H  H24  1  0.95495303  0.58226301  0.16836214  1
  H  H25  1  0.41390087  0.28659089  0.33163786  1
  H  H26  1  0.71340911  0.04504697  0.62730998  1
  H  H27  1  0.41773699  0.58609913  0.87269002  1
  H  H28  1  0.08226301  0.45495303  0.66836214  1
  H  H29  1  0.78659089  0.91390087  0.83163786  1
  N  N30  1  0.19808579  -0.00000000  0.50000000  1
  N  N31  1  0.00000000  0.50000000  0.19808579  1
  N  N32  1  0.50000000  0.19808579  -0.00000000  1
  N  N33  1  0.30191421  0.30191421  0.30191421  1
  N  N34  1  0.00000000  0.50000000  0.69808579  1
  N  N35  1  0.69808579  0.00000000  0.50000000  1
  N  N36  1  0.50000000  0.69808579  0.00000000  1
  N  N37  1  0.80191421  0.80191421  0.80191421  1
  F  F38  1  0.25000000  0.37500000  0.62500000  1
  F  F39  1  0.75000000  0.12500000  0.87500000  1
  F  F40  1  0.12500000  0.87500000  0.75000000  1
  F  F41  1  0.37500000  0.62500000  0.25000000  1
  F  F42  1  0.87500000  0.75000000  0.12500000  1
  F  F43  1  0.62500000  0.25000000  0.37500000  1
