# generated using pymatgen
data_RbCrP2O7
_symmetry_space_group_name_H-M   'P 1'
_cell_length_a   7.59864573
_cell_length_b   8.37257505
_cell_length_c   10.06723194
_cell_angle_alpha   90.00000000
_cell_angle_beta   90.00000000
_cell_angle_gamma   105.98849957
_symmetry_Int_Tables_number   1
_chemical_formula_structural   RbCrP2O7
_chemical_formula_sum   'Rb4 Cr4 P8 O28'
_cell_volume   615.70395664
_cell_formula_units_Z   4
loop_
 _symmetry_equiv_pos_site_id
 _symmetry_equiv_pos_as_xyz
  1  'x, y, z'
loop_
 _atom_site_type_symbol
 _atom_site_label
 _atom_site_symmetry_multiplicity
 _atom_site_fract_x
 _atom_site_fract_y
 _atom_site_fract_z
 _atom_site_occupancy
  Rb  Rb0  1  0.18631286  0.04942924  0.81159778  1
  Rb  Rb1  1  0.81368714  0.45057076  0.31159778  1
  Rb  Rb2  1  0.81368714  0.95057076  0.18840222  1
  Rb  Rb3  1  0.18631286  0.54942924  0.68840222  1
  Cr  Cr4  1  0.76203582  0.23960540  0.89895054  1
  Cr  Cr5  1  0.23796418  0.26039460  0.39895054  1
  Cr  Cr6  1  0.23796418  0.76039460  0.10104946  1
  Cr  Cr7  1  0.76203582  0.73960540  0.60104946  1
  P  P8  1  0.13134892  0.33224291  0.09589559  1
  P  P9  1  0.86865108  0.16775709  0.59589559  1
  P  P10  1  0.86865108  0.66775709  0.90410441  1
  P  P11  1  0.13134892  0.83224291  0.40410441  1
  P  P12  1  0.43338032  0.18777593  0.13268845  1
  P  P13  1  0.56661968  0.31222407  0.63268845  1
  P  P14  1  0.56661968  0.81222407  0.86731155  1
  P  P15  1  0.43338032  0.68777593  0.36731155  1
  O  O16  1  0.55540409  0.25934790  0.77992167  1
  O  O17  1  0.44459591  0.24065210  0.27992167  1
  O  O18  1  0.44459591  0.74065210  0.22007833  1
  O  O19  1  0.55540409  0.75934790  0.72007833  1
  O  O20  1  0.99134059  0.22634220  0.99873343  1
  O  O21  1  0.00865941  0.27365780  0.49873343  1
  O  O22  1  0.00865941  0.77365780  0.00126657  1
  O  O23  1  0.99134059  0.72634220  0.50126657  1
  O  O24  1  0.62744228  0.23226982  0.07549392  1
  O  O25  1  0.37255772  0.26773018  0.57549392  1
  O  O26  1  0.37255772  0.76773018  0.92450608  1
  O  O27  1  0.62744228  0.73226982  0.42450608  1
  O  O28  1  0.91343106  0.24190519  0.73614343  1
  O  O29  1  0.08656894  0.25809481  0.23614343  1
  O  O30  1  0.08656894  0.75809481  0.26385657  1
  O  O31  1  0.91343106  0.74190519  0.76385657  1
  O  O32  1  0.67965949  0.98902373  0.89494009  1
  O  O33  1  0.32034051  0.51097627  0.39494009  1
  O  O34  1  0.32034051  0.01097627  0.10505991  1
  O  O35  1  0.67965949  0.48902373  0.60505991  1
  O  O36  1  0.32860429  0.30640472  0.05351150  1
  O  O37  1  0.67139571  0.19359528  0.55351150  1
  O  O38  1  0.67139571  0.69359528  0.94648850  1
  O  O39  1  0.32860429  0.80640472  0.44648850  1
  O  O40  1  0.14707679  0.51501968  0.08890970  1
  O  O41  1  0.85292321  0.98498032  0.58890970  1
  O  O42  1  0.85292321  0.48498032  0.91109030  1
  O  O43  1  0.14707679  0.01501968  0.41109030  1
