# generated using pymatgen
data_Sm6TlFe13
_symmetry_space_group_name_H-M   'P 1'
_cell_length_a   8.00579534
_cell_length_b   8.00579534
_cell_length_c   12.90163740
_cell_angle_alpha   108.07506420
_cell_angle_beta   108.07506420
_cell_angle_gamma   90.00000000
_symmetry_Int_Tables_number   1
_chemical_formula_structural   Sm6TlFe13
_chemical_formula_sum   'Sm12 Tl2 Fe26'
_cell_volume   743.05009678
_cell_formula_units_Z   2
loop_
 _symmetry_equiv_pos_site_id
 _symmetry_equiv_pos_as_xyz
  1  'x, y, z'
loop_
 _atom_site_type_symbol
 _atom_site_label
 _atom_site_symmetry_multiplicity
 _atom_site_fract_x
 _atom_site_fract_y
 _atom_site_fract_z
 _atom_site_occupancy
  Sm  Sm0  1  0.60422318  0.60422318  0.20844635  1
  Sm  Sm1  1  0.10422318  0.10422318  0.20844635  1
  Sm  Sm2  1  0.39577682  0.39577682  0.79155365  1
  Sm  Sm3  1  0.89577682  0.89577682  0.79155365  1
  Sm  Sm4  1  0.97879185  0.47879185  0.63125202  1
  Sm  Sm5  1  0.65246016  0.15246016  0.63125202  1
  Sm  Sm6  1  0.15246016  0.97879185  0.63125202  1
  Sm  Sm7  1  0.47879185  0.65246016  0.63125202  1
  Sm  Sm8  1  0.02120815  0.52120815  0.36874798  1
  Sm  Sm9  1  0.34753984  0.84753984  0.36874798  1
  Sm  Sm10  1  0.84753984  0.02120815  0.36874798  1
  Sm  Sm11  1  0.52120815  0.34753984  0.36874798  1
  Tl  Tl12  1  0.25000000  0.25000000  0.50000000  1
  Tl  Tl13  1  0.75000000  0.75000000  0.50000000  1
  Fe  Fe14  1  -0.00000000  0.50000000  0.00000000  1
  Fe  Fe15  1  0.50000000  -0.00000000  0.00000000  1
  Fe  Fe16  1  0.71006165  0.56631417  0.00000000  1
  Fe  Fe17  1  0.28993835  0.43368583  1.00000000  1
  Fe  Fe18  1  0.78993835  0.06631417  1.00000000  1
  Fe  Fe19  1  0.21006165  0.93368583  0.00000000  1
  Fe  Fe20  1  0.56631417  0.28993835  1.00000000  1
  Fe  Fe21  1  0.43368583  0.71006165  0.00000000  1
  Fe  Fe22  1  0.06631417  0.21006165  0.00000000  1
  Fe  Fe23  1  0.93368583  0.78993835  1.00000000  1
  Fe  Fe24  1  0.11985447  0.61985447  0.88161667  1
  Fe  Fe25  1  0.76176220  0.26176220  0.88161667  1
  Fe  Fe26  1  0.26176220  0.11985447  0.88161667  1
  Fe  Fe27  1  0.61985447  0.76176220  0.88161667  1
  Fe  Fe28  1  0.88014553  0.38014553  0.11838333  1
  Fe  Fe29  1  0.23823780  0.73823780  0.11838333  1
  Fe  Fe30  1  0.73823780  0.88014553  0.11838333  1
  Fe  Fe31  1  0.38014553  0.23823780  0.11838333  1
  Fe  Fe32  1  0.29173123  0.79173123  0.81036064  1
  Fe  Fe33  1  0.51862940  0.01862940  0.81036064  1
  Fe  Fe34  1  0.01862940  0.29173123  0.81036064  1
  Fe  Fe35  1  0.79173123  0.51862940  0.81036064  1
  Fe  Fe36  1  0.70826877  0.20826877  0.18963936  1
  Fe  Fe37  1  0.48137060  0.98137060  0.18963936  1
  Fe  Fe38  1  0.98137060  0.70826877  0.18963936  1
  Fe  Fe39  1  0.20826877  0.48137060  0.18963936  1
