# generated using pymatgen
data_Sc2Ni7
_symmetry_space_group_name_H-M   'P 1'
_cell_length_a   4.77172733
_cell_length_b   4.77172733
_cell_length_c   23.66069315
_cell_angle_alpha   90.00000000
_cell_angle_beta   90.00000000
_cell_angle_gamma   120.02730042
_symmetry_Int_Tables_number   1
_chemical_formula_structural   Sc2Ni7
_chemical_formula_sum   'Sc8 Ni28'
_cell_volume   466.43356336
_cell_formula_units_Z   4
loop_
 _symmetry_equiv_pos_site_id
 _symmetry_equiv_pos_as_xyz
  1  'x, y, z'
loop_
 _atom_site_type_symbol
 _atom_site_label
 _atom_site_symmetry_multiplicity
 _atom_site_fract_x
 _atom_site_fract_y
 _atom_site_fract_z
 _atom_site_occupancy
  Sc  Sc0  1  0.66666832  0.33333168  0.52901152  1
  Sc  Sc1  1  0.33333168  0.66666832  0.47098848  1
  Sc  Sc2  1  0.33333168  0.66666832  0.02901152  1
  Sc  Sc3  1  0.66666832  0.33333168  0.97098848  1
  Sc  Sc4  1  0.66667157  0.33332843  0.67419787  1
  Sc  Sc5  1  0.33332843  0.66667157  0.32580213  1
  Sc  Sc6  1  0.33332843  0.66667157  0.17419787  1
  Sc  Sc7  1  0.66667157  0.33332843  0.82580213  1
  Ni  Ni8  1  -0.00000000  0.00000000  0.50000000  1
  Ni  Ni9  1  -0.00000000  0.00000000  -0.00000000  1
  Ni  Ni10  1  0.16661378  0.33320745  0.75000000  1
  Ni  Ni11  1  0.16660837  0.83339163  0.75000000  1
  Ni  Ni12  1  0.66679255  0.83338622  0.75000000  1
  Ni  Ni13  1  0.83338622  0.66679255  0.25000000  1
  Ni  Ni14  1  0.83339163  0.16660837  0.25000000  1
  Ni  Ni15  1  0.33320745  0.16661378  0.25000000  1
  Ni  Ni16  1  0.16783880  0.33570950  0.58328245  1
  Ni  Ni17  1  0.16782918  0.83217082  0.58328661  1
  Ni  Ni18  1  0.66429050  0.83216120  0.58328245  1
  Ni  Ni19  1  0.83216120  0.66429050  0.41671755  1
  Ni  Ni20  1  0.83217082  0.16782918  0.41671339  1
  Ni  Ni21  1  0.33570950  0.16783880  0.41671755  1
  Ni  Ni22  1  0.83216120  0.66429050  0.08328245  1
  Ni  Ni23  1  0.83217082  0.16782918  0.08328661  1
  Ni  Ni24  1  0.33570950  0.16783880  0.08328245  1
  Ni  Ni25  1  0.16783880  0.33570950  0.91671755  1
  Ni  Ni26  1  0.16782918  0.83217082  0.91671339  1
  Ni  Ni27  1  0.66429050  0.83216120  0.91671755  1
  Ni  Ni28  1  0.99999614  0.00000386  0.66641832  1
  Ni  Ni29  1  0.00000386  0.99999614  0.33358168  1
  Ni  Ni30  1  0.00000386  0.99999614  0.16641832  1
  Ni  Ni31  1  0.99999614  0.00000386  0.83358168  1
  Ni  Ni32  1  0.66666951  0.33333049  0.33338386  1
  Ni  Ni33  1  0.33333049  0.66666951  0.66661614  1
  Ni  Ni34  1  0.33333049  0.66666951  0.83338386  1
  Ni  Ni35  1  0.66666951  0.33333049  0.16661614  1
