# generated using pymatgen
data_Zr2S
_symmetry_space_group_name_H-M   'P 1'
_cell_length_a   3.57162645
_cell_length_b   12.40372605
_cell_length_c   15.32994965
_cell_angle_alpha   90.00000000
_cell_angle_beta   90.00000000
_cell_angle_gamma   90.00000000
_symmetry_Int_Tables_number   1
_chemical_formula_structural   Zr2S
_chemical_formula_sum   'Zr24 S12'
_cell_volume   679.13939709
_cell_formula_units_Z   12
loop_
 _symmetry_equiv_pos_site_id
 _symmetry_equiv_pos_as_xyz
  1  'x, y, z'
loop_
 _atom_site_type_symbol
 _atom_site_label
 _atom_site_symmetry_multiplicity
 _atom_site_fract_x
 _atom_site_fract_y
 _atom_site_fract_z
 _atom_site_occupancy
  Zr  Zr0  1  0.50000000  0.65772234  0.47799412  1
  Zr  Zr1  1  0.50000000  0.34227766  0.52200588  1
  Zr  Zr2  1  0.00000000  0.84227766  0.97799412  1
  Zr  Zr3  1  0.00000000  0.15772234  0.02200588  1
  Zr  Zr4  1  0.50000000  0.58145593  0.25006388  1
  Zr  Zr5  1  0.50000000  0.41854407  0.74993612  1
  Zr  Zr6  1  -0.00000000  0.91854407  0.75006388  1
  Zr  Zr7  1  0.00000000  0.08145593  0.24993612  1
  Zr  Zr8  1  0.50000000  0.09045085  0.41815600  1
  Zr  Zr9  1  0.50000000  0.90954915  0.58184400  1
  Zr  Zr10  1  -0.00000000  0.40954915  0.91815600  1
  Zr  Zr11  1  -0.00000000  0.59045085  0.08184400  1
  Zr  Zr12  1  0.50000000  0.97024752  0.10996157  1
  Zr  Zr13  1  0.50000000  0.02975248  0.89003843  1
  Zr  Zr14  1  -0.00000000  0.52975248  0.60996157  1
  Zr  Zr15  1  0.00000000  0.47024752  0.39003843  1
  Zr  Zr16  1  0.50000000  0.30605670  0.29244341  1
  Zr  Zr17  1  0.50000000  0.69394330  0.70755659  1
  Zr  Zr18  1  -0.00000000  0.19394330  0.79244341  1
  Zr  Zr19  1  0.00000000  0.80605670  0.20755659  1
  Zr  Zr20  1  0.50000000  0.37875585  0.08026064  1
  Zr  Zr21  1  0.50000000  0.62124415  0.91973936  1
  Zr  Zr22  1  -0.00000000  0.12124415  0.58026064  1
  Zr  Zr23  1  -0.00000000  0.87875585  0.41973936  1
  S  S24  1  0.50000000  0.92981613  0.29280026  1
  S  S25  1  0.50000000  0.07018387  0.70719974  1
  S  S26  1  -0.00000000  0.57018387  0.79280026  1
  S  S27  1  -0.00000000  0.42981613  0.20719974  1
  S  S28  1  0.50000000  0.74918945  0.08501605  1
  S  S29  1  0.50000000  0.25081055  0.91498395  1
  S  S30  1  0.00000000  0.75081055  0.58501605  1
  S  S31  1  -0.00000000  0.24918945  0.41498395  1
  S  S32  1  0.50000000  0.18500921  0.14996530  1
  S  S33  1  0.50000000  0.81499079  0.85003470  1
  S  S34  1  0.00000000  0.31499079  0.64996530  1
  S  S35  1  0.00000000  0.68500921  0.35003470  1
