# generated using pymatgen
data_Np2SO10
_symmetry_space_group_name_H-M   'P 1'
_cell_length_a   5.98677256
_cell_length_b   10.69430047
_cell_length_c   12.63871632
_cell_angle_alpha   96.18967819
_cell_angle_beta   90.00000000
_cell_angle_gamma   90.00000000
_symmetry_Int_Tables_number   1
_chemical_formula_structural   Np2SO10
_chemical_formula_sum   'Np8 S4 O40'
_cell_volume   804.46830383
_cell_formula_units_Z   4
loop_
 _symmetry_equiv_pos_site_id
 _symmetry_equiv_pos_as_xyz
  1  'x, y, z'
loop_
 _atom_site_type_symbol
 _atom_site_label
 _atom_site_symmetry_multiplicity
 _atom_site_fract_x
 _atom_site_fract_y
 _atom_site_fract_z
 _atom_site_occupancy
  Np  Np0  1  0.71116547  0.61297760  0.32988871  1
  Np  Np1  1  0.21116547  0.38702240  0.17011129  1
  Np  Np2  1  0.28883453  0.38702240  0.67011129  1
  Np  Np3  1  0.78883453  0.61297760  0.82988871  1
  Np  Np4  1  0.18895197  0.90099076  0.32966244  1
  Np  Np5  1  0.68895197  0.09900924  0.17033756  1
  Np  Np6  1  0.81104803  0.09900924  0.67033756  1
  Np  Np7  1  0.31104803  0.90099076  0.82966244  1
  S  S8  1  0.89446243  0.76701910  0.10503564  1
  S  S9  1  0.39446243  0.23298090  0.39496436  1
  S  S10  1  0.10553757  0.23298090  0.89496436  1
  S  S11  1  0.60553757  0.76701910  0.60503564  1
  O  O12  1  0.80549682  0.89146135  0.08777407  1
  O  O13  1  0.30549682  0.10853865  0.41222593  1
  O  O14  1  0.19450318  0.10853865  0.91222593  1
  O  O15  1  0.69450318  0.89146135  0.58777407  1
  O  O16  1  0.93809523  0.69052136  0.00363649  1
  O  O17  1  0.43809523  0.30947864  0.49636351  1
  O  O18  1  0.06190477  0.30947864  0.99636351  1
  O  O19  1  0.56190477  0.69052136  0.50363649  1
  O  O20  1  0.72973170  0.69770352  0.16794026  1
  O  O21  1  0.22973170  0.30229648  0.33205974  1
  O  O22  1  0.27026830  0.30229648  0.83205974  1
  O  O23  1  0.77026830  0.69770352  0.66794026  1
  O  O24  1  0.10959024  0.78258950  0.16684854  1
  O  O25  1  0.60959024  0.21741050  0.33315146  1
  O  O26  1  0.89040976  0.21741050  0.83315146  1
  O  O27  1  0.39040976  0.78258950  0.66684854  1
  O  O28  1  0.80704412  0.49158280  0.41203098  1
  O  O29  1  0.30704412  0.50841720  0.08796902  1
  O  O30  1  0.19295588  0.50841720  0.58796902  1
  O  O31  1  0.69295588  0.49158280  0.91203098  1
  O  O32  1  0.16206819  0.89425772  0.47381665  1
  O  O33  1  0.66206819  0.10574228  0.02618335  1
  O  O34  1  0.83793181  0.10574228  0.52618335  1
  O  O35  1  0.33793181  0.89425772  0.97381665  1
  O  O36  1  0.95603454  0.71413119  0.35702230  1
  O  O37  1  0.45603454  0.28586881  0.14297770  1
  O  O38  1  0.04396546  0.28586881  0.64297770  1
  O  O39  1  0.54396546  0.71413119  0.85702230  1
  O  O40  1  0.45123231  0.52731415  0.29067611  1
  O  O41  1  0.95123231  0.47268585  0.20932389  1
  O  O42  1  0.54876769  0.47268585  0.70932389  1
  O  O43  1  0.04876769  0.52731415  0.79067611  1
  O  O44  1  0.93029204  0.98360272  0.29832457  1
  O  O45  1  0.43029204  0.01639728  0.20167543  1
  O  O46  1  0.06970796  0.01639728  0.70167543  1
  O  O47  1  0.56970796  0.98360272  0.79832457  1
  O  O48  1  0.45153724  0.81135581  0.32835420  1
  O  O49  1  0.95153724  0.18864419  0.17164580  1
  O  O50  1  0.54846276  0.18864419  0.67164580  1
  O  O51  1  0.04846276  0.81135581  0.82835420  1
