# generated using pymatgen
data_CsVP3HO10
_symmetry_space_group_name_H-M   'P 1'
_cell_length_a   7.57420306
_cell_length_b   7.57420306
_cell_length_c   9.16223062
_cell_angle_alpha   73.55133431
_cell_angle_beta   73.55133431
_cell_angle_gamma   72.21235691
_symmetry_Int_Tables_number   1
_chemical_formula_structural   CsVP3HO10
_chemical_formula_sum   'Cs2 V2 P6 H2 O20'
_cell_volume   468.75157517
_cell_formula_units_Z   2
loop_
 _symmetry_equiv_pos_site_id
 _symmetry_equiv_pos_as_xyz
  1  'x, y, z'
loop_
 _atom_site_type_symbol
 _atom_site_label
 _atom_site_symmetry_multiplicity
 _atom_site_fract_x
 _atom_site_fract_y
 _atom_site_fract_z
 _atom_site_occupancy
  Cs  Cs0  1  0.93426372  0.06573628  0.25000000  1
  Cs  Cs1  1  0.06573628  0.93426372  0.75000000  1
  V  V2  1  0.00000000  0.50000000  0.50000000  1
  V  V3  1  0.50000000  0.00000000  -0.00000000  1
  P  P4  1  0.37581820  0.62418180  0.25000000  1
  P  P5  1  0.62418180  0.37581820  0.75000000  1
  P  P6  1  0.76706030  0.65021559  0.19921560  1
  P  P7  1  0.34978441  0.23293970  0.30078440  1
  P  P8  1  0.23293970  0.34978441  0.80078440  1
  P  P9  1  0.65021559  0.76706030  0.69921560  1
  H  H10  1  0.00000000  0.50000000  -0.00000000  1
  H  H11  1  0.50000000  0.00000000  0.50000000  1
  O  O12  1  0.40158628  0.43124822  0.19731368  1
  O  O13  1  0.56875178  0.59841372  0.30268632  1
  O  O14  1  0.59841372  0.56875178  0.80268632  1
  O  O15  1  0.43124822  0.40158628  0.69731368  1
  O  O16  1  0.85647494  0.50084167  0.09920437  1
  O  O17  1  0.49915833  0.14352506  0.40079563  1
  O  O18  1  0.14352506  0.49915833  0.90079563  1
  O  O19  1  0.50084167  0.85647494  0.59920437  1
  O  O20  1  0.88120105  0.63906888  0.31510579  1
  O  O21  1  0.36093112  0.11879895  0.18489421  1
  O  O22  1  0.11879895  0.36093112  0.68489421  1
  O  O23  1  0.63906888  0.88120105  0.81510579  1
  O  O24  1  0.21750581  0.64120149  0.39289734  1
  O  O25  1  0.35879851  0.78249419  0.10710266  1
  O  O26  1  0.78249419  0.35879851  0.60710266  1
  O  O27  1  0.64120149  0.21750581  0.89289734  1
  O  O28  1  0.14510171  0.28048156  0.39636605  1
  O  O29  1  0.71951844  0.85489829  0.10363395  1
  O  O30  1  0.85489829  0.71951844  0.60363395  1
  O  O31  1  0.28048156  0.14510171  0.89636605  1
