# generated using pymatgen
data_Li4MnCo2O7
_symmetry_space_group_name_H-M   'P 1'
_cell_length_a   5.21725014
_cell_length_b   5.91938556
_cell_length_c   8.58122291
_cell_angle_alpha   88.26869774
_cell_angle_beta   94.04042594
_cell_angle_gamma   70.34452364
_symmetry_Int_Tables_number   1
_chemical_formula_structural   Li4MnCo2O7
_chemical_formula_sum   'Li8 Mn2 Co4 O14'
_cell_volume   248.54083162
_cell_formula_units_Z   2
loop_
 _symmetry_equiv_pos_site_id
 _symmetry_equiv_pos_as_xyz
  1  'x, y, z'
loop_
 _atom_site_type_symbol
 _atom_site_label
 _atom_site_symmetry_multiplicity
 _atom_site_fract_x
 _atom_site_fract_y
 _atom_site_fract_z
 _atom_site_occupancy
  Li  Li0  1  0.13449047  0.21750609  0.28917506  1
  Li  Li1  1  0.28605858  0.92837834  0.57162912  1
  Li  Li2  1  0.70947138  0.07712152  0.43371573  1
  Li  Li3  1  0.86164566  0.78007720  0.70916780  1
  Li  Li4  1  0.43696471  0.63970896  0.85347937  1
  Li  Li5  1  0.00423216  0.49594479  0.99763163  1
  Li  Li6  1  0.56721373  0.36120388  0.14529957  1
  Li  Li7  1  0.28613890  0.42879512  0.57152207  1
  Mn  Mn8  1  0.00027000  0.99951417  0.99643519  1
  Mn  Mn9  1  0.57113657  0.85760106  0.14633876  1
  Co  Co10  1  0.14345567  0.71275826  0.28863073  1
  Co  Co11  1  0.42788746  0.14421994  0.85410399  1
  Co  Co12  1  0.71015609  0.57223140  0.43046897  1
  Co  Co13  1  0.86121395  0.28519807  0.71238630  1
  O  O14  1  0.88197024  0.02029567  0.21027345  1
  O  O15  1  0.98292947  0.72464601  0.48068431  1
  O  O16  1  0.44679053  0.88428696  0.35863436  1
  O  O17  1  0.60665861  0.59436762  0.63370453  1
  O  O18  1  0.13180672  0.42549572  0.78000361  1
  O  O19  1  0.73671762  0.31263358  0.91853323  1
  O  O20  1  0.30824075  0.16816721  0.06579185  1
  O  O21  1  0.43926664  0.43135504  0.36291365  1
  O  O22  1  0.58826126  0.13243780  0.66222692  1
  O  O23  1  0.96427075  0.26316928  0.50924244  1
  O  O24  1  0.12490159  0.97269148  0.78419142  1
  O  O25  1  0.68963045  0.83682330  0.93265580  1
  O  O26  1  0.26331695  0.68894832  0.07696798  1
  O  O27  1  0.83490310  0.54442323  0.22419216  1
