# generated using pymatgen
data_SrAu2(SO4)4
_symmetry_space_group_name_H-M   'P 1'
_cell_length_a   9.40728955
_cell_length_b   9.40728955
_cell_length_c   10.65040620
_cell_angle_alpha   102.72687028
_cell_angle_beta   102.72687028
_cell_angle_gamma   116.11991858
_symmetry_Int_Tables_number   1
_chemical_formula_structural   SrAu2(SO4)4
_chemical_formula_sum   'Sr2 Au4 S8 O32'
_cell_volume   769.40549419
_cell_formula_units_Z   2
loop_
 _symmetry_equiv_pos_site_id
 _symmetry_equiv_pos_as_xyz
  1  'x, y, z'
loop_
 _atom_site_type_symbol
 _atom_site_label
 _atom_site_symmetry_multiplicity
 _atom_site_fract_x
 _atom_site_fract_y
 _atom_site_fract_z
 _atom_site_occupancy
  Sr  Sr0  1  0.12969915  0.87030085  0.25000000  1
  Sr  Sr1  1  0.87030085  0.12969915  0.75000000  1
  Au  Au2  1  0.50000000  0.50000000  0.50000000  1
  Au  Au3  1  0.50000000  0.50000000  -0.00000000  1
  Au  Au4  1  0.00000000  0.50000000  0.50000000  1
  Au  Au5  1  0.50000000  0.00000000  -0.00000000  1
  S  S6  1  0.85242550  0.73901779  0.50063046  1
  S  S7  1  0.26098221  0.14757450  -0.00063046  1
  S  S8  1  0.14757450  0.26098221  0.49936954  1
  S  S9  1  0.73901779  0.85242550  0.00063046  1
  S  S10  1  0.62560018  0.23552697  0.46185124  1
  S  S11  1  0.76447303  0.37439982  0.03814876  1
  S  S12  1  0.37439982  0.76447303  0.53814876  1
  S  S13  1  0.23552697  0.62560018  0.96185124  1
  O  O14  1  0.67012127  0.59267228  0.40658170  1
  O  O15  1  0.40732772  0.32987873  0.09341830  1
  O  O16  1  0.32987873  0.40732772  0.59341830  1
  O  O17  1  0.59267228  0.67012127  0.90658170  1
  O  O18  1  0.93993068  0.66960696  0.58916691  1
  O  O19  1  0.33039304  0.06006932  0.91083309  1
  O  O20  1  0.06006932  0.33039304  0.41083309  1
  O  O21  1  0.66960696  0.93993068  0.08916691  1
  O  O22  1  0.84389725  0.86335184  0.60208349  1
  O  O23  1  0.13664816  0.15610275  0.89791651  1
  O  O24  1  0.15610275  0.13664816  0.39791651  1
  O  O25  1  0.86335184  0.84389725  0.10208349  1
  O  O26  1  0.93630305  0.79368554  0.40749539  1
  O  O27  1  0.20631446  0.06369695  0.09250461  1
  O  O28  1  0.06369695  0.20631446  0.59250461  1
  O  O29  1  0.79368554  0.93630305  0.90749539  1
  O  O30  1  0.74910042  0.32588361  0.39365116  1
  O  O31  1  0.67411639  0.25089958  0.10634884  1
  O  O32  1  0.25089958  0.67411639  0.60634884  1
  O  O33  1  0.32588361  0.74910042  0.89365116  1
  O  O34  1  0.60497377  0.36647346  0.56073614  1
  O  O35  1  0.63352654  0.39502623  0.93926386  1
  O  O36  1  0.39502623  0.63352654  0.43926386  1
  O  O37  1  0.36647346  0.60497377  0.06073614  1
  O  O38  1  0.46824142  0.11303168  0.34644315  1
  O  O39  1  0.88696832  0.53175858  0.15355685  1
  O  O40  1  0.53175858  0.88696832  0.65355685  1
  O  O41  1  0.11303168  0.46824142  0.84644315  1
  O  O42  1  0.69865361  0.17156908  0.55329761  1
  O  O43  1  0.82843092  0.30134639  0.94670239  1
  O  O44  1  0.30134639  0.82843092  0.44670239  1
  O  O45  1  0.17156908  0.69865361  0.05329761  1
