# generated using pymatgen
data_Sm4Ge9Ir13
_symmetry_space_group_name_H-M   'P 1'
_cell_length_a   4.04619498
_cell_length_b   11.34498172
_cell_length_c   19.61540409
_cell_angle_alpha   90.00000000
_cell_angle_beta   90.00000000
_cell_angle_gamma   90.00000000
_symmetry_Int_Tables_number   1
_chemical_formula_structural   Sm4Ge9Ir13
_chemical_formula_sum   'Sm8 Ge18 Ir26'
_cell_volume   900.42566791
_cell_formula_units_Z   2
loop_
 _symmetry_equiv_pos_site_id
 _symmetry_equiv_pos_as_xyz
  1  'x, y, z'
loop_
 _atom_site_type_symbol
 _atom_site_label
 _atom_site_symmetry_multiplicity
 _atom_site_fract_x
 _atom_site_fract_y
 _atom_site_fract_z
 _atom_site_occupancy
  Sm  Sm0  1  0.75000000  0.05906367  0.29200342  1
  Sm  Sm1  1  0.75000000  0.44093633  0.29200342  1
  Sm  Sm2  1  0.25000000  0.94093633  0.70799658  1
  Sm  Sm3  1  0.25000000  0.55906367  0.70799658  1
  Sm  Sm4  1  0.75000000  0.25000000  0.47805747  1
  Sm  Sm5  1  0.25000000  0.75000000  0.52194253  1
  Sm  Sm6  1  0.75000000  0.75000000  0.98035018  1
  Sm  Sm7  1  0.25000000  0.25000000  0.01964982  1
  Ge  Ge8  1  0.75000000  0.56230740  0.58107690  1
  Ge  Ge9  1  0.75000000  0.93769260  0.58107690  1
  Ge  Ge10  1  0.25000000  0.43769260  0.41892310  1
  Ge  Ge11  1  0.25000000  0.06230740  0.41892310  1
  Ge  Ge12  1  0.75000000  0.06865818  0.08454047  1
  Ge  Ge13  1  0.75000000  0.43134182  0.08454047  1
  Ge  Ge14  1  0.25000000  0.93134182  0.91545953  1
  Ge  Ge15  1  0.25000000  0.56865818  0.91545953  1
  Ge  Ge16  1  0.75000000  0.12102974  0.76958591  1
  Ge  Ge17  1  0.75000000  0.37897026  0.76958591  1
  Ge  Ge18  1  0.25000000  0.87897026  0.23041409  1
  Ge  Ge19  1  0.25000000  0.62102974  0.23041409  1
  Ge  Ge20  1  0.75000000  0.25000000  0.89871514  1
  Ge  Ge21  1  0.25000000  0.75000000  0.10128486  1
  Ge  Ge22  1  0.75000000  0.75000000  0.76724690  1
  Ge  Ge23  1  0.25000000  0.25000000  0.23275310  1
  Ge  Ge24  1  0.75000000  0.75000000  0.39892521  1
  Ge  Ge25  1  0.25000000  0.25000000  0.60107479  1
  Ir  Ir26  1  0.75000000  0.54917013  0.45340948  1
  Ir  Ir27  1  0.75000000  0.95082987  0.45340948  1
  Ir  Ir28  1  0.25000000  0.45082987  0.54659052  1
  Ir  Ir29  1  0.25000000  0.04917013  0.54659052  1
  Ir  Ir30  1  0.75000000  0.56666043  0.83664311  1
  Ir  Ir31  1  0.75000000  0.93333957  0.83664311  1
  Ir  Ir32  1  0.25000000  0.43333957  0.16335689  1
  Ir  Ir33  1  0.25000000  0.06666043  0.16335689  1
  Ir  Ir34  1  0.75000000  0.62309755  0.14544747  1
  Ir  Ir35  1  0.75000000  0.87690245  0.14544747  1
  Ir  Ir36  1  0.25000000  0.37690245  0.85455253  1
  Ir  Ir37  1  0.25000000  0.12309755  0.85455253  1
  Ir  Ir38  1  0.75000000  0.05819569  0.95980469  1
  Ir  Ir39  1  0.75000000  0.44180431  0.95980469  1
  Ir  Ir40  1  0.25000000  0.94180431  0.04019531  1
  Ir  Ir41  1  0.25000000  0.55819569  0.04019531  1
  Ir  Ir42  1  0.75000000  0.12739699  0.64216157  1
  Ir  Ir43  1  0.75000000  0.37260301  0.64216157  1
  Ir  Ir44  1  0.25000000  0.87260301  0.35783843  1
  Ir  Ir45  1  0.25000000  0.62739699  0.35783843  1
  Ir  Ir46  1  0.75000000  0.25000000  0.15706710  1
  Ir  Ir47  1  0.25000000  0.75000000  0.84293290  1
  Ir  Ir48  1  0.75000000  0.75000000  0.64194532  1
  Ir  Ir49  1  0.25000000  0.25000000  0.35805468  1
  Ir  Ir50  1  0.75000000  0.75000000  0.27261615  1
  Ir  Ir51  1  0.25000000  0.25000000  0.72738385  1
