# generated using pymatgen
data_Er(NO3)3
_symmetry_space_group_name_H-M   'P 1'
_cell_length_a   6.16352271
_cell_length_b   9.69659167
_cell_length_c   11.14681161
_cell_angle_alpha   92.90923944
_cell_angle_beta   90.00000000
_cell_angle_gamma   90.00000000
_symmetry_Int_Tables_number   1
_chemical_formula_structural   Er(NO3)3
_chemical_formula_sum   'Er4 N12 O36'
_cell_volume   665.33241630
_cell_formula_units_Z   4
loop_
 _symmetry_equiv_pos_site_id
 _symmetry_equiv_pos_as_xyz
  1  'x, y, z'
loop_
 _atom_site_type_symbol
 _atom_site_label
 _atom_site_symmetry_multiplicity
 _atom_site_fract_x
 _atom_site_fract_y
 _atom_site_fract_z
 _atom_site_occupancy
  Er  Er0  1  0.32274101  0.71427627  0.73387394  1
  Er  Er1  1  0.82274101  0.78572373  0.26612606  1
  Er  Er2  1  0.67725899  0.28572373  0.26612606  1
  Er  Er3  1  0.17725899  0.21427627  0.73387394  1
  N  N4  1  0.62015346  0.83122975  0.49361570  1
  N  N5  1  0.12015346  0.66877025  0.50638430  1
  N  N6  1  0.37984654  0.16877025  0.50638430  1
  N  N7  1  0.87984654  0.33122975  0.49361570  1
  N  N8  1  0.26974036  0.79938863  0.21352059  1
  N  N9  1  0.76974036  0.70061137  0.78647941  1
  N  N10  1  0.73025964  0.20061137  0.78647941  1
  N  N11  1  0.23025964  0.29938863  0.21352059  1
  N  N12  1  0.27858809  0.47295207  0.87935444  1
  N  N13  1  0.77858809  0.02704793  0.12064556  1
  N  N14  1  0.72141191  0.52704793  0.12064556  1
  N  N15  1  0.22141191  0.97295207  0.87935444  1
  O  O16  1  0.57465953  0.72548798  0.42538072  1
  O  O17  1  0.07465953  0.77451202  0.57461928  1
  O  O18  1  0.42534047  0.27451202  0.57461928  1
  O  O19  1  0.92534047  0.22548798  0.42538072  1
  O  O20  1  0.74947055  0.91889355  0.45203246  1
  O  O21  1  0.24947055  0.58110645  0.54796754  1
  O  O22  1  0.25052945  0.08110645  0.54796754  1
  O  O23  1  0.75052945  0.41889355  0.45203246  1
  O  O24  1  0.54189720  0.84828254  0.59717848  1
  O  O25  1  0.04189720  0.65171746  0.40282152  1
  O  O26  1  0.45810280  0.15171746  0.40282152  1
  O  O27  1  0.95810280  0.34828254  0.59717848  1
  O  O28  1  0.17383645  0.89614372  0.27447789  1
  O  O29  1  0.67383645  0.60385628  0.72552211  1
  O  O30  1  0.82616355  0.10385628  0.72552211  1
  O  O31  1  0.32616355  0.39614372  0.27447789  1
  O  O32  1  0.47029073  0.80286368  0.19521402  1
  O  O33  1  0.97029073  0.69713632  0.80478598  1
  O  O34  1  0.52970927  0.19713632  0.80478598  1
  O  O35  1  0.02970927  0.30286368  0.19521402  1
  O  O36  1  0.15529667  0.70007971  0.17112718  1
  O  O37  1  0.65529667  0.79992029  0.82887282  1
  O  O38  1  0.84470333  0.29992029  0.82887282  1
  O  O39  1  0.34470333  0.20007971  0.17112718  1
  O  O40  1  0.26783787  0.45801059  0.76184513  1
  O  O41  1  0.76783787  0.04198941  0.23815487  1
  O  O42  1  0.73216213  0.54198941  0.23815487  1
  O  O43  1  0.23216213  0.95801059  0.76184513  1
  O  O44  1  0.33273743  0.59074328  0.92175397  1
  O  O45  1  0.83273743  0.90925672  0.07824603  1
  O  O46  1  0.66726257  0.40925672  0.07824603  1
  O  O47  1  0.16726257  0.09074328  0.92175397  1
  O  O48  1  0.23416950  0.37277708  0.93895696  1
  O  O49  1  0.73416950  0.12722292  0.06104304  1
  O  O50  1  0.76583050  0.62722292  0.06104304  1
  O  O51  1  0.26583050  0.87277708  0.93895696  1
