# generated using pymatgen
data_Li(PrGe)4
_symmetry_space_group_name_H-M   'P 1'
_cell_length_a   7.50026984
_cell_length_b   8.07524008
_cell_length_c   15.34818671
_cell_angle_alpha   90.00000000
_cell_angle_beta   90.00000000
_cell_angle_gamma   90.00000000
_symmetry_Int_Tables_number   1
_chemical_formula_structural   Li(PrGe)4
_chemical_formula_sum   'Li4 Pr16 Ge16'
_cell_volume   929.58563762
_cell_formula_units_Z   4
loop_
 _symmetry_equiv_pos_site_id
 _symmetry_equiv_pos_as_xyz
  1  'x, y, z'
loop_
 _atom_site_type_symbol
 _atom_site_label
 _atom_site_symmetry_multiplicity
 _atom_site_fract_x
 _atom_site_fract_y
 _atom_site_fract_z
 _atom_site_occupancy
  Li  Li0  1  0.34314477  0.03299367  0.75000000  1
  Li  Li1  1  0.84314477  0.46700633  0.75000000  1
  Li  Li2  1  0.65685523  0.96700633  0.25000000  1
  Li  Li3  1  0.15685523  0.53299367  0.25000000  1
  Pr  Pr4  1  0.47428768  0.69006530  0.39845872  1
  Pr  Pr5  1  0.97428768  0.80993470  0.10154128  1
  Pr  Pr6  1  0.52571232  0.30993470  0.89845872  1
  Pr  Pr7  1  0.02571232  0.19006530  0.60154128  1
  Pr  Pr8  1  0.52571232  0.30993470  0.60154128  1
  Pr  Pr9  1  0.02571232  0.19006530  0.89845872  1
  Pr  Pr10  1  0.47428768  0.69006530  0.10154128  1
  Pr  Pr11  1  0.97428768  0.80993470  0.39845872  1
  Pr  Pr12  1  0.17564643  0.67844748  0.87178123  1
  Pr  Pr13  1  0.67564643  0.82155252  0.62821877  1
  Pr  Pr14  1  0.82435357  0.32155252  0.37178123  1
  Pr  Pr15  1  0.32435357  0.17844748  0.12821877  1
  Pr  Pr16  1  0.82435357  0.32155252  0.12821877  1
  Pr  Pr17  1  0.32435357  0.17844748  0.37178123  1
  Pr  Pr18  1  0.17564643  0.67844748  0.62821877  1
  Pr  Pr19  1  0.67564643  0.82155252  0.87178123  1
  Ge  Ge20  1  0.34325968  0.96795959  0.96349388  1
  Ge  Ge21  1  0.84325968  0.53204041  0.53650612  1
  Ge  Ge22  1  0.65674032  0.03204041  0.46349388  1
  Ge  Ge23  1  0.15674032  0.46795959  0.03650612  1
  Ge  Ge24  1  0.65674032  0.03204041  0.03650612  1
  Ge  Ge25  1  0.15674032  0.46795959  0.46349388  1
  Ge  Ge26  1  0.34325968  0.96795959  0.53650612  1
  Ge  Ge27  1  0.84325968  0.53204041  0.96349388  1
  Ge  Ge28  1  0.48570263  0.57887198  0.75000000  1
  Ge  Ge29  1  0.98570263  0.92112802  0.75000000  1
  Ge  Ge30  1  0.51429737  0.42112802  0.25000000  1
  Ge  Ge31  1  0.01429737  0.07887198  0.25000000  1
  Ge  Ge32  1  0.22846700  0.36817319  0.75000000  1
  Ge  Ge33  1  0.72846700  0.13182681  0.75000000  1
  Ge  Ge34  1  0.77153300  0.63182681  0.25000000  1
  Ge  Ge35  1  0.27153300  0.86817319  0.25000000  1
