# generated using pymatgen
data_Cs3Nb2Se11
_symmetry_space_group_name_H-M   'P 1'
_cell_length_a   8.72701906
_cell_length_b   12.85398675
_cell_length_c   20.93226443
_cell_angle_alpha   103.08193079
_cell_angle_beta   90.00000000
_cell_angle_gamma   90.00000000
_symmetry_Int_Tables_number   1
_chemical_formula_structural   Cs3Nb2Se11
_chemical_formula_sum   'Cs12 Nb8 Se44'
_cell_volume   2287.17857963
_cell_formula_units_Z   4
loop_
 _symmetry_equiv_pos_site_id
 _symmetry_equiv_pos_as_xyz
  1  'x, y, z'
loop_
 _atom_site_type_symbol
 _atom_site_label
 _atom_site_symmetry_multiplicity
 _atom_site_fract_x
 _atom_site_fract_y
 _atom_site_fract_z
 _atom_site_occupancy
  Cs  Cs0  1  0.67193837  0.99677632  0.16176241  1
  Cs  Cs1  1  0.17193837  0.00322368  0.33823759  1
  Cs  Cs2  1  0.32806163  0.00322368  0.83823759  1
  Cs  Cs3  1  0.82806163  0.99677632  0.66176241  1
  Cs  Cs4  1  0.34479439  0.45889576  0.85986535  1
  Cs  Cs5  1  0.84479439  0.54110424  0.64013465  1
  Cs  Cs6  1  0.65520561  0.54110424  0.14013465  1
  Cs  Cs7  1  0.15520561  0.45889576  0.35986535  1
  Cs  Cs8  1  0.81872464  0.77042897  0.88025378  1
  Cs  Cs9  1  0.31872464  0.22957103  0.61974622  1
  Cs  Cs10  1  0.18127536  0.22957103  0.11974622  1
  Cs  Cs11  1  0.68127536  0.77042897  0.38025378  1
  Nb  Nb12  1  0.73113369  0.19813445  0.99330041  1
  Nb  Nb13  1  0.23113369  0.80186555  0.50669959  1
  Nb  Nb14  1  0.26886631  0.80186555  0.00669959  1
  Nb  Nb15  1  0.76886631  0.19813445  0.49330041  1
  Nb  Nb16  1  0.85616142  0.29177735  0.83976729  1
  Nb  Nb17  1  0.35616142  0.70822265  0.66023271  1
  Nb  Nb18  1  0.14383858  0.70822265  0.16023271  1
  Nb  Nb19  1  0.64383858  0.29177735  0.33976729  1
  Se  Se20  1  0.63427847  0.00026185  0.98646212  1
  Se  Se21  1  0.13427847  0.99973815  0.51353788  1
  Se  Se22  1  0.36572153  0.99973815  0.01353788  1
  Se  Se23  1  0.86572153  0.00026185  0.48646212  1
  Se  Se24  1  0.73765426  0.10837710  0.84595097  1
  Se  Se25  1  0.23765426  0.89162290  0.65404903  1
  Se  Se26  1  0.26234574  0.89162290  0.15404903  1
  Se  Se27  1  0.76234574  0.10837710  0.34595097  1
  Se  Se28  1  0.99552772  0.26332347  0.95011380  1
  Se  Se29  1  0.49552772  0.73667653  0.54988620  1
  Se  Se30  1  0.00447228  0.73667653  0.04988620  1
  Se  Se31  1  0.50447228  0.26332347  0.45011380  1
  Se  Se32  1  0.45013538  0.24475978  0.97234650  1
  Se  Se33  1  0.95013538  0.75524022  0.52765350  1
  Se  Se34  1  0.54986462  0.75524022  0.02765350  1
  Se  Se35  1  0.04986462  0.24475978  0.47234650  1
  Se  Se36  1  0.60961344  0.21061915  0.77964982  1
  Se  Se37  1  0.10961344  0.78938085  0.72035018  1
  Se  Se38  1  0.39038656  0.78938085  0.22035018  1
  Se  Se39  1  0.89038656  0.21061915  0.27964982  1
  Se  Se40  1  0.92905842  0.48568868  0.90679116  1
  Se  Se41  1  0.42905842  0.51431132  0.59320884  1
  Se  Se42  1  0.07094158  0.51431132  0.09320884  1
  Se  Se43  1  0.57094158  0.48568868  0.40679116  1
  Se  Se44  1  0.76361066  0.25737761  0.10814931  1
  Se  Se45  1  0.26361066  0.74262239  0.39185069  1
  Se  Se46  1  0.23638934  0.74262239  0.89185069  1
  Se  Se47  1  0.73638934  0.25737761  0.60814931  1
  Se  Se48  1  0.64307389  0.37172335  0.95913221  1
  Se  Se49  1  0.14307389  0.62827665  0.54086779  1
  Se  Se50  1  0.35692611  0.62827665  0.04086779  1
  Se  Se51  1  0.85692611  0.37172335  0.45913221  1
  Se  Se52  1  0.97906513  0.07882323  0.95522550  1
  Se  Se53  1  0.47906513  0.92117677  0.54477450  1
  Se  Se54  1  0.02093487  0.92117677  0.04477450  1
  Se  Se55  1  0.52093487  0.07882323  0.45522550  1
  Se  Se56  1  0.77331059  0.47232438  0.81253091  1
  Se  Se57  1  0.27331059  0.52767562  0.68746909  1
  Se  Se58  1  0.22668941  0.52767562  0.18746909  1
  Se  Se59  1  0.72668941  0.47232438  0.31253091  1
  Se  Se60  1  0.06471930  0.23651467  0.76788337  1
  Se  Se61  1  0.56471930  0.76348533  0.73211663  1
  Se  Se62  1  0.93528070  0.76348533  0.23211663  1
  Se  Se63  1  0.43528070  0.23651467  0.26788337  1
