# generated using pymatgen
data_Sn2As2H24C8S2O3
_symmetry_space_group_name_H-M   'P 1'
_cell_length_a   7.51454572
_cell_length_b   12.40742109
_cell_length_c   13.41201566
_cell_angle_alpha   70.52186167
_cell_angle_beta   74.51605479
_cell_angle_gamma   84.79274647
_symmetry_Int_Tables_number   1
_chemical_formula_structural   Sn2As2H24C8S2O3
_chemical_formula_sum   'Sn4 As4 H48 C16 S4 O6'
_cell_volume   1136.12718761
_cell_formula_units_Z   2
loop_
 _symmetry_equiv_pos_site_id
 _symmetry_equiv_pos_as_xyz
  1  'x, y, z'
loop_
 _atom_site_type_symbol
 _atom_site_label
 _atom_site_symmetry_multiplicity
 _atom_site_fract_x
 _atom_site_fract_y
 _atom_site_fract_z
 _atom_site_occupancy
  Sn  Sn0  1  0.27986035  0.51840862  0.24419343  1
  Sn  Sn1  1  0.72013965  0.48159138  0.75580657  1
  Sn  Sn2  1  0.54923209  0.36415289  0.07796854  1
  Sn  Sn3  1  0.45076791  0.63584711  0.92203146  1
  As  As4  1  0.46695006  0.18599513  0.35414994  1
  As  As5  1  0.53304994  0.81400487  0.64585006  1
  As  As6  1  0.05929435  0.76828573  0.23833030  1
  As  As7  1  0.94070565  0.23171427  0.76166970  1
  H  H8  1  0.04651898  0.35529152  0.26358462  1
  H  H9  1  0.95348102  0.64470848  0.73641538  1
  H  H10  1  0.97182895  0.40627320  0.37964123  1
  H  H11  1  0.02817105  0.59372680  0.62035877  1
  H  H12  1  0.92631165  0.48998993  0.25132965  1
  H  H13  1  0.07368835  0.51001007  0.74867035  1
  H  H14  1  0.45907578  0.63254968  0.32657326  1
  H  H15  1  0.54092422  0.36745032  0.67342674  1
  H  H16  1  0.38111047  0.49784091  0.42684327  1
  H  H17  1  0.61888953  0.50215909  0.57315673  1
  H  H18  1  0.58624773  0.50372404  0.31883202  1
  H  H19  1  0.41375227  0.49627596  0.68116798  1
  H  H20  1  0.23570532  0.26907451  0.08216839  1
  H  H21  1  0.76429468  0.73092549  0.91783161  1
  H  H22  1  0.42313660  0.24581051  0.97517523  1
  H  H23  1  0.57686340  0.75418949  0.02482477  1
  H  H24  1  0.40729268  0.16093702  0.11540992  1
  H  H25  1  0.59270732  0.83906298  0.88459008  1
  H  H26  1  0.87125063  0.41414807  0.10660267  1
  H  H27  1  0.12874937  0.58585193  0.89339733  1
  H  H28  1  0.87104410  0.26863372  0.10806172  1
  H  H29  1  0.12895590  0.73136628  0.89193828  1
  H  H30  1  0.91210688  0.38392290  0.97974418  1
  H  H31  1  0.08789312  0.61607710  0.02025582  1
  H  H32  1  0.16327762  0.11647528  0.35278232  1
  H  H33  1  0.83672238  0.88352472  0.64721768  1
  H  H34  1  0.23445204  0.03651973  0.47525459  1
  H  H35  1  0.76554796  0.96348027  0.52474541  1
  H  H36  1  0.13302040  0.17554335  0.46341444  1
  H  H37  1  0.86697960  0.82445665  0.53658556  1
  H  H38  1  0.43600404  0.27412821  0.50307522  1
  H  H39  1  0.56399596  0.72587179  0.49692478  1
  H  H40  1  0.54251846  0.13573283  0.53321487  1
  H  H41  1  0.45748154  0.86426717  0.46678513  1
  H  H42  1  0.67713824  0.25776459  0.43641023  1
  H  H43  1  0.32286176  0.74223541  0.56358977  1
  H  H44  1  0.23951099  0.94971957  0.12238913  1
  H  H45  1  0.76048901  0.05028043  0.87761087  1
  H  H46  1  0.09140790  0.96226857  0.24810397  1
  H  H47  1  0.90859210  0.03773143  0.75189603  1
  H  H48  1  0.30693499  0.88597429  0.24907586  1
  H  H49  1  0.69306501  0.11402571  0.75092414  1
  H  H50  1  0.79476468  0.74295028  0.16564697  1
  H  H51  1  0.20523532  0.25704972  0.83435303  1
  H  H52  1  0.77112006  0.87254209  0.20086851  1
  H  H53  1  0.22887994  0.12745791  0.79913149  1
  H  H54  1  0.92901011  0.86722451  0.07484456  1
  H  H55  1  0.07098989  0.13277549  0.92515544  1
  C  C56  1  0.02331781  0.43065878  0.29055156  1
  C  C57  1  0.97668219  0.56934122  0.70944844  1
  C  C58  1  0.44955208  0.54082823  0.34088338  1
  C  C59  1  0.55044792  0.45917177  0.65911662  1
  C  C60  1  0.38135978  0.24505202  0.06008365  1
  C  C61  1  0.61864022  0.75494798  0.93991635  1
  C  C62  1  0.83890060  0.35757860  0.06633718  1
  C  C63  1  0.16109940  0.64242140  0.93366282  1
  C  C64  1  0.21913095  0.12193770  0.41835750  1
  C  C65  1  0.78086905  0.87806230  0.58164250  1
  C  C66  1  0.54009959  0.21872880  0.46967009  1
  C  C67  1  0.45990041  0.78127120  0.53032991  1
  C  C68  1  0.19120846  0.90754234  0.21078280  1
  C  C69  1  0.80879154  0.09245766  0.78921720  1
  C  C70  1  0.86625264  0.81838446  0.16025373  1
  C  C71  1  0.13374736  0.18161554  0.83974627  1
  S  S72  1  0.65366061  0.07558221  0.28730224  1
  S  S73  1  0.34633939  0.92441779  0.71269776  1
  S  S74  1  0.95943371  0.67641015  0.40460046  1
  S  S75  1  0.04056629  0.32358985  0.59539954  1
  O  O76  1  0.44268647  0.32086234  0.25692652  1
  O  O77  1  0.55731353  0.67913766  0.74307348  1
  O  O78  1  0.21392931  0.68899978  0.16566367  1
  O  O79  1  0.78607069  0.31100022  0.83433633  1
  O  O80  1  0.42312951  0.51484963  0.09257989  1
  O  O81  1  0.57687049  0.48515037  0.90742011  1
