# generated using pymatgen
data_Nd15Ge9C
_symmetry_space_group_name_H-M   'P 1'
_cell_length_a   6.78437618
_cell_length_b   15.34700000
_cell_length_c   15.34700000
_cell_angle_alpha   120.00037650
_cell_angle_beta   90.00000000
_cell_angle_gamma   90.00000000
_symmetry_Int_Tables_number   1
_chemical_formula_structural   Nd15Ge9C
_chemical_formula_sum   'Nd30 Ge18 C2'
_cell_volume   1383.84003491
_cell_formula_units_Z   2
loop_
 _symmetry_equiv_pos_site_id
 _symmetry_equiv_pos_as_xyz
  1  'x, y, z'
loop_
 _atom_site_type_symbol
 _atom_site_label
 _atom_site_symmetry_multiplicity
 _atom_site_fract_x
 _atom_site_fract_y
 _atom_site_fract_z
 _atom_site_occupancy
  Nd  Nd0  1  0.49971462  0.01736825  0.34223819  1
  Nd  Nd1  1  0.49971760  0.32486976  0.98263004  1
  Nd  Nd2  1  0.49971512  0.65775858  0.67513407  1
  Nd  Nd3  1  0.49971512  0.32486593  0.34224142  1
  Nd  Nd4  1  0.49971462  0.65776181  0.98263175  1
  Nd  Nd5  1  0.49971760  0.01736996  0.67513024  1
  Nd  Nd6  1  0.99971462  0.98263175  0.65776181  1
  Nd  Nd7  1  0.99971760  0.67513024  0.01736996  1
  Nd  Nd8  1  0.99971512  0.34224142  0.32486593  1
  Nd  Nd9  1  0.99971512  0.67513407  0.65775858  1
  Nd  Nd10  1  0.99971462  0.34223819  0.01736825  1
  Nd  Nd11  1  0.99971760  0.98263004  0.32486976  1
  Nd  Nd12  1  0.77084067  0.41255490  0.82511400  1
  Nd  Nd13  1  0.77084644  0.41255467  0.58744533  1
  Nd  Nd14  1  0.77084067  0.17488600  0.58744510  1
  Nd  Nd15  1  0.27084067  0.58744510  0.17488600  1
  Nd  Nd16  1  0.27084644  0.58744533  0.41255467  1
  Nd  Nd17  1  0.27084067  0.82511400  0.41255490  1
  Nd  Nd18  1  0.21121053  0.25466245  0.50932575  1
  Nd  Nd19  1  0.21121392  0.25465874  0.74534126  1
  Nd  Nd20  1  0.21121053  0.49067425  0.74533755  1
  Nd  Nd21  1  0.71121053  0.74533755  0.49067425  1
  Nd  Nd22  1  0.71121392  0.74534126  0.25465874  1
  Nd  Nd23  1  0.71121053  0.50932575  0.25466245  1
  Nd  Nd24  1  0.76741471  0.08083865  0.16168176  1
  Nd  Nd25  1  0.76742201  0.08084149  0.91915851  1
  Nd  Nd26  1  0.76741471  0.83831824  0.91916135  1
  Nd  Nd27  1  0.26741471  0.91916135  0.83831824  1
  Nd  Nd28  1  0.26742201  0.91915851  0.08084149  1
  Nd  Nd29  1  0.26741471  0.16168176  0.08083865  1
  Ge  Ge30  1  0.22278934  0.13267807  0.26537452  1
  Ge  Ge31  1  0.22278111  0.13268879  0.86731121  1
  Ge  Ge32  1  0.22278934  0.73462548  0.86732193  1
  Ge  Ge33  1  0.72278934  0.86732193  0.73462548  1
  Ge  Ge34  1  0.72278111  0.86731121  0.13268879  1
  Ge  Ge35  1  0.72278934  0.26537452  0.13267807  1
  Ge  Ge36  1  0.23494157  0.46721822  0.93444103  1
  Ge  Ge37  1  0.23494049  0.46721714  0.53278286  1
  Ge  Ge38  1  0.23494157  0.06555897  0.53278178  1
  Ge  Ge39  1  0.73494157  0.53278178  0.06555897  1
  Ge  Ge40  1  0.73494049  0.53278286  0.46721714  1
  Ge  Ge41  1  0.73494157  0.93444103  0.46721822  1
  Ge  Ge42  1  0.78607100  0.19818287  0.39638382  1
  Ge  Ge43  1  0.78607079  0.19818819  0.80181181  1
  Ge  Ge44  1  0.78607100  0.60361618  0.80181713  1
  Ge  Ge45  1  0.28607100  0.80181713  0.60361618  1
  Ge  Ge46  1  0.28607079  0.80181181  0.19818819  1
  Ge  Ge47  1  0.28607100  0.39638382  0.19818287  1
  C  C48  1  0.99039491  0.33334224  0.66665776  1
  C  C49  1  0.49039491  0.66665776  0.33334224  1
