# generated using pymatgen
data_RbHSO4
_symmetry_space_group_name_H-M   'P 1'
_cell_length_a   4.65457559
_cell_length_b   14.68732386
_cell_length_c   14.76527701
_cell_angle_alpha   117.96196613
_cell_angle_beta   90.00000000
_cell_angle_gamma   90.00000000
_symmetry_Int_Tables_number   1
_chemical_formula_structural   RbHSO4
_chemical_formula_sum   'Rb8 H8 S8 O32'
_cell_volume   891.56384781
_cell_formula_units_Z   8
loop_
 _symmetry_equiv_pos_site_id
 _symmetry_equiv_pos_as_xyz
  1  'x, y, z'
loop_
 _atom_site_type_symbol
 _atom_site_label
 _atom_site_symmetry_multiplicity
 _atom_site_fract_x
 _atom_site_fract_y
 _atom_site_fract_z
 _atom_site_occupancy
  Rb  Rb0  1  0.42665735  0.41092171  0.12728296  1
  Rb  Rb1  1  0.57334265  0.91092171  0.62728296  1
  Rb  Rb2  1  0.86518922  0.08128840  0.04810185  1
  Rb  Rb3  1  0.13481078  0.58128840  0.54810185  1
  Rb  Rb4  1  0.40999449  0.16518497  0.37765148  1
  Rb  Rb5  1  0.59000551  0.66518497  0.87765148  1
  Rb  Rb6  1  0.97905430  0.83223581  0.29859216  1
  Rb  Rb7  1  0.02094570  0.33223581  0.79859216  1
  H  H8  1  0.96413618  0.60979062  0.32395287  1
  H  H9  1  0.03586382  0.10979062  0.82395287  1
  H  H10  1  0.43141824  0.63271442  0.09998730  1
  H  H11  1  0.56858176  0.13271442  0.59998730  1
  H  H12  1  0.41422554  0.89729268  0.85517494  1
  H  H13  1  0.58577446  0.39729268  0.35517494  1
  H  H14  1  0.03106980  0.85706383  0.07593703  1
  H  H15  1  0.96893020  0.35706383  0.57593703  1
  S  S16  1  0.46802707  0.16576046  0.88450360  1
  S  S17  1  0.53197293  0.66576046  0.38450360  1
  S  S18  1  0.99257575  0.57838460  0.04140948  1
  S  S19  1  0.00742425  0.07838460  0.54140948  1
  S  S20  1  0.97426540  0.32121943  0.28550426  1
  S  S21  1  0.02573460  0.82121943  0.78550426  1
  S  S22  1  0.45744624  0.91955994  0.13254940  1
  S  S23  1  0.54255376  0.41955994  0.63254940  1
  O  O24  1  0.23532851  0.11128840  0.79577511  1
  O  O25  1  0.76467149  0.61128840  0.29577511  1
  O  O26  1  0.71542500  0.09410338  0.84838249  1
  O  O27  1  0.28457500  0.59410338  0.34838249  1
  O  O28  1  0.34347067  0.17429094  0.97940840  1
  O  O29  1  0.65652933  0.67429094  0.47940840  1
  O  O30  1  0.53106152  0.26590438  0.88951930  1
  O  O31  1  0.46893848  0.76590438  0.38951930  1
  O  O32  1  0.88699344  0.22539379  0.28575981  1
  O  O33  1  0.11300656  0.72539379  0.78575981  1
  O  O34  1  0.26967071  0.35177916  0.32095111  1
  O  O35  1  0.73032929  0.85177916  0.82095111  1
  O  O36  1  0.90945361  0.32007451  0.18774057  1
  O  O37  1  0.09054639  0.82007451  0.68774057  1
  O  O38  1  0.79436587  0.41369929  0.37261359  1
  O  O39  1  0.20563413  0.91369929  0.87261359  1
  O  O40  1  0.23613649  0.62567809  0.12777591  1
  O  O41  1  0.76386351  0.12567809  0.62777591  1
  O  O42  1  0.75516367  0.65426148  0.08117257  1
  O  O43  1  0.24483633  0.15426148  0.58117257  1
  O  O44  1  0.11508375  0.56979961  0.94611689  1
  O  O45  1  0.88491625  0.06979961  0.44611689  1
  O  O46  1  0.91589263  0.47884654  0.03516423  1
  O  O47  1  0.08410737  0.97884654  0.53516423  1
  O  O48  1  0.33484531  0.01483052  0.13986260  1
  O  O49  1  0.66515469  0.51483052  0.63986260  1
  O  O50  1  0.71503332  0.88560704  0.06612894  1
  O  O51  1  0.28496668  0.38560704  0.56612894  1
  O  O52  1  0.50211265  0.92394946  0.23273667  1
  O  O53  1  0.49788735  0.42394946  0.73273667  1
  O  O54  1  0.23420877  0.82897655  0.07154445  1
  O  O55  1  0.76579123  0.32897655  0.57154445  1
