# generated using pymatgen
data_CrH20N2O6F5
_symmetry_space_group_name_H-M   'P 1'
_cell_length_a   7.14419444
_cell_length_b   7.14419444
_cell_length_c   13.50932622
_cell_angle_alpha   89.50277990
_cell_angle_beta   90.49722010
_cell_angle_gamma   121.19366812
_symmetry_Int_Tables_number   1
_chemical_formula_structural   CrH20N2O6F5
_chemical_formula_sum   'Cr2 H40 N4 O12 F10'
_cell_volume   589.79194428
_cell_formula_units_Z   2
loop_
 _symmetry_equiv_pos_site_id
 _symmetry_equiv_pos_as_xyz
  1  'x, y, z'
loop_
 _atom_site_type_symbol
 _atom_site_label
 _atom_site_symmetry_multiplicity
 _atom_site_fract_x
 _atom_site_fract_y
 _atom_site_fract_z
 _atom_site_occupancy
  Cr  Cr0  1  0.00000000  -0.00000000  0.50000000  1
  Cr  Cr1  1  0.00000000  -0.00000000  -0.00000000  1
  H  H2  1  0.66692662  0.33754547  0.90202700  1
  H  H3  1  0.33754547  0.66692662  0.59797300  1
  H  H4  1  0.33307338  0.66245453  0.09797300  1
  H  H5  1  0.66245453  0.33307338  0.40202700  1
  H  H6  1  0.52003028  0.31636771  0.79765504  1
  H  H7  1  0.31636771  0.52003028  0.70234496  1
  H  H8  1  0.47996972  0.68363229  0.20234496  1
  H  H9  1  0.68363229  0.47996972  0.29765504  1
  H  H10  1  0.68388821  0.20794408  0.79934266  1
  H  H11  1  0.20794408  0.68388821  0.70065734  1
  H  H12  1  0.31611179  0.79205592  0.20065734  1
  H  H13  1  0.79205592  0.31611179  0.29934266  1
  H  H14  1  0.79653031  0.48334397  0.79759551  1
  H  H15  1  0.48334397  0.79653031  0.70240449  1
  H  H16  1  0.20346969  0.51665603  0.20240449  1
  H  H17  1  0.51665603  0.20346969  0.29759551  1
  H  H18  1  0.76846666  0.57679393  0.55970928  1
  H  H19  1  0.57679393  0.76846666  0.94029072  1
  H  H20  1  0.23153334  0.42320607  0.44029072  1
  H  H21  1  0.42320607  0.23153334  0.05970928  1
  H  H22  1  0.90682894  0.73127951  0.65270527  1
  H  H23  1  0.73127951  0.90682894  0.84729473  1
  H  H24  1  0.09317106  0.26872049  0.34729473  1
  H  H25  1  0.26872049  0.09317106  0.15270527  1
  H  H26  1  0.80755086  0.21729422  0.55751198  1
  H  H27  1  0.21729422  0.80755086  0.94248802  1
  H  H28  1  0.19244914  0.78270578  0.44248802  1
  H  H29  1  0.78270578  0.19244914  0.05751198  1
  H  H30  1  0.82739204  0.09229078  0.65397784  1
  H  H31  1  0.09229078  0.82739204  0.84602216  1
  H  H32  1  0.17260796  0.90770922  0.34602216  1
  H  H33  1  0.90770922  0.17260796  0.15397784  1
  H  H34  1  0.26834146  0.17794424  0.65318262  1
  H  H35  1  0.17794424  0.26834146  0.84681738  1
  H  H36  1  0.73165854  0.82205576  0.34681738  1
  H  H37  1  0.82205576  0.73165854  0.15318262  1
  H  H38  1  0.42123173  0.19964740  0.55980575  1
  H  H39  1  0.19964740  0.42123173  0.94019425  1
  H  H40  1  0.57876827  0.80035260  0.44019425  1
  H  H41  1  0.80035260  0.57876827  0.05980575  1
  N  N42  1  0.66654927  0.33588837  0.82482401  1
  N  N43  1  0.33588837  0.66654927  0.67517599  1
  N  N44  1  0.33345073  0.66411163  0.17517599  1
  N  N45  1  0.66411163  0.33345073  0.32482401  1
  O  O46  1  0.83561829  0.73026867  0.58710603  1
  O  O47  1  0.73026867  0.83561829  0.91289397  1
  O  O48  1  0.16438171  0.26973133  0.41289397  1
  O  O49  1  0.26973133  0.16438171  0.08710603  1
  O  O50  1  0.89548034  0.15774059  0.58652696  1
  O  O51  1  0.15774059  0.89548034  0.91347304  1
  O  O52  1  0.10451966  0.84225941  0.41347304  1
  O  O53  1  0.84225941  0.10451966  0.08652696  1
  O  O54  1  0.26722027  0.10948007  0.58732255  1
  O  O55  1  0.10948007  0.26722027  0.91267745  1
  O  O56  1  0.73277973  0.89051993  0.41267745  1
  O  O57  1  0.89051993  0.73277973  0.08732255  1
  F  F58  1  0.66338375  0.33232302  0.52973973  1
  F  F59  1  0.33232302  0.66338375  0.97026027  1
  F  F60  1  0.33661625  0.66767698  0.47026027  1
  F  F61  1  0.66767698  0.33661625  0.02973973  1
  F  F62  1  0.00750017  0.70874731  0.74980977  1
  F  F63  1  0.70874731  0.00750017  0.75019023  1
  F  F64  1  0.99249983  0.29125269  0.25019023  1
  F  F65  1  0.29125269  0.99249983  0.24980977  1
  F  F66  1  0.30028286  0.30028286  0.75000000  1
  F  F67  1  0.69971714  0.69971714  0.25000000  1
