# generated using pymatgen
data_Li4MnCo2O7
_symmetry_space_group_name_H-M   'P 1'
_cell_length_a   2.97162823
_cell_length_b   10.65642658
_cell_length_c   8.08711674
_cell_angle_alpha   78.33317367
_cell_angle_beta   88.99517193
_cell_angle_gamma   85.81616538
_symmetry_Int_Tables_number   1
_chemical_formula_structural   Li4MnCo2O7
_chemical_formula_sum   'Li8 Mn2 Co4 O14'
_cell_volume   250.13395219
_cell_formula_units_Z   2
loop_
 _symmetry_equiv_pos_site_id
 _symmetry_equiv_pos_as_xyz
  1  'x, y, z'
loop_
 _atom_site_type_symbol
 _atom_site_label
 _atom_site_symmetry_multiplicity
 _atom_site_fract_x
 _atom_site_fract_y
 _atom_site_fract_z
 _atom_site_occupancy
  Li  Li0  1  0.84991140  0.28694055  0.92363106  1
  Li  Li1  1  0.13672049  0.71833756  0.07167463  1
  Li  Li2  1  0.43658821  0.14294403  0.22528495  1
  Li  Li3  1  0.28917128  0.42488427  0.63279186  1
  Li  Li4  1  0.56910460  0.85641310  0.78148558  1
  Li  Li5  1  0.72758652  0.56376083  0.36373274  1
  Li  Li6  1  0.99466842  0.99968678  0.50333955  1
  Li  Li7  1  0.84158676  0.29397833  0.43126384  1
  Mn  Mn8  1  0.99589814  0.00018232  0.99913183  1
  Mn  Mn9  1  0.29266738  0.42557240  0.15001679  1
  Co  Co10  1  0.57656917  0.85621714  0.28788089  1
  Co  Co11  1  0.14562953  0.71320618  0.57160489  1
  Co  Co12  1  0.41440478  0.14917641  0.70154651  1
  Co  Co13  1  0.72832827  0.56964516  0.85504423  1
  O  O14  1  0.40039051  0.13927989  0.94660524  1
  O  O15  1  0.75208334  0.55495368  0.10029357  1
  O  O16  1  0.97198805  0.99706410  0.24369430  1
  O  O17  1  0.83201271  0.27433951  0.68122359  1
  O  O18  1  0.12205502  0.70695188  0.81289651  1
  O  O19  1  0.27719374  0.43199356  0.37496856  1
  O  O20  1  0.54768704  0.84864418  0.52637204  1
  O  O21  1  0.31492002  0.43842896  0.89956211  1
  O  O22  1  0.59812200  0.85743611  0.04821931  1
  O  O23  1  0.82613687  0.30353021  0.17349160  1
  O  O24  1  0.73628841  0.57915306  0.61607727  1
  O  O25  1  0.01998389  0.00468198  0.75775604  1
  O  O26  1  0.16755661  0.72324472  0.33115777  1
  O  O27  1  0.43474683  0.13935311  0.48925275  1
