# generated using pymatgen
data_Rb2BiMoPO8
_symmetry_space_group_name_H-M   'P 1'
_cell_length_a   7.18073003
_cell_length_b   12.68523101
_cell_length_c   12.68523101
_cell_angle_alpha   60.02460941
_cell_angle_beta   73.55856772
_cell_angle_gamma   73.55856772
_symmetry_Int_Tables_number   1
_chemical_formula_structural   Rb2BiMoPO8
_chemical_formula_sum   'Rb8 Bi4 Mo4 P4 O32'
_cell_volume   945.95108070
_cell_formula_units_Z   4
loop_
 _symmetry_equiv_pos_site_id
 _symmetry_equiv_pos_as_xyz
  1  'x, y, z'
loop_
 _atom_site_type_symbol
 _atom_site_label
 _atom_site_symmetry_multiplicity
 _atom_site_fract_x
 _atom_site_fract_y
 _atom_site_fract_z
 _atom_site_occupancy
  Rb  Rb0  1  0.87746289  0.57474069  0.74007885  1
  Rb  Rb1  1  0.69228243  0.92525931  0.75992115  1
  Rb  Rb2  1  0.62253711  0.25992115  0.42525931  1
  Rb  Rb3  1  0.80771757  0.24007885  0.07474069  1
  Rb  Rb4  1  0.12253711  0.42525931  0.25992115  1
  Rb  Rb5  1  0.30771757  0.07474069  0.24007885  1
  Rb  Rb6  1  0.37746289  0.74007885  0.57474069  1
  Rb  Rb7  1  0.19228243  0.75992115  0.92525931  1
  Bi  Bi8  1  0.75000000  0.33289543  0.66710457  1
  Bi  Bi9  1  0.25000000  0.16710457  0.83289543  1
  Bi  Bi10  1  0.25000000  0.66710457  0.33289543  1
  Bi  Bi11  1  0.75000000  0.83289543  0.16710457  1
  Mo  Mo12  1  0.16325817  0.08674183  0.58674183  1
  Mo  Mo13  1  0.33674183  0.41325817  0.91325817  1
  Mo  Mo14  1  0.83674183  0.91325817  0.41325817  1
  Mo  Mo15  1  0.66325817  0.58674183  0.08674183  1
  P  P16  1  0.75000000  0.57277082  0.42722918  1
  P  P17  1  0.25000000  0.92722918  0.07277082  1
  P  P18  1  0.25000000  0.42722918  0.57277082  1
  P  P19  1  0.75000000  0.07277082  0.92722918  1
  O  O20  1  0.78276641  0.44018676  0.44174138  1
  O  O21  1  0.16469455  0.05981324  0.05825862  1
  O  O22  1  0.71723359  0.55825862  0.55981324  1
  O  O23  1  0.33530545  0.94174138  0.94018676  1
  O  O24  1  0.21723359  0.55981324  0.55825862  1
  O  O25  1  0.83530545  0.94018676  0.94174138  1
  O  O26  1  0.28276641  0.44174138  0.44018676  1
  O  O27  1  0.66469455  0.05825862  0.05981324  1
  O  O28  1  0.91298289  0.16954587  0.60189638  1
  O  O29  1  0.18442514  0.33045413  0.89810362  1
  O  O30  1  0.58701711  0.39810362  0.83045413  1
  O  O31  1  0.31557486  0.10189638  0.66954587  1
  O  O32  1  0.08701711  0.83045413  0.39810362  1
  O  O33  1  0.81557486  0.66954587  0.10189638  1
  O  O34  1  0.41298289  0.60189638  0.16954587  1
  O  O35  1  0.68442514  0.89810362  0.33045413  1
  O  O36  1  0.90821339  0.15980439  0.86038385  1
  O  O37  1  0.42840163  0.34019561  0.63961615  1
  O  O38  1  0.59178661  0.13961615  0.84019561  1
  O  O39  1  0.07159837  0.36038385  0.65980439  1
  O  O40  1  0.09178661  0.84019561  0.13961615  1
  O  O41  1  0.57159837  0.65980439  0.36038385  1
  O  O42  1  0.40821339  0.86038385  0.15980439  1
  O  O43  1  0.92840163  0.63961615  0.34019561  1
  O  O44  1  0.27480893  0.14773557  0.42757142  1
  O  O45  1  0.35011592  0.35226443  0.07242858  1
  O  O46  1  0.22519107  0.57242858  0.85226443  1
  O  O47  1  0.14988408  0.92757142  0.64773557  1
  O  O48  1  0.72519107  0.85226443  0.57242858  1
  O  O49  1  0.64988408  0.64773557  0.92757142  1
  O  O50  1  0.77480893  0.42757142  0.14773557  1
  O  O51  1  0.85011592  0.07242858  0.35226443  1
