# generated using pymatgen
data_KMnBP2H2O9
_symmetry_space_group_name_H-M   'P 1'
_cell_length_a   6.70923731
_cell_length_b   9.94567321
_cell_length_c   12.32136752
_cell_angle_alpha   90.00000000
_cell_angle_beta   90.00000000
_cell_angle_gamma   108.52059630
_symmetry_Int_Tables_number   1
_chemical_formula_structural   KMnBP2H2O9
_chemical_formula_sum   'K4 Mn4 B4 P8 H8 O36'
_cell_volume   779.59773202
_cell_formula_units_Z   4
loop_
 _symmetry_equiv_pos_site_id
 _symmetry_equiv_pos_as_xyz
  1  'x, y, z'
loop_
 _atom_site_type_symbol
 _atom_site_label
 _atom_site_symmetry_multiplicity
 _atom_site_fract_x
 _atom_site_fract_y
 _atom_site_fract_z
 _atom_site_occupancy
  K  K0  1  0.35063188  0.87862682  0.82957875  1
  K  K1  1  0.64936812  0.62137318  0.32957875  1
  K  K2  1  0.64936812  0.12137318  0.17042125  1
  K  K3  1  0.35063188  0.37862682  0.67042125  1
  Mn  Mn4  1  0.10379893  0.90678245  0.58579620  1
  Mn  Mn5  1  0.89620107  0.59321755  0.08579620  1
  Mn  Mn6  1  0.89620107  0.09321755  0.41420380  1
  Mn  Mn7  1  0.10379893  0.40678245  0.91420380  1
  B  B8  1  0.22737624  0.65184166  0.46897687  1
  B  B9  1  0.77262376  0.84815834  0.96897687  1
  B  B10  1  0.77262376  0.34815834  0.53102313  1
  B  B11  1  0.22737624  0.15184166  0.03102313  1
  P  P12  1  0.99992711  0.56313125  0.66348307  1
  P  P13  1  0.00007289  0.93686875  0.16348307  1
  P  P14  1  0.00007289  0.43686875  0.33651693  1
  P  P15  1  0.99992711  0.06313125  0.83651693  1
  P  P16  1  0.56577826  0.83271639  0.57068723  1
  P  P17  1  0.43422174  0.66728361  0.07068723  1
  P  P18  1  0.43422174  0.16728361  0.42931277  1
  P  P19  1  0.56577826  0.33271639  0.92931277  1
  H  H20  1  0.13244183  0.79150798  0.38067511  1
  H  H21  1  0.86755817  0.70849202  0.88067511  1
  H  H22  1  0.86755817  0.20849202  0.61932489  1
  H  H23  1  0.13244183  0.29150798  0.11932489  1
  H  H24  1  0.72728690  0.71406524  0.67105103  1
  H  H25  1  0.27271310  0.78593476  0.17105103  1
  H  H26  1  0.27271310  0.28593476  0.32894897  1
  H  H27  1  0.72728690  0.21406524  0.82894897  1
  O  O28  1  0.95690782  0.70510927  0.67859599  1
  O  O29  1  0.04309218  0.79489073  0.17859599  1
  O  O30  1  0.04309218  0.29489073  0.32140401  1
  O  O31  1  0.95690782  0.20510927  0.82140401  1
  O  O32  1  0.42777182  0.91637769  0.61247735  1
  O  O33  1  0.57222818  0.58362231  0.11247735  1
  O  O34  1  0.57222818  0.08362231  0.38752265  1
  O  O35  1  0.42777182  0.41637769  0.88752265  1
  O  O36  1  0.09694453  0.74456285  0.45099287  1
  O  O37  1  0.90305547  0.75543715  0.95099287  1
  O  O38  1  0.90305547  0.25543715  0.54900713  1
  O  O39  1  0.09694453  0.24456285  0.04900713  1
  O  O40  1  0.08058088  0.01374422  0.73408589  1
  O  O41  1  0.91941912  0.48625578  0.23408589  1
  O  O42  1  0.91941912  0.98625578  0.26591411  1
  O  O43  1  0.08058088  0.51374422  0.76591411  1
  O  O44  1  0.78819388  0.91758804  0.53196629  1
  O  O45  1  0.21180612  0.58241196  0.03196629  1
  O  O46  1  0.21180612  0.08241196  0.46803371  1
  O  O47  1  0.78819388  0.41758804  0.96803371  1
  O  O48  1  0.17023290  0.57532553  0.57273976  1
  O  O49  1  0.82976710  0.92467447  0.07273976  1
  O  O50  1  0.82976710  0.42467447  0.42726024  1
  O  O51  1  0.17023290  0.07532553  0.92726024  1
  O  O52  1  0.21038866  0.54976972  0.37844496  1
  O  O53  1  0.78961134  0.95023028  0.87844496  1
  O  O54  1  0.78961134  0.45023028  0.62155504  1
  O  O55  1  0.21038866  0.04976972  0.12155504  1
  O  O56  1  0.45572678  0.73444673  0.47235270  1
  O  O57  1  0.54427322  0.76555327  0.97235270  1
  O  O58  1  0.54427322  0.26555327  0.52764730  1
  O  O59  1  0.45572678  0.23444673  0.02764730  1
  O  O60  1  0.58560624  0.73097370  0.66689764  1
  O  O61  1  0.41439376  0.76902630  0.16689764  1
  O  O62  1  0.41439376  0.26902630  0.33310236  1
  O  O63  1  0.58560624  0.23097370  0.83310236  1
