# generated using pymatgen
data_Gd5Ge4
_symmetry_space_group_name_H-M   'P 1'
_cell_length_a   7.73726416
_cell_length_b   7.83896605
_cell_length_c   14.93313629
_cell_angle_alpha   90.00000000
_cell_angle_beta   90.00000000
_cell_angle_gamma   90.00000000
_symmetry_Int_Tables_number   1
_chemical_formula_structural   Gd5Ge4
_chemical_formula_sum   'Gd20 Ge16'
_cell_volume   905.72683821
_cell_formula_units_Z   4
loop_
 _symmetry_equiv_pos_site_id
 _symmetry_equiv_pos_as_xyz
  1  'x, y, z'
loop_
 _atom_site_type_symbol
 _atom_site_label
 _atom_site_symmetry_multiplicity
 _atom_site_fract_x
 _atom_site_fract_y
 _atom_site_fract_z
 _atom_site_occupancy
  Gd  Gd0  1  0.52409879  0.67820332  0.59980555  1
  Gd  Gd1  1  0.02409879  0.82179668  0.90019445  1
  Gd  Gd2  1  0.47590121  0.32179668  0.09980555  1
  Gd  Gd3  1  0.97590121  0.17820332  0.40019445  1
  Gd  Gd4  1  0.47590121  0.32179668  0.40019445  1
  Gd  Gd5  1  0.97590121  0.17820332  0.09980555  1
  Gd  Gd6  1  0.52409879  0.67820332  0.90019445  1
  Gd  Gd7  1  0.02409879  0.82179668  0.59980555  1
  Gd  Gd8  1  0.87736277  0.33811316  0.61673538  1
  Gd  Gd9  1  0.37736277  0.16188684  0.88326462  1
  Gd  Gd10  1  0.12263723  0.66188684  0.11673538  1
  Gd  Gd11  1  0.62263723  0.83811316  0.38326462  1
  Gd  Gd12  1  0.12263723  0.66188684  0.38326462  1
  Gd  Gd13  1  0.62263723  0.83811316  0.11673538  1
  Gd  Gd14  1  0.87736277  0.33811316  0.88326462  1
  Gd  Gd15  1  0.37736277  0.16188684  0.61673538  1
  Gd  Gd16  1  0.29072693  0.99938354  0.25000000  1
  Gd  Gd17  1  0.79072693  0.50061646  0.25000000  1
  Gd  Gd18  1  0.70927307  0.00061646  0.75000000  1
  Gd  Gd19  1  0.20927307  0.49938354  0.75000000  1
  Ge  Ge20  1  0.71785611  0.03289717  0.54410833  1
  Ge  Ge21  1  0.21785611  0.46710283  0.95589167  1
  Ge  Ge22  1  0.28214389  0.96710283  0.04410833  1
  Ge  Ge23  1  0.78214389  0.53289717  0.45589167  1
  Ge  Ge24  1  0.28214389  0.96710283  0.45589167  1
  Ge  Ge25  1  0.78214389  0.53289717  0.04410833  1
  Ge  Ge26  1  0.71785611  0.03289717  0.95589167  1
  Ge  Ge27  1  0.21785611  0.46710283  0.54410833  1
  Ge  Ge28  1  0.41771399  0.61258353  0.25000000  1
  Ge  Ge29  1  0.91771399  0.88741647  0.25000000  1
  Ge  Ge30  1  0.58228601  0.38741647  0.75000000  1
  Ge  Ge31  1  0.08228601  0.11258353  0.75000000  1
  Ge  Ge32  1  0.17456156  0.36646803  0.25000000  1
  Ge  Ge33  1  0.67456156  0.13353197  0.25000000  1
  Ge  Ge34  1  0.82543844  0.63353197  0.75000000  1
  Ge  Ge35  1  0.32543844  0.86646803  0.75000000  1
