# generated using pymatgen
data_ReN2(OF2)4
_symmetry_space_group_name_H-M   'P 1'
_cell_length_a   10.03657106
_cell_length_b   12.18197639
_cell_length_c   12.67946370
_cell_angle_alpha   90.00000000
_cell_angle_beta   90.00000000
_cell_angle_gamma   90.00000000
_symmetry_Int_Tables_number   1
_chemical_formula_structural   ReN2(OF2)4
_chemical_formula_sum   'Re8 N16 O32 F64'
_cell_volume   1550.25807416
_cell_formula_units_Z   8
loop_
 _symmetry_equiv_pos_site_id
 _symmetry_equiv_pos_as_xyz
  1  'x, y, z'
loop_
 _atom_site_type_symbol
 _atom_site_label
 _atom_site_symmetry_multiplicity
 _atom_site_fract_x
 _atom_site_fract_y
 _atom_site_fract_z
 _atom_site_occupancy
  Re  Re0  1  0.75633653  0.11862518  0.35921393  1
  Re  Re1  1  0.25633653  0.38137482  0.64078607  1
  Re  Re2  1  0.24366347  0.61862518  0.14078607  1
  Re  Re3  1  0.74366347  0.88137482  0.85921393  1
  Re  Re4  1  0.24366347  0.88137482  0.64078607  1
  Re  Re5  1  0.74366347  0.61862518  0.35921393  1
  Re  Re6  1  0.75633653  0.38137482  0.85921393  1
  Re  Re7  1  0.25633653  0.11862518  0.14078607  1
  N  N8  1  0.79908802  0.62096910  0.05924276  1
  N  N9  1  0.29908802  0.87903090  0.94075724  1
  N  N10  1  0.20091198  0.12096910  0.44075724  1
  N  N11  1  0.70091198  0.37903090  0.55924276  1
  N  N12  1  0.20091198  0.37903090  0.94075724  1
  N  N13  1  0.70091198  0.12096910  0.05924276  1
  N  N14  1  0.79908802  0.87903090  0.55924276  1
  N  N15  1  0.29908802  0.62096910  0.44075724  1
  N  N16  1  0.51243042  0.13033975  0.73560838  1
  N  N17  1  0.01243042  0.36966025  0.26439162  1
  N  N18  1  0.48756958  0.63033975  0.76439162  1
  N  N19  1  0.98756958  0.86966025  0.23560838  1
  N  N20  1  0.48756958  0.86966025  0.26439162  1
  N  N21  1  0.98756958  0.63033975  0.73560838  1
  N  N22  1  0.51243042  0.36966025  0.23560838  1
  N  N23  1  0.01243042  0.13033975  0.76439162  1
  O  O24  1  0.68585999  0.62743385  0.05564862  1
  O  O25  1  0.18585999  0.87256615  0.94435138  1
  O  O26  1  0.31414001  0.12743385  0.44435138  1
  O  O27  1  0.81414001  0.37256615  0.55564862  1
  O  O28  1  0.31414001  0.37256615  0.94435138  1
  O  O29  1  0.81414001  0.12743385  0.05564862  1
  O  O30  1  0.68585999  0.87256615  0.55564862  1
  O  O31  1  0.18585999  0.62743385  0.44435138  1
  O  O32  1  0.91239988  0.61513275  0.06268379  1
  O  O33  1  0.41239988  0.88486725  0.93731621  1
  O  O34  1  0.08760012  0.11513275  0.43731621  1
  O  O35  1  0.58760012  0.38486725  0.56268379  1
  O  O36  1  0.08760012  0.38486725  0.93731621  1
  O  O37  1  0.58760012  0.11513275  0.06268379  1
  O  O38  1  0.91239988  0.88486725  0.56268379  1
  O  O39  1  0.41239988  0.61513275  0.43731621  1
  O  O40  1  0.57244892  0.10104315  0.66468436  1
  O  O41  1  0.07244892  0.39895685  0.33531564  1
  O  O42  1  0.42755108  0.60104315  0.83531564  1
  O  O43  1  0.92755108  0.89895685  0.16468436  1
  O  O44  1  0.42755108  0.89895685  0.33531564  1
  O  O45  1  0.92755108  0.60104315  0.66468436  1
  O  O46  1  0.57244892  0.39895685  0.16468436  1
  O  O47  1  0.07244892  0.10104315  0.83531564  1
  O  O48  1  0.45093943  0.15816823  0.80627654  1
  O  O49  1  0.95093943  0.34183177  0.19372346  1
  O  O50  1  0.54906057  0.65816823  0.69372346  1
  O  O51  1  0.04906057  0.84183177  0.30627654  1
  O  O52  1  0.54906057  0.84183177  0.19372346  1
  O  O53  1  0.04906057  0.65816823  0.80627654  1
  O  O54  1  0.45093943  0.34183177  0.30627654  1
  O  O55  1  0.95093943  0.15816823  0.69372346  1
  F  F56  1  0.63217382  0.22183185  0.42559060  1
  F  F57  1  0.13217382  0.27816815  0.57440940  1
  F  F58  1  0.36782618  0.72183185  0.07440940  1
  F  F59  1  0.86782618  0.77816815  0.92559060  1
  F  F60  1  0.36782618  0.77816815  0.57440940  1
  F  F61  1  0.86782618  0.72183185  0.42559060  1
  F  F62  1  0.63217382  0.27816815  0.92559060  1
  F  F63  1  0.13217382  0.22183185  0.07440940  1
  F  F64  1  0.61360068  0.02877455  0.41713540  1
  F  F65  1  0.11360068  0.47122545  0.58286460  1
  F  F66  1  0.38639932  0.52877455  0.08286460  1
  F  F67  1  0.88639932  0.97122545  0.91713540  1
  F  F68  1  0.38639932  0.97122545  0.58286460  1
  F  F69  1  0.88639932  0.52877455  0.41713540  1
  F  F70  1  0.61360068  0.47122545  0.91713540  1
  F  F71  1  0.11360068  0.02877455  0.08286460  1
  F  F72  1  0.70002902  0.22228180  0.24639987  1
  F  F73  1  0.20002902  0.27771820  0.75360013  1
  F  F74  1  0.29997098  0.72228180  0.25360013  1
  F  F75  1  0.79997098  0.77771820  0.74639987  1
  F  F76  1  0.29997098  0.77771820  0.75360013  1
  F  F77  1  0.79997098  0.72228180  0.24639987  1
  F  F78  1  0.70002902  0.27771820  0.74639987  1
  F  F79  1  0.20002902  0.22228180  0.25360013  1
  F  F80  1  0.68927206  0.02716228  0.24131446  1
  F  F81  1  0.18927206  0.47283772  0.75868554  1
  F  F82  1  0.31072794  0.52716228  0.25868554  1
  F  F83  1  0.81072794  0.97283772  0.74131446  1
  F  F84  1  0.31072794  0.97283772  0.75868554  1
  F  F85  1  0.81072794  0.52716228  0.24131446  1
  F  F86  1  0.68927206  0.47283772  0.74131446  1
  F  F87  1  0.18927206  0.02716228  0.25868554  1
  F  F88  1  0.84555705  0.97454248  0.37983845  1
  F  F89  1  0.34555705  0.52545752  0.62016155  1
  F  F90  1  0.15444295  0.47454248  0.12016155  1
  F  F91  1  0.65444295  0.02545752  0.87983845  1
  F  F92  1  0.15444295  0.02545752  0.62016155  1
  F  F93  1  0.65444295  0.47454248  0.37983845  1
  F  F94  1  0.84555705  0.52545752  0.87983845  1
  F  F95  1  0.34555705  0.97454248  0.12016155  1
  F  F96  1  0.90560525  0.11397646  0.26006916  1
  F  F97  1  0.40560525  0.38602354  0.73993084  1
  F  F98  1  0.09439475  0.61397646  0.23993084  1
  F  F99  1  0.59439475  0.88602354  0.76006916  1
  F  F100  1  0.09439475  0.88602354  0.73993084  1
  F  F101  1  0.59439475  0.61397646  0.26006916  1
  F  F102  1  0.90560525  0.38602354  0.76006916  1
  F  F103  1  0.40560525  0.11397646  0.23993084  1
  F  F104  1  0.80414701  0.10906909  0.50937581  1
  F  F105  1  0.30414701  0.39093091  0.49062419  1
  F  F106  1  0.19585299  0.60906909  0.99062419  1
  F  F107  1  0.69585299  0.89093091  0.00937581  1
  F  F108  1  0.19585299  0.89093091  0.49062419  1
  F  F109  1  0.69585299  0.60906909  0.50937581  1
  F  F110  1  0.80414701  0.39093091  0.00937581  1
  F  F111  1  0.30414701  0.10906909  0.99062419  1
  F  F112  1  0.86824132  0.24868861  0.38867651  1
  F  F113  1  0.36824132  0.25131139  0.61132349  1
  F  F114  1  0.13175868  0.74868861  0.11132349  1
  F  F115  1  0.63175868  0.75131139  0.88867651  1
  F  F116  1  0.13175868  0.75131139  0.61132349  1
  F  F117  1  0.63175868  0.74868861  0.38867651  1
  F  F118  1  0.86824132  0.25131139  0.88867651  1
  F  F119  1  0.36824132  0.24868861  0.11132349  1
