# generated using pymatgen
data_La6Co13Pb
_symmetry_space_group_name_H-M   'P 1'
_cell_length_a   8.08453571
_cell_length_b   8.08453571
_cell_length_c   12.86771928
_cell_angle_alpha   108.30891603
_cell_angle_beta   108.30891603
_cell_angle_gamma   90.00000000
_symmetry_Int_Tables_number   1
_chemical_formula_structural   La6Co13Pb
_chemical_formula_sum   'La12 Co26 Pb2'
_cell_volume   753.47690742
_cell_formula_units_Z   2
loop_
 _symmetry_equiv_pos_site_id
 _symmetry_equiv_pos_as_xyz
  1  'x, y, z'
loop_
 _atom_site_type_symbol
 _atom_site_label
 _atom_site_symmetry_multiplicity
 _atom_site_fract_x
 _atom_site_fract_y
 _atom_site_fract_z
 _atom_site_occupancy
  La  La0  1  0.59971785  0.59971785  0.19943571  1
  La  La1  1  0.09971785  0.09971785  0.19943571  1
  La  La2  1  0.40028215  0.40028215  0.80056429  1
  La  La3  1  0.90028215  0.90028215  0.80056429  1
  La  La4  1  0.98094758  0.48094758  0.63996151  1
  La  La5  1  0.65901392  0.15901392  0.63996151  1
  La  La6  1  0.15901392  0.98094758  0.63996151  1
  La  La7  1  0.48094758  0.65901392  0.63996151  1
  La  La8  1  0.01905242  0.51905242  0.36003849  1
  La  La9  1  0.34098608  0.84098608  0.36003849  1
  La  La10  1  0.84098608  0.01905242  0.36003849  1
  La  La11  1  0.51905242  0.34098608  0.36003849  1
  Co  Co12  1  0.00000000  0.50000000  0.00000000  1
  Co  Co13  1  0.50000000  0.00000000  0.00000000  1
  Co  Co14  1  0.71499091  0.56493144  0.00000000  1
  Co  Co15  1  0.28500909  0.43506856  0.00000000  1
  Co  Co16  1  0.78500909  0.06493144  0.00000000  1
  Co  Co17  1  0.21499091  0.93506856  0.00000000  1
  Co  Co18  1  0.56493144  0.28500909  0.00000000  1
  Co  Co19  1  0.43506856  0.71499091  0.00000000  1
  Co  Co20  1  0.06493144  0.21499091  0.00000000  1
  Co  Co21  1  0.93506856  0.78500909  0.00000000  1
  Co  Co22  1  0.12069061  0.62069061  0.88758914  1
  Co  Co23  1  0.76689854  0.26689854  0.88758914  1
  Co  Co24  1  0.26689854  0.12069061  0.88758914  1
  Co  Co25  1  0.62069061  0.76689854  0.88758914  1
  Co  Co26  1  0.87930939  0.37930939  0.11241086  1
  Co  Co27  1  0.23310146  0.73310146  0.11241086  1
  Co  Co28  1  0.73310146  0.87930939  0.11241086  1
  Co  Co29  1  0.37930939  0.23310146  0.11241086  1
  Co  Co30  1  0.29822025  0.79822025  0.82290810  1
  Co  Co31  1  0.52468785  0.02468785  0.82290810  1
  Co  Co32  1  0.02468785  0.29822025  0.82290810  1
  Co  Co33  1  0.79822025  0.52468785  0.82290810  1
  Co  Co34  1  0.70177975  0.20177975  0.17709190  1
  Co  Co35  1  0.47531215  0.97531215  0.17709190  1
  Co  Co36  1  0.97531215  0.70177975  0.17709190  1
  Co  Co37  1  0.20177975  0.47531215  0.17709190  1
  Pb  Pb38  1  0.25000000  0.25000000  0.50000000  1
  Pb  Pb39  1  0.75000000  0.75000000  0.50000000  1
