# generated using pymatgen
data_CsB2P2HO9
_symmetry_space_group_name_H-M   'P 1'
_cell_length_a   6.94890943
_cell_length_b   9.11672443
_cell_length_c   12.68156653
_cell_angle_alpha   90.00000000
_cell_angle_beta   90.00000000
_cell_angle_gamma   98.27020605
_symmetry_Int_Tables_number   1
_chemical_formula_structural   CsB2P2HO9
_chemical_formula_sum   'Cs4 B8 P8 H4 O36'
_cell_volume   795.03891419
_cell_formula_units_Z   4
loop_
 _symmetry_equiv_pos_site_id
 _symmetry_equiv_pos_as_xyz
  1  'x, y, z'
loop_
 _atom_site_type_symbol
 _atom_site_label
 _atom_site_symmetry_multiplicity
 _atom_site_fract_x
 _atom_site_fract_y
 _atom_site_fract_z
 _atom_site_occupancy
  Cs  Cs0  1  0.27792498  0.30816582  0.87952963  1
  Cs  Cs1  1  0.72207502  0.19183418  0.37952963  1
  Cs  Cs2  1  0.72207502  0.69183418  0.12047037  1
  Cs  Cs3  1  0.27792498  0.80816582  0.62047037  1
  B  B4  1  0.92529653  0.36019610  0.64599347  1
  B  B5  1  0.07470347  0.13980390  0.14599347  1
  B  B6  1  0.07470347  0.63980390  0.35400653  1
  B  B7  1  0.92529653  0.86019610  0.85400653  1
  B  B8  1  0.61967253  0.47174101  0.63471849  1
  B  B9  1  0.38032747  0.02825899  0.13471849  1
  B  B10  1  0.38032747  0.52825899  0.36528151  1
  B  B11  1  0.61967253  0.97174101  0.86528151  1
  P  P12  1  0.85771201  0.05750096  0.70538202  1
  P  P13  1  0.14228799  0.44249904  0.20538202  1
  P  P14  1  0.14228799  0.94249904  0.29461798  1
  P  P15  1  0.85771201  0.55750096  0.79461798  1
  P  P16  1  0.71883626  0.16553022  0.04162858  1
  P  P17  1  0.28116374  0.33446978  0.54162858  1
  P  P18  1  0.28116374  0.83446978  0.95837142  1
  P  P19  1  0.71883626  0.66553022  0.45837142  1
  H  H20  1  0.77058477  0.39720222  0.98614869  1
  H  H21  1  0.22941523  0.10279778  0.48614869  1
  H  H22  1  0.22941523  0.60279778  0.01385131  1
  H  H23  1  0.77058477  0.89720222  0.51385131  1
  O  O24  1  0.99672773  0.48938342  0.71587715  1
  O  O25  1  0.00327227  0.01061658  0.21587715  1
  O  O26  1  0.00327227  0.51061658  0.28412285  1
  O  O27  1  0.99672773  0.98938342  0.78412285  1
  O  O28  1  0.93137808  0.13987591  0.05660132  1
  O  O29  1  0.06862192  0.36012409  0.55660132  1
  O  O30  1  0.06862192  0.86012409  0.94339868  1
  O  O31  1  0.93137808  0.63987591  0.44339868  1
  O  O32  1  0.93243871  0.22663654  0.71423634  1
  O  O33  1  0.06756129  0.27336346  0.21423634  1
  O  O34  1  0.06756129  0.77336346  0.28576366  1
  O  O35  1  0.93243871  0.72663654  0.78576366  1
  O  O36  1  0.86099452  0.00074627  0.59413268  1
  O  O37  1  0.13900548  0.49925373  0.09413268  1
  O  O38  1  0.13900548  0.99925373  0.40586732  1
  O  O39  1  0.86099452  0.50074627  0.90586732  1
  O  O40  1  0.73892503  0.36739278  0.60133505  1
  O  O41  1  0.26107497  0.13260722  0.10133505  1
  O  O42  1  0.26107497  0.63260722  0.39866495  1
  O  O43  1  0.73892503  0.86739278  0.89866495  1
  O  O44  1  0.69792920  0.33372118  0.04679114  1
  O  O45  1  0.30207080  0.16627882  0.54679114  1
  O  O46  1  0.30207080  0.66627882  0.95320886  1
  O  O47  1  0.69792920  0.83372118  0.45320886  1
  O  O48  1  0.64862855  0.02130255  0.75426180  1
  O  O49  1  0.35137145  0.47869745  0.25426180  1
  O  O50  1  0.35137145  0.97869745  0.24573820  1
  O  O51  1  0.64862855  0.52130255  0.74573820  1
  O  O52  1  0.64702305  0.11338846  0.93117123  1
  O  O53  1  0.35297695  0.38661154  0.43117123  1
  O  O54  1  0.35297695  0.88661154  0.06882877  1
  O  O55  1  0.64702305  0.61338846  0.56882877  1
  O  O56  1  0.40577238  0.41379176  0.63131293  1
  O  O57  1  0.59422762  0.08620824  0.13131293  1
  O  O58  1  0.59422762  0.58620824  0.36868707  1
  O  O59  1  0.40577238  0.91379176  0.86868707  1
