# generated using pymatgen
data_Li4MnCo2O7
_symmetry_space_group_name_H-M   'P 1'
_cell_length_a   2.97277633
_cell_length_b   10.64212991
_cell_length_c   8.08430203
_cell_angle_alpha   78.32174369
_cell_angle_beta   89.05615837
_cell_angle_gamma   85.72434157
_symmetry_Int_Tables_number   1
_chemical_formula_structural   Li4MnCo2O7
_chemical_formula_sum   'Li8 Mn2 Co4 O14'
_cell_volume   249.76877012
_cell_formula_units_Z   2
loop_
 _symmetry_equiv_pos_site_id
 _symmetry_equiv_pos_as_xyz
  1  'x, y, z'
loop_
 _atom_site_type_symbol
 _atom_site_label
 _atom_site_symmetry_multiplicity
 _atom_site_fract_x
 _atom_site_fract_y
 _atom_site_fract_z
 _atom_site_occupancy
  Li  Li0  1  0.85322220  0.29008527  0.93678115  1
  Li  Li1  1  0.14796164  0.71323724  0.06951186  1
  Li  Li2  1  0.42020690  0.15026393  0.21083114  1
  Li  Li3  1  0.28837543  0.42904665  0.64638756  1
  Li  Li4  1  0.57340894  0.85462404  0.78456369  1
  Li  Li5  1  0.70738195  0.57238648  0.35150091  1
  Li  Li6  1  0.00585345  0.99555709  0.49993536  1
  Li  Li7  1  0.29472523  0.42331864  0.13896075  1
  Mn  Mn8  1  0.99809297  0.00037165  0.00068802  1
  Mn  Mn9  1  0.85325733  0.28988064  0.41969325  1
  Co  Co10  1  0.57272777  0.85474824  0.28824926  1
  Co  Co11  1  0.14394684  0.71340521  0.57330666  1
  Co  Co12  1  0.41655727  0.14576330  0.71408230  1
  Co  Co13  1  0.72072732  0.56660112  0.86821555  1
  O  O14  1  0.40401935  0.13975691  0.95371613  1
  O  O15  1  0.70874166  0.57542728  0.08121937  1
  O  O16  1  0.97652042  0.99059795  0.24701739  1
  O  O17  1  0.83239003  0.27700498  0.67010258  1
  O  O18  1  0.12175919  0.70755754  0.80971698  1
  O  O19  1  0.31677568  0.41236324  0.39770343  1
  O  O20  1  0.55039129  0.85012524  0.52654816  1
  O  O21  1  0.30709852  0.44117628  0.88747028  1
  O  O22  1  0.59683528  0.86030002  0.04690424  1
  O  O23  1  0.86626404  0.28264094  0.19638500  1
  O  O24  1  0.73609683  0.57948126  0.62299431  1
  O  O25  1  0.02141651  0.00733762  0.75337381  1
  O  O26  1  0.16775627  0.71734812  0.33386933  1
  O  O27  1  0.39748970  0.15959312  0.47027153  1
