# generated using pymatgen
data_Er11(AlGe4)2
_symmetry_space_group_name_H-M   'P 1'
_cell_length_a   10.94998567
_cell_length_b   10.94998567
_cell_length_c   11.18735405
_cell_angle_alpha   119.30057867
_cell_angle_beta   119.30057867
_cell_angle_gamma   90.00000000
_symmetry_Int_Tables_number   1
_chemical_formula_structural   Er11(AlGe4)2
_chemical_formula_sum   'Er22 Al4 Ge16'
_cell_volume   968.21136076
_cell_formula_units_Z   2
loop_
 _symmetry_equiv_pos_site_id
 _symmetry_equiv_pos_as_xyz
  1  'x, y, z'
loop_
 _atom_site_type_symbol
 _atom_site_label
 _atom_site_symmetry_multiplicity
 _atom_site_fract_x
 _atom_site_fract_y
 _atom_site_fract_z
 _atom_site_occupancy
  Er  Er0  1  0.33506028  0.33506028  0.67012055  1
  Er  Er1  1  0.66493972  0.66493972  0.32987945  1
  Er  Er2  1  0.82393059  0.17606941  0.00000000  1
  Er  Er3  1  0.17606941  0.82393059  0.00000000  1
  Er  Er4  1  0.17606941  0.17606941  0.00000000  1
  Er  Er5  1  0.82393059  0.82393059  1.00000000  1
  Er  Er6  1  0.93809049  0.19001398  0.38002797  1
  Er  Er7  1  0.44193747  0.19001398  0.38002797  1
  Er  Er8  1  0.19001398  0.44193747  0.38002797  1
  Er  Er9  1  0.19001398  0.93809049  0.38002797  1
  Er  Er10  1  0.06190951  0.80998602  0.61997203  1
  Er  Er11  1  0.55806253  0.80998602  0.61997203  1
  Er  Er12  1  0.80998602  0.55806253  0.61997203  1
  Er  Er13  1  0.80998602  0.06190951  0.61997203  1
  Er  Er14  1  0.06847058  0.39805288  0.79610576  1
  Er  Er15  1  0.72763519  0.39805288  0.79610576  1
  Er  Er16  1  0.39805288  0.72763519  0.79610576  1
  Er  Er17  1  0.39805288  0.06847058  0.79610576  1
  Er  Er18  1  0.93152942  0.60194712  0.20389424  1
  Er  Er19  1  0.27236481  0.60194712  0.20389424  1
  Er  Er20  1  0.60194712  0.27236481  0.20389424  1
  Er  Er21  1  0.60194712  0.93152942  0.20389424  1
  Al  Al22  1  0.62174373  0.37825627  0.00000000  1
  Al  Al23  1  0.37825627  0.62174373  0.00000000  1
  Al  Al24  1  0.37825627  0.37825627  1.00000000  1
  Al  Al25  1  0.62174373  0.62174373  0.00000000  1
  Ge  Ge26  1  0.75000000  0.25000000  0.50000000  1
  Ge  Ge27  1  0.25000000  0.75000000  0.50000000  1
  Ge  Ge28  1  0.11811396  0.11811396  0.23622791  1
  Ge  Ge29  1  0.88188604  0.88188604  0.76377209  1
  Ge  Ge30  1  1.00000000  0.35591479  1.00000000  1
  Ge  Ge31  1  0.00000000  0.64408521  0.00000000  1
  Ge  Ge32  1  0.35591479  1.00000000  1.00000000  1
  Ge  Ge33  1  0.64408521  0.00000000  0.00000000  1
  Ge  Ge34  1  0.11812942  0.53006684  0.64819626  1
  Ge  Ge35  1  0.53006684  0.11812942  0.64819626  1
  Ge  Ge36  1  0.53006684  0.53006684  0.64819626  1
  Ge  Ge37  1  0.11812942  0.11812942  0.64819626  1
  Ge  Ge38  1  0.88187058  0.46993316  0.35180374  1
  Ge  Ge39  1  0.46993316  0.88187058  0.35180374  1
  Ge  Ge40  1  0.46993316  0.46993316  0.35180374  1
  Ge  Ge41  1  0.88187058  0.88187058  0.35180374  1
