# generated using pymatgen
data_Yb5(Ni2Sn5)2
_symmetry_space_group_name_H-M   'P 1'
_cell_length_a   4.50039529
_cell_length_b   13.93300085
_cell_length_c   13.93300085
_cell_angle_alpha   90.00000000
_cell_angle_beta   90.00000000
_cell_angle_gamma   90.00000000
_symmetry_Int_Tables_number   1
_chemical_formula_structural   Yb5(Ni2Sn5)2
_chemical_formula_sum   'Yb10 Ni8 Sn20'
_cell_volume   873.65504415
_cell_formula_units_Z   2
loop_
 _symmetry_equiv_pos_site_id
 _symmetry_equiv_pos_as_xyz
  1  'x, y, z'
loop_
 _atom_site_type_symbol
 _atom_site_label
 _atom_site_symmetry_multiplicity
 _atom_site_fract_x
 _atom_site_fract_y
 _atom_site_fract_z
 _atom_site_occupancy
  Yb  Yb0  1  -0.00000000  -0.00000000  0.00000000  1
  Yb  Yb1  1  -0.00000000  0.50000000  0.50000000  1
  Yb  Yb2  1  0.50000000  0.67925054  0.17925054  1
  Yb  Yb3  1  0.50000000  0.32074946  0.82074946  1
  Yb  Yb4  1  0.50000000  0.82074946  0.67925054  1
  Yb  Yb5  1  0.50000000  0.17925054  0.32074946  1
  Yb  Yb6  1  0.50000000  0.60765720  0.89234280  1
  Yb  Yb7  1  0.50000000  0.39234280  0.10765720  1
  Yb  Yb8  1  0.50000000  0.89234280  0.39234280  1
  Yb  Yb9  1  0.50000000  0.10765720  0.60765720  1
  Ni  Ni10  1  -0.00000000  0.53285592  0.25399877  1
  Ni  Ni11  1  0.00000000  0.46714408  0.74600123  1
  Ni  Ni12  1  -0.00000000  0.96714408  0.75399877  1
  Ni  Ni13  1  0.00000000  0.03285592  0.24600123  1
  Ni  Ni14  1  -0.00000000  0.25399877  0.46714408  1
  Ni  Ni15  1  0.00000000  0.74600123  0.53285592  1
  Ni  Ni16  1  -0.00000000  0.75399877  0.03285592  1
  Ni  Ni17  1  0.00000000  0.24600123  0.96714408  1
  Sn  Sn18  1  0.00000000  0.69848901  0.35089492  1
  Sn  Sn19  1  -0.00000000  0.30151099  0.64910508  1
  Sn  Sn20  1  0.00000000  0.80151099  0.85089492  1
  Sn  Sn21  1  -0.00000000  0.19848901  0.14910508  1
  Sn  Sn22  1  0.00000000  0.35089492  0.30151099  1
  Sn  Sn23  1  -0.00000000  0.64910508  0.69848901  1
  Sn  Sn24  1  0.00000000  0.85089492  0.19848901  1
  Sn  Sn25  1  -0.00000000  0.14910508  0.80151099  1
  Sn  Sn26  1  0.50000000  0.50985679  0.33634100  1
  Sn  Sn27  1  0.50000000  0.49014321  0.66365900  1
  Sn  Sn28  1  0.50000000  0.99014321  0.83634100  1
  Sn  Sn29  1  0.50000000  0.00985679  0.16365900  1
  Sn  Sn30  1  0.50000000  0.33634100  0.49014321  1
  Sn  Sn31  1  0.50000000  0.66365900  0.50985679  1
  Sn  Sn32  1  0.50000000  0.83634100  0.00985679  1
  Sn  Sn33  1  0.50000000  0.16365900  0.99014321  1
  Sn  Sn34  1  -0.00000000  0.57098472  0.07098472  1
  Sn  Sn35  1  0.00000000  0.42901528  0.92901528  1
  Sn  Sn36  1  0.00000000  0.92901528  0.57098472  1
  Sn  Sn37  1  -0.00000000  0.07098472  0.42901528  1
