# generated using pymatgen
data_BaGe2Au5
_symmetry_space_group_name_H-M   'P 1'
_cell_length_a   7.26740361
_cell_length_b   9.21120006
_cell_length_c   10.50212597
_cell_angle_alpha   90.00000000
_cell_angle_beta   90.00000000
_cell_angle_gamma   90.00000000
_symmetry_Int_Tables_number   1
_chemical_formula_structural   BaGe2Au5
_chemical_formula_sum   'Ba4 Ge8 Au20'
_cell_volume   703.02815561
_cell_formula_units_Z   4
loop_
 _symmetry_equiv_pos_site_id
 _symmetry_equiv_pos_as_xyz
  1  'x, y, z'
loop_
 _atom_site_type_symbol
 _atom_site_label
 _atom_site_symmetry_multiplicity
 _atom_site_fract_x
 _atom_site_fract_y
 _atom_site_fract_z
 _atom_site_occupancy
  Ba  Ba0  1  0.75000000  0.25261127  0.37925300  1
  Ba  Ba1  1  0.75000000  0.75261127  0.12074700  1
  Ba  Ba2  1  0.25000000  0.74738873  0.62074700  1
  Ba  Ba3  1  0.25000000  0.24738873  0.87925300  1
  Ge  Ge4  1  0.75000000  0.45119385  0.88118496  1
  Ge  Ge5  1  0.75000000  0.95119385  0.61881504  1
  Ge  Ge6  1  0.25000000  0.54880615  0.11881504  1
  Ge  Ge7  1  0.25000000  0.04880615  0.38118496  1
  Ge  Ge8  1  0.75000000  0.15352786  0.03609243  1
  Ge  Ge9  1  0.75000000  0.65352786  0.46390757  1
  Ge  Ge10  1  0.25000000  0.84647214  0.96390757  1
  Ge  Ge11  1  0.25000000  0.34647214  0.53609243  1
  Au  Au12  1  0.94749418  0.39980240  0.10953228  1
  Au  Au13  1  0.55250582  0.89980240  0.39046772  1
  Au  Au14  1  0.44749418  0.60019760  0.89046772  1
  Au  Au15  1  0.05250582  0.10019760  0.60953228  1
  Au  Au16  1  0.05250582  0.60019760  0.89046772  1
  Au  Au17  1  0.44749418  0.10019760  0.60953228  1
  Au  Au18  1  0.55250582  0.39980240  0.10953228  1
  Au  Au19  1  0.94749418  0.89980240  0.39046772  1
  Au  Au20  1  0.95692869  0.42727308  0.64580252  1
  Au  Au21  1  0.54307131  0.92727308  0.85419748  1
  Au  Au22  1  0.45692869  0.57272692  0.35419748  1
  Au  Au23  1  0.04307131  0.07272692  0.14580252  1
  Au  Au24  1  0.04307131  0.57272692  0.35419748  1
  Au  Au25  1  0.45692869  0.07272692  0.14580252  1
  Au  Au26  1  0.54307131  0.42727308  0.64580252  1
  Au  Au27  1  0.95692869  0.92727308  0.85419748  1
  Au  Au28  1  0.75000000  0.19113883  0.78966668  1
  Au  Au29  1  0.75000000  0.69113883  0.71033332  1
  Au  Au30  1  0.25000000  0.80886117  0.21033332  1
  Au  Au31  1  0.25000000  0.30886117  0.28966668  1
