# generated using pymatgen
data_Gd3Si2BO10
_symmetry_space_group_name_H-M   'P 1'
_cell_length_a   7.02698704
_cell_length_b   9.72909855
_cell_length_c   22.97324124
_cell_angle_alpha   90.00000000
_cell_angle_beta   90.00000000
_cell_angle_gamma   90.00000000
_symmetry_Int_Tables_number   1
_chemical_formula_structural   Gd3Si2BO10
_chemical_formula_sum   'Gd24 Si16 B8 O80'
_cell_volume   1570.59434064
_cell_formula_units_Z   8
loop_
 _symmetry_equiv_pos_site_id
 _symmetry_equiv_pos_as_xyz
  1  'x, y, z'
loop_
 _atom_site_type_symbol
 _atom_site_label
 _atom_site_symmetry_multiplicity
 _atom_site_fract_x
 _atom_site_fract_y
 _atom_site_fract_z
 _atom_site_occupancy
  Gd  Gd0  1  0.82259384  0.36529902  0.83606606  1
  Gd  Gd1  1  0.67740616  0.86529902  0.16393394  1
  Gd  Gd2  1  0.32259384  0.63470098  0.66393394  1
  Gd  Gd3  1  0.17740616  0.13470098  0.33606606  1
  Gd  Gd4  1  0.17740616  0.63470098  0.16393394  1
  Gd  Gd5  1  0.32259384  0.13470098  0.83606606  1
  Gd  Gd6  1  0.67740616  0.36529902  0.33606606  1
  Gd  Gd7  1  0.82259384  0.86529902  0.66393394  1
  Gd  Gd8  1  0.09616019  0.76665739  0.81788099  1
  Gd  Gd9  1  0.40383981  0.26665739  0.18211901  1
  Gd  Gd10  1  0.59616019  0.23334261  0.68211901  1
  Gd  Gd11  1  0.90383981  0.73334261  0.31788099  1
  Gd  Gd12  1  0.90383981  0.23334261  0.18211901  1
  Gd  Gd13  1  0.59616019  0.73334261  0.81788099  1
  Gd  Gd14  1  0.40383981  0.76665739  0.31788099  1
  Gd  Gd15  1  0.09616019  0.26665739  0.68211901  1
  Gd  Gd16  1  0.86575591  0.00959053  0.92807351  1
  Gd  Gd17  1  0.63424409  0.50959053  0.07192649  1
  Gd  Gd18  1  0.36575591  0.99040947  0.57192649  1
  Gd  Gd19  1  0.13424409  0.49040947  0.42807351  1
  Gd  Gd20  1  0.13424409  0.99040947  0.07192649  1
  Gd  Gd21  1  0.36575591  0.49040947  0.92807351  1
  Gd  Gd22  1  0.63424409  0.00959053  0.42807351  1
  Gd  Gd23  1  0.86575591  0.50959053  0.57192649  1
  Si  Si24  1  0.85909987  0.62203481  0.92151774  1
  Si  Si25  1  0.64090013  0.12203481  0.07848226  1
  Si  Si26  1  0.35909987  0.37796519  0.57848226  1
  Si  Si27  1  0.14090013  0.87796519  0.42151774  1
  Si  Si28  1  0.14090013  0.37796519  0.07848226  1
  Si  Si29  1  0.35909987  0.87796519  0.92151774  1
  Si  Si30  1  0.64090013  0.62203481  0.42151774  1
  Si  Si31  1  0.85909987  0.12203481  0.57848226  1
  Si  Si32  1  0.81567933  0.06203740  0.77926803  1
  Si  Si33  1  0.68432067  0.56203740  0.22073197  1
  Si  Si34  1  0.31567933  0.93796260  0.72073197  1
  Si  Si35  1  0.18432067  0.43796260  0.27926803  1
  Si  Si36  1  0.18432067  0.93796260  0.22073197  1
  Si  Si37  1  0.31567933  0.43796260  0.77926803  1
  Si  Si38  1  0.68432067  0.06203740  0.27926803  1
  Si  Si39  1  0.81567933  0.56203740  0.72073197  1
  B  B40  1  0.66174424  0.25714715  0.97131157  1
  B  B41  1  0.83825576  0.75714715  0.02868843  1
  B  B42  1  0.16174424  0.74285285  0.52868843  1
  B  B43  1  0.33825576  0.24285285  0.47131157  1
  B  B44  1  0.33825576  0.74285285  0.02868843  1
  B  B45  1  0.16174424  0.24285285  0.97131157  1
  B  B46  1  0.83825576  0.25714715  0.47131157  1
  B  B47  1  0.66174424  0.75714715  0.52868843  1
  O  O48  1  0.87135557  0.09869189  0.71093870  1
  O  O49  1  0.62864443  0.59869189  0.28906130  1
  O  O50  1  0.37135557  0.90130811  0.78906130  1
  O  O51  1  0.12864443  0.40130811  0.21093870  1
  O  O52  1  0.12864443  0.90130811  0.28906130  1
  O  O53  1  0.37135557  0.40130811  0.71093870  1
  O  O54  1  0.62864443  0.09869189  0.21093870  1
  O  O55  1  0.87135557  0.59869189  0.78906130  1
  O  O56  1  0.85687687  0.27513555  0.60994463  1
  O  O57  1  0.64312313  0.77513555  0.39005537  1
  O  O58  1  0.35687687  0.72486445  0.89005537  1
  O  O59  1  0.14312313  0.22486445  0.10994463  1
  O  O60  1  0.14312313  0.72486445  0.39005537  1
  O  O61  1  0.35687687  0.22486445  0.60994463  1
  O  O62  1  0.64312313  0.27513555  0.10994463  1
  O  O63  1  0.85687687  0.77513555  0.89005537  1
  O  O64  1  0.79832070  0.39330292  0.72118090  1
  O  O65  1  0.70167930  0.89330292  0.27881910  1
  O  O66  1  0.29832070  0.60669708  0.77881910  1
  O  O67  1  0.20167930  0.10669708  0.22118090  1
  O  O68  1  0.20167930  0.60669708  0.27881910  1
  O  O69  1  0.29832070  0.10669708  0.72118090  1
  O  O70  1  0.70167930  0.39330292  0.22118090  1
  O  O71  1  0.79832070  0.89330292  0.77881910  1
  O  O72  1  0.16263088  0.36373530  0.00671723  1
  O  O73  1  0.33736912  0.86373530  0.99328277  1
  O  O74  1  0.66263088  0.63626470  0.49328277  1
  O  O75  1  0.83736912  0.13626470  0.50671723  1
  O  O76  1  0.83736912  0.63626470  0.99328277  1
  O  O77  1  0.66263088  0.13626470  0.00671723  1
  O  O78  1  0.33736912  0.36373530  0.50671723  1
  O  O79  1  0.16263088  0.86373530  0.49328277  1
  O  O80  1  0.58219594  0.37468196  0.99111847  1
  O  O81  1  0.91780406  0.87468196  0.00888153  1
  O  O82  1  0.08219594  0.62531804  0.50888153  1
  O  O83  1  0.41780406  0.12531804  0.49111847  1
  O  O84  1  0.41780406  0.62531804  0.00888153  1
  O  O85  1  0.08219594  0.12531804  0.99111847  1
  O  O86  1  0.91780406  0.37468196  0.49111847  1
  O  O87  1  0.58219594  0.87468196  0.50888153  1
  O  O88  1  0.67238500  0.54715161  0.89277746  1
  O  O89  1  0.82761500  0.04715161  0.10722254  1
  O  O90  1  0.17238500  0.45284839  0.60722254  1
  O  O91  1  0.32761500  0.95284839  0.39277746  1
  O  O92  1  0.32761500  0.45284839  0.10722254  1
  O  O93  1  0.17238500  0.95284839  0.89277746  1
  O  O94  1  0.82761500  0.54715161  0.39277746  1
  O  O95  1  0.67238500  0.04715161  0.60722254  1
  O  O96  1  0.62403615  0.15625967  0.78853936  1
  O  O97  1  0.87596385  0.65625967  0.21146064  1
  O  O98  1  0.12403615  0.84374033  0.71146064  1
  O  O99  1  0.37596385  0.34374033  0.28853936  1
  O  O100  1  0.37596385  0.84374033  0.21146064  1
  O  O101  1  0.12403615  0.34374033  0.78853936  1
  O  O102  1  0.87596385  0.15625967  0.28853936  1
  O  O103  1  0.62403615  0.65625967  0.71146064  1
  O  O104  1  0.96554620  0.11229081  0.82901967  1
  O  O105  1  0.53445380  0.61229081  0.17098033  1
  O  O106  1  0.46554620  0.88770919  0.67098033  1
  O  O107  1  0.03445380  0.38770919  0.32901967  1
  O  O108  1  0.03445380  0.88770919  0.17098033  1
  O  O109  1  0.46554620  0.38770919  0.82901967  1
  O  O110  1  0.53445380  0.11229081  0.32901967  1
  O  O111  1  0.96554620  0.61229081  0.67098033  1
  O  O112  1  0.74651444  0.23959312  0.91820598  1
  O  O113  1  0.75348556  0.73959312  0.08179402  1
  O  O114  1  0.24651444  0.76040688  0.58179402  1
  O  O115  1  0.25348556  0.26040688  0.41820598  1
  O  O116  1  0.25348556  0.76040688  0.08179402  1
  O  O117  1  0.24651444  0.26040688  0.91820598  1
  O  O118  1  0.75348556  0.23959312  0.41820598  1
  O  O119  1  0.74651444  0.73959312  0.58179402  1
  O  O120  1  0.04273442  0.53415445  0.89979979  1
  O  O121  1  0.45726558  0.03415445  0.10020021  1
  O  O122  1  0.54273442  0.46584555  0.60020021  1
  O  O123  1  0.95726558  0.96584555  0.39979979  1
  O  O124  1  0.95726558  0.46584555  0.10020021  1
  O  O125  1  0.54273442  0.96584555  0.89979979  1
  O  O126  1  0.45726558  0.53415445  0.39979979  1
  O  O127  1  0.04273442  0.03415445  0.60020021  1
