# generated using pymatgen
data_La2ZrS5
_symmetry_space_group_name_H-M   'P 1'
_cell_length_a   7.43843692
_cell_length_b   8.25517026
_cell_length_c   11.53824721
_cell_angle_alpha   90.00000000
_cell_angle_beta   90.00000000
_cell_angle_gamma   90.00000000
_symmetry_Int_Tables_number   1
_chemical_formula_structural   La2ZrS5
_chemical_formula_sum   'La8 Zr4 S20'
_cell_volume   708.51256877
_cell_formula_units_Z   4
loop_
 _symmetry_equiv_pos_site_id
 _symmetry_equiv_pos_as_xyz
  1  'x, y, z'
loop_
 _atom_site_type_symbol
 _atom_site_label
 _atom_site_symmetry_multiplicity
 _atom_site_fract_x
 _atom_site_fract_y
 _atom_site_fract_z
 _atom_site_occupancy
  La  La0  1  0.94113964  0.49852818  0.17137565  1
  La  La1  1  0.55886036  0.00147182  0.67137565  1
  La  La2  1  0.05886036  0.99852818  0.82862435  1
  La  La3  1  0.44113964  0.50147182  0.32862435  1
  La  La4  1  0.05886036  0.50147182  0.82862435  1
  La  La5  1  0.44113964  0.99852818  0.32862435  1
  La  La6  1  0.94113964  0.00147182  0.17137565  1
  La  La7  1  0.55886036  0.49852818  0.67137565  1
  Zr  Zr8  1  0.92643832  0.75000000  0.48957584  1
  Zr  Zr9  1  0.57356168  0.75000000  0.98957584  1
  Zr  Zr10  1  0.07356168  0.25000000  0.51042416  1
  Zr  Zr11  1  0.42643832  0.25000000  0.01042416  1
  S  S12  1  0.65984336  0.75000000  0.20838746  1
  S  S13  1  0.84015664  0.75000000  0.70838746  1
  S  S14  1  0.34015664  0.25000000  0.79161254  1
  S  S15  1  0.15984336  0.25000000  0.29161254  1
  S  S16  1  0.82243649  0.46555747  0.42653619  1
  S  S17  1  0.67756351  0.03444253  0.92653619  1
  S  S18  1  0.17756351  0.96555747  0.57346381  1
  S  S19  1  0.32243649  0.53444253  0.07346381  1
  S  S20  1  0.17756351  0.53444253  0.57346381  1
  S  S21  1  0.32243649  0.96555747  0.07346381  1
  S  S22  1  0.82243649  0.03444253  0.42653619  1
  S  S23  1  0.67756351  0.46555747  0.92653619  1
  S  S24  1  0.14017855  0.75000000  0.30701886  1
  S  S25  1  0.35982145  0.75000000  0.80701886  1
  S  S26  1  0.85982145  0.25000000  0.69298114  1
  S  S27  1  0.64017855  0.25000000  0.19298114  1
  S  S28  1  0.55810573  0.75000000  0.49576893  1
  S  S29  1  0.94189427  0.75000000  0.99576893  1
  S  S30  1  0.44189427  0.25000000  0.50423107  1
  S  S31  1  0.05810573  0.25000000  0.00423107  1
