# generated using pymatgen
data_Ba8Eu7Cl34
_symmetry_space_group_name_H-M   'P 1'
_cell_length_a   11.37051402
_cell_length_b   11.37051402
_cell_length_c   13.58310883
_cell_angle_alpha   114.74329413
_cell_angle_beta   114.74329413
_cell_angle_gamma   90.00000000
_symmetry_Int_Tables_number   1
_chemical_formula_structural   Ba8Eu7Cl34
_chemical_formula_sum   'Ba8 Eu7 Cl34'
_cell_volume   1415.43876029
_cell_formula_units_Z   1
loop_
 _symmetry_equiv_pos_site_id
 _symmetry_equiv_pos_as_xyz
  1  'x, y, z'
loop_
 _atom_site_type_symbol
 _atom_site_label
 _atom_site_symmetry_multiplicity
 _atom_site_fract_x
 _atom_site_fract_y
 _atom_site_fract_z
 _atom_site_occupancy
  Ba  Ba0  1  0.52418950  0.70326304  0.68240279  1
  Ba  Ba1  1  0.15821329  0.97913975  0.68240279  1
  Ba  Ba2  1  0.70326304  0.15821329  0.68240279  1
  Ba  Ba3  1  0.97913975  0.52418950  0.68240279  1
  Ba  Ba4  1  0.47581050  0.29673696  0.31759721  1
  Ba  Ba5  1  0.84178671  0.02086025  0.31759721  1
  Ba  Ba6  1  0.29673696  0.84178671  0.31759721  1
  Ba  Ba7  1  0.02086025  0.47581050  0.31759721  1
  Eu  Eu8  1  -0.00000000  -0.00000000  -0.00000000  1
  Eu  Eu9  1  0.68844727  0.68844727  0.37689455  1
  Eu  Eu10  1  0.31155273  0.31155273  0.62310545  1
  Eu  Eu11  1  0.60831026  0.18004119  -0.00000000  1
  Eu  Eu12  1  0.39168974  0.81995881  -0.00000000  1
  Eu  Eu13  1  0.18004119  0.39168974  -0.00000000  1
  Eu  Eu14  1  0.81995881  0.60831026  -0.00000000  1
  Cl  Cl15  1  0.42299399  0.92299399  0.84598797  1
  Cl  Cl16  1  0.92299399  0.42299399  0.84598797  1
  Cl  Cl17  1  0.57700601  0.07700601  0.15401203  1
  Cl  Cl18  1  0.07700601  0.57700601  0.15401203  1
  Cl  Cl19  1  0.72253914  0.00404743  0.84809427  1
  Cl  Cl20  1  0.12555513  0.84404684  0.84809427  1
  Cl  Cl21  1  0.00404743  0.12555513  0.84809427  1
  Cl  Cl22  1  0.84404684  0.72253914  0.84809427  1
  Cl  Cl23  1  0.27746086  0.99595257  0.15190573  1
  Cl  Cl24  1  0.87444487  0.15595316  0.15190573  1
  Cl  Cl25  1  0.99595257  0.87444487  0.15190573  1
  Cl  Cl26  1  0.15595316  0.27746086  0.15190573  1
  Cl  Cl27  1  0.25000000  0.75000000  0.50000000  1
  Cl  Cl28  1  0.75000000  0.25000000  0.50000000  1
  Cl  Cl29  1  0.56629620  0.85153108  0.52206414  1
  Cl  Cl30  1  0.95576794  0.67053306  0.52206414  1
  Cl  Cl31  1  0.85153108  0.95576794  0.52206414  1
  Cl  Cl32  1  0.67053306  0.56629620  0.52206414  1
  Cl  Cl33  1  0.43370380  0.14846892  0.47793586  1
  Cl  Cl34  1  0.04423206  0.32946694  0.47793586  1
  Cl  Cl35  1  0.14846892  0.04423206  0.47793586  1
  Cl  Cl36  1  0.32946694  0.43370380  0.47793586  1
  Cl  Cl37  1  0.40956238  0.54783532  0.24096615  1
  Cl  Cl38  1  0.83140377  0.69313082  0.24096615  1
  Cl  Cl39  1  0.54783532  0.83140377  0.24096615  1
  Cl  Cl40  1  0.69313082  0.40956238  0.24096615  1
  Cl  Cl41  1  0.59043762  0.45216468  0.75903385  1
  Cl  Cl42  1  0.16859623  0.30686918  0.75903385  1
  Cl  Cl43  1  0.45216468  0.16859623  0.75903385  1
  Cl  Cl44  1  0.30686918  0.59043762  0.75903385  1
  Cl  Cl45  1  0.77331099  0.36148937  -0.00000000  1
  Cl  Cl46  1  0.22668901  0.63851063  -0.00000000  1
  Cl  Cl47  1  0.36148937  0.22668901  -0.00000000  1
  Cl  Cl48  1  0.63851063  0.77331099  -0.00000000  1
