# generated using pymatgen
data_CsTh3F13
_symmetry_space_group_name_H-M   'P 1'
_cell_length_a   7.66466594
_cell_length_b   8.26779816
_cell_length_c   8.70449261
_cell_angle_alpha   90.00000000
_cell_angle_beta   90.00000000
_cell_angle_gamma   90.00000000
_symmetry_Int_Tables_number   1
_chemical_formula_structural   CsTh3F13
_chemical_formula_sum   'Cs2 Th6 F26'
_cell_volume   551.60292161
_cell_formula_units_Z   2
loop_
 _symmetry_equiv_pos_site_id
 _symmetry_equiv_pos_as_xyz
  1  'x, y, z'
loop_
 _atom_site_type_symbol
 _atom_site_label
 _atom_site_symmetry_multiplicity
 _atom_site_fract_x
 _atom_site_fract_y
 _atom_site_fract_z
 _atom_site_occupancy
  Cs  Cs0  1  0.60667729  -0.00000000  0.70762456  1
  Cs  Cs1  1  0.39332271  -0.00000000  0.20762456  1
  Th  Th2  1  0.39007388  0.50000000  0.91337651  1
  Th  Th3  1  0.60992612  0.50000000  0.41337651  1
  Th  Th4  1  0.10450407  0.75014830  0.57631431  1
  Th  Th5  1  0.10450407  0.24985170  0.57631431  1
  Th  Th6  1  0.89549593  0.24985170  0.07631431  1
  Th  Th7  1  0.89549593  0.75014830  0.07631431  1
  F  F8  1  0.94603870  -0.00000000  0.56432155  1
  F  F9  1  0.05396130  -0.00000000  0.06432155  1
  F  F10  1  0.13588295  0.50000000  0.73370943  1
  F  F11  1  0.86411705  0.50000000  0.23370943  1
  F  F12  1  0.32039273  0.74974492  0.76938431  1
  F  F13  1  0.32039273  0.25025508  0.76938431  1
  F  F14  1  0.67960727  0.25025508  0.26938431  1
  F  F15  1  0.67960727  0.74974492  0.26938431  1
  F  F16  1  0.04558153  0.79787043  0.31419490  1
  F  F17  1  0.04558153  0.20212957  0.31419490  1
  F  F18  1  0.95441847  0.20212957  0.81419490  1
  F  F19  1  0.95441847  0.79787043  0.81419490  1
  F  F20  1  0.10758579  0.50000000  0.45231261  1
  F  F21  1  0.89241421  0.50000000  0.95231261  1
  F  F22  1  0.26721328  -0.00000000  0.54808886  1
  F  F23  1  0.73278672  -0.00000000  0.04808886  1
  F  F24  1  0.81360553  0.66737156  0.54465177  1
  F  F25  1  0.81360553  0.33262844  0.54465177  1
  F  F26  1  0.18639447  0.33262844  0.04465177  1
  F  F27  1  0.18639447  0.66737156  0.04465177  1
  F  F28  1  0.61182746  0.30762769  0.95824962  1
  F  F29  1  0.61182746  0.69237231  0.95824962  1
  F  F30  1  0.38817254  0.69237231  0.45824962  1
  F  F31  1  0.38817254  0.30762769  0.45824962  1
  F  F32  1  0.46548756  0.50000000  0.17834662  1
  F  F33  1  0.53451244  0.50000000  0.67834662  1
