# generated using pymatgen
data_CsTc3(Se2Br)2
_symmetry_space_group_name_H-M   'P 1'
_cell_length_a   6.66430977
_cell_length_b   9.58122219
_cell_length_c   19.35680015
_cell_angle_alpha   90.00000000
_cell_angle_beta   90.00000000
_cell_angle_gamma   103.57022383
_symmetry_Int_Tables_number   1
_chemical_formula_structural   CsTc3(Se2Br)2
_chemical_formula_sum   'Cs4 Tc12 Se16 Br8'
_cell_volume   1201.47028134
_cell_formula_units_Z   4
loop_
 _symmetry_equiv_pos_site_id
 _symmetry_equiv_pos_as_xyz
  1  'x, y, z'
loop_
 _atom_site_type_symbol
 _atom_site_label
 _atom_site_symmetry_multiplicity
 _atom_site_fract_x
 _atom_site_fract_y
 _atom_site_fract_z
 _atom_site_occupancy
  Cs  Cs0  1  0.00278671  0.05186212  0.19006665  1
  Cs  Cs1  1  0.50278671  0.55186212  0.30993335  1
  Cs  Cs2  1  0.99721329  0.94813788  0.80993335  1
  Cs  Cs3  1  0.49721329  0.44813788  0.69006665  1
  Tc  Tc4  1  0.03295018  0.89271094  0.42148682  1
  Tc  Tc5  1  0.53295018  0.39271094  0.07851318  1
  Tc  Tc6  1  0.96704982  0.10728906  0.57851318  1
  Tc  Tc7  1  0.46704982  0.60728906  0.92148682  1
  Tc  Tc8  1  0.97954397  0.15284620  0.44184275  1
  Tc  Tc9  1  0.47954397  0.65284620  0.05815725  1
  Tc  Tc10  1  0.02045603  0.84715380  0.55815725  1
  Tc  Tc11  1  0.52045603  0.34715380  0.94184275  1
  Tc  Tc12  1  0.71660288  0.92974372  0.49525965  1
  Tc  Tc13  1  0.21660288  0.42974372  0.00474035  1
  Tc  Tc14  1  0.28339712  0.07025628  0.50474035  1
  Tc  Tc15  1  0.78339712  0.57025628  0.99525965  1
  Se  Se16  1  0.73762304  0.97383429  0.36721079  1
  Se  Se17  1  0.23762304  0.47383429  0.13278921  1
  Se  Se18  1  0.26237696  0.02616571  0.63278921  1
  Se  Se19  1  0.76237696  0.52616571  0.86721079  1
  Se  Se20  1  0.28528136  0.11191391  0.37655328  1
  Se  Se21  1  0.78528136  0.61191391  0.12344672  1
  Se  Se22  1  0.71471864  0.88808609  0.62344672  1
  Se  Se23  1  0.21471864  0.38808609  0.87655328  1
  Se  Se24  1  0.31577027  0.80674369  0.48461700  1
  Se  Se25  1  0.81577027  0.30674369  0.01538300  1
  Se  Se26  1  0.68422973  0.19325631  0.51538300  1
  Se  Se27  1  0.18422973  0.69325631  0.98461700  1
  Se  Se28  1  0.78071317  0.68271928  0.47653216  1
  Se  Se29  1  0.28071317  0.18271928  0.02346784  1
  Se  Se30  1  0.21928683  0.31728072  0.52346784  1
  Se  Se31  1  0.71928683  0.81728072  0.97653216  1
  Br  Br32  1  0.06840328  0.75346858  0.30716218  1
  Br  Br33  1  0.56840328  0.25346858  0.19283782  1
  Br  Br34  1  0.93159672  0.24653142  0.69283782  1
  Br  Br35  1  0.43159672  0.74653142  0.80716218  1
  Br  Br36  1  0.96151014  0.36233825  0.35836564  1
  Br  Br37  1  0.46151014  0.86233825  0.14163436  1
  Br  Br38  1  0.03848986  0.63766175  0.64163436  1
  Br  Br39  1  0.53848986  0.13766175  0.85836564  1
