# generated using pymatgen
data_MoI2
_symmetry_space_group_name_H-M   'P 1'
_cell_length_a   10.47200763
_cell_length_b   10.47200763
_cell_length_c   12.85702331
_cell_angle_alpha   90.00000000
_cell_angle_beta   90.00000000
_cell_angle_gamma   104.22176086
_symmetry_Int_Tables_number   1
_chemical_formula_structural   MoI2
_chemical_formula_sum   'Mo12 I24'
_cell_volume   1366.72737130
_cell_formula_units_Z   12
loop_
 _symmetry_equiv_pos_site_id
 _symmetry_equiv_pos_as_xyz
  1  'x, y, z'
loop_
 _atom_site_type_symbol
 _atom_site_label
 _atom_site_symmetry_multiplicity
 _atom_site_fract_x
 _atom_site_fract_y
 _atom_site_fract_z
 _atom_site_occupancy
  Mo  Mo0  1  0.63254397  0.63254397  0.43444868  1
  Mo  Mo1  1  0.36745603  0.36745603  0.56555132  1
  Mo  Mo2  1  0.86745603  0.86745603  0.93444868  1
  Mo  Mo3  1  0.13254397  0.13254397  0.06555132  1
  Mo  Mo4  1  0.56555740  0.56555740  0.63247228  1
  Mo  Mo5  1  0.43444260  0.43444260  0.36752772  1
  Mo  Mo6  1  0.93444260  0.93444260  0.13247228  1
  Mo  Mo7  1  0.06555740  0.06555740  0.86752772  1
  Mo  Mo8  1  0.38490095  0.61509905  0.50000000  1
  Mo  Mo9  1  0.11509905  0.88490095  0.00000000  1
  Mo  Mo10  1  0.61509905  0.38490095  0.50000000  1
  Mo  Mo11  1  0.88490095  0.11509905  0.00000000  1
  I  I12  1  0.58684630  0.82521918  0.57011357  1
  I  I13  1  0.17478082  0.41315370  0.42988643  1
  I  I14  1  0.91315370  0.67478082  0.07011357  1
  I  I15  1  0.32521918  0.08684630  0.92988643  1
  I  I16  1  0.41315370  0.17478082  0.42988643  1
  I  I17  1  0.82521918  0.58684630  0.57011357  1
  I  I18  1  0.08684630  0.32521918  0.92988643  1
  I  I19  1  0.67478082  0.91315370  0.07011357  1
  I  I20  1  0.45110735  0.68916482  0.29369390  1
  I  I21  1  0.31083518  0.54889265  0.70630610  1
  I  I22  1  0.04889265  0.81083518  0.79369390  1
  I  I23  1  0.18916482  0.95110735  0.20630610  1
  I  I24  1  0.54889265  0.31083518  0.70630610  1
  I  I25  1  0.68916482  0.45110735  0.29369390  1
  I  I26  1  0.95110735  0.18916482  0.20630610  1
  I  I27  1  0.81083518  0.04889265  0.79369390  1
  I  I28  1  0.65556174  0.65556174  0.84450055  1
  I  I29  1  0.34443826  0.34443826  0.15549945  1
  I  I30  1  0.84443826  0.84443826  0.34450055  1
  I  I31  1  0.15556174  0.15556174  0.65549945  1
  I  I32  1  0.21301160  0.78698840  0.50000000  1
  I  I33  1  0.28698840  0.71301160  0.00000000  1
  I  I34  1  0.78698840  0.21301160  0.50000000  1
  I  I35  1  0.71301160  0.28698840  0.00000000  1
