# generated using pymatgen
data_Cs6Ho21S34Cl
_symmetry_space_group_name_H-M   'P 1'
_cell_length_a   13.06356886
_cell_length_b   13.06356886
_cell_length_c   13.07102316
_cell_angle_alpha   114.41170391
_cell_angle_beta   114.41170391
_cell_angle_gamma   97.29911437
_symmetry_Int_Tables_number   1
_chemical_formula_structural   Cs6Ho21S34Cl
_chemical_formula_sum   'Cs6 Ho21 S34 Cl1'
_cell_volume   1726.18763304
_cell_formula_units_Z   1
loop_
 _symmetry_equiv_pos_site_id
 _symmetry_equiv_pos_as_xyz
  1  'x, y, z'
loop_
 _atom_site_type_symbol
 _atom_site_label
 _atom_site_symmetry_multiplicity
 _atom_site_fract_x
 _atom_site_fract_y
 _atom_site_fract_z
 _atom_site_occupancy
  Cs  Cs0  1  0.05152944  0.80598026  0.27072334  1
  Cs  Cs1  1  0.80598026  0.05152944  0.27072334  1
  Cs  Cs2  1  0.94847056  0.19401974  0.72927666  1
  Cs  Cs3  1  0.19401974  0.94847056  0.72927666  1
  Cs  Cs4  1  0.76835398  0.76835398  0.41506474  1
  Cs  Cs5  1  0.23164602  0.23164602  0.58493526  1
  Ho  Ho6  1  0.69855420  0.30144580  0.00000000  1
  Ho  Ho7  1  0.30144580  0.69855420  0.00000000  1
  Ho  Ho8  1  0.04541834  0.46304332  0.24867661  1
  Ho  Ho9  1  0.46304332  0.04541834  0.24867661  1
  Ho  Ho10  1  0.95458166  0.53695668  0.75132339  1
  Ho  Ho11  1  0.53695668  0.95458166  0.75132339  1
  Ho  Ho12  1  0.82858329  0.42744141  0.37683935  1
  Ho  Ho13  1  0.42744141  0.82858329  0.37683935  1
  Ho  Ho14  1  0.17141671  0.57255859  0.62316065  1
  Ho  Ho15  1  0.57255859  0.17141671  0.62316065  1
  Ho  Ho16  1  0.90043224  0.09956776  0.00000000  1
  Ho  Ho17  1  0.09956776  0.90043224  0.00000000  1
  Ho  Ho18  1  0.26110949  0.46530134  0.10660642  1
  Ho  Ho19  1  0.46530134  0.26110949  0.10660642  1
  Ho  Ho20  1  0.73889051  0.53469866  0.89339358  1
  Ho  Ho21  1  0.53469866  0.73889051  0.89339358  1
  Ho  Ho22  1  0.39974858  0.60025142  0.50000000  1
  Ho  Ho23  1  0.60025142  0.39974858  0.50000000  1
  Ho  Ho24  1  0.50000000  0.50000000  0.00000000  1
  Ho  Ho25  1  0.24338374  0.24338374  0.25697664  1
  Ho  Ho26  1  0.75661626  0.75661626  0.74302336  1
  S  S27  1  0.68244138  0.68244138  0.05831065  1
  S  S28  1  0.31755862  0.31755862  0.94168935  1
  S  S29  1  0.05867664  0.05867664  0.17890367  1
  S  S30  1  0.94132336  0.94132336  0.82109633  1
  S  S31  1  0.08936415  0.28998644  0.07762520  1
  S  S32  1  0.28998644  0.08936415  0.07762520  1
  S  S33  1  0.91063585  0.71001356  0.92237480  1
  S  S34  1  0.71001356  0.91063585  0.92237480  1
  S  S35  1  0.88167473  0.48592842  0.06395377  1
  S  S36  1  0.48592842  0.88167473  0.06395377  1
  S  S37  1  0.11832527  0.51407158  0.93604623  1
  S  S38  1  0.51407158  0.11832527  0.93604623  1
  S  S39  1  0.86713439  0.27357335  0.18574187  1
  S  S40  1  0.27357335  0.86713439  0.18574187  1
  S  S41  1  0.13286561  0.72642665  0.81425813  1
  S  S42  1  0.72642665  0.13286561  0.81425813  1
  S  S43  1  0.24582041  0.63226961  0.31073256  1
  S  S44  1  0.63226961  0.24582041  0.31073256  1
  S  S45  1  0.75417959  0.36773039  0.68926744  1
  S  S46  1  0.36773039  0.75417959  0.68926744  1
  S  S47  1  0.01272720  0.60798059  0.44177491  1
  S  S48  1  0.60798059  0.01272720  0.44177491  1
  S  S49  1  0.98727280  0.39201941  0.55822509  1
  S  S50  1  0.39201941  0.98727280  0.55822509  1
  S  S51  1  0.21339001  0.42237533  0.43675715  1
  S  S52  1  0.42237533  0.21339001  0.43675715  1
  S  S53  1  0.78660999  0.57762467  0.56324285  1
  S  S54  1  0.57762467  0.78660999  0.56324285  1
  S  S55  1  0.65057216  0.44927318  0.18066391  1
  S  S56  1  0.44927318  0.65057216  0.18066391  1
  S  S57  1  0.34942784  0.55072682  0.81933609  1
  S  S58  1  0.55072682  0.34942784  0.81933609  1
  S  S59  1  0.42531749  0.42531749  0.30761950  1
  S  S60  1  0.57468251  0.57468251  0.69238050  1
  Cl  Cl61  1  0.00000000  -0.00000000  0.50000000  1
