# generated using pymatgen
data_Ba3GaS4Cl
_symmetry_space_group_name_H-M   'P 1'
_cell_length_a   8.54563236
_cell_length_b   9.66571628
_cell_length_c   12.42017773
_cell_angle_alpha   90.00000000
_cell_angle_beta   90.00000000
_cell_angle_gamma   90.00000000
_symmetry_Int_Tables_number   1
_chemical_formula_structural   Ba3GaS4Cl
_chemical_formula_sum   'Ba12 Ga4 S16 Cl4'
_cell_volume   1025.90243062
_cell_formula_units_Z   4
loop_
 _symmetry_equiv_pos_site_id
 _symmetry_equiv_pos_as_xyz
  1  'x, y, z'
loop_
 _atom_site_type_symbol
 _atom_site_label
 _atom_site_symmetry_multiplicity
 _atom_site_fract_x
 _atom_site_fract_y
 _atom_site_fract_z
 _atom_site_occupancy
  Ba  Ba0  1  0.08632688  0.75000000  0.01908882  1
  Ba  Ba1  1  0.41367312  0.75000000  0.51908882  1
  Ba  Ba2  1  0.91367312  0.25000000  0.98091118  1
  Ba  Ba3  1  0.58632688  0.25000000  0.48091118  1
  Ba  Ba4  1  0.41547340  0.01992402  0.83225359  1
  Ba  Ba5  1  0.08452660  0.48007598  0.33225359  1
  Ba  Ba6  1  0.58452660  0.51992402  0.16774641  1
  Ba  Ba7  1  0.91547340  0.98007598  0.66774641  1
  Ba  Ba8  1  0.58452660  0.98007598  0.16774641  1
  Ba  Ba9  1  0.91547340  0.51992402  0.66774641  1
  Ba  Ba10  1  0.41547340  0.48007598  0.83225359  1
  Ba  Ba11  1  0.08452660  0.01992402  0.33225359  1
  Ga  Ga12  1  0.68914615  0.75000000  0.89383874  1
  Ga  Ga13  1  0.81085385  0.75000000  0.39383874  1
  Ga  Ga14  1  0.31085385  0.25000000  0.10616126  1
  Ga  Ga15  1  0.18914615  0.25000000  0.60616126  1
  S  S16  1  0.18677359  0.04870391  0.07307418  1
  S  S17  1  0.31322641  0.45129609  0.57307418  1
  S  S18  1  0.81322641  0.54870391  0.92692582  1
  S  S19  1  0.68677359  0.95129609  0.42692582  1
  S  S20  1  0.81322641  0.95129609  0.92692582  1
  S  S21  1  0.68677359  0.54870391  0.42692582  1
  S  S22  1  0.18677359  0.45129609  0.07307418  1
  S  S23  1  0.31322641  0.04870391  0.57307418  1
  S  S24  1  0.86291631  0.75000000  0.21296008  1
  S  S25  1  0.63708369  0.75000000  0.71296008  1
  S  S26  1  0.13708369  0.25000000  0.78703992  1
  S  S27  1  0.36291631  0.25000000  0.28703992  1
  S  S28  1  0.46372783  0.75000000  0.99343619  1
  S  S29  1  0.03627217  0.75000000  0.49343619  1
  S  S30  1  0.53627217  0.25000000  0.00656381  1
  S  S31  1  0.96372783  0.25000000  0.50656381  1
  Cl  Cl32  1  0.16720121  0.75000000  0.76966900  1
  Cl  Cl33  1  0.33279879  0.75000000  0.26966900  1
  Cl  Cl34  1  0.83279879  0.25000000  0.23033100  1
  Cl  Cl35  1  0.66720121  0.25000000  0.73033100  1
