# generated using pymatgen
data_Rb2FeH12(SO7)2
_symmetry_space_group_name_H-M   'P 1'
_cell_length_a   6.34637752
_cell_length_b   9.29418007
_cell_length_c   12.74890743
_cell_angle_alpha   90.00000000
_cell_angle_beta   90.00000000
_cell_angle_gamma   105.15972305
_symmetry_Int_Tables_number   1
_chemical_formula_structural   Rb2FeH12(SO7)2
_chemical_formula_sum   'Rb4 Fe2 H24 S4 O28'
_cell_volume   725.81764367
_cell_formula_units_Z   2
loop_
 _symmetry_equiv_pos_site_id
 _symmetry_equiv_pos_as_xyz
  1  'x, y, z'
loop_
 _atom_site_type_symbol
 _atom_site_label
 _atom_site_symmetry_multiplicity
 _atom_site_fract_x
 _atom_site_fract_y
 _atom_site_fract_z
 _atom_site_occupancy
  Rb  Rb0  1  0.34123226  0.62409810  0.14490841  1
  Rb  Rb1  1  0.65876774  0.87590190  0.64490841  1
  Rb  Rb2  1  0.65876774  0.37590190  0.85509159  1
  Rb  Rb3  1  0.34123226  0.12409810  0.35509159  1
  Fe  Fe4  1  -0.00000000  0.50000000  0.50000000  1
  Fe  Fe5  1  -0.00000000  0.00000000  -0.00000000  1
  H  H6  1  0.32701937  0.71768552  0.40329229  1
  H  H7  1  0.67298063  0.78231448  0.90329229  1
  H  H8  1  0.67298063  0.28231448  0.59670771  1
  H  H9  1  0.32701937  0.21768552  0.09670771  1
  H  H10  1  0.09167109  0.74315160  0.37211819  1
  H  H11  1  0.90832891  0.75684840  0.87211819  1
  H  H12  1  0.90832891  0.25684840  0.62788181  1
  H  H13  1  0.09167109  0.24315160  0.12788181  1
  H  H14  1  0.92372585  0.22233144  0.39666664  1
  H  H15  1  0.07627415  0.27766856  0.89666664  1
  H  H16  1  0.07627415  0.77766856  0.60333336  1
  H  H17  1  0.92372585  0.72233144  0.10333336  1
  H  H18  1  0.98754922  0.34862769  0.31056285  1
  H  H19  1  0.01245078  0.15137231  0.81056285  1
  H  H20  1  0.01245078  0.65137231  0.68943715  1
  H  H21  1  0.98754922  0.84862769  0.18943715  1
  H  H22  1  0.33621669  0.39496122  0.56541675  1
  H  H23  1  0.66378331  0.10503878  0.06541675  1
  H  H24  1  0.66378331  0.60503878  0.43458325  1
  H  H25  1  0.33621669  0.89496122  0.93458325  1
  H  H26  1  0.32499950  0.52673000  0.64288461  1
  H  H27  1  0.67500050  0.97327000  0.14288461  1
  H  H28  1  0.67500050  0.47327000  0.35711539  1
  H  H29  1  0.32499950  0.02673000  0.85711539  1
  S  S30  1  0.72939764  0.90007616  0.35671925  1
  S  S31  1  0.27060236  0.59992384  0.85671925  1
  S  S32  1  0.27060236  0.09992384  0.64328075  1
  S  S33  1  0.72939764  0.40007616  0.14328075  1
  O  O34  1  0.59131221  0.90559884  0.26273844  1
  O  O35  1  0.40868779  0.59440116  0.76273844  1
  O  O36  1  0.40868779  0.09440116  0.73726156  1
  O  O37  1  0.59131221  0.40559884  0.23726156  1
  O  O38  1  0.77057124  0.04171770  0.41678203  1
  O  O39  1  0.22942876  0.45828230  0.91678203  1
  O  O40  1  0.22942876  0.95828230  0.58321797  1
  O  O41  1  0.77057124  0.54171770  0.08321797  1
  O  O42  1  0.60655496  0.77567486  0.42625466  1
  O  O43  1  0.39344504  0.72432514  0.92625466  1
  O  O44  1  0.39344504  0.22432514  0.57374534  1
  O  O45  1  0.60655496  0.27567486  0.07374534  1
  O  O46  1  0.94170334  0.87134946  0.32339665  1
  O  O47  1  0.05829666  0.62865054  0.82339665  1
  O  O48  1  0.05829666  0.12865054  0.67660335  1
  O  O49  1  0.94170334  0.37134946  0.17660335  1
  O  O50  1  0.17079446  0.66724355  0.38859674  1
  O  O51  1  0.82920554  0.83275645  0.88859674  1
  O  O52  1  0.82920554  0.33275645  0.61140326  1
  O  O53  1  0.17079446  0.16724355  0.11140326  1
  O  O54  1  0.01898480  0.32430877  0.38391238  1
  O  O55  1  0.98101520  0.17569123  0.88391238  1
  O  O56  1  0.98101520  0.67569123  0.61608762  1
  O  O57  1  0.01898480  0.82430877  0.11608762  1
  O  O58  1  0.29621434  0.49128250  0.56930093  1
  O  O59  1  0.70378566  0.00871750  0.06930093  1
  O  O60  1  0.70378566  0.50871750  0.43069907  1
  O  O61  1  0.29621434  0.99128250  0.93069907  1
