# generated using pymatgen
data_La2ThSe5
_symmetry_space_group_name_H-M   'P 1'
_cell_length_a   8.00081276
_cell_length_b   8.74003954
_cell_length_c   12.61000771
_cell_angle_alpha   90.00000000
_cell_angle_beta   90.00000000
_cell_angle_gamma   90.00000000
_symmetry_Int_Tables_number   1
_chemical_formula_structural   La2ThSe5
_chemical_formula_sum   'La8 Th4 Se20'
_cell_volume   881.78530376
_cell_formula_units_Z   4
loop_
 _symmetry_equiv_pos_site_id
 _symmetry_equiv_pos_as_xyz
  1  'x, y, z'
loop_
 _atom_site_type_symbol
 _atom_site_label
 _atom_site_symmetry_multiplicity
 _atom_site_fract_x
 _atom_site_fract_y
 _atom_site_fract_z
 _atom_site_occupancy
  La  La0  1  0.97263391  0.00065041  0.17791450  1
  La  La1  1  0.52736609  0.49934959  0.67791450  1
  La  La2  1  0.02736609  0.50065041  0.82208550  1
  La  La3  1  0.47263391  0.99934959  0.32208550  1
  La  La4  1  0.02736609  0.99934959  0.82208550  1
  La  La5  1  0.47263391  0.50065041  0.32208550  1
  La  La6  1  0.97263391  0.49934959  0.17791450  1
  La  La7  1  0.52736609  0.00065041  0.67791450  1
  Th  Th8  1  0.42485817  0.75000000  0.00950771  1
  Th  Th9  1  0.07514183  0.75000000  0.50950771  1
  Th  Th10  1  0.57514183  0.25000000  0.99049229  1
  Th  Th11  1  0.92485817  0.25000000  0.49049229  1
  Se  Se12  1  0.66906689  0.54355885  0.90565135  1
  Se  Se13  1  0.83093311  0.95644115  0.40565135  1
  Se  Se14  1  0.33093311  0.04355885  0.09434865  1
  Se  Se15  1  0.16906689  0.45644115  0.59434865  1
  Se  Se16  1  0.33093311  0.45644115  0.09434865  1
  Se  Se17  1  0.16906689  0.04355885  0.59434865  1
  Se  Se18  1  0.66906689  0.95644115  0.90565135  1
  Se  Se19  1  0.83093311  0.54355885  0.40565135  1
  Se  Se20  1  0.66735108  0.75000000  0.18808057  1
  Se  Se21  1  0.83264892  0.75000000  0.68808057  1
  Se  Se22  1  0.33264892  0.25000000  0.81191943  1
  Se  Se23  1  0.16735108  0.25000000  0.31191943  1
  Se  Se24  1  0.04186125  0.75000000  0.00097114  1
  Se  Se25  1  0.45813875  0.75000000  0.50097114  1
  Se  Se26  1  0.95813875  0.25000000  0.99902886  1
  Se  Se27  1  0.54186125  0.25000000  0.49902886  1
  Se  Se28  1  0.30728143  0.75000000  0.78286701  1
  Se  Se29  1  0.19271857  0.75000000  0.28286701  1
  Se  Se30  1  0.69271857  0.25000000  0.21713299  1
  Se  Se31  1  0.80728143  0.25000000  0.71713299  1
