# generated using pymatgen
data_Rb2Mo3SeO12
_symmetry_space_group_name_H-M   'P 1'
_cell_length_a   7.38803258
_cell_length_b   7.38804965
_cell_length_c   12.36147925
_cell_angle_alpha   90.00000000
_cell_angle_beta   90.00000000
_cell_angle_gamma   119.99997509
_symmetry_Int_Tables_number   1
_chemical_formula_structural   Rb2Mo3SeO12
_chemical_formula_sum   'Rb4 Mo6 Se2 O24'
_cell_volume   584.33216445
_cell_formula_units_Z   2
loop_
 _symmetry_equiv_pos_site_id
 _symmetry_equiv_pos_as_xyz
  1  'x, y, z'
loop_
 _atom_site_type_symbol
 _atom_site_label
 _atom_site_symmetry_multiplicity
 _atom_site_fract_x
 _atom_site_fract_y
 _atom_site_fract_z
 _atom_site_occupancy
  Rb  Rb0  1  0.33338812  0.66669391  0.94396044  1
  Rb  Rb1  1  0.66661188  0.33330609  0.44396044  1
  Rb  Rb2  1  0.66661820  0.33330861  0.06565439  1
  Rb  Rb3  1  0.33338180  0.66669139  0.56565439  1
  Mo  Mo4  1  0.80054323  0.14010436  0.73051457  1
  Mo  Mo5  1  0.85989928  0.66043801  0.73051491  1
  Mo  Mo6  1  0.33956055  0.19945792  0.73051465  1
  Mo  Mo7  1  0.19945677  0.85989564  0.23051457  1
  Mo  Mo8  1  0.14010072  0.33956199  0.23051491  1
  Mo  Mo9  1  0.66043945  0.80054208  0.23051465  1
  Se  Se10  1  0.99999774  0.99999913  0.50150246  1
  Se  Se11  1  0.00000226  0.00000087  0.00150246  1
  O  O12  1  0.79452859  0.20081378  0.86616320  1
  O  O13  1  0.79918298  0.59371721  0.86615936  1
  O  O14  1  0.40628241  0.20546791  0.86616116  1
  O  O15  1  0.20547141  0.79918622  0.36616320  1
  O  O16  1  0.20081702  0.40628279  0.36615936  1
  O  O17  1  0.59371759  0.79453209  0.36616116  1
  O  O18  1  0.88086971  0.12788528  0.56051557  1
  O  O19  1  0.87210941  0.75298418  0.56051659  1
  O  O20  1  0.24701434  0.11912722  0.56051652  1
  O  O21  1  0.11913029  0.87211472  0.06051557  1
  O  O22  1  0.12789059  0.24701582  0.06051659  1
  O  O23  1  0.75298566  0.88087278  0.06051652  1
  O  O24  1  0.53922014  0.08613291  0.68395185  1
  O  O25  1  0.91387165  0.45309029  0.68395255  1
  O  O26  1  0.54691242  0.46078026  0.68395180  1
  O  O27  1  0.46077986  0.91386709  0.18395185  1
  O  O28  1  0.08612835  0.54690971  0.18395255  1
  O  O29  1  0.45308758  0.53921974  0.18395180  1
  O  O30  1  0.74806894  0.87054355  0.74394014  1
  O  O31  1  0.12945740  0.87752735  0.74394009  1
  O  O32  1  0.12247386  0.25193025  0.74393973  1
  O  O33  1  0.25193106  0.12945645  0.24394014  1
  O  O34  1  0.87054260  0.12247265  0.24394009  1
  O  O35  1  0.87752614  0.74806975  0.24393973  1
