# generated using pymatgen
data_V11Ge8
_symmetry_space_group_name_H-M   'P 1'
_cell_length_a   4.99317263
_cell_length_b   13.36817661
_cell_length_c   16.11812425
_cell_angle_alpha   90.00000000
_cell_angle_beta   90.00000000
_cell_angle_gamma   90.00000000
_symmetry_Int_Tables_number   1
_chemical_formula_structural   V11Ge8
_chemical_formula_sum   'V44 Ge32'
_cell_volume   1075.87856503
_cell_formula_units_Z   4
loop_
 _symmetry_equiv_pos_site_id
 _symmetry_equiv_pos_as_xyz
  1  'x, y, z'
loop_
 _atom_site_type_symbol
 _atom_site_label
 _atom_site_symmetry_multiplicity
 _atom_site_fract_x
 _atom_site_fract_y
 _atom_site_fract_z
 _atom_site_occupancy
  V  V0  1  0.00859600  0.13663901  0.82536030  1
  V  V1  1  0.49140400  0.63663901  0.67463970  1
  V  V2  1  0.50859600  0.86336099  0.17463970  1
  V  V3  1  0.99140400  0.36336099  0.32536030  1
  V  V4  1  0.99140400  0.86336099  0.17463970  1
  V  V5  1  0.50859600  0.36336099  0.32536030  1
  V  V6  1  0.49140400  0.13663901  0.82536030  1
  V  V7  1  0.00859600  0.63663901  0.67463970  1
  V  V8  1  0.00085155  0.44075153  0.87778327  1
  V  V9  1  0.49914845  0.94075153  0.62221673  1
  V  V10  1  0.50085155  0.55924847  0.12221673  1
  V  V11  1  0.99914845  0.05924847  0.37778327  1
  V  V12  1  0.99914845  0.55924847  0.12221673  1
  V  V13  1  0.50085155  0.05924847  0.37778327  1
  V  V14  1  0.49914845  0.44075153  0.87778327  1
  V  V15  1  0.00085155  0.94075153  0.62221673  1
  V  V16  1  0.75000000  0.43512577  0.69111878  1
  V  V17  1  0.75000000  0.93512577  0.80888122  1
  V  V18  1  0.25000000  0.56487423  0.30888122  1
  V  V19  1  0.25000000  0.06487423  0.19111878  1
  V  V20  1  0.75000000  0.12953765  0.54186733  1
  V  V21  1  0.75000000  0.62953765  0.95813267  1
  V  V22  1  0.25000000  0.87046235  0.45813267  1
  V  V23  1  0.25000000  0.37046235  0.04186733  1
  V  V24  1  0.75000000  0.36292935  0.15840774  1
  V  V25  1  0.75000000  0.86292935  0.34159226  1
  V  V26  1  0.25000000  0.63707065  0.84159226  1
  V  V27  1  0.25000000  0.13707065  0.65840774  1
  V  V28  1  0.75000000  0.24867312  0.97002653  1
  V  V29  1  0.75000000  0.74867312  0.52997347  1
  V  V30  1  0.25000000  0.75132688  0.02997347  1
  V  V31  1  0.25000000  0.25132688  0.47002653  1
  V  V32  1  0.75000000  0.03907262  0.09265917  1
  V  V33  1  0.75000000  0.53907262  0.40734083  1
  V  V34  1  0.25000000  0.96092738  0.90734083  1
  V  V35  1  0.25000000  0.46092738  0.59265917  1
  V  V36  1  0.75000000  0.38184449  0.49086234  1
  V  V37  1  0.75000000  0.88184449  0.00913766  1
  V  V38  1  0.25000000  0.61815551  0.50913766  1
  V  V39  1  0.25000000  0.11815551  0.99086234  1
  V  V40  1  0.75000000  0.19493970  0.24829059  1
  V  V41  1  0.75000000  0.69493970  0.25170941  1
  V  V42  1  0.25000000  0.80506030  0.75170941  1
  V  V43  1  0.25000000  0.30506030  0.74829059  1
  Ge  Ge44  1  0.99577820  0.28831922  0.61049078  1
  Ge  Ge45  1  0.50422180  0.78831922  0.88950922  1
  Ge  Ge46  1  0.49577820  0.71168078  0.38950922  1
  Ge  Ge47  1  0.00422180  0.21168078  0.11049078  1
  Ge  Ge48  1  0.00422180  0.71168078  0.38950922  1
  Ge  Ge49  1  0.49577820  0.21168078  0.11049078  1
  Ge  Ge50  1  0.50422180  0.28831922  0.61049078  1
  Ge  Ge51  1  0.99577820  0.78831922  0.88950922  1
  Ge  Ge52  1  0.75000000  0.29660532  0.80250073  1
  Ge  Ge53  1  0.75000000  0.79660532  0.69749927  1
  Ge  Ge54  1  0.25000000  0.70339468  0.19749927  1
  Ge  Ge55  1  0.25000000  0.20339468  0.30250073  1
  Ge  Ge56  1  0.75000000  0.08665940  0.69615408  1
  Ge  Ge57  1  0.75000000  0.58665940  0.80384592  1
  Ge  Ge58  1  0.25000000  0.91334060  0.30384592  1
  Ge  Ge59  1  0.25000000  0.41334060  0.19615408  1
  Ge  Ge60  1  0.75000000  0.44339013  0.01610751  1
  Ge  Ge61  1  0.75000000  0.94339013  0.48389249  1
  Ge  Ge62  1  0.25000000  0.55660987  0.98389249  1
  Ge  Ge63  1  0.25000000  0.05660987  0.51610751  1
  Ge  Ge64  1  0.75000000  0.05114717  0.93881626  1
  Ge  Ge65  1  0.75000000  0.55114717  0.56118374  1
  Ge  Ge66  1  0.25000000  0.94885283  0.06118374  1
  Ge  Ge67  1  0.25000000  0.44885283  0.43881626  1
  Ge  Ge68  1  0.75000000  0.22451882  0.40595297  1
  Ge  Ge69  1  0.75000000  0.72451882  0.09404703  1
  Ge  Ge70  1  0.25000000  0.77548118  0.59404703  1
  Ge  Ge71  1  0.25000000  0.27548118  0.90595297  1
  Ge  Ge72  1  0.75000000  0.00827700  0.24387295  1
  Ge  Ge73  1  0.75000000  0.50827700  0.25612705  1
  Ge  Ge74  1  0.25000000  0.99172300  0.75612705  1
  Ge  Ge75  1  0.25000000  0.49172300  0.74387295  1
