# generated using pymatgen
data_Sm(BRu)4
_symmetry_space_group_name_H-M   'P 1'
_cell_length_a   7.53471049
_cell_length_b   7.53471049
_cell_length_c   9.23877420
_cell_angle_alpha   114.06523321
_cell_angle_beta   114.06523321
_cell_angle_gamma   90.00000000
_symmetry_Int_Tables_number   1
_chemical_formula_structural   Sm(BRu)4
_chemical_formula_sum   'Sm4 B16 Ru16'
_cell_volume   428.50167912
_cell_formula_units_Z   4
loop_
 _symmetry_equiv_pos_site_id
 _symmetry_equiv_pos_as_xyz
  1  'x, y, z'
loop_
 _atom_site_type_symbol
 _atom_site_label
 _atom_site_symmetry_multiplicity
 _atom_site_fract_x
 _atom_site_fract_y
 _atom_site_fract_z
 _atom_site_occupancy
  Sm  Sm0  1  0.12500000  0.37500000  0.25000000  1
  Sm  Sm1  1  0.62500000  0.87500000  0.25000000  1
  Sm  Sm2  1  0.87500000  0.62500000  0.75000000  1
  Sm  Sm3  1  0.37500000  0.12500000  0.75000000  1
  B  B4  1  0.78914234  0.34776733  0.91368921  1
  B  B5  1  0.62454687  0.84776733  0.91368921  1
  B  B6  1  0.84776733  0.28914234  0.41368921  1
  B  B7  1  0.06592188  0.78914234  0.41368921  1
  B  B8  1  0.21085766  0.65223267  0.08631079  1
  B  B9  1  0.37545313  0.15223267  0.08631079  1
  B  B10  1  0.15223267  0.71085766  0.58631079  1
  B  B11  1  0.93407812  0.21085766  0.58631079  1
  B  B12  1  0.28914234  0.56592188  0.91368921  1
  B  B13  1  0.12454687  0.06592188  0.91368921  1
  B  B14  1  0.34776733  0.12454687  0.41368921  1
  B  B15  1  0.56592188  0.62454687  0.41368921  1
  B  B16  1  0.71085766  0.43407812  0.08631079  1
  B  B17  1  0.87545313  0.93407812  0.08631079  1
  B  B18  1  0.65223267  0.87545313  0.58631079  1
  B  B19  1  0.43407812  0.37545313  0.58631079  1
  Ru  Ru20  1  0.94777708  0.66662307  0.12646550  1
  Ru  Ru21  1  0.67868842  0.16662307  0.12646550  1
  Ru  Ru22  1  0.16662307  0.44777708  0.62646550  1
  Ru  Ru23  1  0.95984244  0.94777708  0.62646550  1
  Ru  Ru24  1  0.05222292  0.33337693  0.87353450  1
  Ru  Ru25  1  0.32131158  0.83337693  0.87353450  1
  Ru  Ru26  1  0.83337693  0.55222292  0.37353450  1
  Ru  Ru27  1  0.04015756  0.05222292  0.37353450  1
  Ru  Ru28  1  0.44777708  0.45984244  0.12646550  1
  Ru  Ru29  1  0.17868842  0.95984244  0.12646550  1
  Ru  Ru30  1  0.66662307  0.17868842  0.62646550  1
  Ru  Ru31  1  0.45984244  0.67868842  0.62646550  1
  Ru  Ru32  1  0.55222292  0.54015756  0.87353450  1
  Ru  Ru33  1  0.82131158  0.04015756  0.87353450  1
  Ru  Ru34  1  0.33337693  0.82131158  0.37353450  1
  Ru  Ru35  1  0.54015756  0.32131158  0.37353450  1
