# generated using pymatgen
data_Tb2ReB6
_symmetry_space_group_name_H-M   'P 1'
_cell_length_a   3.69589486
_cell_length_b   9.21460077
_cell_length_c   11.60533170
_cell_angle_alpha   90.00000000
_cell_angle_beta   90.00000000
_cell_angle_gamma   90.00000000
_symmetry_Int_Tables_number   1
_chemical_formula_structural   Tb2ReB6
_chemical_formula_sum   'Tb8 Re4 B24'
_cell_volume   395.23344664
_cell_formula_units_Z   4
loop_
 _symmetry_equiv_pos_site_id
 _symmetry_equiv_pos_as_xyz
  1  'x, y, z'
loop_
 _atom_site_type_symbol
 _atom_site_label
 _atom_site_symmetry_multiplicity
 _atom_site_fract_x
 _atom_site_fract_y
 _atom_site_fract_z
 _atom_site_occupancy
  Tb  Tb0  1  0.00000000  0.32484239  0.41351614  1
  Tb  Tb1  1  -0.00000000  0.67515761  0.58648386  1
  Tb  Tb2  1  -0.00000000  0.82484239  0.08648386  1
  Tb  Tb3  1  -0.00000000  0.17515761  0.91351614  1
  Tb  Tb4  1  0.00000000  0.94430654  0.37008886  1
  Tb  Tb5  1  -0.00000000  0.05569346  0.62991114  1
  Tb  Tb6  1  0.00000000  0.44430654  0.12991114  1
  Tb  Tb7  1  -0.00000000  0.55569346  0.87008886  1
  Re  Re8  1  -0.00000000  0.63892972  0.32119375  1
  Re  Re9  1  0.00000000  0.36107028  0.67880625  1
  Re  Re10  1  -0.00000000  0.13892972  0.17880625  1
  Re  Re11  1  0.00000000  0.86107028  0.82119375  1
  B  B12  1  0.50000000  0.55381162  0.43281597  1
  B  B13  1  0.50000000  0.44618838  0.56718403  1
  B  B14  1  0.50000000  0.05381162  0.06718403  1
  B  B15  1  0.50000000  0.94618838  0.93281597  1
  B  B16  1  0.50000000  0.74925195  0.41944199  1
  B  B17  1  0.50000000  0.25074805  0.58055801  1
  B  B18  1  0.50000000  0.24925195  0.08055801  1
  B  B19  1  0.50000000  0.75074805  0.91944199  1
  B  B20  1  0.50000000  0.79291003  0.26659005  1
  B  B21  1  0.50000000  0.20708997  0.73340995  1
  B  B22  1  0.50000000  0.29291003  0.23340995  1
  B  B23  1  0.50000000  0.70708997  0.76659005  1
  B  B24  1  0.50000000  0.63277063  0.18689291  1
  B  B25  1  0.50000000  0.36722937  0.81310709  1
  B  B26  1  0.50000000  0.13277063  0.31310709  1
  B  B27  1  0.50000000  0.86722937  0.68689291  1
  B  B28  1  0.50000000  0.98440868  0.21202902  1
  B  B29  1  0.50000000  0.01559132  0.78797098  1
  B  B30  1  0.50000000  0.48440868  0.28797098  1
  B  B31  1  0.50000000  0.51559132  0.71202902  1
  B  B32  1  0.50000000  0.60321425  0.02898091  1
  B  B33  1  0.50000000  0.39678575  0.97101909  1
  B  B34  1  0.50000000  0.10321425  0.47101909  1
  B  B35  1  0.50000000  0.89678575  0.52898091  1
