# generated using pymatgen
data_Li4MnCo2O7
_symmetry_space_group_name_H-M   'P 1'
_cell_length_a   2.97817492
_cell_length_b   10.67428090
_cell_length_c   8.08496605
_cell_angle_alpha   78.32814521
_cell_angle_beta   89.05351806
_cell_angle_gamma   85.99897127
_symmetry_Int_Tables_number   1
_chemical_formula_structural   Li4MnCo2O7
_chemical_formula_sum   'Li8 Mn2 Co4 O14'
_cell_volume   251.09126662
_cell_formula_units_Z   2
loop_
 _symmetry_equiv_pos_site_id
 _symmetry_equiv_pos_as_xyz
  1  'x, y, z'
loop_
 _atom_site_type_symbol
 _atom_site_label
 _atom_site_symmetry_multiplicity
 _atom_site_fract_x
 _atom_site_fract_y
 _atom_site_fract_z
 _atom_site_occupancy
  Li  Li0  1  0.85078385  0.28984644  0.92555744  1
  Li  Li1  1  0.15094978  0.71394856  0.07700782  1
  Li  Li2  1  0.44131153  0.13546759  0.22019811  1
  Li  Li3  1  0.28316299  0.42906969  0.64244550  1
  Li  Li4  1  0.56813328  0.85767735  0.78208580  1
  Li  Li5  1  0.70717800  0.57246420  0.36276379  1
  Li  Li6  1  0.00263890  0.99560640  0.49080062  1
  Li  Li7  1  0.55769347  0.86386094  0.28913765  1
  Mn  Mn8  1  0.00505603  0.99663779  0.00750066  1
  Mn  Mn9  1  0.28764838  0.42959752  0.14297910  1
  Co  Co10  1  0.86278424  0.28396458  0.42965576  1
  Co  Co11  1  0.13377346  0.71991060  0.55993992  1
  Co  Co12  1  0.44183038  0.14007782  0.71299397  1
  Co  Co13  1  0.70889507  0.57338362  0.85395297  1
  O  O14  1  0.46516394  0.12568678  0.95760240  1
  O  O15  1  0.68447399  0.57315588  0.09306937  1
  O  O16  1  0.99214127  0.00215311  0.23262446  1
  O  O17  1  0.83645571  0.27708602  0.67045719  1
  O  O18  1  0.11593564  0.70684146  0.80368552  1
  O  O19  1  0.26048663  0.42108689  0.38787127  1
  O  O20  1  0.54882799  0.84473548  0.54080152  1
  O  O21  1  0.31416133  0.43370102  0.89913195  1
  O  O22  1  0.53686088  0.87504804  0.03013163  1
  O  O23  1  0.88339849  0.29083344  0.18834639  1
  O  O24  1  0.73476224  0.57877899  0.61894463  1
  O  O25  1  0.02686508  0.00945844  0.75721955  1
  O  O26  1  0.14950178  0.70895244  0.34892265  1
  O  O27  1  0.44912567  0.15096893  0.47417237  1
