# generated using pymatgen
data_Ta4CoTe4
_symmetry_space_group_name_H-M   'P 1'
_cell_length_a   4.81369151
_cell_length_b   10.63844545
_cell_length_c   18.45826444
_cell_angle_alpha   90.00000000
_cell_angle_beta   90.00000000
_cell_angle_gamma   90.00000000
_symmetry_Int_Tables_number   1
_chemical_formula_structural   Ta4CoTe4
_chemical_formula_sum   'Ta16 Co4 Te16'
_cell_volume   945.25131288
_cell_formula_units_Z   4
loop_
 _symmetry_equiv_pos_site_id
 _symmetry_equiv_pos_as_xyz
  1  'x, y, z'
loop_
 _atom_site_type_symbol
 _atom_site_label
 _atom_site_symmetry_multiplicity
 _atom_site_fract_x
 _atom_site_fract_y
 _atom_site_fract_z
 _atom_site_occupancy
  Ta  Ta0  1  0.50000000  0.56576035  0.38065148  1
  Ta  Ta1  1  0.50000000  0.43423965  0.61934852  1
  Ta  Ta2  1  0.50000000  0.06576035  0.11934852  1
  Ta  Ta3  1  0.50000000  0.93423965  0.88065148  1
  Ta  Ta4  1  0.50000000  0.70833622  0.53712230  1
  Ta  Ta5  1  0.50000000  0.29166378  0.46287770  1
  Ta  Ta6  1  0.50000000  0.20833622  0.96287770  1
  Ta  Ta7  1  0.50000000  0.79166378  0.03712230  1
  Ta  Ta8  1  -0.00000000  0.69369108  0.44123958  1
  Ta  Ta9  1  0.00000000  0.30630892  0.55876042  1
  Ta  Ta10  1  0.00000000  0.19369108  0.05876042  1
  Ta  Ta11  1  -0.00000000  0.80630892  0.94123958  1
  Ta  Ta12  1  -0.00000000  0.39897913  0.38925690  1
  Ta  Ta13  1  -0.00000000  0.60102087  0.61074310  1
  Ta  Ta14  1  0.00000000  0.89897913  0.11074310  1
  Ta  Ta15  1  0.00000000  0.10102087  0.88925690  1
  Co  Co16  1  0.24944720  0.50000000  0.50000000  1
  Co  Co17  1  0.75055280  -0.00000000  0.00000000  1
  Co  Co18  1  0.75055280  0.50000000  0.50000000  1
  Co  Co19  1  0.24944720  -0.00000000  0.00000000  1
  Te  Te20  1  -0.00000000  0.85868809  0.56519031  1
  Te  Te21  1  -0.00000000  0.14131191  0.43480969  1
  Te  Te22  1  0.00000000  0.35868809  0.93480969  1
  Te  Te23  1  0.00000000  0.64131191  0.06519031  1
  Te  Te24  1  0.50000000  0.32750659  0.30894284  1
  Te  Te25  1  0.50000000  0.67249341  0.69105716  1
  Te  Te26  1  0.50000000  0.82750659  0.19105716  1
  Te  Te27  1  0.50000000  0.17249341  0.80894284  1
  Te  Te28  1  0.50000000  0.83482362  0.39969596  1
  Te  Te29  1  0.50000000  0.16517638  0.60030404  1
  Te  Te30  1  0.50000000  0.33482362  0.10030404  1
  Te  Te31  1  0.50000000  0.66517638  0.89969596  1
  Te  Te32  1  -0.00000000  0.61049477  0.29340854  1
  Te  Te33  1  -0.00000000  0.38950523  0.70659146  1
  Te  Te34  1  -0.00000000  0.11049477  0.20659146  1
  Te  Te35  1  0.00000000  0.88950523  0.79340854  1
