# generated using pymatgen
data_LuCo3P2
_symmetry_space_group_name_H-M   'P 1'
_cell_length_a   3.64604450
_cell_length_b   10.45504132
_cell_length_c   12.04212807
_cell_angle_alpha   90.00000000
_cell_angle_beta   90.00000000
_cell_angle_gamma   90.00000000
_symmetry_Int_Tables_number   1
_chemical_formula_structural   LuCo3P2
_chemical_formula_sum   'Lu6 Co18 P12'
_cell_volume   459.04045372
_cell_formula_units_Z   6
loop_
 _symmetry_equiv_pos_site_id
 _symmetry_equiv_pos_as_xyz
  1  'x, y, z'
loop_
 _atom_site_type_symbol
 _atom_site_label
 _atom_site_symmetry_multiplicity
 _atom_site_fract_x
 _atom_site_fract_y
 _atom_site_fract_z
 _atom_site_occupancy
  Lu  Lu0  1  0.75000000  0.25000000  0.47738245  1
  Lu  Lu1  1  0.25000000  0.75000000  0.52261755  1
  Lu  Lu2  1  0.25000000  0.93085791  0.79378101  1
  Lu  Lu3  1  0.25000000  0.56914209  0.79378101  1
  Lu  Lu4  1  0.75000000  0.06914209  0.20621899  1
  Lu  Lu5  1  0.75000000  0.43085791  0.20621899  1
  Co  Co6  1  0.25000000  0.25000000  0.83981900  1
  Co  Co7  1  0.75000000  0.75000000  0.16018100  1
  Co  Co8  1  0.25000000  0.25000000  0.29644262  1
  Co  Co9  1  0.75000000  0.75000000  0.70355738  1
  Co  Co10  1  0.75000000  0.25000000  0.01250103  1
  Co  Co11  1  0.25000000  0.75000000  0.98749897  1
  Co  Co12  1  0.25000000  0.41700733  0.00520896  1
  Co  Co13  1  0.25000000  0.08299267  0.00520896  1
  Co  Co14  1  0.75000000  0.58299267  0.99479104  1
  Co  Co15  1  0.75000000  0.91700733  0.99479104  1
  Co  Co16  1  0.25000000  0.45268800  0.56894905  1
  Co  Co17  1  0.25000000  0.04731200  0.56894905  1
  Co  Co18  1  0.75000000  0.54731200  0.43105095  1
  Co  Co19  1  0.75000000  0.95268800  0.43105095  1
  Co  Co20  1  0.25000000  0.87220727  0.29107280  1
  Co  Co21  1  0.25000000  0.62779273  0.29107280  1
  Co  Co22  1  0.75000000  0.12779273  0.70892720  1
  Co  Co23  1  0.75000000  0.37220727  0.70892720  1
  P  P24  1  0.25000000  0.25000000  0.11733413  1
  P  P25  1  0.75000000  0.75000000  0.88266587  1
  P  P26  1  0.25000000  0.25000000  0.65392829  1
  P  P27  1  0.75000000  0.75000000  0.34607171  1
  P  P28  1  0.25000000  0.43717791  0.38312564  1
  P  P29  1  0.25000000  0.06282209  0.38312564  1
  P  P30  1  0.75000000  0.56282209  0.61687436  1
  P  P31  1  0.75000000  0.93717791  0.61687436  1
  P  P32  1  0.25000000  0.90404286  0.10873840  1
  P  P33  1  0.25000000  0.59595714  0.10873840  1
  P  P34  1  0.75000000  0.09595714  0.89126160  1
  P  P35  1  0.75000000  0.40404286  0.89126160  1
