# generated using pymatgen
data_Li4MnCo2O7
_symmetry_space_group_name_H-M   'P 1'
_cell_length_a   2.97155124
_cell_length_b   5.96416877
_cell_length_c   14.31517188
_cell_angle_alpha   82.94021208
_cell_angle_beta   95.44454828
_cell_angle_gamma   94.01087117
_symmetry_Int_Tables_number   1
_chemical_formula_structural   Li4MnCo2O7
_chemical_formula_sum   'Li8 Mn2 Co4 O14'
_cell_volume   250.20943853
_cell_formula_units_Z   2
loop_
 _symmetry_equiv_pos_site_id
 _symmetry_equiv_pos_as_xyz
  1  'x, y, z'
loop_
 _atom_site_type_symbol
 _atom_site_label
 _atom_site_symmetry_multiplicity
 _atom_site_fract_x
 _atom_site_fract_y
 _atom_site_fract_z
 _atom_site_occupancy
  Li  Li0  1  0.00544866  0.50331058  0.00456070  1
  Li  Li1  1  0.57790944  0.20341194  0.14749510  1
  Li  Li2  1  0.13715776  0.92344019  0.27820803  1
  Li  Li3  1  0.42609252  0.78713215  0.85524145  1
  Li  Li4  1  0.85722931  0.07126291  0.71376842  1
  Li  Li5  1  0.28597050  0.35862475  0.57267659  1
  Li  Li6  1  0.71176669  0.64335954  0.42690346  1
  Li  Li7  1  0.56599515  0.72353093  0.14585577  1
  Mn  Mn8  1  0.00555284  0.99318955  0.00397391  1
  Mn  Mn9  1  0.71228903  0.14313165  0.42771607  1
  Co  Co10  1  0.13244493  0.44197943  0.27849196  1
  Co  Co11  1  0.28918286  0.85500224  0.57228776  1
  Co  Co12  1  0.85717417  0.57118597  0.71477140  1
  Co  Co13  1  0.43595629  0.28390144  0.85607466  1
  O  O14  1  0.52197717  0.22451604  0.99374580  1
  O  O15  1  0.06129374  0.97049049  0.13219492  1
  O  O16  1  0.61735826  0.65976509  0.28609338  1
  O  O17  1  0.89887252  0.52354499  0.85221799  1
  O  O18  1  0.32854008  0.80957332  0.70832848  1
  O  O19  1  0.75669410  0.09832441  0.56730865  1
  O  O20  1  0.18633668  0.38748589  0.41849470  1
  O  O21  1  0.47706290  0.78027769  0.99916264  1
  O  O22  1  0.08116334  0.45820146  0.15541198  1
  O  O23  1  0.66833631  0.18894383  0.29055343  1
  O  O24  1  0.96185471  0.04962085  0.86213145  1
  O  O25  1  0.38309102  0.33377503  0.72089324  1
  O  O26  1  0.81589758  0.61641048  0.57892510  1
  O  O27  1  0.24135146  0.89660717  0.43651293  1
