# generated using pymatgen
data_Eu4BClO7
_symmetry_space_group_name_H-M   'P 1'
_cell_length_a   8.31218492
_cell_length_b   8.92022985
_cell_length_c   11.03620609
_cell_angle_alpha   101.98316143
_cell_angle_beta   90.00000000
_cell_angle_gamma   90.00000000
_symmetry_Int_Tables_number   1
_chemical_formula_structural   Eu4BClO7
_chemical_formula_sum   'Eu16 B4 Cl4 O28'
_cell_volume   800.46536812
_cell_formula_units_Z   4
loop_
 _symmetry_equiv_pos_site_id
 _symmetry_equiv_pos_as_xyz
  1  'x, y, z'
loop_
 _atom_site_type_symbol
 _atom_site_label
 _atom_site_symmetry_multiplicity
 _atom_site_fract_x
 _atom_site_fract_y
 _atom_site_fract_z
 _atom_site_occupancy
  Eu  Eu0  1  0.36991332  0.97983812  0.78201810  1
  Eu  Eu1  1  0.13008668  0.47983812  0.28201810  1
  Eu  Eu2  1  0.63008668  0.02016188  0.21798190  1
  Eu  Eu3  1  0.86991332  0.52016188  0.71798190  1
  Eu  Eu4  1  0.38122054  0.67193068  0.08236340  1
  Eu  Eu5  1  0.11877946  0.17193068  0.58236340  1
  Eu  Eu6  1  0.61877946  0.32806932  0.91763660  1
  Eu  Eu7  1  0.88122054  0.82806932  0.41763660  1
  Eu  Eu8  1  0.36546986  0.84331480  0.42218037  1
  Eu  Eu9  1  0.13453014  0.34331480  0.92218037  1
  Eu  Eu10  1  0.63453014  0.15668520  0.57781963  1
  Eu  Eu11  1  0.86546986  0.65668520  0.07781963  1
  Eu  Eu12  1  0.38572678  0.53727432  0.71902619  1
  Eu  Eu13  1  0.11427322  0.03727432  0.21902619  1
  Eu  Eu14  1  0.61427322  0.46272568  0.28097381  1
  Eu  Eu15  1  0.88572678  0.96272568  0.78097381  1
  B  B16  1  0.12854882  0.71863153  0.58628752  1
  B  B17  1  0.37145118  0.21863153  0.08628752  1
  B  B18  1  0.87145118  0.28136847  0.41371248  1
  B  B19  1  0.62854882  0.78136847  0.91371248  1
  Cl  Cl20  1  0.13593255  0.84628864  0.96376548  1
  Cl  Cl21  1  0.36406745  0.34628864  0.46376548  1
  Cl  Cl22  1  0.86406745  0.15371136  0.03623452  1
  Cl  Cl23  1  0.63593255  0.65371136  0.53623452  1
  O  O24  1  0.37700175  0.05416622  0.59492955  1
  O  O25  1  0.12299825  0.55416622  0.09492955  1
  O  O26  1  0.62299825  0.94583378  0.40507045  1
  O  O27  1  0.87700175  0.44583378  0.90507045  1
  O  O28  1  0.36450021  0.91512513  0.22294306  1
  O  O29  1  0.13549979  0.41512513  0.72294306  1
  O  O30  1  0.63549979  0.08487487  0.77705694  1
  O  O31  1  0.86450021  0.58487487  0.27705694  1
  O  O32  1  0.38330604  0.60639514  0.27882329  1
  O  O33  1  0.11669396  0.10639514  0.77882329  1
  O  O34  1  0.61669396  0.39360486  0.72117671  1
  O  O35  1  0.88330604  0.89360486  0.22117671  1
  O  O36  1  0.37620773  0.47449814  0.90975450  1
  O  O37  1  0.12379227  0.97449814  0.40975450  1
  O  O38  1  0.62379227  0.52550186  0.09024550  1
  O  O39  1  0.87620773  0.02550186  0.59024550  1
  O  O40  1  0.11989869  0.67876349  0.45861263  1
  O  O41  1  0.38010131  0.17876349  0.95861263  1
  O  O42  1  0.88010131  0.32123651  0.54138737  1
  O  O43  1  0.61989869  0.82123651  0.04138737  1
  O  O44  1  0.98927474  0.73353091  0.65404360  1
  O  O45  1  0.51072526  0.23353091  0.15404360  1
  O  O46  1  0.01072526  0.26646909  0.34595640  1
  O  O47  1  0.48927474  0.76646909  0.84595640  1
  O  O48  1  0.27691709  0.75040473  0.64003037  1
  O  O49  1  0.22308291  0.25040473  0.14003037  1
  O  O50  1  0.72308291  0.24959527  0.35996963  1
  O  O51  1  0.77691709  0.74959527  0.85996963  1
