# generated using pymatgen
data_NiSb2H12(O3F4)2
_symmetry_space_group_name_H-M   'P 1'
_cell_length_a   5.14761346
_cell_length_b   6.95295248
_cell_length_c   18.21622491
_cell_angle_alpha   90.00000000
_cell_angle_beta   90.00000000
_cell_angle_gamma   100.85183741
_symmetry_Int_Tables_number   1
_chemical_formula_structural   NiSb2H12(O3F4)2
_chemical_formula_sum   'Ni2 Sb4 H24 O12 F16'
_cell_volume   640.31980929
_cell_formula_units_Z   2
loop_
 _symmetry_equiv_pos_site_id
 _symmetry_equiv_pos_as_xyz
  1  'x, y, z'
loop_
 _atom_site_type_symbol
 _atom_site_label
 _atom_site_symmetry_multiplicity
 _atom_site_fract_x
 _atom_site_fract_y
 _atom_site_fract_z
 _atom_site_occupancy
  Ni  Ni0  1  0.50000000  0.00000000  0.50000000  1
  Ni  Ni1  1  -0.00000000  0.50000000  -0.00000000  1
  Sb  Sb2  1  0.59551345  0.47915527  0.28481357  1
  Sb  Sb3  1  0.90448655  0.02084473  0.78481357  1
  Sb  Sb4  1  0.40448655  0.52084473  0.71518643  1
  Sb  Sb5  1  0.09551345  0.97915527  0.21518643  1
  H  H6  1  0.80376029  0.03230827  0.37774596  1
  H  H7  1  0.69623971  0.46769173  0.87774596  1
  H  H8  1  0.19623971  0.96769173  0.62225404  1
  H  H9  1  0.30376029  0.53230827  0.12225404  1
  H  H10  1  0.15933408  0.86091400  0.38764429  1
  H  H11  1  0.34066592  0.63908600  0.88764429  1
  H  H12  1  0.84066592  0.13908600  0.61235571  1
  H  H13  1  0.65933408  0.36091400  0.11235571  1
  H  H14  1  0.33725928  0.70818521  0.40955603  1
  H  H15  1  0.16274072  0.79181479  0.90955603  1
  H  H16  1  0.66274072  0.29181479  0.59044397  1
  H  H17  1  0.83725928  0.20818521  0.09044397  1
  H  H18  1  0.38590798  0.32296659  0.44399592  1
  H  H19  1  0.11409202  0.17703341  0.94399592  1
  H  H20  1  0.61409202  0.67703341  0.55600408  1
  H  H21  1  0.88590798  0.82296659  0.05600408  1
  H  H22  1  0.93860887  0.16654204  0.44187571  1
  H  H23  1  0.56139113  0.33345796  0.94187571  1
  H  H24  1  0.06139113  0.83345796  0.55812429  1
  H  H25  1  0.43860887  0.66654204  0.05812429  1
  H  H26  1  0.29422688  0.30858724  0.52604826  1
  H  H27  1  0.20577312  0.19141276  0.02604826  1
  H  H28  1  0.70577312  0.69141276  0.47395174  1
  H  H29  1  0.79422688  0.80858724  0.97395174  1
  O  O30  1  0.76581669  0.11657807  0.41872978  1
  O  O31  1  0.73418331  0.38342193  0.91872978  1
  O  O32  1  0.23418331  0.88342193  0.58127022  1
  O  O33  1  0.26581669  0.61657807  0.08127022  1
  O  O34  1  0.25626894  0.81545071  0.42911113  1
  O  O35  1  0.24373106  0.68454929  0.92911113  1
  O  O36  1  0.74373106  0.18454929  0.57088887  1
  O  O37  1  0.75626894  0.31545071  0.07088887  1
  O  O38  1  0.28776049  0.22996110  0.48040794  1
  O  O39  1  0.21223951  0.27003890  0.98040794  1
  O  O40  1  0.71223951  0.77003890  0.51959206  1
  O  O41  1  0.78776049  0.72996110  0.01959206  1
  F  F42  1  0.44407758  0.39156694  0.17962402  1
  F  F43  1  0.05592242  0.10843306  0.67962402  1
  F  F44  1  0.55592242  0.60843306  0.82037598  1
  F  F45  1  0.94407758  0.89156694  0.32037598  1
  F  F46  1  0.55062519  0.53794650  0.40167830  1
  F  F47  1  0.94937481  0.96205350  0.90167830  1
  F  F48  1  0.44937481  0.46205350  0.59832170  1
  F  F49  1  0.05062519  0.03794650  0.09832170  1
  F  F50  1  0.32001643  0.24930546  0.31215885  1
  F  F51  1  0.17998357  0.25069454  0.81215885  1
  F  F52  1  0.67998357  0.75069454  0.68784115  1
  F  F53  1  0.82001643  0.74930546  0.18784115  1
  F  F54  1  0.83025093  0.14676437  0.22068652  1
  F  F55  1  0.66974907  0.35323563  0.72068652  1
  F  F56  1  0.16974907  0.85323563  0.77931348  1
  F  F57  1  0.33025093  0.64676437  0.27931348  1
