# generated using pymatgen
data_Sr10Sb16H6Se7O30
_symmetry_space_group_name_H-M   'P 1'
_cell_length_a   11.52648950
_cell_length_b   13.31023386
_cell_length_c   18.93023593
_cell_angle_alpha   90.00000000
_cell_angle_beta   90.00000000
_cell_angle_gamma   108.29486795
_symmetry_Int_Tables_number   1
_chemical_formula_structural   Sr10Sb16H6Se7O30
_chemical_formula_sum   'Sr20 Sb32 H12 Se14 O60'
_cell_volume   2757.48092185
_cell_formula_units_Z   2
loop_
 _symmetry_equiv_pos_site_id
 _symmetry_equiv_pos_as_xyz
  1  'x, y, z'
loop_
 _atom_site_type_symbol
 _atom_site_label
 _atom_site_symmetry_multiplicity
 _atom_site_fract_x
 _atom_site_fract_y
 _atom_site_fract_z
 _atom_site_occupancy
  Sr  Sr0  1  0.84450577  0.65960950  0.26620220  1
  Sr  Sr1  1  0.34450577  0.15960950  0.23379780  1
  Sr  Sr2  1  0.15549423  0.34039050  0.73379780  1
  Sr  Sr3  1  0.65549423  0.84039050  0.76620220  1
  Sr  Sr4  1  0.09602059  0.54744945  0.15719091  1
  Sr  Sr5  1  0.59602059  0.04744945  0.34280909  1
  Sr  Sr6  1  0.90397941  0.45255055  0.84280909  1
  Sr  Sr7  1  0.40397941  0.95255055  0.65719091  1
  Sr  Sr8  1  0.01651110  0.27654738  0.27507291  1
  Sr  Sr9  1  0.51651110  0.77654738  0.22492709  1
  Sr  Sr10  1  0.98348890  0.72345262  0.72492709  1
  Sr  Sr11  1  0.48348890  0.22345262  0.77507291  1
  Sr  Sr12  1  0.17972847  0.82960543  0.25577533  1
  Sr  Sr13  1  0.67972847  0.32960543  0.24422467  1
  Sr  Sr14  1  0.82027153  0.17039457  0.74422467  1
  Sr  Sr15  1  0.32027153  0.67039457  0.75577533  1
  Sr  Sr16  1  0.35329836  0.44651854  0.27315518  1
  Sr  Sr17  1  0.85329836  0.94651854  0.22684482  1
  Sr  Sr18  1  0.64670164  0.55348146  0.72684482  1
  Sr  Sr19  1  0.14670164  0.05348146  0.77315518  1
  Sb  Sb20  1  0.26887034  0.01700020  0.40857096  1
  Sb  Sb21  1  0.76887034  0.51700020  0.09142904  1
  Sb  Sb22  1  0.73112966  0.98299980  0.59142904  1
  Sb  Sb23  1  0.23112966  0.48299980  0.90857096  1
  Sb  Sb24  1  0.48846616  0.27995083  0.40020401  1
  Sb  Sb25  1  0.98846616  0.77995083  0.09979599  1
  Sb  Sb26  1  0.51153384  0.72004917  0.59979599  1
  Sb  Sb27  1  0.01153384  0.22004917  0.90020401  1
  Sb  Sb28  1  0.81953019  0.32117430  0.41070312  1
  Sb  Sb29  1  0.31953019  0.82117430  0.08929688  1
  Sb  Sb30  1  0.18046981  0.67882570  0.58929688  1
  Sb  Sb31  1  0.68046981  0.17882570  0.91070312  1
  Sb  Sb32  1  0.92961721  0.07021013  0.40329719  1
  Sb  Sb33  1  0.42961721  0.57021013  0.09670281  1
  Sb  Sb34  1  0.07038279  0.92978987  0.59670281  1
  Sb  Sb35  1  0.57038279  0.42978987  0.90329719  1
  Sb  Sb36  1  0.30313824  0.19175048  0.61217438  1
  Sb  Sb37  1  0.80313824  0.69175048  0.88782562  1
  Sb  Sb38  1  0.69686176  0.80824952  0.38782562  1
  Sb  Sb39  1  0.19686176  0.30824952  0.11217438  1
  Sb  Sb40  1  0.37046123  0.78644264  0.41007960  1
  Sb  Sb41  1  0.87046123  0.28644264  0.08992040  1
  Sb  Sb42  1  0.62953877  0.21355736  0.58992040  1
  Sb  Sb43  1  0.12953877  0.71355736  0.91007960  1
  Sb  Sb44  1  0.11768356  0.57323185  0.34230499  1
  Sb  Sb45  1  0.61768356  0.07323185  0.15769501  1
  Sb  Sb46  1  0.88231644  0.42676815  0.65769501  1
  Sb  Sb47  1  0.38231644  0.92676815  0.84230499  1
  Sb  Sb48  1  0.10880000  0.35342325  0.51302160  1
  Sb  Sb49  1  0.60880000  0.85342325  0.98697840  1
  Sb  Sb50  1  0.89120000  0.64657675  0.48697840  1
  Sb  Sb51  1  0.39120000  0.14657675  0.01302160  1
  H  H52  1  0.11392127  0.04026194  0.30865787  1
  H  H53  1  0.61392127  0.54026194  0.19134213  1
  H  H54  1  0.88607873  0.95973806  0.69134213  1
  H  H55  1  0.38607873  0.45973806  0.80865787  1
  H  H56  1  0.62793326  0.49308657  0.56307082  1
  H  H57  1  0.12793326  0.99308657  0.93692918  1
  H  H58  1  0.37206674  0.50691343  0.43692918  1
  H  H59  1  0.87206674  0.00691343  0.06307082  1
  H  H60  1  0.49300046  0.45122963  0.58987167  1
  H  H61  1  0.99300046  0.95122963  0.91012833  1
  H  H62  1  0.50699954  0.54877037  0.41012833  1
  H  H63  1  0.00699954  0.04877037  0.08987167  1
  Se  Se64  1  0.29534366  0.46784897  0.58633004  1
  Se  Se65  1  0.79534366  0.96784897  0.91366996  1
  Se  Se66  1  0.70465634  0.53215103  0.41366996  1
  Se  Se67  1  0.20465634  0.03215103  0.08633004  1
  Se  Se68  1  0.20062733  0.27032113  0.41218410  1
  Se  Se69  1  0.70062733  0.77032113  0.08781590  1
  Se  Se70  1  0.79937267  0.72967887  0.58781590  1
  Se  Se71  1  0.29937267  0.22967887  0.91218410  1
  Se  Se72  1  0.02781212  0.19037356  0.59610116  1
  Se  Se73  1  0.52781212  0.69037356  0.90389884  1
  Se  Se74  1  0.97218788  0.80962644  0.40389884  1
  Se  Se75  1  0.47218788  0.30962644  0.09610116  1
  Se  Se76  1  0.50000000  -0.00000000  0.50000000  1
  Se  Se77  1  0.00000000  0.50000000  -0.00000000  1
  O  O78  1  0.32295463  0.90322681  0.36155404  1
  O  O79  1  0.82295463  0.40322681  0.13844596  1
  O  O80  1  0.67704537  0.09677319  0.63844596  1
  O  O81  1  0.17704537  0.59677319  0.86155404  1
  O  O82  1  0.40831273  0.12884733  0.36486606  1
  O  O83  1  0.90831273  0.62884733  0.13513394  1
  O  O84  1  0.59168727  0.87115267  0.63513394  1
  O  O85  1  0.09168727  0.37115267  0.86486606  1
  O  O86  1  0.64792538  0.24956213  0.37477738  1
  O  O87  1  0.14792538  0.74956213  0.12522262  1
  O  O88  1  0.35207462  0.75043787  0.62522262  1
  O  O89  1  0.85207462  0.25043787  0.87477738  1
  O  O90  1  0.85342466  0.18460090  0.38175427  1
  O  O91  1  0.35342466  0.68460090  0.11824573  1
  O  O92  1  0.14657534  0.81539910  0.61824573  1
  O  O93  1  0.64657534  0.31539910  0.88175427  1
  O  O94  1  0.76510716  0.96576877  0.37268012  1
  O  O95  1  0.26510716  0.46576877  0.12731988  1
  O  O96  1  0.23489284  0.03423123  0.62731988  1
  O  O97  1  0.73489284  0.53423123  0.87268012  1
  O  O98  1  0.47390059  0.17275757  0.64384686  1
  O  O99  1  0.97390059  0.67275757  0.85615314  1
  O  O100  1  0.52609941  0.82724243  0.35615314  1
  O  O101  1  0.02609941  0.32724243  0.14384686  1
  O  O102  1  0.28203520  0.22286869  0.71134632  1
  O  O103  1  0.78203520  0.72286869  0.78865368  1
  O  O104  1  0.71796480  0.77713131  0.28865368  1
  O  O105  1  0.21796480  0.27713131  0.21134632  1
  O  O106  1  0.99028642  0.07869364  0.30574656  1
  O  O107  1  0.49028642  0.57869364  0.19425344  1
  O  O108  1  0.00971358  0.92130636  0.69425344  1
  O  O109  1  0.50971358  0.42130636  0.80574656  1
  O  O110  1  0.87586467  0.37803812  0.31835590  1
  O  O111  1  0.37586467  0.87803812  0.18164410  1
  O  O112  1  0.12413533  0.62196188  0.68164410  1
  O  O113  1  0.62413533  0.12196188  0.81835590  1
  O  O114  1  0.47646417  0.32944855  0.30422645  1
  O  O115  1  0.97646417  0.82944855  0.19577355  1
  O  O116  1  0.52353583  0.67055145  0.69577355  1
  O  O117  1  0.02353583  0.17055145  0.80422645  1
  O  O118  1  0.28139533  0.69577782  0.32757879  1
  O  O119  1  0.78139533  0.19577782  0.17242121  1
  O  O120  1  0.71860467  0.30422218  0.67242121  1
  O  O121  1  0.21860467  0.80422218  0.82757879  1
  O  O122  1  0.04684397  0.63771624  0.26845613  1
  O  O123  1  0.54684397  0.13771624  0.23154387  1
  O  O124  1  0.95315603  0.36228376  0.73154387  1
  O  O125  1  0.45315603  0.86228376  0.76845613  1
  O  O126  1  0.15489695  0.47449188  0.27695088  1
  O  O127  1  0.65489695  0.97449188  0.22304912  1
  O  O128  1  0.84510305  0.52550812  0.72304912  1
  O  O129  1  0.34510305  0.02550812  0.77695088  1
  O  O130  1  0.18941838  0.01555640  0.30838236  1
  O  O131  1  0.68941838  0.51555640  0.19161764  1
  O  O132  1  0.81058162  0.98444360  0.69161764  1
  O  O133  1  0.31058162  0.48444360  0.80838236  1
  O  O134  1  0.57830125  0.45439616  0.60223423  1
  O  O135  1  0.07830125  0.95439616  0.89776577  1
  O  O136  1  0.42169875  0.54560384  0.39776577  1
  O  O137  1  0.92169875  0.04560384  0.10223423  1
