# generated using pymatgen
data_Ho6H40N8O49
_symmetry_space_group_name_H-M   'P 1'
_cell_length_a   10.23852387
_cell_length_b   10.19685568
_cell_length_c   11.43104162
_cell_angle_alpha   108.94895413
_cell_angle_beta   95.44303322
_cell_angle_gamma   111.33455784
_symmetry_Int_Tables_number   1
_chemical_formula_structural   Ho6H40N8O49
_chemical_formula_sum   'Ho6 H40 N8 O49'
_cell_volume   1020.19615590
_cell_formula_units_Z   1
loop_
 _symmetry_equiv_pos_site_id
 _symmetry_equiv_pos_as_xyz
  1  'x, y, z'
loop_
 _atom_site_type_symbol
 _atom_site_label
 _atom_site_symmetry_multiplicity
 _atom_site_fract_x
 _atom_site_fract_y
 _atom_site_fract_z
 _atom_site_occupancy
  Ho  Ho0  1  0.52308379  0.26247999  0.38339380  1
  Ho  Ho1  1  0.47691621  0.73752001  0.61660620  1
  Ho  Ho2  1  0.23925813  0.34752350  0.47809980  1
  Ho  Ho3  1  0.76074187  0.65247650  0.52190020  1
  Ho  Ho4  1  0.43323224  0.51860908  0.29325972  1
  Ho  Ho5  1  0.56676776  0.48139092  0.70674028  1
  H  H6  1  0.25872721  0.19250833  0.21060011  1
  H  H7  1  0.74127279  0.80749167  0.78939989  1
  H  H8  1  0.35252409  0.15556041  0.55380728  1
  H  H9  1  0.64747591  0.84443959  0.44619272  1
  H  H10  1  0.20980873  0.58974808  0.40831449  1
  H  H11  1  0.79019127  0.41025192  0.59168551  1
  H  H12  1  0.67699209  0.44397746  0.24502942  1
  H  H13  1  0.32300791  0.55602254  0.75497058  1
  H  H14  1  0.45420661  0.03189927  0.12845736  1
  H  H15  1  0.54579339  0.96810073  0.87154264  1
  H  H16  1  0.59762315  0.16351182  0.12549730  1
  H  H17  1  0.40237685  0.83648818  0.87450270  1
  H  H18  1  0.24000797  0.98842382  0.29872771  1
  H  H19  1  0.75999203  0.01157618  0.70127229  1
  H  H20  1  0.35094385  0.91028560  0.29258771  1
  H  H21  1  0.64905615  0.08971440  0.70741229  1
  H  H22  1  0.01404658  0.04275911  0.30816064  1
  H  H23  1  0.98595342  0.95724089  0.69183936  1
  H  H24  1  0.06042038  0.98099996  0.40479106  1
  H  H25  1  0.93957962  0.01900004  0.59520894  1
  H  H26  1  0.93602891  0.26094171  0.31120867  1
  H  H27  1  0.06397109  0.73905829  0.68879133  1
  H  H28  1  0.06052764  0.31660213  0.23975294  1
  H  H29  1  0.93947236  0.68339787  0.76024706  1
  H  H30  1  0.15819991  0.51212488  0.14322257  1
  H  H31  1  0.84180009  0.48787512  0.85677743  1
  H  H32  1  0.16048566  0.35531753  0.06620483  1
  H  H33  1  0.83951434  0.64468247  0.93379517  1
  H  H34  1  0.42133101  0.35665653  0.00583206  1
  H  H35  1  0.57866899  0.64334347  0.99416794  1
  H  H36  1  0.41496402  0.24869138  0.07992072  1
  H  H37  1  0.58503598  0.75130862  0.92007928  1
  H  H38  1  0.00779945  0.27114365  0.88884429  1
  H  H39  1  0.99220055  0.72885635  0.11115571  1
  H  H40  1  0.14667361  0.26091575  0.85094517  1
  H  H41  1  0.85332639  0.73908425  0.14905483  1
  H  H42  1  0.19634776  0.97092353  0.00849098  1
  H  H43  1  0.80365224  0.02907647  0.99150902  1
  H  H44  1  0.07484773  0.96406117  0.07915368  1
  H  H45  1  0.92515227  0.03593883  0.92084632  1
  N  N46  1  0.71956928  0.10934383  0.39786841  1
  N  N47  1  0.28043072  0.89065617  0.60213159  1
  N  N48  1  0.02006383  0.31982790  0.62902556  1
  N  N49  1  0.97993617  0.68017210  0.37097444  1
  N  N50  1  0.49561250  0.75510774  0.18470945  1
  N  N51  1  0.50438750  0.24489226  0.81529055  1
  N  N52  1  0.78424524  0.32213855  0.04089254  1
  N  N53  1  0.21575476  0.67786145  0.95910746  1
  O  O54  1  0.50000000  0.50000000  0.50000000  1
  O  O55  1  0.31885400  0.27828078  0.29313352  1
  O  O56  1  0.68114600  0.72171922  0.70686648  1
  O  O57  1  0.39378671  0.25249887  0.54287992  1
  O  O58  1  0.60621329  0.74750113  0.45712008  1
  O  O59  1  0.29018006  0.56718104  0.43436248  1
  O  O60  1  0.70981994  0.43281896  0.56563752  1
  O  O61  1  0.63432995  0.46290802  0.31936819  1
  O  O62  1  0.36567005  0.53709198  0.68063181  1
  O  O63  1  0.50429437  0.14235994  0.15286728  1
  O  O64  1  0.49570563  0.85764006  0.84713272  1
  O  O65  1  0.33882890  0.00186246  0.29305528  1
  O  O66  1  0.66117110  0.99813754  0.70694472  1
  O  O67  1  0.09850265  0.05646097  0.36690279  1
  O  O68  1  0.90149735  0.94353903  0.63309721  1
  O  O69  1  0.03276760  0.26787212  0.30084278  1
  O  O70  1  0.96723240  0.73212788  0.69915722  1
  O  O71  1  0.18160491  0.43139158  0.15520390  1
  O  O72  1  0.81839509  0.56860842  0.84479610  1
  O  O73  1  0.40292882  0.34135681  0.08427881  1
  O  O74  1  0.59707118  0.65864319  0.91572119  1
  O  O75  1  0.08124709  0.23430431  0.90470906  1
  O  O76  1  0.91875291  0.76569569  0.09529094  1
  O  O77  1  0.15767654  0.03659447  0.06333109  1
  O  O78  1  0.84232346  0.96340553  0.93666891  1
  O  O79  1  0.60857144  0.08972186  0.44390003  1
  O  O80  1  0.39142856  0.91027814  0.55609997  1
  O  O81  1  0.75326847  0.20940897  0.34802470  1
  O  O82  1  0.24673153  0.79059103  0.65197530  1
  O  O83  1  0.79114096  0.03348977  0.40092264  1
  O  O84  1  0.20885904  0.96651023  0.59907736  1
  O  O85  1  0.04765769  0.41005295  0.57033389  1
  O  O86  1  0.95234231  0.58994705  0.42966611  1
  O  O87  1  0.09611329  0.24174772  0.62235750  1
  O  O88  1  0.90388671  0.75825228  0.37764250  1
  O  O89  1  0.92373899  0.30596986  0.68862151  1
  O  O90  1  0.07626101  0.69403014  0.31137849  1
  O  O91  1  0.54893345  0.65509273  0.15866871  1
  O  O92  1  0.45106655  0.34490727  0.84133129  1
  O  O93  1  0.40930079  0.74444981  0.25830781  1
  O  O94  1  0.59069921  0.25555019  0.74169219  1
  O  O95  1  0.52752163  0.85528477  0.14001607  1
  O  O96  1  0.47247837  0.14471523  0.85998393  1
  O  O97  1  0.74592784  0.42581044  0.09797506  1
  O  O98  1  0.25407216  0.57418956  0.90202494  1
  O  O99  1  0.85458123  0.33442788  0.95763768  1
  O  O100  1  0.14541877  0.66557212  0.04236232  1
  O  O101  1  0.74965451  0.20279519  0.06831474  1
  O  O102  1  0.25034549  0.79720481  0.93168526  1
