# generated using pymatgen
data_TaH9N3F5
_symmetry_space_group_name_H-M   'P 1'
_cell_length_a   5.47069294
_cell_length_b   10.49266436
_cell_length_c   12.16334719
_cell_angle_alpha   90.00000000
_cell_angle_beta   90.00000000
_cell_angle_gamma   94.29622137
_symmetry_Int_Tables_number   1
_chemical_formula_structural   TaH9N3F5
_chemical_formula_sum   'Ta4 H36 N12 F20'
_cell_volume   696.24032288
_cell_formula_units_Z   4
loop_
 _symmetry_equiv_pos_site_id
 _symmetry_equiv_pos_as_xyz
  1  'x, y, z'
loop_
 _atom_site_type_symbol
 _atom_site_label
 _atom_site_symmetry_multiplicity
 _atom_site_fract_x
 _atom_site_fract_y
 _atom_site_fract_z
 _atom_site_occupancy
  Ta  Ta0  1  0.53624250  0.73532008  0.13436219  1
  Ta  Ta1  1  0.46375750  0.76467992  0.63436219  1
  Ta  Ta2  1  0.46375750  0.26467992  0.86563781  1
  Ta  Ta3  1  0.53624250  0.23532008  0.36563781  1
  H  H4  1  0.95997512  0.84763222  0.03262048  1
  H  H5  1  0.04002488  0.65236778  0.53262048  1
  H  H6  1  0.04002488  0.15236778  0.96737952  1
  H  H7  1  0.95997512  0.34763222  0.46737952  1
  H  H8  1  0.73262837  0.93214499  0.98834230  1
  H  H9  1  0.26737163  0.56785501  0.48834230  1
  H  H10  1  0.26737163  0.06785501  0.01165770  1
  H  H11  1  0.73262837  0.43214499  0.51165770  1
  H  H12  1  0.77807466  0.79231545  0.93110397  1
  H  H13  1  0.22192534  0.70768455  0.43110397  1
  H  H14  1  0.22192534  0.20768455  0.06889603  1
  H  H15  1  0.77807466  0.29231545  0.56889603  1
  H  H16  1  0.44734845  0.46681019  0.11009562  1
  H  H17  1  0.55265155  0.03318981  0.61009562  1
  H  H18  1  0.55265155  0.53318981  0.88990438  1
  H  H19  1  0.44734845  0.96681019  0.38990438  1
  H  H20  1  0.31238970  0.49699682  0.22746402  1
  H  H21  1  0.68761030  0.00300318  0.72746402  1
  H  H22  1  0.68761030  0.50300318  0.77253598  1
  H  H23  1  0.31238970  0.99699682  0.27253598  1
  H  H24  1  0.18267070  0.53218308  0.10969637  1
  H  H25  1  0.81732930  0.96781692  0.60969637  1
  H  H26  1  0.81732930  0.46781692  0.89030363  1
  H  H27  1  0.18267070  0.03218308  0.39030363  1
  H  H28  1  0.65610910  0.69983760  0.35929385  1
  H  H29  1  0.34389090  0.80016240  0.85929385  1
  H  H30  1  0.34389090  0.30016240  0.64070615  1
  H  H31  1  0.65610910  0.19983760  0.14070615  1
  H  H32  1  0.88822640  0.67226220  0.27855512  1
  H  H33  1  0.11177360  0.82773780  0.77855512  1
  H  H34  1  0.11177360  0.32773780  0.72144488  1
  H  H35  1  0.88822640  0.17226220  0.22144488  1
  H  H36  1  0.67642273  0.55507857  0.30189480  1
  H  H37  1  0.32357727  0.94492143  0.80189480  1
  H  H38  1  0.32357727  0.44492143  0.69810520  1
  H  H39  1  0.67642273  0.05507857  0.19810520  1
  N  N40  1  0.78350770  0.84207699  0.00362638  1
  N  N41  1  0.21649230  0.65792301  0.50362638  1
  N  N42  1  0.21649230  0.15792301  0.99637362  1
  N  N43  1  0.78350770  0.34207699  0.49637362  1
  N  N44  1  0.34747419  0.53133795  0.14976440  1
  N  N45  1  0.65252581  0.96866205  0.64976440  1
  N  N46  1  0.65252581  0.46866205  0.85023560  1
  N  N47  1  0.34747419  0.03133795  0.35023560  1
  N  N48  1  0.70442423  0.65177454  0.28994732  1
  N  N49  1  0.29557577  0.84822546  0.78994732  1
  N  N50  1  0.29557577  0.34822546  0.71005268  1
  N  N51  1  0.70442423  0.15177454  0.21005268  1
  F  F52  1  0.79518954  0.62636422  0.08784858  1
  F  F53  1  0.20481046  0.87363578  0.58784858  1
  F  F54  1  0.20481046  0.37363578  0.91215142  1
  F  F55  1  0.79518954  0.12636422  0.41215142  1
  F  F56  1  0.37895247  0.68561496  0.99227135  1
  F  F57  1  0.62104753  0.81438504  0.49227135  1
  F  F58  1  0.62104753  0.31438504  0.00772865  1
  F  F59  1  0.37895247  0.18561496  0.50772865  1
  F  F60  1  0.36178295  0.89229673  0.09417270  1
  F  F61  1  0.63821705  0.60770327  0.59417270  1
  F  F62  1  0.63821705  0.10770327  0.90582730  1
  F  F63  1  0.36178295  0.39229673  0.40582730  1
  F  F64  1  0.74179871  0.86866308  0.21177192  1
  F  F65  1  0.25820129  0.63133692  0.71177192  1
  F  F66  1  0.25820129  0.13133692  0.78822808  1
  F  F67  1  0.74179871  0.36866308  0.28822808  1
  F  F68  1  0.27563186  0.74182628  0.24745972  1
  F  F69  1  0.72436814  0.75817372  0.74745972  1
  F  F70  1  0.72436814  0.25817372  0.75254028  1
  F  F71  1  0.27563186  0.24182628  0.25254028  1
