# generated using pymatgen
data_ZnSb2Cl2O3
_symmetry_space_group_name_H-M   'P 1'
_cell_length_a   5.68059954
_cell_length_b   6.57009594
_cell_length_c   17.55262452
_cell_angle_alpha   90.00000000
_cell_angle_beta   90.00000000
_cell_angle_gamma   90.00000000
_symmetry_Int_Tables_number   1
_chemical_formula_structural   ZnSb2Cl2O3
_chemical_formula_sum   'Zn4 Sb8 Cl8 O12'
_cell_volume   655.10052631
_cell_formula_units_Z   4
loop_
 _symmetry_equiv_pos_site_id
 _symmetry_equiv_pos_as_xyz
  1  'x, y, z'
loop_
 _atom_site_type_symbol
 _atom_site_label
 _atom_site_symmetry_multiplicity
 _atom_site_fract_x
 _atom_site_fract_y
 _atom_site_fract_z
 _atom_site_occupancy
  Zn  Zn0  1  0.25000000  0.98419549  0.91041683  1
  Zn  Zn1  1  0.25000000  0.51580451  0.41041683  1
  Zn  Zn2  1  0.75000000  0.01580451  0.08958317  1
  Zn  Zn3  1  0.75000000  0.48419549  0.58958317  1
  Sb  Sb4  1  0.25000000  0.82279001  0.61791223  1
  Sb  Sb5  1  0.25000000  0.67720999  0.11791223  1
  Sb  Sb6  1  0.75000000  0.17720999  0.38208777  1
  Sb  Sb7  1  0.75000000  0.32279001  0.88208777  1
  Sb  Sb8  1  0.25000000  0.24777536  0.75896367  1
  Sb  Sb9  1  0.25000000  0.25222464  0.25896367  1
  Sb  Sb10  1  0.75000000  0.75222464  0.24103633  1
  Sb  Sb11  1  0.75000000  0.74777536  0.74103633  1
  Cl  Cl12  1  0.25000000  0.12828469  0.02674488  1
  Cl  Cl13  1  0.25000000  0.37171531  0.52674488  1
  Cl  Cl14  1  0.75000000  0.87171531  0.97325512  1
  Cl  Cl15  1  0.75000000  0.62828469  0.47325512  1
  Cl  Cl16  1  0.25000000  0.65333288  0.87720146  1
  Cl  Cl17  1  0.25000000  0.84666712  0.37720146  1
  Cl  Cl18  1  0.75000000  0.34666712  0.12279854  1
  Cl  Cl19  1  0.75000000  0.15333288  0.62279854  1
  O  O20  1  0.25000000  0.96878226  0.71688102  1
  O  O21  1  0.25000000  0.53121774  0.21688102  1
  O  O22  1  0.75000000  0.03121774  0.28311898  1
  O  O23  1  0.75000000  0.46878226  0.78311898  1
  O  O24  1  0.98189778  0.65104690  0.65936990  1
  O  O25  1  0.51810222  0.84895310  0.15936990  1
  O  O26  1  0.48189778  0.34895310  0.34063010  1
  O  O27  1  0.01810222  0.15104690  0.84063010  1
  O  O28  1  0.01810222  0.34895310  0.34063010  1
  O  O29  1  0.48189778  0.15104690  0.84063010  1
  O  O30  1  0.51810222  0.65104690  0.65936990  1
  O  O31  1  0.98189778  0.84895310  0.15936990  1
