# generated using pymatgen
data_Ca2Al3H3O8
_symmetry_space_group_name_H-M   'P 1'
_cell_length_a   7.85065885
_cell_length_b   7.85065885
_cell_length_c   12.60450727
_cell_angle_alpha   90.00000000
_cell_angle_beta   90.00000000
_cell_angle_gamma   110.74917803
_symmetry_Int_Tables_number   1
_chemical_formula_structural   Ca2Al3H3O8
_chemical_formula_sum   'Ca8 Al12 H12 O32'
_cell_volume   726.46526571
_cell_formula_units_Z   4
loop_
 _symmetry_equiv_pos_site_id
 _symmetry_equiv_pos_as_xyz
  1  'x, y, z'
loop_
 _atom_site_type_symbol
 _atom_site_label
 _atom_site_symmetry_multiplicity
 _atom_site_fract_x
 _atom_site_fract_y
 _atom_site_fract_z
 _atom_site_occupancy
  Ca  Ca0  1  0.35825852  0.64174148  0.50000000  1
  Ca  Ca1  1  0.85825852  0.14174148  0.00000000  1
  Ca  Ca2  1  0.64174148  0.35825852  0.50000000  1
  Ca  Ca3  1  0.14174148  0.85825852  0.00000000  1
  Ca  Ca4  1  0.28925465  0.28925465  0.84920093  1
  Ca  Ca5  1  0.71074535  0.71074535  0.15079907  1
  Ca  Ca6  1  0.21074535  0.21074535  0.34920093  1
  Ca  Ca7  1  0.78925465  0.78925465  0.65079907  1
  Al  Al8  1  0.01407983  0.25951930  0.62962333  1
  Al  Al9  1  0.74048070  0.98592017  0.37037667  1
  Al  Al10  1  0.24048070  0.48592017  0.12962333  1
  Al  Al11  1  0.51407983  0.75951930  0.87037667  1
  Al  Al12  1  0.98592017  0.74048070  0.37037667  1
  Al  Al13  1  0.25951930  0.01407983  0.62962333  1
  Al  Al14  1  0.75951930  0.51407983  0.87037667  1
  Al  Al15  1  0.48592017  0.24048070  0.12962333  1
  Al  Al16  1  0.13884916  0.63884916  0.75000000  1
  Al  Al17  1  0.36115084  0.86115084  0.25000000  1
  Al  Al18  1  0.86115084  0.36115084  0.25000000  1
  Al  Al19  1  0.63884916  0.13884916  0.75000000  1
  H  H20  1  0.16576622  0.51409117  0.95308224  1
  H  H21  1  0.48590883  0.83423378  0.04691776  1
  H  H22  1  0.98590883  0.33423378  0.45308224  1
  H  H23  1  0.66576622  0.01409117  0.54691776  1
  H  H24  1  0.83423378  0.48590883  0.04691776  1
  H  H25  1  0.51409117  0.16576622  0.95308224  1
  H  H26  1  0.01409117  0.66576622  0.54691776  1
  H  H27  1  0.33423378  0.98590883  0.45308224  1
  H  H28  1  0.48103729  0.48103729  0.67432888  1
  H  H29  1  0.51896271  0.51896271  0.32567112  1
  H  H30  1  0.01896271  0.01896271  0.17432888  1
  H  H31  1  0.98103729  0.98103729  0.82567112  1
  O  O32  1  0.27499066  0.71571870  0.86654977  1
  O  O33  1  0.28428130  0.72500934  0.13345023  1
  O  O34  1  0.78428130  0.22500934  0.36654977  1
  O  O35  1  0.77499066  0.21571870  0.63345023  1
  O  O36  1  0.72500934  0.28428130  0.13345023  1
  O  O37  1  0.71571870  0.27499066  0.86654977  1
  O  O38  1  0.21571870  0.77499066  0.63345023  1
  O  O39  1  0.22500934  0.78428130  0.36654977  1
  O  O40  1  0.14328786  0.41850852  0.72382028  1
  O  O41  1  0.58149148  0.85671214  0.27617972  1
  O  O42  1  0.08149148  0.35671214  0.22382028  1
  O  O43  1  0.64328786  0.91850852  0.77617972  1
  O  O44  1  0.85671214  0.58149148  0.27617972  1
  O  O45  1  0.41850852  0.14328786  0.72382028  1
  O  O46  1  0.91850852  0.64328786  0.77617972  1
  O  O47  1  0.35671214  0.08149148  0.22382028  1
  O  O48  1  0.09350564  0.35424925  0.49934482  1
  O  O49  1  0.64575075  0.90649436  0.50065518  1
  O  O50  1  0.14575075  0.40649436  0.99934482  1
  O  O51  1  0.59350564  0.85424925  0.00065518  1
  O  O52  1  0.90649436  0.64575075  0.50065518  1
  O  O53  1  0.35424925  0.09350564  0.49934482  1
  O  O54  1  0.85424925  0.59350564  0.00065518  1
  O  O55  1  0.40649436  0.14575075  0.99934482  1
  O  O56  1  0.05309344  0.05309344  0.64561206  1
  O  O57  1  0.94690656  0.94690656  0.35438794  1
  O  O58  1  0.44690656  0.44690656  0.14561206  1
  O  O59  1  0.55309344  0.55309344  0.85438794  1
  O  O60  1  0.03859869  0.03859869  0.89079627  1
  O  O61  1  0.96140131  0.96140131  0.10920373  1
  O  O62  1  0.46140131  0.46140131  0.39079627  1
  O  O63  1  0.53859869  0.53859869  0.60920373  1
