# generated using pymatgen
data_Ho2Fe3Si5
_symmetry_space_group_name_H-M   'P 1'
_cell_length_a   5.47164864
_cell_length_b   10.36210629
_cell_length_c   10.36210629
_cell_angle_alpha   90.00000000
_cell_angle_beta   90.00000000
_cell_angle_gamma   90.00000000
_symmetry_Int_Tables_number   1
_chemical_formula_structural   Ho2Fe3Si5
_chemical_formula_sum   'Ho8 Fe12 Si20'
_cell_volume   587.50867964
_cell_formula_units_Z   4
loop_
 _symmetry_equiv_pos_site_id
 _symmetry_equiv_pos_as_xyz
  1  'x, y, z'
loop_
 _atom_site_type_symbol
 _atom_site_label
 _atom_site_symmetry_multiplicity
 _atom_site_fract_x
 _atom_site_fract_y
 _atom_site_fract_z
 _atom_site_occupancy
  Ho  Ho0  1  0.50000000  0.73659744  0.56968955  1
  Ho  Ho1  1  0.50000000  0.26340256  0.43031045  1
  Ho  Ho2  1  0.00000000  0.76340256  0.06968955  1
  Ho  Ho3  1  -0.00000000  0.23659744  0.93031045  1
  Ho  Ho4  1  0.50000000  0.56968955  0.26340256  1
  Ho  Ho5  1  0.50000000  0.43031045  0.73659744  1
  Ho  Ho6  1  0.00000000  0.06968955  0.23659744  1
  Ho  Ho7  1  -0.00000000  0.93031045  0.76340256  1
  Fe  Fe8  1  0.50000000  0.85574736  0.87631641  1
  Fe  Fe9  1  0.50000000  0.14425264  0.12368359  1
  Fe  Fe10  1  0.00000000  0.64425264  0.37631641  1
  Fe  Fe11  1  -0.00000000  0.35574736  0.62368359  1
  Fe  Fe12  1  0.50000000  0.87631641  0.14425264  1
  Fe  Fe13  1  0.50000000  0.12368359  0.85574736  1
  Fe  Fe14  1  -0.00000000  0.37631641  0.35574736  1
  Fe  Fe15  1  0.00000000  0.62368359  0.64425264  1
  Fe  Fe16  1  0.25000000  -0.00000000  0.50000000  1
  Fe  Fe17  1  0.75000000  0.50000000  -0.00000000  1
  Fe  Fe18  1  0.25000000  0.50000000  -0.00000000  1
  Fe  Fe19  1  0.75000000  -0.00000000  0.50000000  1
  Si  Si20  1  0.25000000  0.17805304  0.67805304  1
  Si  Si21  1  0.25000000  0.82194696  0.32194696  1
  Si  Si22  1  0.75000000  0.32194696  0.17805304  1
  Si  Si23  1  0.75000000  0.67805304  0.82194696  1
  Si  Si24  1  0.25000000  0.67805304  0.82194696  1
  Si  Si25  1  0.25000000  0.32194696  0.17805304  1
  Si  Si26  1  0.75000000  0.17805304  0.67805304  1
  Si  Si27  1  0.75000000  0.82194696  0.32194696  1
  Si  Si28  1  0.23449499  0.50000000  0.50000000  1
  Si  Si29  1  0.73449499  -0.00000000  -0.00000000  1
  Si  Si30  1  0.76550501  0.50000000  0.50000000  1
  Si  Si31  1  0.26550501  -0.00000000  -0.00000000  1
  Si  Si32  1  0.50000000  0.97845674  0.68035405  1
  Si  Si33  1  0.50000000  0.02154326  0.31964595  1
  Si  Si34  1  -0.00000000  0.52154326  0.18035405  1
  Si  Si35  1  0.00000000  0.47845674  0.81964595  1
  Si  Si36  1  0.50000000  0.68035405  0.02154326  1
  Si  Si37  1  0.50000000  0.31964595  0.97845674  1
  Si  Si38  1  0.00000000  0.18035405  0.47845674  1
  Si  Si39  1  -0.00000000  0.81964595  0.52154326  1
