# generated using pymatgen
data_Hg6P4PbCl6
_symmetry_space_group_name_H-M   'P 1'
_cell_length_a   12.13087316
_cell_length_b   12.13087316
_cell_length_c   12.13087316
_cell_angle_alpha   90.00000000
_cell_angle_beta   90.00000000
_cell_angle_gamma   90.00000000
_symmetry_Int_Tables_number   1
_chemical_formula_structural   Hg6P4PbCl6
_chemical_formula_sum   'Hg24 P16 Pb4 Cl24'
_cell_volume   1785.15604691
_cell_formula_units_Z   4
loop_
 _symmetry_equiv_pos_site_id
 _symmetry_equiv_pos_as_xyz
  1  'x, y, z'
loop_
 _atom_site_type_symbol
 _atom_site_label
 _atom_site_symmetry_multiplicity
 _atom_site_fract_x
 _atom_site_fract_y
 _atom_site_fract_z
 _atom_site_occupancy
  Hg  Hg0  1  0.28473989  0.98445656  0.77640846  1
  Hg  Hg1  1  0.22359154  0.78473989  0.51554344  1
  Hg  Hg2  1  0.48445656  0.72359154  0.71526011  1
  Hg  Hg3  1  0.78473989  0.51554344  0.22359154  1
  Hg  Hg4  1  0.72359154  0.71526011  0.48445656  1
  Hg  Hg5  1  0.98445656  0.77640846  0.28473989  1
  Hg  Hg6  1  0.71526011  0.48445656  0.72359154  1
  Hg  Hg7  1  0.77640846  0.28473989  0.98445656  1
  Hg  Hg8  1  0.51554344  0.22359154  0.78473989  1
  Hg  Hg9  1  0.21526011  0.01554344  0.27640846  1
  Hg  Hg10  1  0.27640846  0.21526011  0.01554344  1
  Hg  Hg11  1  0.01554344  0.27640846  0.21526011  1
  Hg  Hg12  1  0.98601352  0.72984828  0.78346100  1
  Hg  Hg13  1  0.21653900  0.48601352  0.77015172  1
  Hg  Hg14  1  0.22984828  0.71653900  0.01398648  1
  Hg  Hg15  1  0.48601352  0.77015172  0.21653900  1
  Hg  Hg16  1  0.71653900  0.01398648  0.22984828  1
  Hg  Hg17  1  0.72984828  0.78346100  0.98601352  1
  Hg  Hg18  1  0.01398648  0.22984828  0.71653900  1
  Hg  Hg19  1  0.78346100  0.98601352  0.72984828  1
  Hg  Hg20  1  0.77015172  0.21653900  0.48601352  1
  Hg  Hg21  1  0.51398648  0.27015172  0.28346100  1
  Hg  Hg22  1  0.28346100  0.51398648  0.27015172  1
  Hg  Hg23  1  0.27015172  0.28346100  0.51398648  1
  P  P24  1  0.28854871  0.78854871  0.71145129  1
  P  P25  1  0.78854871  0.71145129  0.28854871  1
  P  P26  1  0.71145129  0.28854871  0.78854871  1
  P  P27  1  0.21145129  0.21145129  0.21145129  1
  P  P28  1  0.18334368  0.68334368  0.81665632  1
  P  P29  1  0.68334368  0.81665632  0.18334368  1
  P  P30  1  0.81665632  0.18334368  0.68334368  1
  P  P31  1  0.31665632  0.31665632  0.31665632  1
  P  P32  1  0.81528688  0.31528688  0.18471312  1
  P  P33  1  0.31528688  0.18471312  0.81528688  1
  P  P34  1  0.18471312  0.81528688  0.31528688  1
  P  P35  1  0.68471312  0.68471312  0.68471312  1
  P  P36  1  0.71041407  0.21041407  0.28958593  1
  P  P37  1  0.21041407  0.28958593  0.71041407  1
  P  P38  1  0.28958593  0.71041407  0.21041407  1
  P  P39  1  0.78958593  0.78958593  0.78958593  1
  Pb  Pb40  1  0.47786473  0.97786473  0.52213527  1
  Pb  Pb41  1  0.97786473  0.52213527  0.47786473  1
  Pb  Pb42  1  0.52213527  0.47786473  0.97786473  1
  Pb  Pb43  1  0.02213527  0.02213527  0.02213527  1
  Cl  Cl44  1  0.04206914  0.98572898  0.79567367  1
  Cl  Cl45  1  0.20432633  0.54206914  0.51427102  1
  Cl  Cl46  1  0.48572898  0.70432633  0.95793086  1
  Cl  Cl47  1  0.54206914  0.51427102  0.20432633  1
  Cl  Cl48  1  0.70432633  0.95793086  0.48572898  1
  Cl  Cl49  1  0.98572898  0.79567367  0.04206914  1
  Cl  Cl50  1  0.95793086  0.48572898  0.70432633  1
  Cl  Cl51  1  0.79567367  0.04206914  0.98572898  1
  Cl  Cl52  1  0.51427102  0.20432633  0.54206914  1
  Cl  Cl53  1  0.45793086  0.01427102  0.29567367  1
  Cl  Cl54  1  0.29567367  0.45793086  0.01427102  1
  Cl  Cl55  1  0.01427102  0.29567367  0.45793086  1
  Cl  Cl56  1  0.26860418  0.95358253  0.01995934  1
  Cl  Cl57  1  0.98004066  0.76860418  0.54641747  1
  Cl  Cl58  1  0.45358253  0.48004066  0.73139582  1
  Cl  Cl59  1  0.76860418  0.54641747  0.98004066  1
  Cl  Cl60  1  0.48004066  0.73139582  0.45358253  1
  Cl  Cl61  1  0.95358253  0.01995934  0.26860418  1
  Cl  Cl62  1  0.73139582  0.45358253  0.48004066  1
  Cl  Cl63  1  0.01995934  0.26860418  0.95358253  1
  Cl  Cl64  1  0.54641747  0.98004066  0.76860418  1
  Cl  Cl65  1  0.23139582  0.04641747  0.51995934  1
  Cl  Cl66  1  0.51995934  0.23139582  0.04641747  1
  Cl  Cl67  1  0.04641747  0.51995934  0.23139582  1
