# generated using pymatgen
data_Cs4K3U3Si4O20F
_symmetry_space_group_name_H-M   'P 1'
_cell_length_a   7.89065098
_cell_length_b   11.92650170
_cell_length_c   14.49532284
_cell_angle_alpha   90.00000000
_cell_angle_beta   90.00000000
_cell_angle_gamma   109.31753850
_symmetry_Int_Tables_number   1
_chemical_formula_structural   Cs4K3U3Si4O20F
_chemical_formula_sum   'Cs8 K6 U6 Si8 O40 F2'
_cell_volume   1287.32331232
_cell_formula_units_Z   2
loop_
 _symmetry_equiv_pos_site_id
 _symmetry_equiv_pos_as_xyz
  1  'x, y, z'
loop_
 _atom_site_type_symbol
 _atom_site_label
 _atom_site_symmetry_multiplicity
 _atom_site_fract_x
 _atom_site_fract_y
 _atom_site_fract_z
 _atom_site_occupancy
  Cs  Cs0  1  0.78523389  0.07611020  0.66894209  1
  Cs  Cs1  1  0.29087631  0.07611020  0.66894209  1
  Cs  Cs2  1  0.21476611  0.92388980  0.16894209  1
  Cs  Cs3  1  0.70912369  0.92388980  0.16894209  1
  Cs  Cs4  1  0.95850242  0.42649727  0.78295791  1
  Cs  Cs5  1  0.46799484  0.42649727  0.78295791  1
  Cs  Cs6  1  0.04149758  0.57350273  0.28295791  1
  Cs  Cs7  1  0.53200516  0.57350273  0.28295791  1
  K  K8  1  0.61931702  0.23863404  0.23160797  1
  K  K9  1  0.38068298  0.76136596  0.73160797  1
  K  K10  1  0.16735133  0.33470265  0.52089868  1
  K  K11  1  0.83264867  0.66529735  0.02089868  1
  K  K12  1  0.91343745  0.82687490  0.43703851  1
  K  K13  1  0.08656255  0.17312510  0.93703851  1
  U  U14  1  0.87405126  0.74810251  0.71972981  1
  U  U15  1  0.12594874  0.25189749  0.21972981  1
  U  U16  1  0.67420330  0.34840661  0.49531420  1
  U  U17  1  0.32579670  0.65159339  0.99531420  1
  U  U18  1  0.57402691  0.14805383  0.94718093  1
  U  U19  1  0.42597309  0.85194617  0.44718093  1
  Si  Si20  1  0.89871363  0.39683810  0.05408536  1
  Si  Si21  1  0.49812447  0.39683810  0.05408536  1
  Si  Si22  1  0.10128637  0.60316190  0.55408536  1
  Si  Si23  1  0.50187553  0.60316190  0.55408536  1
  Si  Si24  1  0.85361593  0.10914212  0.40742054  1
  Si  Si25  1  0.25552620  0.10914212  0.40742054  1
  Si  Si26  1  0.14638407  0.89085788  0.90742054  1
  Si  Si27  1  0.74447380  0.89085788  0.90742054  1
  O  O28  1  0.95093894  0.48090369  0.51706094  1
  O  O29  1  0.52996475  0.48090369  0.51706094  1
  O  O30  1  0.04906106  0.51909631  0.01706094  1
  O  O31  1  0.47003525  0.51909631  0.01706094  1
  O  O32  1  0.03305282  0.64923039  0.64903270  1
  O  O33  1  0.61617757  0.64923039  0.64903270  1
  O  O34  1  0.96694718  0.35076961  0.14903270  1
  O  O35  1  0.38382243  0.35076961  0.14903270  1
  O  O36  1  0.84011190  0.29468167  0.97333260  1
  O  O37  1  0.45456977  0.29468167  0.97333260  1
  O  O38  1  0.15988810  0.70531833  0.47333260  1
  O  O39  1  0.54543023  0.70531833  0.47333260  1
  O  O40  1  0.28401429  0.56802857  0.58402475  1
  O  O41  1  0.71598571  0.43197143  0.08402475  1
  O  O42  1  0.72580471  0.02281805  0.91972826  1
  O  O43  1  0.29701335  0.02281805  0.91972826  1
  O  O44  1  0.27419529  0.97718195  0.41972826  1
  O  O45  1  0.70298665  0.97718195  0.41972826  1
  O  O46  1  0.04997127  0.09994254  0.44665736  1
  O  O47  1  0.95002873  0.90005746  0.94665736  1
  O  O48  1  0.12277933  0.85559822  0.79765124  1
  O  O49  1  0.73281889  0.85559822  0.79765124  1
  O  O50  1  0.87722067  0.14440178  0.29765124  1
  O  O51  1  0.26718111  0.14440178  0.29765124  1
  O  O52  1  0.80658385  0.20822105  0.47148917  1
  O  O53  1  0.40163719  0.20822105  0.47148917  1
  O  O54  1  0.19341615  0.79177895  0.97148917  1
  O  O55  1  0.59836281  0.79177895  0.97148917  1
  O  O56  1  0.81812974  0.63625947  0.81549161  1
  O  O57  1  0.18187026  0.36374053  0.31549161  1
  O  O58  1  0.93141820  0.86283639  0.62620999  1
  O  O59  1  0.06858180  0.13716361  0.12620999  1
  O  O60  1  0.69468709  0.38937418  0.37055558  1
  O  O61  1  0.30531291  0.61062582  0.87055558  1
  O  O62  1  0.65550704  0.31101408  0.62098206  1
  O  O63  1  0.34449296  0.68898592  0.12098206  1
  O  O64  1  0.59429771  0.18859542  0.82216004  1
  O  O65  1  0.40570229  0.81140458  0.32216004  1
  O  O66  1  0.55406753  0.10813505  0.07281480  1
  O  O67  1  0.44593247  0.89186495  0.57281480  1
  F  F68  1  0.12469279  0.24938558  0.72875206  1
  F  F69  1  0.87530721  0.75061442  0.22875206  1
