# generated using pymatgen
data_Li4MnCo2O7
_symmetry_space_group_name_H-M   'P 1'
_cell_length_a   2.98189284
_cell_length_b   11.19753999
_cell_length_c   7.79588395
_cell_angle_alpha   100.10862946
_cell_angle_beta   98.48332518
_cell_angle_gamma   82.81326747
_symmetry_Int_Tables_number   1
_chemical_formula_structural   Li4MnCo2O7
_chemical_formula_sum   'Li8 Mn2 Co4 O14'
_cell_volume   252.13984622
_cell_formula_units_Z   2
loop_
 _symmetry_equiv_pos_site_id
 _symmetry_equiv_pos_as_xyz
  1  'x, y, z'
loop_
 _atom_site_type_symbol
 _atom_site_label
 _atom_site_symmetry_multiplicity
 _atom_site_fract_x
 _atom_site_fract_y
 _atom_site_fract_z
 _atom_site_occupancy
  Li  Li0  1  0.77627568  0.08136291  0.64268335  1
  Li  Li1  1  0.95117081  0.35129568  0.21890189  1
  Li  Li2  1  0.07452849  0.64537861  0.78661342  1
  Li  Li3  1  0.21973340  0.93121750  0.35864019  1
  Li  Li4  1  0.34162681  0.21507800  0.91657453  1
  Li  Li5  1  0.49192679  0.49432742  0.49662105  1
  Li  Li6  1  0.64433012  0.78305584  0.07133048  1
  Li  Li7  1  0.16365342  0.28084443  0.58028780  1
  Mn  Mn8  1  0.99228064  0.00231787  0.00287535  1
  Mn  Mn9  1  0.70169822  0.42573271  0.84934262  1
  Co  Co10  1  0.27949109  0.57272726  0.14031774  1
  Co  Co11  1  0.42030366  0.85674127  0.71216237  1
  Co  Co12  1  0.58741507  0.14955862  0.29906080  1
  Co  Co13  1  0.86443349  0.71216548  0.42720633  1
  O  O14  1  0.34980076  0.02821774  0.81880216  1
  O  O15  1  0.53804818  0.30651872  0.37781211  1
  O  O16  1  0.64845370  0.59875013  0.97142610  1
  O  O17  1  0.83139152  0.88126068  0.53638423  1
  O  O18  1  0.94475035  0.17141377  0.11471323  1
  O  O19  1  0.12630671  0.46077683  0.69981840  1
  O  O20  1  0.27588599  0.73856725  0.25353973  1
  O  O21  1  0.21245433  0.11008558  0.45046608  1
  O  O22  1  0.27795090  0.40618385  0.01779600  1
  O  O23  1  0.45801959  0.68481796  0.60481333  1
  O  O24  1  0.63281665  0.97843066  0.18339316  1
  O  O25  1  0.75152414  0.26243467  0.76202606  1
  O  O26  1  0.93010845  0.54014371  0.31543074  1
  O  O27  1  0.01362101  0.83059485  0.89096076  1
