# generated using pymatgen
data_GdAgS2
_symmetry_space_group_name_H-M   'P 1'
_cell_length_a   7.71511587
_cell_length_b   7.69659575
_cell_length_c   12.79252511
_cell_angle_alpha   90.00000000
_cell_angle_beta   89.54754177
_cell_angle_gamma   90.00000000
_symmetry_Int_Tables_number   1
_chemical_formula_structural   GdAgS2
_chemical_formula_sum   'Gd8 Ag8 S16'
_cell_volume   759.59809358
_cell_formula_units_Z   8
loop_
 _symmetry_equiv_pos_site_id
 _symmetry_equiv_pos_as_xyz
  1  'x, y, z'
loop_
 _atom_site_type_symbol
 _atom_site_label
 _atom_site_symmetry_multiplicity
 _atom_site_fract_x
 _atom_site_fract_y
 _atom_site_fract_z
 _atom_site_occupancy
  Gd  Gd0  1  0.74633783  0.50455265  0.00308627  1
  Gd  Gd1  1  0.25366217  0.00455265  0.99691373  1
  Gd  Gd2  1  0.00186085  0.25712130  0.75290170  1
  Gd  Gd3  1  0.99813915  0.75712130  0.24709830  1
  Gd  Gd4  1  0.50197031  0.74871677  0.74753779  1
  Gd  Gd5  1  0.49802969  0.24871677  0.25246221  1
  Gd  Gd6  1  0.75255622  0.00320948  0.50299223  1
  Gd  Gd7  1  0.24744378  0.50320948  0.49700777  1
  Ag  Ag8  1  0.50017461  0.24928919  0.79062969  1
  Ag  Ag9  1  0.49982539  0.74928919  0.20937031  1
  Ag  Ag10  1  0.99809981  0.75392647  0.69650607  1
  Ag  Ag11  1  0.00190019  0.25392647  0.30349393  1
  Ag  Ag12  1  0.75651758  0.00407957  0.03266860  1
  Ag  Ag13  1  0.24348242  0.50407957  0.96733140  1
  Ag  Ag14  1  0.74218609  0.49936439  0.52942369  1
  Ag  Ag15  1  0.25781391  0.99936439  0.47057631  1
  S  S16  1  0.02708659  0.78024540  0.46531379  1
  S  S17  1  0.97291341  0.28024540  0.53468621  1
  S  S18  1  0.47682231  0.22959572  0.47119421  1
  S  S19  1  0.52317769  0.72959572  0.52880579  1
  S  S20  1  0.72572247  0.52548820  0.22149873  1
  S  S21  1  0.27427753  0.02548820  0.77850127  1
  S  S22  1  0.72465017  0.47624998  0.78627292  1
  S  S23  1  0.27534983  0.97624998  0.21372708  1
  S  S24  1  0.77495330  0.97996526  0.72080534  1
  S  S25  1  0.22504670  0.47996526  0.27919466  1
  S  S26  1  0.22461339  0.52967489  0.71353287  1
  S  S27  1  0.77538661  0.02967489  0.28646713  1
  S  S28  1  0.02143306  0.27588212  0.97078111  1
  S  S29  1  0.97856694  0.77588212  0.02921889  1
  S  S30  1  0.47244968  0.72623860  0.96456326  1
  S  S31  1  0.52755032  0.22623860  0.03543674  1
