# generated using pymatgen
data_PPb2IO4
_symmetry_space_group_name_H-M   'P 1'
_cell_length_a   8.71352574
_cell_length_b   8.86293162
_cell_length_c   9.23059600
_cell_angle_alpha   90.00000000
_cell_angle_beta   111.68056748
_cell_angle_gamma   90.00000000
_symmetry_Int_Tables_number   1
_chemical_formula_structural   PPb2IO4
_chemical_formula_sum   'P4 Pb8 I4 O16'
_cell_volume   662.42594323
_cell_formula_units_Z   4
loop_
 _symmetry_equiv_pos_site_id
 _symmetry_equiv_pos_as_xyz
  1  'x, y, z'
loop_
 _atom_site_type_symbol
 _atom_site_label
 _atom_site_symmetry_multiplicity
 _atom_site_fract_x
 _atom_site_fract_y
 _atom_site_fract_z
 _atom_site_occupancy
  P  P0  1  0.23265802  0.55098951  0.04156401  1
  P  P1  1  0.26734198  0.05098951  0.95843599  1
  P  P2  1  0.76734198  0.44901049  0.95843599  1
  P  P3  1  0.73265802  0.94901049  0.04156401  1
  Pb  Pb4  1  0.95415271  0.80037787  0.84504059  1
  Pb  Pb5  1  0.54584729  0.30037787  0.15495941  1
  Pb  Pb6  1  0.04584729  0.19962213  0.15495941  1
  Pb  Pb7  1  0.45415271  0.69962213  0.84504059  1
  Pb  Pb8  1  0.47007566  0.82570195  0.26635102  1
  Pb  Pb9  1  0.02992434  0.32570195  0.73364898  1
  Pb  Pb10  1  0.52992434  0.17429805  0.73364898  1
  Pb  Pb11  1  0.97007566  0.67429805  0.26635102  1
  I  I12  1  0.25342174  0.43364596  0.50117830  1
  I  I13  1  0.24657826  0.93364596  0.49882170  1
  I  I14  1  0.74657826  0.56635404  0.49882170  1
  I  I15  1  0.75342174  0.06635404  0.50117830  1
  O  O16  1  0.14307598  0.57030716  0.86073317  1
  O  O17  1  0.35692402  0.07030716  0.13926683  1
  O  O18  1  0.85692402  0.42969284  0.13926683  1
  O  O19  1  0.64307598  0.92969284  0.86073317  1
  O  O20  1  0.77626501  0.61559334  0.91299428  1
  O  O21  1  0.72373499  0.11559334  0.08700572  1
  O  O22  1  0.22373499  0.38440666  0.08700572  1
  O  O23  1  0.27626501  0.88440666  0.91299428  1
  O  O24  1  0.34525352  0.16613947  0.87815174  1
  O  O25  1  0.15474648  0.66613947  0.12184826  1
  O  O26  1  0.65474648  0.83386053  0.12184826  1
  O  O27  1  0.84525352  0.33386053  0.87815174  1
  O  O28  1  0.91947757  0.90752190  0.08640611  1
  O  O29  1  0.58052243  0.40752190  0.91359389  1
  O  O30  1  0.08052243  0.09247810  0.91359389  1
  O  O31  1  0.41947757  0.59247810  0.08640611  1
