# generated using pymatgen
data_ZrGa2Ni
_symmetry_space_group_name_H-M   'P 1'
_cell_length_a   8.14137293
_cell_length_b   9.67443771
_cell_length_c   9.67443771
_cell_angle_alpha   79.80230680
_cell_angle_beta   65.11696059
_cell_angle_gamma   65.11696059
_symmetry_Int_Tables_number   1
_chemical_formula_structural   ZrGa2Ni
_chemical_formula_sum   'Zr10 Ga20 Ni10'
_cell_volume   627.08316484
_cell_formula_units_Z   10
loop_
 _symmetry_equiv_pos_site_id
 _symmetry_equiv_pos_as_xyz
  1  'x, y, z'
loop_
 _atom_site_type_symbol
 _atom_site_label
 _atom_site_symmetry_multiplicity
 _atom_site_fract_x
 _atom_site_fract_y
 _atom_site_fract_z
 _atom_site_occupancy
  Zr  Zr0  1  0.12907929  0.28672796  0.71327204  1
  Zr  Zr1  1  0.12907929  0.71327204  0.28672796  1
  Zr  Zr2  1  0.41580725  0.71327204  0.71327204  1
  Zr  Zr3  1  0.84235133  0.28672796  0.28672796  1
  Zr  Zr4  1  0.84050239  0.59318948  0.00000000  1
  Zr  Zr5  1  0.43369186  0.40681052  0.00000000  1
  Zr  Zr6  1  0.84050239  0.00000000  0.59318948  1
  Zr  Zr7  1  0.43369186  0.00000000  0.40681052  1
  Zr  Zr8  1  0.06410305  0.00000000  0.00000000  1
  Zr  Zr9  1  0.51115256  1.00000000  1.00000000  1
  Ga  Ga10  1  0.52602321  0.21090174  0.50670168  1
  Ga  Ga11  1  0.24362663  0.78909826  0.49329832  1
  Ga  Ga12  1  0.52602321  0.50670168  0.21090174  1
  Ga  Ga13  1  0.24362663  0.49329832  0.78909826  1
  Ga  Ga14  1  0.73692495  0.78909826  0.50670168  1
  Ga  Ga15  1  0.03272489  0.21090174  0.49329832  1
  Ga  Ga16  1  0.03272489  0.49329832  0.21090174  1
  Ga  Ga17  1  0.73692495  0.50670168  0.78909826  1
  Ga  Ga18  1  0.79608430  0.16043938  0.83956062  1
  Ga  Ga19  1  0.79608430  0.83956062  0.16043938  1
  Ga  Ga20  1  0.95652367  0.83956062  0.83956062  1
  Ga  Ga21  1  0.63564492  0.16043938  0.16043938  1
  Ga  Ga22  1  0.64752501  0.38200181  0.61799819  1
  Ga  Ga23  1  0.64752501  0.61799819  0.38200181  1
  Ga  Ga24  1  0.02952682  0.61799819  0.61799819  1
  Ga  Ga25  1  0.26552319  0.38200181  0.38200181  1
  Ga  Ga26  1  0.42063649  0.73424169  1.00000000  1
  Ga  Ga27  1  0.15487818  0.26575831  1.00000000  1
  Ga  Ga28  1  0.42063649  1.00000000  0.73424169  1
  Ga  Ga29  1  0.15487818  1.00000000  0.26575831  1
  Ni  Ni30  1  0.48347081  0.21719829  0.78280171  1
  Ni  Ni31  1  0.48347081  0.78280171  0.21719829  1
  Ni  Ni32  1  0.70066909  0.78280171  0.78280171  1
  Ni  Ni33  1  0.26627252  0.21719829  0.21719829  1
  Ni  Ni34  1  0.13385543  0.67563095  1.00000000  1
  Ni  Ni35  1  0.80948638  0.32436905  1.00000000  1
  Ni  Ni36  1  0.13385543  1.00000000  0.67563095  1
  Ni  Ni37  1  0.80948638  1.00000000  0.32436905  1
  Ni  Ni38  1  0.89970297  0.50000000  0.50000000  1
  Ni  Ni39  1  0.39970297  0.50000000  0.50000000  1
