# generated using pymatgen
data_Cs4Hf3Se14
_symmetry_space_group_name_H-M   'P 1'
_cell_length_a   9.14694583
_cell_length_b   12.45681853
_cell_length_c   15.04574898
_cell_angle_alpha   111.46456020
_cell_angle_beta   90.00000000
_cell_angle_gamma   111.53971998
_symmetry_Int_Tables_number   1
_chemical_formula_structural   Cs4Hf3Se14
_chemical_formula_sum   'Cs8 Hf6 Se28'
_cell_volume   1466.03883220
_cell_formula_units_Z   2
loop_
 _symmetry_equiv_pos_site_id
 _symmetry_equiv_pos_as_xyz
  1  'x, y, z'
loop_
 _atom_site_type_symbol
 _atom_site_label
 _atom_site_symmetry_multiplicity
 _atom_site_fract_x
 _atom_site_fract_y
 _atom_site_fract_z
 _atom_site_occupancy
  Cs  Cs0  1  0.97627754  0.59776190  0.39014930  1
  Cs  Cs1  1  0.37851564  0.40223810  0.10985070  1
  Cs  Cs2  1  0.02372246  0.40223810  0.60985070  1
  Cs  Cs3  1  0.62148436  0.59776190  0.89014930  1
  Cs  Cs4  1  0.80967019  0.12742963  0.15192866  1
  Cs  Cs5  1  0.68224056  0.87257037  0.34807134  1
  Cs  Cs6  1  0.19032981  0.87257037  0.84807134  1
  Cs  Cs7  1  0.31775944  0.12742963  0.65192866  1
  Hf  Hf8  1  0.07499543  0.66433965  0.08518264  1
  Hf  Hf9  1  0.41065578  0.33566035  0.41481736  1
  Hf  Hf10  1  0.92500457  0.33566035  0.91481736  1
  Hf  Hf11  1  0.58934422  0.66433965  0.58518264  1
  Hf  Hf12  1  0.23906703  -0.00000000  0.25000000  1
  Hf  Hf13  1  0.76093297  -0.00000000  0.75000000  1
  Se  Se14  1  0.12935317  0.92955587  0.39570069  1
  Se  Se15  1  0.19979730  0.07044413  0.10429931  1
  Se  Se16  1  0.87064683  0.07044413  0.60429931  1
  Se  Se17  1  0.80020270  0.92955587  0.89570069  1
  Se  Se18  1  0.33053381  0.87209907  0.08160059  1
  Se  Se19  1  0.45843474  0.12790093  0.41839941  1
  Se  Se20  1  0.66946619  0.12790093  0.91839941  1
  Se  Se21  1  0.54156526  0.87209907  0.58160059  1
  Se  Se22  1  0.94111885  0.83899334  0.13290349  1
  Se  Se23  1  0.10212551  0.16100666  0.36709651  1
  Se  Se24  1  0.05888115  0.16100666  0.86709651  1
  Se  Se25  1  0.89787449  0.83899334  0.63290349  1
  Se  Se26  1  0.25121804  0.79977024  0.27640257  1
  Se  Se27  1  0.45144780  0.20022976  0.22359743  1
  Se  Se28  1  0.74878196  0.20022976  0.72359743  1
  Se  Se29  1  0.54855220  0.79977024  0.77640257  1
  Se  Se30  1  0.00458010  0.43991116  0.09937395  1
  Se  Se31  1  0.56466893  0.56008884  0.40062605  1
  Se  Se32  1  0.99541990  0.56008884  0.90062605  1
  Se  Se33  1  0.43533107  0.43991116  0.59937395  1
  Se  Se34  1  0.16254225  0.35046312  0.33731067  1
  Se  Se35  1  0.81207913  0.64953688  0.16268933  1
  Se  Se36  1  0.83745775  0.64953688  0.66268933  1
  Se  Se37  1  0.18792087  0.35046312  0.83731067  1
  Se  Se38  1  0.68218538  0.29166512  0.39063173  1
  Se  Se39  1  0.39052026  0.70833488  0.10936827  1
  Se  Se40  1  0.31781462  0.70833488  0.60936827  1
  Se  Se41  1  0.60947974  0.29166512  0.89063173  1
