# generated using pymatgen
data_Ca2Zn3Si3PbO12
_symmetry_space_group_name_H-M   'P 1'
_cell_length_a   8.38052786
_cell_length_b   8.90914146
_cell_length_c   15.46310293
_cell_angle_alpha   90.05139344
_cell_angle_beta   90.00000000
_cell_angle_gamma   90.00000000
_symmetry_Int_Tables_number   1
_chemical_formula_structural   Ca2Zn3Si3PbO12
_chemical_formula_sum   'Ca8 Zn12 Si12 Pb4 O48'
_cell_volume   1154.52595535
_cell_formula_units_Z   4
loop_
 _symmetry_equiv_pos_site_id
 _symmetry_equiv_pos_as_xyz
  1  'x, y, z'
loop_
 _atom_site_type_symbol
 _atom_site_label
 _atom_site_symmetry_multiplicity
 _atom_site_fract_x
 _atom_site_fract_y
 _atom_site_fract_z
 _atom_site_occupancy
  Ca  Ca0  1  0.03909987  0.23835702  0.57426523  1
  Ca  Ca1  1  0.46090013  0.73835702  0.07426523  1
  Ca  Ca2  1  0.96090013  0.76164298  0.42573477  1
  Ca  Ca3  1  0.53909987  0.26164298  0.92573477  1
  Ca  Ca4  1  0.46194972  0.26058722  0.58846820  1
  Ca  Ca5  1  0.03805028  0.76058722  0.08846820  1
  Ca  Ca6  1  0.53805028  0.73941278  0.41153180  1
  Ca  Ca7  1  0.96194972  0.23941278  0.91153180  1
  Zn  Zn8  1  0.16465127  0.07629014  0.74358019  1
  Zn  Zn9  1  0.33534873  0.57629014  0.24358019  1
  Zn  Zn10  1  0.83534873  0.92370986  0.25641981  1
  Zn  Zn11  1  0.66465127  0.42370986  0.75641981  1
  Zn  Zn12  1  0.16107175  0.57437034  0.59024868  1
  Zn  Zn13  1  0.33892825  0.07437034  0.09024868  1
  Zn  Zn14  1  0.83892825  0.42562966  0.40975132  1
  Zn  Zn15  1  0.66107175  0.92562966  0.90975132  1
  Zn  Zn16  1  0.16047528  0.59234750  0.91620280  1
  Zn  Zn17  1  0.33952472  0.09234750  0.41620280  1
  Zn  Zn18  1  0.83952472  0.40765250  0.08379720  1
  Zn  Zn19  1  0.66047528  0.90765250  0.58379720  1
  Si  Si20  1  0.27171726  0.41091911  0.76528991  1
  Si  Si21  1  0.22828274  0.91091911  0.26528991  1
  Si  Si22  1  0.72828274  0.58908089  0.23471009  1
  Si  Si23  1  0.77171726  0.08908089  0.73471009  1
  Si  Si24  1  0.27058135  0.93940047  0.91216656  1
  Si  Si25  1  0.22941865  0.43940047  0.41216656  1
  Si  Si26  1  0.72941865  0.06059953  0.08783344  1
  Si  Si27  1  0.77058135  0.56059953  0.58783344  1
  Si  Si28  1  0.27433438  0.89534593  0.57448486  1
  Si  Si29  1  0.22566562  0.39534593  0.07448486  1
  Si  Si30  1  0.72566562  0.10465407  0.42551514  1
  Si  Si31  1  0.77433438  0.60465407  0.92551514  1
  Pb  Pb32  1  0.44662800  0.74571846  0.75083844  1
  Pb  Pb33  1  0.05337200  0.24571846  0.25083844  1
  Pb  Pb34  1  0.55337200  0.25428154  0.24916156  1
  Pb  Pb35  1  0.94662800  0.75428154  0.74916156  1
  O  O36  1  0.27010522  0.90982688  0.68161689  1
  O  O37  1  0.22989478  0.40982688  0.18161689  1
  O  O38  1  0.72989478  0.09017312  0.31838311  1
  O  O39  1  0.77010522  0.59017312  0.81838311  1
  O  O40  1  0.76288748  0.93431807  0.79475625  1
  O  O41  1  0.73711252  0.43431807  0.29475625  1
  O  O42  1  0.23711252  0.06568193  0.20524375  1
  O  O43  1  0.26288748  0.56568193  0.70524375  1
  O  O44  1  0.26950079  0.77027564  0.86634007  1
  O  O45  1  0.23049921  0.27027564  0.36634007  1
  O  O46  1  0.73049921  0.22972436  0.13365993  1
  O  O47  1  0.76950079  0.72972436  0.63365993  1
  O  O48  1  0.24987568  0.26855263  0.69768576  1
  O  O49  1  0.25012432  0.76855263  0.19768576  1
  O  O50  1  0.75012432  0.73144737  0.30231424  1
  O  O51  1  0.74987568  0.23144737  0.80231424  1
  O  O52  1  0.25814579  0.41222584  0.51695266  1
  O  O53  1  0.24185421  0.91222584  0.01695266  1
  O  O54  1  0.74185421  0.58777416  0.48304734  1
  O  O55  1  0.75814579  0.08777416  0.98304734  1
  O  O56  1  0.24546592  0.06549809  0.53481827  1
  O  O57  1  0.25453408  0.56549809  0.03481827  1
  O  O58  1  0.75453408  0.93450191  0.46518173  1
  O  O59  1  0.74546592  0.43450191  0.96518173  1
  O  O60  1  0.13237055  0.04674286  0.86821494  1
  O  O61  1  0.36762945  0.54674286  0.36821494  1
  O  O62  1  0.86762945  0.95325714  0.13178506  1
  O  O63  1  0.63237055  0.45325714  0.63178506  1
  O  O64  1  0.13630848  0.77674897  0.54131136  1
  O  O65  1  0.36369152  0.27674897  0.04131136  1
  O  O66  1  0.86369152  0.22325103  0.45868864  1
  O  O67  1  0.63630848  0.72325103  0.95868864  1
  O  O68  1  0.13517885  0.41419637  0.84201652  1
  O  O69  1  0.36482115  0.91419637  0.34201652  1
  O  O70  1  0.86482115  0.58580363  0.15798348  1
  O  O71  1  0.63517885  0.08580363  0.65798348  1
  O  O72  1  0.94820178  0.08931550  0.68757280  1
  O  O73  1  0.55179822  0.58931550  0.18757280  1
  O  O74  1  0.05179822  0.91068450  0.31242720  1
  O  O75  1  0.44820178  0.41068450  0.81242720  1
  O  O76  1  0.94532727  0.48221400  0.60609222  1
  O  O77  1  0.55467273  0.98221400  0.10609222  1
  O  O78  1  0.05467273  0.51778600  0.39390778  1
  O  O79  1  0.44532727  0.01778600  0.89390778  1
  O  O80  1  0.94927752  0.67290611  0.95356257  1
  O  O81  1  0.55072248  0.17290611  0.45356257  1
  O  O82  1  0.05072248  0.32709389  0.04643743  1
  O  O83  1  0.44927752  0.82709389  0.54643743  1
