# generated using pymatgen
data_Li4MnCo2O7
_symmetry_space_group_name_H-M   'P 1'
_cell_length_a   2.97371111
_cell_length_b   5.96170873
_cell_length_c   14.29842572
_cell_angle_alpha   82.91795033
_cell_angle_beta   95.46834967
_cell_angle_gamma   94.16476385
_symmetry_Int_Tables_number   1
_chemical_formula_structural   Li4MnCo2O7
_chemical_formula_sum   'Li8 Mn2 Co4 O14'
_cell_volume   249.93349525
_cell_formula_units_Z   2
loop_
 _symmetry_equiv_pos_site_id
 _symmetry_equiv_pos_as_xyz
  1  'x, y, z'
loop_
 _atom_site_type_symbol
 _atom_site_label
 _atom_site_symmetry_multiplicity
 _atom_site_fract_x
 _atom_site_fract_y
 _atom_site_fract_z
 _atom_site_occupancy
  Li  Li0  1  0.00568761  0.50305144  0.00451177  1
  Li  Li1  1  0.57594823  0.20447169  0.14694105  1
  Li  Li2  1  0.13940852  0.92415047  0.28092275  1
  Li  Li3  1  0.42615123  0.78721469  0.85519183  1
  Li  Li4  1  0.85849425  0.07250519  0.71548391  1
  Li  Li5  1  0.28500187  0.35703744  0.57077828  1
  Li  Li6  1  0.71155996  0.64199502  0.42568977  1
  Li  Li7  1  0.56762276  0.72169836  0.14640563  1
  Mn  Mn8  1  0.00510078  0.99281352  0.00457625  1
  Mn  Mn9  1  0.28585690  0.85850048  0.57063910  1
  Co  Co10  1  0.13706250  0.43923315  0.27932213  1
  Co  Co11  1  0.71243528  0.14575324  0.42649160  1
  Co  Co12  1  0.85918210  0.56899492  0.71499096  1
  Co  Co13  1  0.43588153  0.28334924  0.85675887  1
  O  O14  1  0.52033388  0.22465343  0.99436018  1
  O  O15  1  0.06113183  0.97059724  0.13292832  1
  O  O16  1  0.61746631  0.65782385  0.28651663  1
  O  O17  1  0.89963071  0.52257578  0.85232410  1
  O  O18  1  0.32872850  0.80996910  0.71031916  1
  O  O19  1  0.75593403  0.10630815  0.56436760  1
  O  O20  1  0.18326811  0.38251611  0.41746971  1
  O  O21  1  0.47677847  0.77994782  0.99952382  1
  O  O22  1  0.07992562  0.45613928  0.15600363  1
  O  O23  1  0.67084157  0.19154042  0.29269134  1
  O  O24  1  0.96046884  0.04971582  0.86286878  1
  O  O25  1  0.38470027  0.33252900  0.72133057  1
  O  O26  1  0.81440369  0.60987288  0.57810530  1
  O  O27  1  0.24099466  0.90504227  0.43248700  1
