# generated using pymatgen
data_Sm2Ni7
_symmetry_space_group_name_H-M   'P 1'
_cell_length_a   4.97480876
_cell_length_b   4.97480876
_cell_length_c   24.35781171
_cell_angle_alpha   90.00000000
_cell_angle_beta   90.00000000
_cell_angle_gamma   119.97243293
_symmetry_Int_Tables_number   1
_chemical_formula_structural   Sm2Ni7
_chemical_formula_sum   'Sm8 Ni28'
_cell_volume   522.20647744
_cell_formula_units_Z   4
loop_
 _symmetry_equiv_pos_site_id
 _symmetry_equiv_pos_as_xyz
  1  'x, y, z'
loop_
 _atom_site_type_symbol
 _atom_site_label
 _atom_site_symmetry_multiplicity
 _atom_site_fract_x
 _atom_site_fract_y
 _atom_site_fract_z
 _atom_site_occupancy
  Sm  Sm0  1  0.66666358  0.33333642  0.52988414  1
  Sm  Sm1  1  0.33333642  0.66666358  0.47011586  1
  Sm  Sm2  1  0.33333642  0.66666358  0.02988414  1
  Sm  Sm3  1  0.66666358  0.33333642  0.97011586  1
  Sm  Sm4  1  0.66667377  0.33332623  0.67429673  1
  Sm  Sm5  1  0.33332623  0.66667377  0.32570327  1
  Sm  Sm6  1  0.33332623  0.66667377  0.17429673  1
  Sm  Sm7  1  0.66667377  0.33332623  0.82570327  1
  Ni  Ni8  1  0.00000000  -0.00000000  0.50000000  1
  Ni  Ni9  1  0.00000000  -0.00000000  0.00000000  1
  Ni  Ni10  1  0.16746744  0.33491742  0.75000000  1
  Ni  Ni11  1  0.16745858  0.83254142  0.75000000  1
  Ni  Ni12  1  0.66508258  0.83253256  0.75000000  1
  Ni  Ni13  1  0.83253256  0.66508258  0.25000000  1
  Ni  Ni14  1  0.83254142  0.16745858  0.25000000  1
  Ni  Ni15  1  0.33491742  0.16746744  0.25000000  1
  Ni  Ni16  1  0.16615251  0.33228551  0.58693827  1
  Ni  Ni17  1  0.16614769  0.83385231  0.58694038  1
  Ni  Ni18  1  0.66771449  0.83384749  0.58693827  1
  Ni  Ni19  1  0.83384749  0.66771449  0.41306173  1
  Ni  Ni20  1  0.83385231  0.16614769  0.41305962  1
  Ni  Ni21  1  0.33228551  0.16615251  0.41306173  1
  Ni  Ni22  1  0.83384749  0.66771449  0.08693827  1
  Ni  Ni23  1  0.83385231  0.16614769  0.08694038  1
  Ni  Ni24  1  0.33228551  0.16615251  0.08693827  1
  Ni  Ni25  1  0.16615251  0.33228551  0.91306173  1
  Ni  Ni26  1  0.16614769  0.83385231  0.91305962  1
  Ni  Ni27  1  0.66771449  0.83384749  0.91306173  1
  Ni  Ni28  1  -0.00000126  0.00000126  0.66883779  1
  Ni  Ni29  1  0.00000126  -0.00000126  0.33116221  1
  Ni  Ni30  1  0.00000126  -0.00000126  0.16883779  1
  Ni  Ni31  1  -0.00000126  0.00000126  0.83116221  1
  Ni  Ni32  1  0.66666973  0.33333027  0.33252170  1
  Ni  Ni33  1  0.33333027  0.66666973  0.66747830  1
  Ni  Ni34  1  0.33333027  0.66666973  0.83252170  1
  Ni  Ni35  1  0.66666973  0.33333027  0.16747830  1
