# generated using pymatgen
data_MgB3H20N3
_symmetry_space_group_name_H-M   'P 1'
_cell_length_a   5.58275649
_cell_length_b   9.51695282
_cell_length_c   9.56101141
_cell_angle_alpha   89.99644516
_cell_angle_beta   89.99693968
_cell_angle_gamma   89.98802221
_symmetry_Int_Tables_number   1
_chemical_formula_structural   MgB3H20N3
_chemical_formula_sum   'Mg2 B6 H40 N6'
_cell_volume   507.98446014
_cell_formula_units_Z   2
loop_
 _symmetry_equiv_pos_site_id
 _symmetry_equiv_pos_as_xyz
  1  'x, y, z'
loop_
 _atom_site_type_symbol
 _atom_site_label
 _atom_site_symmetry_multiplicity
 _atom_site_fract_x
 _atom_site_fract_y
 _atom_site_fract_z
 _atom_site_occupancy
  Mg  Mg0  1  0.56575740  0.50184359  0.00813699  1
  Mg  Mg1  1  0.56316447  0.99845254  0.49279483  1
  B  B2  1  0.34797468  0.35050807  0.86970243  1
  B  B3  1  0.36060901  0.65106502  0.15272642  1
  B  B4  1  0.31386298  0.15376044  0.35001565  1
  B  B5  1  0.34288173  0.84959718  0.63142554  1
  B  B6  1  0.88164806  0.98016169  0.00054763  1
  B  B7  1  0.89772292  0.48249814  0.50045611  1
  H  H8  1  0.56392202  0.33676750  0.84739605  1
  H  H9  1  0.31134552  0.32961682  0.99550397  1
  H  H10  1  0.82424503  0.22618375  0.57072311  1
  H  H11  1  0.76186848  0.08005912  0.03944648  1
  H  H12  1  0.20899331  0.10329555  0.95846379  1
  H  H13  1  0.31791565  0.68277339  0.03009240  1
  H  H14  1  0.78797425  0.76777631  0.39720851  1
  H  H15  1  0.37556986  0.26757468  0.30536498  1
  H  H16  1  0.11132738  0.12221805  0.31398268  1
  H  H17  1  0.80098275  0.38760543  0.23088706  1
  H  H18  1  0.84208688  0.87723089  0.07328605  1
  H  H19  1  0.19817500  0.04645208  0.12141204  1
  H  H20  1  0.56076712  0.83853670  0.64952803  1
  H  H21  1  0.23896167  0.75489702  0.69016320  1
  H  H22  1  0.72406270  0.64040857  0.77973121  1
  H  H23  1  0.95947422  0.58216140  0.86189300  1
  H  H24  1  0.84718262  0.95443596  0.87749185  1
  H  H25  1  0.26827447  0.93675224  0.99397250  1
  H  H26  1  0.30223843  0.84292962  0.50391129  1
  H  H27  1  0.82317597  0.72489301  0.91758804  1
  H  H28  1  0.78307750  0.58557591  0.46482227  1
  H  H29  1  0.31752822  0.15743734  0.47950096  1
  H  H30  1  0.77283333  0.26819304  0.10817087  1
  H  H31  1  0.98453612  0.38621901  0.09757655  1
  H  H32  1  0.85230412  0.38261896  0.42471897  1
  H  H33  1  0.28143813  0.43170287  0.50578772  1
  H  H34  1  0.28647391  0.53041538  0.17279448  1
  H  H35  1  0.79824235  0.88328092  0.26977859  1
  H  H36  1  0.98619567  0.89431737  0.40046356  1
  H  H37  1  0.22013559  0.54680536  0.38247358  1
  H  H38  1  0.23257433  0.26936492  0.79937231  1
  H  H39  1  0.71171697  0.15298858  0.71104017  1
  H  H40  1  0.95030706  0.08577333  0.63847916  1
  H  H41  1  0.86183607  0.45372639  0.62261329  1
  H  H42  1  0.22954486  0.59812364  0.54742172  1
  H  H43  1  0.45515744  0.06498299  0.30315655  1
  H  H44  1  0.29033437  0.47255791  0.84181315  1
  H  H45  1  0.27647351  0.96436993  0.67532449  1
  H  H46  1  0.57893975  0.65214668  0.17163747  1
  H  H47  1  0.26538883  0.73296481  0.23160402  1
  N  N48  1  0.78731795  0.13025427  0.61613275  1
  N  N49  1  0.81086744  0.87311871  0.37677570  1
  N  N50  1  0.80786261  0.37298910  0.12421207  1
  N  N51  1  0.79353146  0.62576300  0.87768900  1
  N  N52  1  0.15899898  0.01941311  0.01956473  1
  N  N53  1  0.17696885  0.51728170  0.48298403  1
