# generated using pymatgen
data_ZrHg4(PCl3)2
_symmetry_space_group_name_H-M   'P 1'
_cell_length_a   13.31685159
_cell_length_b   13.61771219
_cell_length_c   16.53000444
_cell_angle_alpha   90.00000000
_cell_angle_beta   90.00000000
_cell_angle_gamma   90.00000000
_symmetry_Int_Tables_number   1
_chemical_formula_structural   ZrHg4(PCl3)2
_chemical_formula_sum   'Zr8 Hg32 P16 Cl48'
_cell_volume   2997.63451853
_cell_formula_units_Z   8
loop_
 _symmetry_equiv_pos_site_id
 _symmetry_equiv_pos_as_xyz
  1  'x, y, z'
loop_
 _atom_site_type_symbol
 _atom_site_label
 _atom_site_symmetry_multiplicity
 _atom_site_fract_x
 _atom_site_fract_y
 _atom_site_fract_z
 _atom_site_occupancy
  Zr  Zr0  1  0.30183302  0.01046195  0.88689557  1
  Zr  Zr1  1  0.80183302  0.48953805  0.11310443  1
  Zr  Zr2  1  0.69816698  0.51046195  0.61310443  1
  Zr  Zr3  1  0.19816698  0.98953805  0.38689557  1
  Zr  Zr4  1  0.69816698  0.98953805  0.11310443  1
  Zr  Zr5  1  0.19816698  0.51046195  0.88689557  1
  Zr  Zr6  1  0.30183302  0.48953805  0.38689557  1
  Zr  Zr7  1  0.80183302  0.01046195  0.61310443  1
  Hg  Hg8  1  0.73067060  0.23746997  0.87216381  1
  Hg  Hg9  1  0.23067060  0.26253003  0.12783619  1
  Hg  Hg10  1  0.26932940  0.73746997  0.62783619  1
  Hg  Hg11  1  0.76932940  0.76253003  0.37216381  1
  Hg  Hg12  1  0.26932940  0.76253003  0.12783619  1
  Hg  Hg13  1  0.76932940  0.73746997  0.87216381  1
  Hg  Hg14  1  0.73067060  0.26253003  0.37216381  1
  Hg  Hg15  1  0.23067060  0.23746997  0.62783619  1
  Hg  Hg16  1  0.47894158  0.29365128  0.99529948  1
  Hg  Hg17  1  0.97894158  0.20634872  0.00470052  1
  Hg  Hg18  1  0.52105842  0.79365128  0.50470052  1
  Hg  Hg19  1  0.02105842  0.70634872  0.49529948  1
  Hg  Hg20  1  0.52105842  0.70634872  0.00470052  1
  Hg  Hg21  1  0.02105842  0.79365128  0.99529948  1
  Hg  Hg22  1  0.47894158  0.20634872  0.49529948  1
  Hg  Hg23  1  0.97894158  0.29365128  0.50470052  1
  Hg  Hg24  1  0.47968056  0.24584778  0.74595300  1
  Hg  Hg25  1  0.97968056  0.25415222  0.25404700  1
  Hg  Hg26  1  0.52031944  0.74584778  0.75404700  1
  Hg  Hg27  1  0.02031944  0.75415222  0.24595300  1
  Hg  Hg28  1  0.52031944  0.75415222  0.25404700  1
  Hg  Hg29  1  0.02031944  0.74584778  0.74595300  1
  Hg  Hg30  1  0.47968056  0.25415222  0.24595300  1
  Hg  Hg31  1  0.97968056  0.24584778  0.75404700  1
  Hg  Hg32  1  0.58947062  0.49217654  0.85510410  1
  Hg  Hg33  1  0.08947062  0.00782346  0.14489590  1
  Hg  Hg34  1  0.41052938  0.99217654  0.64489590  1
  Hg  Hg35  1  0.91052938  0.50782346  0.35510410  1
  Hg  Hg36  1  0.41052938  0.50782346  0.14489590  1
  Hg  Hg37  1  0.91052938  0.99217654  0.85510410  1
  Hg  Hg38  1  0.58947062  0.00782346  0.35510410  1
  Hg  Hg39  1  0.08947062  0.49217654  0.64489590  1
  P  P40  1  0.90103763  0.17187842  0.87299731  1
  P  P41  1  0.40103763  0.32812158  0.12700269  1
  P  P42  1  0.09896237  0.67187842  0.62700269  1
  P  P43  1  0.59896237  0.82812158  0.37299731  1
  P  P44  1  0.09896237  0.82812158  0.12700269  1
  P  P45  1  0.59896237  0.67187842  0.87299731  1
  P  P46  1  0.90103763  0.32812158  0.37299731  1
  P  P47  1  0.40103763  0.17187842  0.62700269  1
  P  P48  1  0.56478519  0.31315044  0.86461151  1
  P  P49  1  0.06478519  0.18684956  0.13538849  1
  P  P50  1  0.43521481  0.81315044  0.63538849  1
  P  P51  1  0.93521481  0.68684956  0.36461151  1
  P  P52  1  0.43521481  0.68684956  0.13538849  1
  P  P53  1  0.93521481  0.81315044  0.86461151  1
  P  P54  1  0.56478519  0.18684956  0.36461151  1
  P  P55  1  0.06478519  0.31315044  0.63538849  1
  Cl  Cl56  1  0.35961094  0.09800617  0.01026993  1
  Cl  Cl57  1  0.85961094  0.40199383  0.98973007  1
  Cl  Cl58  1  0.64038906  0.59800617  0.48973007  1
  Cl  Cl59  1  0.14038906  0.90199383  0.51026993  1
  Cl  Cl60  1  0.64038906  0.90199383  0.98973007  1
  Cl  Cl61  1  0.14038906  0.59800617  0.01026993  1
  Cl  Cl62  1  0.35961094  0.40199383  0.51026993  1
  Cl  Cl63  1  0.85961094  0.09800617  0.48973007  1
  Cl  Cl64  1  0.12711009  0.01187404  0.94755494  1
  Cl  Cl65  1  0.62711009  0.48812596  0.05244506  1
  Cl  Cl66  1  0.87288991  0.51187404  0.55244506  1
  Cl  Cl67  1  0.37288991  0.98812596  0.44755494  1
  Cl  Cl68  1  0.87288991  0.98812596  0.05244506  1
  Cl  Cl69  1  0.37288991  0.51187404  0.94755494  1
  Cl  Cl70  1  0.12711009  0.48812596  0.44755494  1
  Cl  Cl71  1  0.62711009  0.01187404  0.55244506  1
  Cl  Cl72  1  0.26582239  0.17018492  0.82103627  1
  Cl  Cl73  1  0.76582239  0.32981508  0.17896373  1
  Cl  Cl74  1  0.73417761  0.67018492  0.67896373  1
  Cl  Cl75  1  0.23417761  0.82981508  0.32103627  1
  Cl  Cl76  1  0.73417761  0.82981508  0.17896373  1
  Cl  Cl77  1  0.23417761  0.67018492  0.82103627  1
  Cl  Cl78  1  0.26582239  0.32981508  0.32103627  1
  Cl  Cl79  1  0.76582239  0.17018492  0.67896373  1
  Cl  Cl80  1  0.22856826  0.92891622  0.76543086  1
  Cl  Cl81  1  0.72856826  0.57108378  0.23456914  1
  Cl  Cl82  1  0.77143174  0.42891622  0.73456914  1
  Cl  Cl83  1  0.27143174  0.07108378  0.26543086  1
  Cl  Cl84  1  0.77143174  0.07108378  0.23456914  1
  Cl  Cl85  1  0.27143174  0.42891622  0.76543086  1
  Cl  Cl86  1  0.22856826  0.57108378  0.26543086  1
  Cl  Cl87  1  0.72856826  0.92891622  0.73456914  1
  Cl  Cl88  1  0.33568072  0.85001945  0.95304801  1
  Cl  Cl89  1  0.83568072  0.64998055  0.04695199  1
  Cl  Cl90  1  0.66431928  0.35001945  0.54695199  1
  Cl  Cl91  1  0.16431928  0.14998055  0.45304801  1
  Cl  Cl92  1  0.66431928  0.14998055  0.04695199  1
  Cl  Cl93  1  0.16431928  0.35001945  0.95304801  1
  Cl  Cl94  1  0.33568072  0.64998055  0.45304801  1
  Cl  Cl95  1  0.83568072  0.85001945  0.54695199  1
  Cl  Cl96  1  0.47294245  0.01189784  0.82708636  1
  Cl  Cl97  1  0.97294245  0.48810216  0.17291364  1
  Cl  Cl98  1  0.52705755  0.51189784  0.67291364  1
  Cl  Cl99  1  0.02705755  0.98810216  0.32708636  1
  Cl  Cl100  1  0.52705755  0.98810216  0.17291364  1
  Cl  Cl101  1  0.02705755  0.51189784  0.82708636  1
  Cl  Cl102  1  0.47294245  0.48810216  0.32708636  1
  Cl  Cl103  1  0.97294245  0.01189784  0.67291364  1
