# generated using pymatgen
data_ZrGa2Co
_symmetry_space_group_name_H-M   'P 1'
_cell_length_a   8.16946604
_cell_length_b   9.62645087
_cell_length_c   9.62645087
_cell_angle_alpha   79.62728365
_cell_angle_beta   64.89212504
_cell_angle_gamma   64.89212504
_symmetry_Int_Tables_number   1
_chemical_formula_structural   ZrGa2Co
_chemical_formula_sum   'Zr10 Ga20 Co10'
_cell_volume   620.74472491
_cell_formula_units_Z   10
loop_
 _symmetry_equiv_pos_site_id
 _symmetry_equiv_pos_as_xyz
  1  'x, y, z'
loop_
 _atom_site_type_symbol
 _atom_site_label
 _atom_site_symmetry_multiplicity
 _atom_site_fract_x
 _atom_site_fract_y
 _atom_site_fract_z
 _atom_site_occupancy
  Zr  Zr0  1  0.12363893  0.28282837  0.71717163  1
  Zr  Zr1  1  0.12363893  0.71717163  0.28282837  1
  Zr  Zr2  1  0.40646730  0.71717163  0.71717163  1
  Zr  Zr3  1  0.84081056  0.28282837  0.28282837  1
  Zr  Zr4  1  0.83601679  0.59757231  -0.00000000  1
  Zr  Zr5  1  0.43358910  0.40242769  0.00000000  1
  Zr  Zr6  1  0.83601679  -0.00000000  0.59757231  1
  Zr  Zr7  1  0.43358910  -0.00000000  0.40242769  1
  Zr  Zr8  1  0.05416979  0.00000000  0.00000000  1
  Zr  Zr9  1  0.51241871  0.00000000  0.00000000  1
  Ga  Ga10  1  0.52654332  0.21145421  0.50707102  1
  Ga  Ga11  1  0.24506856  0.78854579  0.49292898  1
  Ga  Ga12  1  0.52654332  0.50707102  0.21145421  1
  Ga  Ga13  1  0.24506856  0.49292898  0.78854579  1
  Ga  Ga14  1  0.73799754  0.78854579  0.50707102  1
  Ga  Ga15  1  0.03361435  0.21145421  0.49292898  1
  Ga  Ga16  1  0.03361435  0.49292898  0.21145421  1
  Ga  Ga17  1  0.73799754  0.50707102  0.78854579  1
  Ga  Ga18  1  0.79641053  0.16170895  0.83829105  1
  Ga  Ga19  1  0.79641053  0.83829105  0.16170895  1
  Ga  Ga20  1  0.95811948  0.83829105  0.83829105  1
  Ga  Ga21  1  0.63470158  0.16170895  0.16170895  1
  Ga  Ga22  1  0.64768889  0.38266495  0.61733505  1
  Ga  Ga23  1  0.64768889  0.61733505  0.38266495  1
  Ga  Ga24  1  0.03035384  0.61733505  0.61733505  1
  Ga  Ga25  1  0.26502394  0.38266495  0.38266495  1
  Ga  Ga26  1  0.42201789  0.73400318  0.00000000  1
  Ga  Ga27  1  0.15602107  0.26599682  -0.00000000  1
  Ga  Ga28  1  0.42201789  0.00000000  0.73400318  1
  Ga  Ga29  1  0.15602107  -0.00000000  0.26599682  1
  Co  Co30  1  0.48411642  0.21630072  0.78369928  1
  Co  Co31  1  0.48411642  0.78369928  0.21630072  1
  Co  Co32  1  0.70041714  0.78369928  0.78369928  1
  Co  Co33  1  0.26781570  0.21630072  0.21630072  1
  Co  Co34  1  0.14058694  0.67589308  0.00000000  1
  Co  Co35  1  0.81648002  0.32410692  0.00000000  1
  Co  Co36  1  0.14058694  0.00000000  0.67589308  1
  Co  Co37  1  0.81648002  0.00000000  0.32410692  1
  Co  Co38  1  0.89706065  0.50000000  0.50000000  1
  Co  Co39  1  0.39706065  0.50000000  0.50000000  1
