# generated using pymatgen
data_NaScP2O7
_symmetry_space_group_name_H-M   'P 1'
_cell_length_a   5.36276179
_cell_length_b   8.96783044
_cell_length_c   12.59104598
_cell_angle_alpha   104.07324325
_cell_angle_beta   90.00000000
_cell_angle_gamma   90.00000000
_symmetry_Int_Tables_number   1
_chemical_formula_structural   NaScP2O7
_chemical_formula_sum   'Na4 Sc4 P8 O28'
_cell_volume   587.35818593
_cell_formula_units_Z   4
loop_
 _symmetry_equiv_pos_site_id
 _symmetry_equiv_pos_as_xyz
  1  'x, y, z'
loop_
 _atom_site_type_symbol
 _atom_site_label
 _atom_site_symmetry_multiplicity
 _atom_site_fract_x
 _atom_site_fract_y
 _atom_site_fract_z
 _atom_site_occupancy
  Na  Na0  1  0.26896014  0.85945595  0.31018645  1
  Na  Na1  1  0.23103986  0.35945595  0.81018645  1
  Na  Na2  1  0.73103986  0.14054405  0.68981355  1
  Na  Na3  1  0.76896014  0.64054405  0.18981355  1
  Sc  Sc4  1  0.23838109  0.76736070  0.02747576  1
  Sc  Sc5  1  0.26161891  0.26736070  0.52747576  1
  Sc  Sc6  1  0.76161891  0.23263930  0.97252424  1
  Sc  Sc7  1  0.73838109  0.73263930  0.47252424  1
  P  P8  1  0.27619044  0.43541741  0.11647319  1
  P  P9  1  0.22380956  0.93541741  0.61647319  1
  P  P10  1  0.72380956  0.56458259  0.88352681  1
  P  P11  1  0.77619044  0.06458259  0.38352681  1
  P  P12  1  0.24594229  0.02126929  0.85298659  1
  P  P13  1  0.25405771  0.52126929  0.35298659  1
  P  P14  1  0.75405771  0.97873071  0.14701341  1
  P  P15  1  0.74594229  0.47873071  0.64701341  1
  O  O16  1  0.00477972  0.89834974  0.15309673  1
  O  O17  1  0.49522028  0.39834974  0.65309673  1
  O  O18  1  0.99522028  0.10165026  0.84690327  1
  O  O19  1  0.50477972  0.60165026  0.34690327  1
  O  O20  1  0.53801028  0.86257407  0.13477637  1
  O  O21  1  0.96198972  0.36257407  0.63477637  1
  O  O22  1  0.46198972  0.13742593  0.86522363  1
  O  O23  1  0.03801028  0.63742593  0.36522363  1
  O  O24  1  0.25421415  0.92492914  0.93635880  1
  O  O25  1  0.24578585  0.42492914  0.43635880  1
  O  O26  1  0.74578585  0.07507086  0.06364120  1
  O  O27  1  0.75421415  0.57507086  0.56364120  1
  O  O28  1  0.22715076  0.60868458  0.13265149  1
  O  O29  1  0.27284924  0.10868458  0.63265149  1
  O  O30  1  0.77284924  0.39131542  0.86734851  1
  O  O31  1  0.72715076  0.89131542  0.36734851  1
  O  O32  1  0.28108101  0.90013106  0.73477688  1
  O  O33  1  0.21891899  0.40013106  0.23477688  1
  O  O34  1  0.71891899  0.09986894  0.26522312  1
  O  O35  1  0.78108101  0.59986894  0.76522312  1
  O  O36  1  0.09473399  0.33559156  0.03782204  1
  O  O37  1  0.40526601  0.83559156  0.53782204  1
  O  O38  1  0.90526601  0.66440844  0.96217796  1
  O  O39  1  0.59473399  0.16440844  0.46217796  1
  O  O40  1  0.55024875  0.39668394  0.08769855  1
  O  O41  1  0.94975125  0.89668394  0.58769855  1
  O  O42  1  0.44975125  0.60331606  0.91230145  1
  O  O43  1  0.05024875  0.10331606  0.41230145  1
