# generated using pymatgen
data_Er5(Ge5Rh2)2
_symmetry_space_group_name_H-M   'P 1'
_cell_length_a   4.28206448
_cell_length_b   13.03775723
_cell_length_c   13.03775723
_cell_angle_alpha   90.00000000
_cell_angle_beta   90.00000000
_cell_angle_gamma   90.00000000
_symmetry_Int_Tables_number   1
_chemical_formula_structural   Er5(Ge5Rh2)2
_chemical_formula_sum   'Er10 Ge20 Rh8'
_cell_volume   727.87865290
_cell_formula_units_Z   2
loop_
 _symmetry_equiv_pos_site_id
 _symmetry_equiv_pos_as_xyz
  1  'x, y, z'
loop_
 _atom_site_type_symbol
 _atom_site_label
 _atom_site_symmetry_multiplicity
 _atom_site_fract_x
 _atom_site_fract_y
 _atom_site_fract_z
 _atom_site_occupancy
  Er  Er0  1  0.00000000  0.50000000  0.50000000  1
  Er  Er1  1  -0.00000000  -0.00000000  -0.00000000  1
  Er  Er2  1  0.50000000  0.17710884  0.67710884  1
  Er  Er3  1  0.50000000  0.82289116  0.32289116  1
  Er  Er4  1  0.50000000  0.32289116  0.17710884  1
  Er  Er5  1  0.50000000  0.67710884  0.82289116  1
  Er  Er6  1  0.50000000  0.38915486  0.88915486  1
  Er  Er7  1  0.50000000  0.61084514  0.11084514  1
  Er  Er8  1  0.50000000  0.11084514  0.38915486  1
  Er  Er9  1  0.50000000  0.88915486  0.61084514  1
  Ge  Ge10  1  -0.00000000  0.06682972  0.56682972  1
  Ge  Ge11  1  0.00000000  0.93317028  0.43317028  1
  Ge  Ge12  1  -0.00000000  0.43317028  0.06682972  1
  Ge  Ge13  1  0.00000000  0.56682972  0.93317028  1
  Ge  Ge14  1  0.00000000  0.70129451  0.65982519  1
  Ge  Ge15  1  -0.00000000  0.29870549  0.34017481  1
  Ge  Ge16  1  0.00000000  0.79870549  0.15982519  1
  Ge  Ge17  1  -0.00000000  0.20129451  0.84017481  1
  Ge  Ge18  1  0.00000000  0.65982519  0.29870549  1
  Ge  Ge19  1  -0.00000000  0.34017481  0.70129451  1
  Ge  Ge20  1  -0.00000000  0.15982519  0.20129451  1
  Ge  Ge21  1  0.00000000  0.84017481  0.79870549  1
  Ge  Ge22  1  0.50000000  0.49793882  0.65944911  1
  Ge  Ge23  1  0.50000000  0.50206118  0.34055089  1
  Ge  Ge24  1  0.50000000  0.00206118  0.15944911  1
  Ge  Ge25  1  0.50000000  0.99793882  0.84055089  1
  Ge  Ge26  1  0.50000000  0.65944911  0.50206118  1
  Ge  Ge27  1  0.50000000  0.34055089  0.49793882  1
  Ge  Ge28  1  0.50000000  0.15944911  0.99793882  1
  Ge  Ge29  1  0.50000000  0.84055089  0.00206118  1
  Rh  Rh30  1  0.00000000  0.02380999  0.75399238  1
  Rh  Rh31  1  -0.00000000  0.97619001  0.24600762  1
  Rh  Rh32  1  0.00000000  0.47619001  0.25399238  1
  Rh  Rh33  1  -0.00000000  0.52380999  0.74600762  1
  Rh  Rh34  1  0.00000000  0.75399238  0.97619001  1
  Rh  Rh35  1  -0.00000000  0.24600762  0.02380999  1
  Rh  Rh36  1  -0.00000000  0.25399238  0.52380999  1
  Rh  Rh37  1  0.00000000  0.74600762  0.47619001  1
