# generated using pymatgen
data_K2Na2Sm4Nb2O13
_symmetry_space_group_name_H-M   'P 1'
_cell_length_a   5.72466781
_cell_length_b   11.33285090
_cell_length_c   12.55468352
_cell_angle_alpha   115.69210786
_cell_angle_beta   103.17872201
_cell_angle_gamma   90.00000000
_symmetry_Int_Tables_number   1
_chemical_formula_structural   K2Na2Sm4Nb2O13
_chemical_formula_sum   'K4 Na4 Sm8 Nb4 O26'
_cell_volume   710.10333081
_cell_formula_units_Z   2
loop_
 _symmetry_equiv_pos_site_id
 _symmetry_equiv_pos_as_xyz
  1  'x, y, z'
loop_
 _atom_site_type_symbol
 _atom_site_label
 _atom_site_symmetry_multiplicity
 _atom_site_fract_x
 _atom_site_fract_y
 _atom_site_fract_z
 _atom_site_occupancy
  K  K0  1  0.19905499  0.86665128  0.50130935  1
  K  K1  1  0.69774564  0.63334872  0.49869065  1
  K  K2  1  0.80094501  0.13334872  0.49869065  1
  K  K3  1  0.30225436  0.36665128  0.50130935  1
  Na  Na4  1  0.12165685  0.52320751  0.31796031  1
  Na  Na5  1  0.80369654  0.97679249  0.68203969  1
  Na  Na6  1  0.87834315  0.47679249  0.68203969  1
  Na  Na7  1  0.19630346  0.02320751  0.31796031  1
  Sm  Sm8  1  0.39113813  0.04984416  0.87436282  1
  Sm  Sm9  1  0.51677531  0.45015584  0.12563718  1
  Sm  Sm10  1  0.60886187  0.95015584  0.12563718  1
  Sm  Sm11  1  0.48322469  0.54984416  0.87436282  1
  Sm  Sm12  1  0.02543573  0.67194746  0.12500397  1
  Sm  Sm13  1  0.90043176  0.82805254  0.87499603  1
  Sm  Sm14  1  0.97456427  0.32805254  0.87499603  1
  Sm  Sm15  1  0.09956824  0.17194746  0.12500397  1
  Nb  Nb16  1  0.31543998  0.71697421  0.69810758  1
  Nb  Nb17  1  0.61733239  0.78302579  0.30189242  1
  Nb  Nb18  1  0.68456002  0.28302579  0.30189242  1
  Nb  Nb19  1  0.38266761  0.21697421  0.69810758  1
  O  O20  1  0.09377907  0.85997501  0.73658996  1
  O  O21  1  0.35718911  0.64002499  0.26341004  1
  O  O22  1  0.90622093  0.14002499  0.26341004  1
  O  O23  1  0.64281089  0.35997501  0.73658996  1
  O  O24  1  0.13959038  0.12289638  0.73138164  1
  O  O25  1  0.40820874  0.37710362  0.26861836  1
  O  O26  1  0.86040962  0.87710362  0.26861836  1
  O  O27  1  0.59179126  0.62289638  0.73138164  1
  O  O28  1  0.82177504  0.63781184  0.26003487  1
  O  O29  1  0.56174017  0.86218816  0.73996513  1
  O  O30  1  0.17822496  0.36218816  0.73996513  1
  O  O31  1  0.43825983  0.13781184  0.26003487  1
  O  O32  1  0.20089075  0.62343504  0.52875892  1
  O  O33  1  0.67213183  0.87656496  0.47124108  1
  O  O34  1  0.79910925  0.37656496  0.47124108  1
  O  O35  1  0.32786817  0.12343504  0.52875892  1
  O  O36  1  0.75824070  0.75000000  1.00000000  1
  O  O37  1  0.24175930  0.25000000  0.00000000  1
  O  O38  1  0.63019571  0.15915910  0.79809898  1
  O  O39  1  0.83209674  0.34084090  0.20190102  1
  O  O40  1  0.36980429  0.84084090  0.20190102  1
  O  O41  1  0.16790326  0.65915910  0.79809898  1
  O  O42  1  0.24941880  0.97712621  0.00187825  1
  O  O43  1  0.24754055  0.52287379  0.99812175  1
  O  O44  1  0.75058120  0.02287379  0.99812175  1
  O  O45  1  0.75245945  0.47712621  0.00187825  1
