# generated using pymatgen
data_Lu2B6Ru
_symmetry_space_group_name_H-M   'P 1'
_cell_length_a   3.59742924
_cell_length_b   9.02241804
_cell_length_c   11.38529033
_cell_angle_alpha   90.00000000
_cell_angle_beta   90.00000000
_cell_angle_gamma   90.00000000
_symmetry_Int_Tables_number   1
_chemical_formula_structural   Lu2B6Ru
_chemical_formula_sum   'Lu8 B24 Ru4'
_cell_volume   369.53818012
_cell_formula_units_Z   4
loop_
 _symmetry_equiv_pos_site_id
 _symmetry_equiv_pos_as_xyz
  1  'x, y, z'
loop_
 _atom_site_type_symbol
 _atom_site_label
 _atom_site_symmetry_multiplicity
 _atom_site_fract_x
 _atom_site_fract_y
 _atom_site_fract_z
 _atom_site_occupancy
  Lu  Lu0  1  0.00000000  0.32093247  0.41414969  1
  Lu  Lu1  1  0.00000000  0.67906753  0.58585031  1
  Lu  Lu2  1  0.00000000  0.82093247  0.08585031  1
  Lu  Lu3  1  0.00000000  0.17906753  0.91414969  1
  Lu  Lu4  1  -0.00000000  0.94437645  0.37308828  1
  Lu  Lu5  1  0.00000000  0.05562355  0.62691172  1
  Lu  Lu6  1  0.00000000  0.44437645  0.12691172  1
  Lu  Lu7  1  0.00000000  0.55562355  0.87308828  1
  B  B8  1  0.50000000  0.55381720  0.43372730  1
  B  B9  1  0.50000000  0.44618280  0.56627270  1
  B  B10  1  0.50000000  0.05381720  0.06627270  1
  B  B11  1  0.50000000  0.94618280  0.93372730  1
  B  B12  1  0.50000000  0.74932198  0.42080326  1
  B  B13  1  0.50000000  0.25067802  0.57919674  1
  B  B14  1  0.50000000  0.24932198  0.07919674  1
  B  B15  1  0.50000000  0.75067802  0.92080326  1
  B  B16  1  0.50000000  0.79230537  0.26619450  1
  B  B17  1  0.50000000  0.20769463  0.73380550  1
  B  B18  1  0.50000000  0.29230537  0.23380550  1
  B  B19  1  0.50000000  0.70769463  0.76619450  1
  B  B20  1  0.50000000  0.63170035  0.18455931  1
  B  B21  1  0.50000000  0.36829965  0.81544069  1
  B  B22  1  0.50000000  0.13170035  0.31544069  1
  B  B23  1  0.50000000  0.86829965  0.68455931  1
  B  B24  1  0.50000000  0.98248321  0.21293459  1
  B  B25  1  0.50000000  0.01751679  0.78706541  1
  B  B26  1  0.50000000  0.48248321  0.28706541  1
  B  B27  1  0.50000000  0.51751679  0.71293459  1
  B  B28  1  0.50000000  0.60819185  0.02988147  1
  B  B29  1  0.50000000  0.39180815  0.97011853  1
  B  B30  1  0.50000000  0.10819185  0.47011853  1
  B  B31  1  0.50000000  0.89180815  0.52988147  1
  Ru  Ru32  1  -0.00000000  0.63784230  0.32084866  1
  Ru  Ru33  1  -0.00000000  0.36215770  0.67915134  1
  Ru  Ru34  1  0.00000000  0.13784230  0.17915134  1
  Ru  Ru35  1  -0.00000000  0.86215770  0.82084866  1
