# generated using pymatgen
data_Eu4Lu(SnS4)3
_symmetry_space_group_name_H-M   'P 1'
_cell_length_a   3.97064482
_cell_length_b   11.51220184
_cell_length_c   20.35641897
_cell_angle_alpha   90.00000000
_cell_angle_beta   90.00000000
_cell_angle_gamma   90.00000000
_symmetry_Int_Tables_number   1
_chemical_formula_structural   Eu4Lu(SnS4)3
_chemical_formula_sum   'Eu8 Lu2 Sn6 S24'
_cell_volume   930.50951134
_cell_formula_units_Z   2
loop_
 _symmetry_equiv_pos_site_id
 _symmetry_equiv_pos_as_xyz
  1  'x, y, z'
loop_
 _atom_site_type_symbol
 _atom_site_label
 _atom_site_symmetry_multiplicity
 _atom_site_fract_x
 _atom_site_fract_y
 _atom_site_fract_z
 _atom_site_occupancy
  Eu  Eu0  1  0.50000000  0.91044377  0.25928446  1
  Eu  Eu1  1  0.50000000  0.41044377  0.74071554  1
  Eu  Eu2  1  0.50000000  0.27361229  0.38178350  1
  Eu  Eu3  1  0.50000000  0.77361229  0.61821650  1
  Eu  Eu4  1  0.50000000  0.14841830  0.58802973  1
  Eu  Eu5  1  0.50000000  0.64841830  0.41197027  1
  Eu  Eu6  1  0.50000000  0.68801877  0.08446312  1
  Eu  Eu7  1  0.50000000  0.18801877  0.91553688  1
  Lu  Lu8  1  0.50000000  0.32752450  0.10466637  1
  Lu  Lu9  1  0.50000000  0.82752450  0.89533363  1
  Sn  Sn10  1  -0.00000000  0.01957796  0.08751479  1
  Sn  Sn11  1  -0.00000000  0.51957796  0.91248521  1
  Sn  Sn12  1  -0.00000000  0.49884421  0.24963019  1
  Sn  Sn13  1  -0.00000000  0.99884421  0.75036981  1
  Sn  Sn14  1  0.00000000  0.48788734  0.57518408  1
  Sn  Sn15  1  -0.00000000  0.98788734  0.42481592  1
  S  S16  1  0.50000000  0.95009158  0.01190390  1
  S  S17  1  0.50000000  0.45009158  0.98809610  1
  S  S18  1  0.50000000  0.10298791  0.15799362  1
  S  S19  1  0.50000000  0.60298791  0.84200638  1
  S  S20  1  0.50000000  0.34752573  0.23925719  1
  S  S21  1  0.50000000  0.84752573  0.76074281  1
  S  S22  1  0.50000000  0.42530811  0.50878780  1
  S  S23  1  0.50000000  0.92530811  0.49121220  1
  S  S24  1  0.50000000  0.14711081  0.74781891  1
  S  S25  1  0.50000000  0.64711081  0.25218109  1
  S  S26  1  0.00000000  0.21993752  0.03055505  1
  S  S27  1  0.00000000  0.71993752  0.96944495  1
  S  S28  1  0.00000000  0.49452530  0.12184753  1
  S  S29  1  0.00000000  0.99452530  0.87815247  1
  S  S30  1  -0.00000000  0.83538968  0.15531446  1
  S  S31  1  0.00000000  0.33538968  0.84468554  1
  S  S32  1  0.00000000  0.09612116  0.31920510  1
  S  S33  1  0.00000000  0.59612116  0.68079490  1
  S  S34  1  -0.00000000  0.46696231  0.37253523  1
  S  S35  1  0.00000000  0.96696231  0.62746477  1
  S  S36  1  0.00000000  0.18452312  0.48026737  1
  S  S37  1  0.00000000  0.68452312  0.51973263  1
  S  S38  1  -0.00000000  0.30844963  0.64770997  1
  S  S39  1  0.00000000  0.80844963  0.35229003  1
