# generated using pymatgen
data_In2Hg6(PCl3)3
_symmetry_space_group_name_H-M   'P 1'
_cell_length_a   10.54111260
_cell_length_b   10.94162724
_cell_length_c   11.07459228
_cell_angle_alpha   90.00000000
_cell_angle_beta   116.26213960
_cell_angle_gamma   90.00000000
_symmetry_Int_Tables_number   1
_chemical_formula_structural   In2Hg6(PCl3)3
_chemical_formula_sum   'In4 Hg12 P6 Cl18'
_cell_volume   1145.46427504
_cell_formula_units_Z   2
loop_
 _symmetry_equiv_pos_site_id
 _symmetry_equiv_pos_as_xyz
  1  'x, y, z'
loop_
 _atom_site_type_symbol
 _atom_site_label
 _atom_site_symmetry_multiplicity
 _atom_site_fract_x
 _atom_site_fract_y
 _atom_site_fract_z
 _atom_site_occupancy
  In  In0  1  0.64023099  0.12522910  0.91021617  1
  In  In1  1  0.35976901  0.62522910  0.08978383  1
  In  In2  1  0.30776682  0.25467634  0.67019081  1
  In  In3  1  0.69223318  0.75467634  0.32980919  1
  Hg  Hg4  1  0.82860428  0.51764951  0.00814865  1
  Hg  Hg5  1  0.17139572  0.01764951  0.99185135  1
  Hg  Hg6  1  0.72088056  0.44026470  0.62433776  1
  Hg  Hg7  1  0.27911944  0.94026470  0.37566224  1
  Hg  Hg8  1  0.48835536  0.68897474  0.67362573  1
  Hg  Hg9  1  0.51164464  0.18897474  0.32637427  1
  Hg  Hg10  1  0.13051684  0.27514288  0.22393401  1
  Hg  Hg11  1  0.86948316  0.77514288  0.77606599  1
  Hg  Hg12  1  0.85447326  0.36005161  0.35170614  1
  Hg  Hg13  1  0.14552674  0.86005161  0.64829386  1
  Hg  Hg14  1  0.11961376  0.61477679  0.37058758  1
  Hg  Hg15  1  0.88038624  0.11477679  0.62941242  1
  P  P16  1  0.98215210  0.44313093  0.23347871  1
  P  P17  1  0.01784790  0.94313093  0.76652129  1
  P  P18  1  0.73761247  0.27809131  0.48066836  1
  P  P19  1  0.26238753  0.77809131  0.51933164  1
  P  P20  1  0.72518348  0.60072648  0.78006189  1
  P  P21  1  0.27481652  0.10072648  0.21993811  1
  Cl  Cl22  1  0.86424897  0.21295446  0.91468452  1
  Cl  Cl23  1  0.13575103  0.71295446  0.08531548  1
  Cl  Cl24  1  0.12017545  0.12796109  0.48479668  1
  Cl  Cl25  1  0.87982455  0.62796109  0.51520332  1
  Cl  Cl26  1  0.53190879  0.34672368  0.86998687  1
  Cl  Cl27  1  0.46809121  0.84672368  0.13001313  1
  Cl  Cl28  1  0.36510976  0.07939100  0.84828127  1
  Cl  Cl29  1  0.63489024  0.57939100  0.15171873  1
  Cl  Cl30  1  0.51265613  0.12722272  0.64104464  1
  Cl  Cl31  1  0.48734387  0.62722272  0.35895536  1
  Cl  Cl32  1  0.34557780  0.40533991  0.51811666  1
  Cl  Cl33  1  0.65442220  0.90533991  0.48188334  1
  Cl  Cl34  1  0.12101220  0.34789364  0.71279694  1
  Cl  Cl35  1  0.87898780  0.84789364  0.28720306  1
  Cl  Cl36  1  0.69863524  0.14631918  0.15179802  1
  Cl  Cl37  1  0.30136476  0.64631918  0.84820198  1
  Cl  Cl38  1  0.69118763  0.90630995  0.90318396  1
  Cl  Cl39  1  0.30881237  0.40630995  0.09681604  1
