# generated using pymatgen
data_Tb6Al43Mo4
_symmetry_space_group_name_H-M   'P 1'
_cell_length_a   11.07316683
_cell_length_b   11.07310556
_cell_length_c   17.63055675
_cell_angle_alpha   90.00000000
_cell_angle_beta   90.00000000
_cell_angle_gamma   120.00018237
_symmetry_Int_Tables_number   1
_chemical_formula_structural   Tb6Al43Mo4
_chemical_formula_sum   'Tb12 Al86 Mo8'
_cell_volume   1872.13491835
_cell_formula_units_Z   2
loop_
 _symmetry_equiv_pos_site_id
 _symmetry_equiv_pos_as_xyz
  1  'x, y, z'
loop_
 _atom_site_type_symbol
 _atom_site_label
 _atom_site_symmetry_multiplicity
 _atom_site_fract_x
 _atom_site_fract_y
 _atom_site_fract_z
 _atom_site_occupancy
  Tb  Tb0  1  0.53098533  0.00000000  0.59520291  1
  Tb  Tb1  1  0.46901303  0.46901742  0.59520409  1
  Tb  Tb2  1  0.99999561  0.53098258  0.59520409  1
  Tb  Tb3  1  0.46901467  1.00000000  0.40479709  1
  Tb  Tb4  1  0.53098697  0.53098258  0.40479591  1
  Tb  Tb5  1  0.00000439  0.46901742  0.40479591  1
  Tb  Tb6  1  0.46901467  1.00000000  0.09520291  1
  Tb  Tb7  1  0.53098697  0.53098258  0.09520409  1
  Tb  Tb8  1  0.00000439  0.46901742  0.09520409  1
  Tb  Tb9  1  0.53098533  0.00000000  0.90479709  1
  Tb  Tb10  1  0.46901303  0.46901742  0.90479591  1
  Tb  Tb11  1  0.99999561  0.53098258  0.90479591  1
  Al  Al12  1  0.15827910  0.39429975  0.66369985  1
  Al  Al13  1  0.23601201  0.84172909  0.66370141  1
  Al  Al14  1  0.60569336  0.76397655  0.66369967  1
  Al  Al15  1  0.76397935  0.60570025  0.66369985  1
  Al  Al16  1  0.39428292  0.15827091  0.66370141  1
  Al  Al17  1  0.84171682  0.23602345  0.66369967  1
  Al  Al18  1  0.84172090  0.60570025  0.33630015  1
  Al  Al19  1  0.76398799  0.15827091  0.33629859  1
  Al  Al20  1  0.39430664  0.23602345  0.33630033  1
  Al  Al21  1  0.23602065  0.39429975  0.33630015  1
  Al  Al22  1  0.60571708  0.84172909  0.33629859  1
  Al  Al23  1  0.15828318  0.76397655  0.33630033  1
  Al  Al24  1  0.84172090  0.60570025  0.16369985  1
  Al  Al25  1  0.76398799  0.15827091  0.16370141  1
  Al  Al26  1  0.39430664  0.23602345  0.16369967  1
  Al  Al27  1  0.23602065  0.39429975  0.16369985  1
  Al  Al28  1  0.60571708  0.84172909  0.16370141  1
  Al  Al29  1  0.15828318  0.76397655  0.16369967  1
  Al  Al30  1  0.15827910  0.39429975  0.83630015  1
  Al  Al31  1  0.23601201  0.84172909  0.83629859  1
  Al  Al32  1  0.60569336  0.76397655  0.83630033  1
  Al  Al33  1  0.76397935  0.60570025  0.83630015  1
  Al  Al34  1  0.39428292  0.15827091  0.83629859  1
  Al  Al35  1  0.84171682  0.23602345  0.83630033  1
  Al  Al36  1  0.15892162  0.00000000  0.11496570  1
  Al  Al37  1  0.84107846  0.84107717  0.11496562  1
  Al  Al38  1  0.00000129  0.15892283  0.11496562  1
  Al  Al39  1  0.84107838  1.00000000  0.88503430  1
  Al  Al40  1  0.15892154  0.15892283  0.88503438  1
  Al  Al41  1  0.99999871  0.84107717  0.88503438  1
  Al  Al42  1  0.84107838  1.00000000  0.61496570  1
  Al  Al43  1  0.15892154  0.15892283  0.61496562  1
  Al  Al44  1  0.99999871  0.84107717  0.61496562  1
  Al  Al45  1  0.15892162  0.00000000  0.38503430  1
  Al  Al46  1  0.84107846  0.84107717  0.38503438  1
  Al  Al47  1  0.00000129  0.15892283  0.38503438  1
  Al  Al48  1  0.25365411  0.00000000  0.53061563  1
  Al  Al49  1  0.74634560  0.74634482  0.53061599  1
  Al  Al50  1  0.00000078  0.25365518  0.53061599  1
  Al  Al51  1  0.74634589  1.00000000  0.46938437  1
  Al  Al52  1  0.25365440  0.25365518  0.46938401  1
  Al  Al53  1  0.99999922  0.74634482  0.46938401  1
  Al  Al54  1  0.74634589  1.00000000  0.03061563  1
  Al  Al55  1  0.25365440  0.25365518  0.03061599  1
  Al  Al56  1  0.99999922  0.74634482  0.03061599  1
  Al  Al57  1  0.25365411  0.00000000  0.96938437  1
  Al  Al58  1  0.74634560  0.74634482  0.96938401  1
  Al  Al59  1  0.00000078  0.25365518  0.96938401  1
  Al  Al60  1  0.14748377  0.59604872  0.75000000  1
  Al  Al61  1  0.44856178  0.85251180  0.75000000  1
  Al  Al62  1  0.40394927  0.55144520  0.75000000  1
  Al  Al63  1  0.55143504  0.40395128  0.75000000  1
  Al  Al64  1  0.59604999  0.14748820  0.75000000  1
  Al  Al65  1  0.85250407  0.44855480  0.75000000  1
  Al  Al66  1  0.85251623  0.40395128  0.25000000  1
  Al  Al67  1  0.55143822  0.14748820  0.25000000  1
  Al  Al68  1  0.59605073  0.44855480  0.25000000  1
  Al  Al69  1  0.44856496  0.59604872  0.25000000  1
  Al  Al70  1  0.40395001  0.85251180  0.25000000  1
  Al  Al71  1  0.14749593  0.55144520  0.25000000  1
  Al  Al72  1  0.24718476  0.49436952  0.50000000  1
  Al  Al73  1  0.24717909  0.75281680  0.49999566  1
  Al  Al74  1  0.50563772  0.75281680  0.50000434  1
  Al  Al75  1  0.75281524  0.50563048  0.50000000  1
  Al  Al76  1  0.49436228  0.24718320  0.49999566  1
  Al  Al77  1  0.75282091  0.24718320  0.50000434  1
  Al  Al78  1  0.75281524  0.50563048  0.00000000  1
  Al  Al79  1  0.75282091  0.24718320  0.99999566  1
  Al  Al80  1  0.49436228  0.24718320  0.00000434  1
  Al  Al81  1  0.24718476  0.49436952  0.00000000  1
  Al  Al82  1  0.50563772  0.75281680  0.99999566  1
  Al  Al83  1  0.24717909  0.75281680  0.00000434  1
  Al  Al84  1  0.33330806  0.66669165  0.62629795  1
  Al  Al85  1  0.66661641  0.33330835  0.62629795  1
  Al  Al86  1  0.66669194  0.33330835  0.37370205  1
  Al  Al87  1  0.33338359  0.66669165  0.37370205  1
  Al  Al88  1  0.66669194  0.33330835  0.12629795  1
  Al  Al89  1  0.33338359  0.66669165  0.12629795  1
  Al  Al90  1  0.33330806  0.66669165  0.87370205  1
  Al  Al91  1  0.66661641  0.33330835  0.87370205  1
  Al  Al92  1  0.14700031  0.00000000  0.75000000  1
  Al  Al93  1  0.85299745  0.85299405  0.75000000  1
  Al  Al94  1  0.00000340  0.14700595  0.75000000  1
  Al  Al95  1  0.85299969  1.00000000  0.25000000  1
  Al  Al96  1  0.14700255  0.14700595  0.25000000  1
  Al  Al97  1  -0.00000340  0.85299405  0.25000000  1
  Mo  Mo98  1  0.72981860  1.00000000  0.75000000  1
  Mo  Mo99  1  0.27017641  0.27018247  0.75000000  1
  Mo  Mo100  1  0.99999394  0.72981753  0.75000000  1
  Mo  Mo101  1  0.27018140  0.00000000  0.25000000  1
  Mo  Mo102  1  0.72982359  0.72981753  0.25000000  1
  Mo  Mo103  1  0.00000606  0.27018247  0.25000000  1
  Mo  Mo104  1  -0.00000000  0.00000000  0.50000000  1
  Mo  Mo105  1  -0.00000000  0.00000000  0.00000000  1
