# generated using pymatgen
data_Cs3Tm11Te18
_symmetry_space_group_name_H-M   'P 1'
_cell_length_a   4.54639671
_cell_length_b   13.48601934
_cell_length_c   20.24006176
_cell_angle_alpha   100.02922478
_cell_angle_beta   90.00000000
_cell_angle_gamma   99.70408311
_symmetry_Int_Tables_number   1
_chemical_formula_structural   Cs3Tm11Te18
_chemical_formula_sum   'Cs3 Tm11 Te18'
_cell_volume   1203.97528659
_cell_formula_units_Z   1
loop_
 _symmetry_equiv_pos_site_id
 _symmetry_equiv_pos_as_xyz
  1  'x, y, z'
loop_
 _atom_site_type_symbol
 _atom_site_label
 _atom_site_symmetry_multiplicity
 _atom_site_fract_x
 _atom_site_fract_y
 _atom_site_fract_z
 _atom_site_occupancy
  Cs  Cs0  1  0.00000000  0.00000000  -0.00000000  1
  Cs  Cs1  1  0.30447179  0.60894358  0.40863442  1
  Cs  Cs2  1  0.69552821  0.39105642  0.59136558  1
  Tm  Tm3  1  0.50000000  0.00000000  0.50000000  1
  Tm  Tm4  1  0.03244153  0.06488306  0.75981507  1
  Tm  Tm5  1  0.96755847  0.93511694  0.24018493  1
  Tm  Tm6  1  0.65357623  0.30715246  0.22506440  1
  Tm  Tm7  1  0.34642377  0.69284754  0.77493560  1
  Tm  Tm8  1  0.33743279  0.67486557  0.18281108  1
  Tm  Tm9  1  0.66256721  0.32513443  0.81718892  1
  Tm  Tm10  1  0.20239600  0.40479200  0.06979541  1
  Tm  Tm11  1  0.79760400  0.59520800  0.93020459  1
  Tm  Tm12  1  0.09328904  0.18657808  0.37327964  1
  Tm  Tm13  1  0.90671096  0.81342192  0.62672036  1
  Te  Te14  1  0.07711914  0.15423828  0.21855223  1
  Te  Te15  1  0.92288086  0.84576172  0.78144777  1
  Te  Te16  1  0.50658314  0.01316629  0.35007962  1
  Te  Te17  1  0.49341686  0.98683371  0.64992038  1
  Te  Te18  1  0.23076097  0.46152194  0.22231154  1
  Te  Te19  1  0.76923903  0.53847806  0.77768846  1
  Te  Te20  1  0.07939796  0.15879591  0.51542268  1
  Te  Te21  1  0.92060204  0.84120409  0.48457732  1
  Te  Te22  1  0.13532414  0.27064828  0.72122808  1
  Te  Te23  1  0.86467586  0.72935172  0.27877192  1
  Te  Te24  1  0.44006742  0.88013484  0.14268215  1
  Te  Te25  1  0.55993258  0.11986516  0.85731785  1
  Te  Te26  1  0.62980292  0.25960583  0.07101911  1
  Te  Te27  1  0.37019708  0.74039417  0.92898089  1
  Te  Te28  1  0.79051768  0.58103535  0.07796204  1
  Te  Te29  1  0.20948232  0.41896465  0.92203796  1
  Te  Te30  1  0.32941118  0.65882237  0.62133287  1
  Te  Te31  1  0.67058882  0.34117763  0.37866713  1
