# generated using pymatgen
data_MnZnH22C5N10(Cl2O3)2
_symmetry_space_group_name_H-M   'P 1'
_cell_length_a   7.93576971
_cell_length_b   12.41748270
_cell_length_c   13.91011898
_cell_angle_alpha   108.29539667
_cell_angle_beta   103.29686340
_cell_angle_gamma   101.50298722
_symmetry_Int_Tables_number   1
_chemical_formula_structural   MnZnH22C5N10(Cl2O3)2
_chemical_formula_sum   'Mn2 Zn2 H44 C10 N20 Cl8 O12'
_cell_volume   1210.59589634
_cell_formula_units_Z   2
loop_
 _symmetry_equiv_pos_site_id
 _symmetry_equiv_pos_as_xyz
  1  'x, y, z'
loop_
 _atom_site_type_symbol
 _atom_site_label
 _atom_site_symmetry_multiplicity
 _atom_site_fract_x
 _atom_site_fract_y
 _atom_site_fract_z
 _atom_site_occupancy
  Mn  Mn0  1  0.96910011  0.77290791  0.74670549  1
  Mn  Mn1  1  0.03089989  0.22709209  0.25329451  1
  Zn  Zn2  1  0.54799139  0.28185750  0.69996049  1
  Zn  Zn3  1  0.45200861  0.71814250  0.30003951  1
  H  H4  1  0.02489592  0.78768752  0.38489836  1
  H  H5  1  0.97510408  0.21231248  0.61510164  1
  H  H6  1  0.88306824  0.85851553  0.44388981  1
  H  H7  1  0.11693176  0.14148447  0.55611019  1
  H  H8  1  0.21966362  0.72856486  0.61309445  1
  H  H9  1  0.78033638  0.27143514  0.38690555  1
  H  H10  1  0.22094332  0.70925734  0.48244040  1
  H  H11  1  0.77905668  0.29074266  0.51755960  1
  H  H12  1  0.47433502  0.90627043  0.80784913  1
  H  H13  1  0.52566498  0.09372957  0.19215087  1
  H  H14  1  0.47554836  -0.00001237  0.73848757  1
  H  H15  1  0.52445164  0.00001237  0.26151243  1
  H  H16  1  0.80523827  0.91220923  0.62787263  1
  H  H17  1  0.19476173  0.08779077  0.37212737  1
  H  H18  1  0.65034327  0.99653301  0.62903421  1
  H  H19  1  0.34965673  0.00346699  0.37096579  1
  H  H20  1  0.47788891  0.55382165  0.76482790  1
  H  H21  1  0.52211109  0.44617835  0.23517210  1
  H  H22  1  0.53010522  0.69403309  0.75725366  1
  H  H23  1  0.46989478  0.30596691  0.24274634  1
  H  H24  1  0.03415630  0.54461942  0.77052990  1
  H  H25  1  0.96584370  0.45538058  0.22947010  1
  H  H26  1  0.20232123  0.47238619  0.77959409  1
  H  H27  1  0.79767877  0.52761381  0.22040591  1
  H  H28  1  0.26292242  0.10641222  0.05813732  1
  H  H29  1  0.73707758  0.89358778  0.94186268  1
  H  H30  1  0.33483246  0.21270553  0.00934657  1
  H  H31  1  0.66516754  0.78729447  0.99065343  1
  H  H32  1  0.15114284  0.01672022  0.73833185  1
  H  H33  1  0.84885716  0.98327978  0.26166815  1
  H  H34  1  0.26909745  0.16371902  0.82416351  1
  H  H35  1  0.73090255  0.83628098  0.17583649  1
  H  H36  1  0.93670954  0.62174914  0.05648195  1
  H  H37  1  0.06329046  0.37825086  0.94351805  1
  H  H38  1  0.78047597  0.54210067  0.92819231  1
  H  H39  1  0.21952403  0.45789933  0.07180769  1
  H  H40  1  0.15794187  0.79254814  0.08822559  1
  H  H41  1  0.84205813  0.20745186  0.91177441  1
  H  H42  1  0.16247586  0.84593763  0.98482722  1
  H  H43  1  0.83752414  0.15406237  0.01517278  1
  H  H44  1  0.72029921  0.54195180  0.61490817  1
  H  H45  1  0.27970079  0.45804820  0.38509183  1
  H  H46  1  0.71666636  0.62264747  0.54856135  1
  H  H47  1  0.28333364  0.37735253  0.45143865  1
  C  C48  1  0.05266521  0.80326919  0.54039496  1
  C  C49  1  0.94733479  0.19673081  0.45960504  1
  C  C50  1  0.66434704  0.90915074  0.73264322  1
  C  C51  1  0.33565296  0.09084926  0.26735678  1
  C  C52  1  0.27211321  0.63184607  0.76058898  1
  C  C53  1  0.72788679  0.36815393  0.23941102  1
  C  C54  1  0.20743807  0.04344250  0.89624747  1
  C  C55  1  0.79256193  0.95655750  0.10375253  1
  C  C56  1  0.96680208  0.69035911  0.94181930  1
  C  C57  1  0.03319792  0.30964089  0.05818070  1
  N  N58  1  0.98597137  0.82080303  0.45031674  1
  N  N59  1  0.01402863  0.17919697  0.54968326  1
  N  N60  1  0.17644337  0.74400469  0.54488683  1
  N  N61  1  0.82355663  0.25599531  0.45511317  1
  N  N62  1  0.54469731  0.95555936  0.77580131  1
  N  N63  1  0.45530269  0.04444064  0.22419869  1
  N  N64  1  0.71583063  0.94704395  0.66075471  1
  N  N65  1  0.28416937  0.05295605  0.33924529  1
  N  N66  1  0.44394137  0.62931787  0.76816118  1
  N  N67  1  0.55605863  0.37068213  0.23183882  1
  N  N68  1  0.15758990  0.53875376  0.76494910  1
  N  N69  1  0.84241010  0.46124624  0.23505090  1
  N  N70  1  0.29212429  0.12545254  0.99665859  1
  N  N71  1  0.70787571  0.87454746  0.00334141  1
  N  N72  1  0.20834215  0.07867692  0.81387999  1
  N  N73  1  0.79165785  0.92132308  0.18612001  1
  N  N74  1  0.88309594  0.61510286  0.98023892  1
  N  N75  1  0.11690406  0.38489714  0.01976108  1
  N  N76  1  0.11331132  0.78097776  0.01002491  1
  N  N77  1  0.88668868  0.21902224  0.98997509  1
  Cl  Cl78  1  0.52300567  0.37735030  0.58140700  1
  Cl  Cl79  1  0.47699433  0.62264970  0.41859300  1
  Cl  Cl80  1  0.38310924  0.08678200  0.61097847  1
  Cl  Cl81  1  0.61689076  0.91321800  0.38902153  1
  Cl  Cl82  1  0.84831472  0.29223490  0.76237238  1
  Cl  Cl83  1  0.15168528  0.70776510  0.23762762  1
  Cl  Cl84  1  0.44138740  0.37099267  0.83390301  1
  Cl  Cl85  1  0.55861260  0.62900733  0.16609699  1
  O  O86  1  0.99975143  0.84457340  0.62174059  1
  O  O87  1  0.00024857  0.15542660  0.37825941  1
  O  O88  1  0.72827715  0.83518443  0.76449412  1
  O  O89  1  0.27172285  0.16481557  0.23550588  1
  O  O90  1  0.22275638  0.72036027  0.74962084  1
  O  O91  1  0.77724362  0.27963973  0.25037916  1
  O  O92  1  0.13472814  0.93643445  0.88199076  1
  O  O93  1  0.86527186  0.06356555  0.11800924  1
  O  O94  1  0.90557888  0.67431898  0.84376019  1
  O  O95  1  0.09442112  0.32568102  0.15623981  1
  O  O96  1  0.79517831  0.61143673  0.60825374  1
  O  O97  1  0.20482169  0.38856327  0.39174626  1
