# generated using pymatgen
data_CsGaBP2HO9
_symmetry_space_group_name_H-M   'P 1'
_cell_length_a   8.84298162
_cell_length_b   9.49390962
_cell_length_c   9.79616349
_cell_angle_alpha   104.46386420
_cell_angle_beta   90.00000000
_cell_angle_gamma   90.00000000
_symmetry_Int_Tables_number   1
_chemical_formula_structural   CsGaBP2HO9
_chemical_formula_sum   'Cs4 Ga4 B4 P8 H4 O36'
_cell_volume   796.36501950
_cell_formula_units_Z   4
loop_
 _symmetry_equiv_pos_site_id
 _symmetry_equiv_pos_as_xyz
  1  'x, y, z'
loop_
 _atom_site_type_symbol
 _atom_site_label
 _atom_site_symmetry_multiplicity
 _atom_site_fract_x
 _atom_site_fract_y
 _atom_site_fract_z
 _atom_site_occupancy
  Cs  Cs0  1  0.11352534  0.69613399  0.05468967  1
  Cs  Cs1  1  0.61352534  0.30386601  0.44531033  1
  Cs  Cs2  1  0.88647466  0.30386601  0.94531033  1
  Cs  Cs3  1  0.38647466  0.69613399  0.55468967  1
  Ga  Ga4  1  0.65696256  0.69898552  0.92835081  1
  Ga  Ga5  1  0.15696256  0.30101448  0.57164919  1
  Ga  Ga6  1  0.34303744  0.30101448  0.07164919  1
  Ga  Ga7  1  0.84303744  0.69898552  0.42835081  1
  B  B8  1  0.96548924  0.15520082  0.30385603  1
  B  B9  1  0.46548924  0.84479918  0.19614397  1
  B  B10  1  0.03451076  0.84479918  0.69614397  1
  B  B11  1  0.53451076  0.15520082  0.80385603  1
  P  P12  1  0.57267746  0.57516349  0.20029678  1
  P  P13  1  0.07267746  0.42483651  0.29970322  1
  P  P14  1  0.42732254  0.42483651  0.79970322  1
  P  P15  1  0.92732254  0.57516349  0.70029678  1
  P  P16  1  0.77183405  0.91390688  0.21567420  1
  P  P17  1  0.27183405  0.08609312  0.28432580  1
  P  P18  1  0.22816595  0.08609312  0.78432580  1
  P  P19  1  0.72816595  0.91390688  0.71567420  1
  H  H20  1  0.43927470  0.89436417  0.00026363  1
  H  H21  1  0.93927470  0.10563583  0.49973637  1
  H  H22  1  0.56072530  0.10563583  -0.00026363  1
  H  H23  1  0.06072530  0.89436417  0.50026363  1
  O  O24  1  0.60048543  0.92862260  0.26099064  1
  O  O25  1  0.10048543  0.07137740  0.23900936  1
  O  O26  1  0.39951457  0.07137740  0.73900936  1
  O  O27  1  0.89951457  0.92862260  0.76099064  1
  O  O28  1  0.66589272  0.58077162  0.06937657  1
  O  O29  1  0.16589272  0.41922838  0.43062343  1
  O  O30  1  0.33410728  0.41922838  0.93062343  1
  O  O31  1  0.83410728  0.58077162  0.56937657  1
  O  O32  1  0.45050459  0.70233786  0.22898665  1
  O  O33  1  0.95050459  0.29766214  0.27101335  1
  O  O34  1  0.54949541  0.29766214  0.77101335  1
  O  O35  1  0.04949541  0.70233786  0.72898665  1
  O  O36  1  0.82656662  0.07638967  0.25068836  1
  O  O37  1  0.32656662  0.92361033  0.24931164  1
  O  O38  1  0.17343338  0.92361033  0.74931164  1
  O  O39  1  0.67343338  0.07638967  0.75068836  1
  O  O40  1  0.78716409  0.84929068  0.05723928  1
  O  O41  1  0.28716409  0.15070932  0.44276072  1
  O  O42  1  0.21283591  0.15070932  0.94276072  1
  O  O43  1  0.71283591  0.84929068  0.55723928  1
  O  O44  1  0.67025988  0.59574248  0.33391433  1
  O  O45  1  0.17025988  0.40425752  0.16608567  1
  O  O46  1  0.32974012  0.40425752  0.66608567  1
  O  O47  1  0.82974012  0.59574248  0.83391433  1
  O  O48  1  0.48933428  0.43075115  0.18817634  1
  O  O49  1  0.98933428  0.56924885  0.31182366  1
  O  O50  1  0.51066572  0.56924885  0.81182366  1
  O  O51  1  0.01066572  0.43075115  0.68817634  1
  O  O52  1  0.86610120  0.83348132  0.30340091  1
  O  O53  1  0.36610120  0.16651868  0.19659909  1
  O  O54  1  0.13389880  0.16651868  0.69659909  1
  O  O55  1  0.63389880  0.83348132  0.80340091  1
  O  O56  1  0.47013979  0.81381732  0.03849553  1
  O  O57  1  0.97013979  0.18618268  0.46150447  1
  O  O58  1  0.52986021  0.18618268  0.96150447  1
  O  O59  1  0.02986021  0.81381732  0.53849553  1
