# generated using pymatgen
data_Tl2Mo3SeO12
_symmetry_space_group_name_H-M   'P 1'
_cell_length_a   7.37870346
_cell_length_b   7.37871865
_cell_length_c   12.18883644
_cell_angle_alpha   89.99990618
_cell_angle_beta   90.00018772
_cell_angle_gamma   119.99993550
_symmetry_Int_Tables_number   1
_chemical_formula_structural   Tl2Mo3SeO12
_chemical_formula_sum   'Tl4 Mo6 Se2 O24'
_cell_volume   574.71716917
_cell_formula_units_Z   2
loop_
 _symmetry_equiv_pos_site_id
 _symmetry_equiv_pos_as_xyz
  1  'x, y, z'
loop_
 _atom_site_type_symbol
 _atom_site_label
 _atom_site_symmetry_multiplicity
 _atom_site_fract_x
 _atom_site_fract_y
 _atom_site_fract_z
 _atom_site_occupancy
  Tl  Tl0  1  0.33330009  0.66669887  0.15832014  1
  Tl  Tl1  1  0.66660121  0.33330113  0.65832014  1
  Tl  Tl2  1  0.66669507  0.33330516  0.26673601  1
  Tl  Tl3  1  0.33338991  0.66669484  0.76673601  1
  Mo  Mo4  1  0.33948184  0.14020037  0.93398786  1
  Mo  Mo5  1  0.80071869  0.66052024  0.93398529  1
  Mo  Mo6  1  0.85980401  0.19928556  0.93398244  1
  Mo  Mo7  1  0.19928147  0.85979963  0.43398786  1
  Mo  Mo8  1  0.14019846  0.33947976  0.43398529  1
  Mo  Mo9  1  0.66051845  0.80071444  0.43398244  1
  Se  Se10  1  0.99999850  0.00000183  0.20111666  1
  Se  Se11  1  0.99999667  0.99999817  0.70111666  1
  O  O12  1  0.40832996  0.20148647  0.07134776  1
  O  O13  1  0.79316357  0.59167054  0.07134934  1
  O  O14  1  0.79851064  0.20683788  0.07134838  1
  O  O15  1  0.20684349  0.79851353  0.57134776  1
  O  O16  1  0.20149303  0.40832946  0.57134934  1
  O  O17  1  0.59167276  0.79316212  0.57134838  1
  O  O18  1  0.24733247  0.12648035  0.76144496  1
  O  O19  1  0.87914596  0.75266757  0.76144575  1
  O  O20  1  0.87351659  0.12084973  0.76144658  1
  O  O21  1  0.12085212  0.87351965  0.26144496  1
  O  O22  1  0.12647839  0.24733243  0.26144575  1
  O  O23  1  0.75266686  0.87915027  0.26144658  1
  O  O24  1  0.54739482  0.08674635  0.88531839  1
  O  O25  1  0.53935016  0.45260382  0.88531829  1
  O  O26  1  0.91325709  0.46065121  0.88532059  1
  O  O27  1  0.46064847  0.91325365  0.38531839  1
  O  O28  1  0.08674634  0.54739618  0.38531829  1
  O  O29  1  0.45260588  0.53934879  0.38532059  1
  O  O30  1  0.12154277  0.87092024  0.94767443  1
  O  O31  1  0.74937752  0.87845670  0.94767363  1
  O  O32  1  0.12908205  0.25062070  0.94767350  1
  O  O33  1  0.25062253  0.12907976  0.44767443  1
  O  O34  1  0.87092082  0.12154330  0.44767363  1
  O  O35  1  0.87846135  0.74937930  0.44767350  1
