# generated using pymatgen
data_Ga2Cu(SeO3)4
_symmetry_space_group_name_H-M   'P 1'
_cell_length_a   4.67680026
_cell_length_b   15.18498497
_cell_length_c   17.29938668
_cell_angle_alpha   115.49328225
_cell_angle_beta   90.00000000
_cell_angle_gamma   90.00000000
_symmetry_Int_Tables_number   1
_chemical_formula_structural   Ga2Cu(SeO3)4
_chemical_formula_sum   'Ga8 Cu4 Se16 O48'
_cell_volume   1108.93585874
_cell_formula_units_Z   4
loop_
 _symmetry_equiv_pos_site_id
 _symmetry_equiv_pos_as_xyz
  1  'x, y, z'
loop_
 _atom_site_type_symbol
 _atom_site_label
 _atom_site_symmetry_multiplicity
 _atom_site_fract_x
 _atom_site_fract_y
 _atom_site_fract_z
 _atom_site_occupancy
  Ga  Ga0  1  0.57702752  0.72721641  0.57933124  1
  Ga  Ga1  1  0.07702752  0.77278359  0.42066876  1
  Ga  Ga2  1  0.42297248  0.27278359  0.42066876  1
  Ga  Ga3  1  0.92297248  0.22721641  0.57933124  1
  Ga  Ga4  1  0.59652504  0.35015206  0.08136681  1
  Ga  Ga5  1  0.09652504  0.14984794  0.91863319  1
  Ga  Ga6  1  0.40347496  0.64984794  0.91863319  1
  Ga  Ga7  1  0.90347496  0.85015206  0.08136681  1
  Cu  Cu8  1  0.00000000  0.50000000  0.50000000  1
  Cu  Cu9  1  0.50000000  0.00000000  0.50000000  1
  Cu  Cu10  1  0.50000000  0.00000000  -0.00000000  1
  Cu  Cu11  1  0.00000000  0.50000000  -0.00000000  1
  Se  Se12  1  0.60876630  0.59932523  0.39352996  1
  Se  Se13  1  0.10876630  0.90067477  0.60647004  1
  Se  Se14  1  0.39123370  0.40067477  0.60647004  1
  Se  Se15  1  0.89123370  0.09932523  0.39352996  1
  Se  Se16  1  0.05854141  0.66014948  0.67829860  1
  Se  Se17  1  0.55854141  0.83985052  0.32170140  1
  Se  Se18  1  0.94145859  0.33985052  0.32170140  1
  Se  Se19  1  0.44145859  0.16014948  0.67829860  1
  Se  Se20  1  0.12934596  0.20252339  0.10529991  1
  Se  Se21  1  0.62934596  0.29747661  0.89470009  1
  Se  Se22  1  0.87065404  0.79747661  0.89470009  1
  Se  Se23  1  0.37065404  0.70252339  0.10529991  1
  Se  Se24  1  0.08096608  0.51408624  0.17924618  1
  Se  Se25  1  0.58096608  0.98591376  0.82075382  1
  Se  Se26  1  0.91903392  0.48591376  0.82075382  1
  Se  Se27  1  0.41903392  0.01408624  0.17924618  1
  O  O28  1  0.74826866  0.60026740  0.48870592  1
  O  O29  1  0.24826866  0.89973260  0.51129408  1
  O  O30  1  0.25173134  0.39973260  0.51129408  1
  O  O31  1  0.75173134  0.10026740  0.48870592  1
  O  O32  1  0.87394110  0.64984733  0.35729274  1
  O  O33  1  0.37394110  0.85015267  0.64270726  1
  O  O34  1  0.12605890  0.35015267  0.64270726  1
  O  O35  1  0.62605890  0.14984733  0.35729274  1
  O  O36  1  0.39473276  0.69979357  0.45855157  1
  O  O37  1  0.89473276  0.80020643  0.54144843  1
  O  O38  1  0.60526724  0.30020643  0.54144843  1
  O  O39  1  0.10526724  0.19979357  0.45855157  1
  O  O40  1  0.80459885  0.74374269  0.67748203  1
  O  O41  1  0.30459885  0.75625731  0.32251797  1
  O  O42  1  0.19540115  0.25625731  0.32251797  1
  O  O43  1  0.69540115  0.24374269  0.67748203  1
  O  O44  1  0.28502610  0.64401766  0.59355755  1
  O  O45  1  0.78502610  0.85598234  0.40644245  1
  O  O46  1  0.71497390  0.35598234  0.40644245  1
  O  O47  1  0.21497390  0.14401766  0.59355755  1
  O  O48  1  0.90167478  0.54704305  0.62442871  1
  O  O49  1  0.40167478  0.95295695  0.37557129  1
  O  O50  1  0.09832522  0.45295695  0.37557129  1
  O  O51  1  0.59832522  0.04704305  0.62442871  1
  O  O52  1  0.91584106  0.24254551  0.04258457  1
  O  O53  1  0.41584106  0.25745449  0.95741543  1
  O  O54  1  0.08415894  0.75745449  0.95741543  1
  O  O55  1  0.58415894  0.74254551  0.04258457  1
  O  O56  1  0.39572314  0.28792910  0.14368957  1
  O  O57  1  0.89572314  0.21207090  0.85631043  1
  O  O58  1  0.60427686  0.71207090  0.85631043  1
  O  O59  1  0.10427686  0.78792910  0.14368957  1
  O  O60  1  0.26528800  0.11157463  0.00875409  1
  O  O61  1  0.76528800  0.38842537  0.99124591  1
  O  O62  1  0.73471200  0.88842537  0.99124591  1
  O  O63  1  0.23471200  0.61157463  0.00875409  1
  O  O64  1  0.29538591  0.44331990  0.09251277  1
  O  O65  1  0.79538591  0.05668010  0.90748723  1
  O  O66  1  0.70461409  0.55668010  0.90748723  1
  O  O67  1  0.20461409  0.94331990  0.09251277  1
  O  O68  1  0.81555370  0.43390480  0.18100219  1
  O  O69  1  0.31555370  0.06609520  0.81899781  1
  O  O70  1  0.18444630  0.56609520  0.81899781  1
  O  O71  1  0.68444630  0.93390480  0.18100219  1
  O  O72  1  0.92269814  0.57547092  0.12634859  1
  O  O73  1  0.42269814  0.92452908  0.87365141  1
  O  O74  1  0.07730186  0.42452908  0.87365141  1
  O  O75  1  0.57730186  0.07547092  0.12634859  1
