# generated using pymatgen
data_Tm6Co30P19
_symmetry_space_group_name_H-M   'P 1'
_cell_length_a   3.55807567
_cell_length_b   14.63564131
_cell_length_c   14.63564131
_cell_angle_alpha   120.00000012
_cell_angle_beta   90.00000000
_cell_angle_gamma   90.00000000
_symmetry_Int_Tables_number   1
_chemical_formula_structural   Tm6Co30P19
_chemical_formula_sum   'Tm6 Co30 P19'
_cell_volume   660.03858646
_cell_formula_units_Z   1
loop_
 _symmetry_equiv_pos_site_id
 _symmetry_equiv_pos_as_xyz
  1  'x, y, z'
loop_
 _atom_site_type_symbol
 _atom_site_label
 _atom_site_symmetry_multiplicity
 _atom_site_fract_x
 _atom_site_fract_y
 _atom_site_fract_z
 _atom_site_occupancy
  Tm  Tm0  1  0.50000000  0.29546023  0.90234923  1
  Tm  Tm1  1  0.50000000  0.09765077  0.39311100  1
  Tm  Tm2  1  0.50000000  0.60688900  0.70453977  1
  Tm  Tm3  1  0.00000000  0.70469012  0.09799175  1
  Tm  Tm4  1  -0.00000000  0.90200825  0.60669837  1
  Tm  Tm5  1  0.00000000  0.39330163  0.29530988  1
  Co  Co6  1  0.50000000  0.42729595  0.77568504  1
  Co  Co7  1  0.50000000  0.22431496  0.65161090  1
  Co  Co8  1  0.50000000  0.34838910  0.57270405  1
  Co  Co9  1  0.00000000  0.57330469  0.22477473  1
  Co  Co10  1  0.00000000  0.77522527  0.34852995  1
  Co  Co11  1  -0.00000000  0.65147005  0.42669531  1
  Co  Co12  1  0.50000000  0.53715386  0.07395942  1
  Co  Co13  1  0.50000000  0.92604058  0.46319444  1
  Co  Co14  1  0.50000000  0.53680556  0.46284614  1
  Co  Co15  1  -0.00000000  0.46094103  0.92598835  1
  Co  Co16  1  -0.00000000  0.07401165  0.53495268  1
  Co  Co17  1  0.00000000  0.46504732  0.53905897  1
  Co  Co18  1  0.50000000  0.04374602  0.77373953  1
  Co  Co19  1  0.50000000  0.22626047  0.27000648  1
  Co  Co20  1  0.50000000  0.72999352  0.95625398  1
  Co  Co21  1  -0.00000000  0.95012734  0.22485439  1
  Co  Co22  1  -0.00000000  0.77514561  0.72527295  1
  Co  Co23  1  0.00000000  0.27472705  0.04987266  1
  Co  Co24  1  0.50000000  0.73453801  0.58332950  1
  Co  Co25  1  0.50000000  0.41667050  0.15120851  1
  Co  Co26  1  0.50000000  0.84879149  0.26546199  1
  Co  Co27  1  -0.00000000  0.26622589  0.41406881  1
  Co  Co28  1  0.00000000  0.58593119  0.85215708  1
  Co  Co29  1  -0.00000000  0.14784292  0.73377411  1
  Co  Co30  1  0.50000000  0.13035579  0.97251464  1
  Co  Co31  1  0.50000000  0.02748536  0.15784116  1
  Co  Co32  1  0.50000000  0.84215884  0.86964421  1
  Co  Co33  1  0.00000000  0.88803435  0.02446446  1
  Co  Co34  1  0.00000000  0.97553554  0.86356989  1
  Co  Co35  1  -0.00000000  0.13643011  0.11196565  1
  P  P36  1  0.50000000  0.68298467  0.23212919  1
  P  P37  1  0.50000000  0.76787081  0.45085548  1
  P  P38  1  0.50000000  0.54914452  0.31701533  1
  P  P39  1  0.00000000  0.31480775  0.76770246  1
  P  P40  1  -0.00000000  0.23229754  0.54710529  1
  P  P41  1  0.00000000  0.45289471  0.68519225  1
  P  P42  1  0.50000000  0.87954246  0.74324588  1
  P  P43  1  0.50000000  0.25675412  0.13629658  1
  P  P44  1  0.50000000  0.86370342  0.12045754  1
  P  P45  1  -0.00000000  0.12000626  0.25497285  1
  P  P46  1  0.00000000  0.74502715  0.86503341  1
  P  P47  1  0.00000000  0.13496659  0.87999374  1
  P  P48  1  0.50000000  0.06073825  0.62871400  1
  P  P49  1  0.50000000  0.37128600  0.43202425  1
  P  P50  1  0.50000000  0.56797575  0.93926175  1
  P  P51  1  -0.00000000  0.93729434  0.37048615  1
  P  P52  1  -0.00000000  0.62951385  0.56680819  1
  P  P53  1  0.00000000  0.43319181  0.06270566  1
  P  P54  1  0.50000000  -0.00000000  -0.00000000  1
