# generated using pymatgen
data_Li4MnCo2O7
_symmetry_space_group_name_H-M   'P 1'
_cell_length_a   2.97555392
_cell_length_b   10.66246342
_cell_length_c   8.10287064
_cell_angle_alpha   78.34331211
_cell_angle_beta   89.03917556
_cell_angle_gamma   85.79860063
_symmetry_Int_Tables_number   1
_chemical_formula_structural   Li4MnCo2O7
_chemical_formula_sum   'Li8 Mn2 Co4 O14'
_cell_volume   251.09850605
_cell_formula_units_Z   2
loop_
 _symmetry_equiv_pos_site_id
 _symmetry_equiv_pos_as_xyz
  1  'x, y, z'
loop_
 _atom_site_type_symbol
 _atom_site_label
 _atom_site_symmetry_multiplicity
 _atom_site_fract_x
 _atom_site_fract_y
 _atom_site_fract_z
 _atom_site_occupancy
  Li  Li0  1  0.85266209  0.28781354  0.92739969  1
  Li  Li1  1  0.14042515  0.71406293  0.06803657  1
  Li  Li2  1  0.42009232  0.14966555  0.21662493  1
  Li  Li3  1  0.27942049  0.42896044  0.64540848  1
  Li  Li4  1  0.57488762  0.85111950  0.77374775  1
  Li  Li5  1  0.72328286  0.56917787  0.36400340  1
  Li  Li6  1  0.01088534  0.99266866  0.50591122  1
  Li  Li7  1  0.12990628  0.71979250  0.57602639  1
  Mn  Mn8  1  0.00821723  0.99928925  0.99639011  1
  Mn  Mn9  1  0.57804001  0.85203335  0.29631969  1
  Co  Co10  1  0.28389315  0.42895039  0.14151191  1
  Co  Co11  1  0.85890110  0.28750806  0.42734823  1
  Co  Co12  1  0.42879647  0.14456416  0.71098517  1
  Co  Co13  1  0.70573735  0.57585698  0.84687638  1
  O  O14  1  0.40560369  0.14013234  0.95402306  1
  O  O15  1  0.69046185  0.56220498  0.09119324  1
  O  O16  1  0.03583654  0.98316839  0.24684147  1
  O  O17  1  0.83430318  0.27876292  0.66697934  1
  O  O18  1  0.11985055  0.70122091  0.82675902  1
  O  O19  1  0.26044214  0.42562862  0.38087981  1
  O  O20  1  0.56387369  0.85890474  0.51950340  1
  O  O21  1  0.30597323  0.43529344  0.90518360  1
  O  O22  1  0.60228453  0.86237881  0.04539677  1
  O  O23  1  0.87964212  0.29167190  0.18913144  1
  O  O24  1  0.71976481  0.56604519  0.63439134  1
  O  O25  1  0.02386611  0.00869015  0.75290645  1
  O  O26  1  0.11133169  0.73039873  0.31860005  1
  O  O27  1  0.45161842  0.15403568  0.47162111  1
