# generated using pymatgen
data_Tb5Zr3(Ni4As3)4
_symmetry_space_group_name_H-M   'P 1'
_cell_length_a   3.92129019
_cell_length_b   12.72144744
_cell_length_c   12.73321460
_cell_angle_alpha   119.96943166
_cell_angle_beta   90.00000000
_cell_angle_gamma   90.00000000
_symmetry_Int_Tables_number   1
_chemical_formula_structural   Tb5Zr3(Ni4As3)4
_chemical_formula_sum   'Tb5 Zr3 Ni16 As12'
_cell_volume   550.25993553
_cell_formula_units_Z   1
loop_
 _symmetry_equiv_pos_site_id
 _symmetry_equiv_pos_as_xyz
  1  'x, y, z'
loop_
 _atom_site_type_symbol
 _atom_site_label
 _atom_site_symmetry_multiplicity
 _atom_site_fract_x
 _atom_site_fract_y
 _atom_site_fract_z
 _atom_site_occupancy
  Tb  Tb0  1  0.50000000  0.00012769  0.18276624  1
  Tb  Tb1  1  0.50000000  0.18247047  1.00000000  1
  Tb  Tb2  1  0.50000000  0.81736145  0.81723376  1
  Tb  Tb3  1  0.00000000  0.33340094  0.66663889  1
  Tb  Tb4  1  0.00000000  0.66676205  0.33336111  1
  Zr  Zr5  1  0.00000000  0.99990132  0.56294452  1
  Zr  Zr6  1  0.00000000  0.56298796  0.00000000  1
  Zr  Zr7  1  0.00000000  0.43695680  0.43705548  1
  Ni  Ni8  1  0.50000000  0.99981686  0.72201197  1
  Ni  Ni9  1  0.50000000  0.72224155  0.00000000  1
  Ni  Ni10  1  0.50000000  0.27780490  0.27798803  1
  Ni  Ni11  1  -0.00000000  0.19233458  0.37450613  1
  Ni  Ni12  1  0.00000000  0.18241304  0.80764864  1
  Ni  Ni13  1  0.00000000  0.62566263  0.81826098  1
  Ni  Ni14  1  -0.00000000  0.81782845  0.62549387  1
  Ni  Ni15  1  0.00000000  0.37476440  0.19235136  1
  Ni  Ni16  1  0.00000000  0.80740165  0.18173902  1
  Ni  Ni17  1  0.50000000  0.12123712  0.48186865  1
  Ni  Ni18  1  0.50000000  0.36047419  0.87890988  1
  Ni  Ni19  1  0.50000000  0.51825385  0.63902932  1
  Ni  Ni20  1  0.50000000  0.63936847  0.51813135  1
  Ni  Ni21  1  0.50000000  0.48156431  0.12109012  1
  Ni  Ni22  1  0.50000000  0.87922452  0.36097068  1
  Ni  Ni23  1  -0.00000000  -0.00000512  1.00000000  1
  As  As24  1  -0.00000000  0.00003914  0.82172033  1
  As  As25  1  0.00000000  0.82178166  0.00000000  1
  As  As26  1  -0.00000000  0.17831881  0.17827967  1
  As  As27  1  0.50000000  0.30741884  0.47928740  1
  As  As28  1  0.50000000  0.17169204  0.69256799  1
  As  As29  1  0.50000000  0.52063496  0.82799407  1
  As  As30  1  0.50000000  0.82813144  0.52071260  1
  As  As31  1  0.50000000  0.47912404  0.30743201  1
  As  As32  1  0.50000000  0.69264089  0.17200593  1
  As  As33  1  0.00000000  0.99969155  0.35549883  1
  As  As34  1  0.00000000  0.35587981  1.00000000  1
  As  As35  1  0.00000000  0.64419272  0.64450117  1
