# generated using pymatgen
data_Gd5Pb4
_symmetry_space_group_name_H-M   'P 1'
_cell_length_a   8.30480085
_cell_length_b   8.37891972
_cell_length_c   15.93666954
_cell_angle_alpha   90.00000000
_cell_angle_beta   90.00000000
_cell_angle_gamma   90.00000000
_symmetry_Int_Tables_number   1
_chemical_formula_structural   Gd5Pb4
_chemical_formula_sum   'Gd20 Pb16'
_cell_volume   1108.95728730
_cell_formula_units_Z   4
loop_
 _symmetry_equiv_pos_site_id
 _symmetry_equiv_pos_as_xyz
  1  'x, y, z'
loop_
 _atom_site_type_symbol
 _atom_site_label
 _atom_site_symmetry_multiplicity
 _atom_site_fract_x
 _atom_site_fract_y
 _atom_site_fract_z
 _atom_site_occupancy
  Gd  Gd0  1  0.37791491  0.83990394  0.88050723  1
  Gd  Gd1  1  0.87791491  0.66009606  0.61949277  1
  Gd  Gd2  1  0.62208509  0.16009606  0.38050723  1
  Gd  Gd3  1  0.12208509  0.33990394  0.11949277  1
  Gd  Gd4  1  0.62208509  0.16009606  0.11949277  1
  Gd  Gd5  1  0.12208509  0.33990394  0.38050723  1
  Gd  Gd6  1  0.37791491  0.83990394  0.61949277  1
  Gd  Gd7  1  0.87791491  0.66009606  0.88050723  1
  Gd  Gd8  1  0.53314220  0.32217369  0.90025634  1
  Gd  Gd9  1  0.03314220  0.17782631  0.59974366  1
  Gd  Gd10  1  0.46685780  0.67782631  0.40025634  1
  Gd  Gd11  1  0.96685780  0.82217369  0.09974366  1
  Gd  Gd12  1  0.46685780  0.67782631  0.09974366  1
  Gd  Gd13  1  0.96685780  0.82217369  0.40025634  1
  Gd  Gd14  1  0.53314220  0.32217369  0.59974366  1
  Gd  Gd15  1  0.03314220  0.17782631  0.90025634  1
  Gd  Gd16  1  0.20793508  0.50376988  0.75000000  1
  Gd  Gd17  1  0.70793508  0.99623012  0.75000000  1
  Gd  Gd18  1  0.79206492  0.49623012  0.25000000  1
  Gd  Gd19  1  0.29206492  0.00376988  0.25000000  1
  Pb  Pb20  1  0.28094890  0.03157238  0.04288557  1
  Pb  Pb21  1  0.78094890  0.46842762  0.45711443  1
  Pb  Pb22  1  0.71905110  0.96842762  0.54288557  1
  Pb  Pb23  1  0.21905110  0.53157238  0.95711443  1
  Pb  Pb24  1  0.71905110  0.96842762  0.95711443  1
  Pb  Pb25  1  0.21905110  0.53157238  0.54288557  1
  Pb  Pb26  1  0.28094890  0.03157238  0.45711443  1
  Pb  Pb27  1  0.78094890  0.46842762  0.04288557  1
  Pb  Pb28  1  0.57307341  0.62364777  0.75000000  1
  Pb  Pb29  1  0.07307341  0.87635223  0.75000000  1
  Pb  Pb30  1  0.42692659  0.37635223  0.25000000  1
  Pb  Pb31  1  0.92692659  0.12364777  0.25000000  1
  Pb  Pb32  1  0.34194664  0.14929322  0.75000000  1
  Pb  Pb33  1  0.84194664  0.35070678  0.75000000  1
  Pb  Pb34  1  0.65805336  0.85070678  0.25000000  1
  Pb  Pb35  1  0.15805336  0.64929322  0.25000000  1
