# generated using pymatgen
data_Y2B6Os
_symmetry_space_group_name_H-M   'P 1'
_cell_length_a   3.66455557
_cell_length_b   9.17379364
_cell_length_c   11.55741381
_cell_angle_alpha   90.00000000
_cell_angle_beta   90.00000000
_cell_angle_gamma   90.00000000
_symmetry_Int_Tables_number   1
_chemical_formula_structural   Y2B6Os
_chemical_formula_sum   'Y8 B24 Os4'
_cell_volume   388.53571107
_cell_formula_units_Z   4
loop_
 _symmetry_equiv_pos_site_id
 _symmetry_equiv_pos_as_xyz
  1  'x, y, z'
loop_
 _atom_site_type_symbol
 _atom_site_label
 _atom_site_symmetry_multiplicity
 _atom_site_fract_x
 _atom_site_fract_y
 _atom_site_fract_z
 _atom_site_occupancy
  Y  Y0  1  0.00000000  0.32220960  0.41350249  1
  Y  Y1  1  -0.00000000  0.67779040  0.58649751  1
  Y  Y2  1  0.00000000  0.82220960  0.08649751  1
  Y  Y3  1  0.00000000  0.17779040  0.91350249  1
  Y  Y4  1  0.00000000  0.94482364  0.37361780  1
  Y  Y5  1  0.00000000  0.05517636  0.62638220  1
  Y  Y6  1  0.00000000  0.44482364  0.12638220  1
  Y  Y7  1  -0.00000000  0.55517636  0.87361780  1
  B  B8  1  0.50000000  0.55406518  0.43276192  1
  B  B9  1  0.50000000  0.44593482  0.56723808  1
  B  B10  1  0.50000000  0.05406518  0.06723808  1
  B  B11  1  0.50000000  0.94593482  0.93276192  1
  B  B12  1  0.50000000  0.74783436  0.42042306  1
  B  B13  1  0.50000000  0.25216564  0.57957694  1
  B  B14  1  0.50000000  0.24783436  0.07957694  1
  B  B15  1  0.50000000  0.75216564  0.92042306  1
  B  B16  1  0.50000000  0.79124699  0.26760139  1
  B  B17  1  0.50000000  0.20875301  0.73239861  1
  B  B18  1  0.50000000  0.29124699  0.23239861  1
  B  B19  1  0.50000000  0.70875301  0.76760139  1
  B  B20  1  0.50000000  0.63269970  0.18577976  1
  B  B21  1  0.50000000  0.36730030  0.81422024  1
  B  B22  1  0.50000000  0.13269970  0.31422024  1
  B  B23  1  0.50000000  0.86730030  0.68577976  1
  B  B24  1  0.50000000  0.98415611  0.21323615  1
  B  B25  1  0.50000000  0.01584389  0.78676385  1
  B  B26  1  0.50000000  0.48415611  0.28676385  1
  B  B27  1  0.50000000  0.51584389  0.71323615  1
  B  B28  1  0.50000000  0.61169242  0.03087257  1
  B  B29  1  0.50000000  0.38830758  0.96912743  1
  B  B30  1  0.50000000  0.11169242  0.46912743  1
  B  B31  1  0.50000000  0.88830758  0.53087257  1
  Os  Os32  1  -0.00000000  0.63808732  0.32144536  1
  Os  Os33  1  0.00000000  0.36191268  0.67855464  1
  Os  Os34  1  0.00000000  0.13808732  0.17855464  1
  Os  Os35  1  -0.00000000  0.86191268  0.82144536  1
