# generated using pymatgen
data_Sn3SbF9
_symmetry_space_group_name_H-M   'P 1'
_cell_length_a   4.78887274
_cell_length_b   9.38316747
_cell_length_c   21.62739331
_cell_angle_alpha   90.00000000
_cell_angle_beta   90.00000000
_cell_angle_gamma   90.00000000
_symmetry_Int_Tables_number   1
_chemical_formula_structural   Sn3SbF9
_chemical_formula_sum   'Sn12 Sb4 F36'
_cell_volume   971.82248286
_cell_formula_units_Z   4
loop_
 _symmetry_equiv_pos_site_id
 _symmetry_equiv_pos_as_xyz
  1  'x, y, z'
loop_
 _atom_site_type_symbol
 _atom_site_label
 _atom_site_symmetry_multiplicity
 _atom_site_fract_x
 _atom_site_fract_y
 _atom_site_fract_z
 _atom_site_occupancy
  Sn  Sn0  1  0.05638055  0.75000000  0.50000000  1
  Sn  Sn1  1  0.94361945  0.25000000  -0.00000000  1
  Sn  Sn2  1  0.94361945  0.25000000  0.50000000  1
  Sn  Sn3  1  0.05638055  0.75000000  -0.00000000  1
  Sn  Sn4  1  0.50636845  0.51004380  0.62032442  1
  Sn  Sn5  1  0.49363155  0.48995620  0.12032442  1
  Sn  Sn6  1  0.50636845  0.98995620  0.37967558  1
  Sn  Sn7  1  0.49363155  0.01004380  0.87967558  1
  Sn  Sn8  1  0.49363155  0.48995620  0.37967558  1
  Sn  Sn9  1  0.50636845  0.51004380  0.87967558  1
  Sn  Sn10  1  0.49363155  0.01004380  0.62032442  1
  Sn  Sn11  1  0.50636845  0.98995620  0.12032442  1
  Sb  Sb12  1  0.05223056  0.25130483  0.75000000  1
  Sb  Sb13  1  0.94776944  0.74869517  0.25000000  1
  Sb  Sb14  1  0.05223056  0.24869517  0.25000000  1
  Sb  Sb15  1  0.94776944  0.75130483  0.75000000  1
  F  F16  1  0.17865124  0.92595520  0.75000000  1
  F  F17  1  0.82134876  0.07404480  0.25000000  1
  F  F18  1  0.17865124  0.57404480  0.25000000  1
  F  F19  1  0.82134876  0.42595520  0.75000000  1
  F  F20  1  0.38726585  0.82375536  0.55910043  1
  F  F21  1  0.61273415  0.17624464  0.05910043  1
  F  F22  1  0.38726585  0.67624464  0.44089957  1
  F  F23  1  0.61273415  0.32375536  0.94089957  1
  F  F24  1  0.61273415  0.17624464  0.44089957  1
  F  F25  1  0.38726585  0.82375536  0.94089957  1
  F  F26  1  0.61273415  0.32375536  0.55910043  1
  F  F27  1  0.38726585  0.67624464  0.05910043  1
  F  F28  1  0.22374076  0.36360874  0.65954917  1
  F  F29  1  0.77625924  0.63639126  0.15954917  1
  F  F30  1  0.22374076  0.13639126  0.34045083  1
  F  F31  1  0.77625924  0.86360874  0.84045083  1
  F  F32  1  0.77625924  0.63639126  0.34045083  1
  F  F33  1  0.22374076  0.36360874  0.84045083  1
  F  F34  1  0.77625924  0.86360874  0.65954917  1
  F  F35  1  0.22374076  0.13639126  0.15954917  1
  F  F36  1  0.18497385  0.54373300  0.55325015  1
  F  F37  1  0.81502615  0.45626700  0.05325015  1
  F  F38  1  0.18497385  0.95626700  0.44674985  1
  F  F39  1  0.81502615  0.04373300  0.94674985  1
  F  F40  1  0.81502615  0.45626700  0.44674985  1
  F  F41  1  0.18497385  0.54373300  0.94674985  1
  F  F42  1  0.81502615  0.04373300  0.55325015  1
  F  F43  1  0.18497385  0.95626700  0.05325015  1
  F  F44  1  0.22266426  0.67406662  0.68697498  1
  F  F45  1  0.77733574  0.32593338  0.18697498  1
  F  F46  1  0.22266426  0.82593338  0.31302502  1
  F  F47  1  0.77733574  0.17406662  0.81302502  1
  F  F48  1  0.77733574  0.32593338  0.31302502  1
  F  F49  1  0.22266426  0.67406662  0.81302502  1
  F  F50  1  0.77733574  0.17406662  0.68697498  1
  F  F51  1  0.22266426  0.82593338  0.18697498  1
