# generated using pymatgen
data_NaAu(IO3)4
_symmetry_space_group_name_H-M   'P 1'
_cell_length_a   4.73998995
_cell_length_b   11.14905830
_cell_length_c   12.46662717
_cell_angle_alpha   116.30901261
_cell_angle_beta   90.00000000
_cell_angle_gamma   90.00000000
_symmetry_Int_Tables_number   1
_chemical_formula_structural   NaAu(IO3)4
_chemical_formula_sum   'Na2 Au2 I8 O24'
_cell_volume   590.57428048
_cell_formula_units_Z   2
loop_
 _symmetry_equiv_pos_site_id
 _symmetry_equiv_pos_as_xyz
  1  'x, y, z'
loop_
 _atom_site_type_symbol
 _atom_site_label
 _atom_site_symmetry_multiplicity
 _atom_site_fract_x
 _atom_site_fract_y
 _atom_site_fract_z
 _atom_site_occupancy
  Na  Na0  1  0.00000000  0.00000000  0.50000000  1
  Na  Na1  1  0.50000000  0.50000000  0.00000000  1
  Au  Au2  1  0.00000000  0.00000000  0.00000000  1
  Au  Au3  1  0.50000000  0.50000000  0.50000000  1
  I  I4  1  0.55344311  0.66261157  0.32045907  1
  I  I5  1  0.05344311  0.83738843  0.17954093  1
  I  I6  1  0.44655689  0.33738843  0.67954093  1
  I  I7  1  0.94655689  0.16261157  0.82045907  1
  I  I8  1  0.99774121  0.33178080  0.15208130  1
  I  I9  1  0.49774121  0.16821920  0.34791870  1
  I  I10  1  0.00225879  0.66821920  0.84791870  1
  I  I11  1  0.50225879  0.83178080  0.65208130  1
  O  O12  1  0.72004323  0.61102434  0.43553041  1
  O  O13  1  0.22004323  0.88897566  0.06446959  1
  O  O14  1  0.27995677  0.38897566  0.56446959  1
  O  O15  1  0.77995677  0.11102434  0.93553041  1
  O  O16  1  0.71833058  0.53373820  0.18531680  1
  O  O17  1  0.21833058  0.96626180  0.31468320  1
  O  O18  1  0.28166942  0.46626180  0.81468320  1
  O  O19  1  0.78166942  0.03373820  0.68531680  1
  O  O20  1  0.82093298  0.79000461  0.34647417  1
  O  O21  1  0.32093298  0.70999539  0.15352583  1
  O  O22  1  0.17906702  0.20999539  0.65352583  1
  O  O23  1  0.67906702  0.29000461  0.84647417  1
  O  O24  1  0.23713138  0.43031295  0.27075019  1
  O  O25  1  0.73713138  0.06968705  0.22924981  1
  O  O26  1  0.76286862  0.56968705  0.72924981  1
  O  O27  1  0.26286862  0.93031295  0.77075019  1
  O  O28  1  0.13754242  0.35305419  0.02485068  1
  O  O29  1  0.63754242  0.14694581  0.47514932  1
  O  O30  1  0.86245758  0.64694581  0.97514932  1
  O  O31  1  0.36245758  0.85305419  0.52485068  1
  O  O32  1  0.19757404  0.16759231  0.11988655  1
  O  O33  1  0.69757404  0.33240769  0.38011345  1
  O  O34  1  0.80242596  0.83240769  0.88011345  1
  O  O35  1  0.30242596  0.66759231  0.61988655  1
