# generated using pymatgen
data_SnH16(ClO2)4
_symmetry_space_group_name_H-M   'P 1'
_cell_length_a   7.90269124
_cell_length_b   8.94808724
_cell_length_c   11.93214252
_cell_angle_alpha   74.23313093
_cell_angle_beta   70.66132473
_cell_angle_gamma   63.79491360
_symmetry_Int_Tables_number   1
_chemical_formula_structural   SnH16(ClO2)4
_chemical_formula_sum   'Sn2 H32 Cl8 O16'
_cell_volume   706.44012502
_cell_formula_units_Z   2
loop_
 _symmetry_equiv_pos_site_id
 _symmetry_equiv_pos_as_xyz
  1  'x, y, z'
loop_
 _atom_site_type_symbol
 _atom_site_label
 _atom_site_symmetry_multiplicity
 _atom_site_fract_x
 _atom_site_fract_y
 _atom_site_fract_z
 _atom_site_occupancy
  Sn  Sn0  1  0.86326424  0.25000000  0.75000000  1
  Sn  Sn1  1  0.13673576  0.75000000  0.25000000  1
  H  H2  1  0.12311747  0.19564827  0.88107216  1
  H  H3  1  0.19983789  0.30435173  0.61892784  1
  H  H4  1  0.87688253  0.80435173  0.11892784  1
  H  H5  1  0.80016211  0.69564827  0.38107216  1
  H  H6  1  0.15669071  0.00205481  0.85867497  1
  H  H7  1  0.01742049  0.49794519  0.64132503  1
  H  H8  1  0.84330929  0.99794519  0.14132503  1
  H  H9  1  0.98257951  0.50205481  0.35867497  1
  H  H10  1  0.33998212  0.24859045  0.91192203  1
  H  H11  1  0.50049460  0.25140955  0.58807797  1
  H  H12  1  0.66001788  0.75140955  0.08807797  1
  H  H13  1  0.49950540  0.74859045  0.41192203  1
  H  H14  1  0.16299782  0.42266193  0.88768631  1
  H  H15  1  0.47334607  0.07733807  0.61231369  1
  H  H16  1  0.83700218  0.57733807  0.11231369  1
  H  H17  1  0.52665393  0.92266193  0.38768631  1
  H  H18  1  0.32507488  0.75722349  0.92498873  1
  H  H19  1  0.00728710  0.74277651  0.57501127  1
  H  H20  1  0.67492512  0.24277651  0.07501127  1
  H  H21  1  0.99271290  0.25722349  0.42498873  1
  H  H22  1  0.14696330  0.70216722  0.83972539  1
  H  H23  1  0.68885591  0.79783278  0.66027461  1
  H  H24  1  0.85303670  0.29783278  0.16027461  1
  H  H25  1  0.31114409  0.20216722  0.33972539  1
  H  H26  1  0.95394220  0.67650879  0.91394506  1
  H  H27  1  0.54439605  0.82349121  0.58605494  1
  H  H28  1  0.04605780  0.32349121  0.08605494  1
  H  H29  1  0.45560395  0.17650879  0.41394506  1
  H  H30  1  0.39444212  0.81377218  0.78268673  1
  H  H31  1  0.99090103  0.68622782  0.71731327  1
  H  H32  1  0.60555788  0.18622782  0.21731327  1
  H  H33  1  0.00909897  0.31377218  0.28268673  1
  Cl  Cl34  1  0.71817300  0.46589258  0.87847051  1
  Cl  Cl35  1  0.06253609  0.03410742  0.62152949  1
  Cl  Cl36  1  0.28182700  0.53410742  0.12152949  1
  Cl  Cl37  1  0.93746391  0.96589258  0.37847051  1
  Cl  Cl38  1  0.63857116  0.40832751  0.61747078  1
  Cl  Cl39  1  0.66436946  0.09167249  0.88252922  1
  Cl  Cl40  1  0.36142884  0.59167249  0.38252922  1
  Cl  Cl41  1  0.33563054  0.90832751  0.11747078  1
  O  O42  1  0.06590336  0.12667757  0.86091796  1
  O  O43  1  0.05349889  0.37332243  0.63908204  1
  O  O44  1  0.93409664  0.87332243  0.13908204  1
  O  O45  1  0.94650111  0.62667757  0.36091796  1
  O  O46  1  0.27883522  0.81385208  0.85212785  1
  O  O47  1  0.94481515  0.68614792  0.64787215  1
  O  O48  1  0.72116478  0.18614792  0.14787215  1
  O  O49  1  0.05518485  0.31385208  0.35212785  1
  O  O50  1  0.06476933  0.64162695  0.84372081  1
  O  O51  1  0.55011708  0.85837305  0.65627919  1
  O  O52  1  0.93523067  0.35837305  0.15627919  1
  O  O53  1  0.44988292  0.14162695  0.34372081  1
  O  O54  1  0.19715652  0.30207138  0.92593209  1
  O  O55  1  0.42515999  0.19792862  0.57406791  1
  O  O56  1  0.80284348  0.69792862  0.07406791  1
  O  O57  1  0.57484001  0.80207138  0.42593209  1
