# generated using pymatgen
data_Li4MnCo2O7
_symmetry_space_group_name_H-M   'P 1'
_cell_length_a   2.97135119
_cell_length_b   5.96498082
_cell_length_c   14.30182063
_cell_angle_alpha   82.92714382
_cell_angle_beta   95.47333302
_cell_angle_gamma   94.09183005
_symmetry_Int_Tables_number   1
_chemical_formula_structural   Li4MnCo2O7
_chemical_formula_sum   'Li8 Mn2 Co4 O14'
_cell_volume   249.95404621
_cell_formula_units_Z   2
loop_
 _symmetry_equiv_pos_site_id
 _symmetry_equiv_pos_as_xyz
  1  'x, y, z'
loop_
 _atom_site_type_symbol
 _atom_site_label
 _atom_site_symmetry_multiplicity
 _atom_site_fract_x
 _atom_site_fract_y
 _atom_site_fract_z
 _atom_site_occupancy
  Li  Li0  1  0.00541550  0.50351117  0.00474356  1
  Li  Li1  1  0.57724656  0.20377382  0.14772262  1
  Li  Li2  1  0.13884657  0.92387462  0.28015502  1
  Li  Li3  1  0.42657178  0.78876309  0.85656014  1
  Li  Li4  1  0.85762163  0.07129975  0.71367817  1
  Li  Li5  1  0.28409220  0.35587992  0.56863037  1
  Li  Li6  1  0.71252530  0.64310071  0.42748421  1
  Li  Li7  1  0.56610504  0.72208221  0.14680860  1
  Mn  Mn8  1  0.00612073  0.99265950  0.00534401  1
  Mn  Mn9  1  0.85669744  0.57215086  0.71380280  1
  Co  Co10  1  0.13602360  0.43862547  0.27972305  1
  Co  Co11  1  0.71526789  0.14282381  0.42675990  1
  Co  Co12  1  0.28285889  0.86099541  0.56970155  1
  Co  Co13  1  0.43943782  0.28161485  0.85704341  1
  O  O14  1  0.52153664  0.22360065  0.99457990  1
  O  O15  1  0.06063888  0.97026478  0.13305375  1
  O  O16  1  0.61443848  0.65801292  0.28705290  1
  O  O17  1  0.90064693  0.52271022  0.85480571  1
  O  O18  1  0.32365633  0.81860198  0.70750181  1
  O  O19  1  0.75521424  0.09992640  0.56332855  1
  O  O20  1  0.18337301  0.38162042  0.41763704  1
  O  O21  1  0.47734399  0.78006011  0.00012218  1
  O  O22  1  0.08018766  0.45682869  0.15686245  1
  O  O23  1  0.67049175  0.18996595  0.29283690  1
  O  O24  1  0.96309973  0.04812081  0.86330132  1
  O  O25  1  0.38847727  0.32539856  0.72076007  1
  O  O26  1  0.81261098  0.61827320  0.57481017  1
  O  O27  1  0.24345315  0.90546011  0.43518984  1
