# generated using pymatgen
data_CsRe3(Se2Br)2
_symmetry_space_group_name_H-M   'P 1'
_cell_length_a   6.68257209
_cell_length_b   9.64776276
_cell_length_c   19.34724241
_cell_angle_alpha   90.00000000
_cell_angle_beta   90.00000000
_cell_angle_gamma   103.87691703
_symmetry_Int_Tables_number   1
_chemical_formula_structural   CsRe3(Se2Br)2
_chemical_formula_sum   'Cs4 Re12 Se16 Br8'
_cell_volume   1210.94664056
_cell_formula_units_Z   4
loop_
 _symmetry_equiv_pos_site_id
 _symmetry_equiv_pos_as_xyz
  1  'x, y, z'
loop_
 _atom_site_type_symbol
 _atom_site_label
 _atom_site_symmetry_multiplicity
 _atom_site_fract_x
 _atom_site_fract_y
 _atom_site_fract_z
 _atom_site_occupancy
  Cs  Cs0  1  0.00514816  0.04769684  0.69006646  1
  Cs  Cs1  1  0.50514816  0.54769684  0.80993354  1
  Cs  Cs2  1  0.99485184  0.95230316  0.30993354  1
  Cs  Cs3  1  0.49485184  0.45230316  0.19006646  1
  Re  Re4  1  0.78452822  0.57042413  0.49531053  1
  Re  Re5  1  0.28452822  0.07042413  0.00468947  1
  Re  Re6  1  0.21547178  0.42957587  0.50468947  1
  Re  Re7  1  0.71547178  0.92957587  0.99531053  1
  Re  Re8  1  0.48026961  0.65171121  0.55910018  1
  Re  Re9  1  0.98026961  0.15171121  0.94089982  1
  Re  Re10  1  0.51973039  0.34828879  0.44089982  1
  Re  Re11  1  0.01973039  0.84828879  0.05910018  1
  Re  Re12  1  0.46735022  0.60828533  0.42152236  1
  Re  Re13  1  0.96735022  0.10828533  0.07847764  1
  Re  Re14  1  0.53264978  0.39171467  0.57847764  1
  Re  Re15  1  0.03264978  0.89171467  0.92152236  1
  Se  Se16  1  0.72367448  0.81899124  0.47731838  1
  Se  Se17  1  0.22367448  0.31899124  0.02268162  1
  Se  Se18  1  0.27632552  0.18100876  0.52268162  1
  Se  Se19  1  0.77632552  0.68100876  0.97731838  1
  Se  Se20  1  0.79000402  0.61127650  0.62501886  1
  Se  Se21  1  0.29000402  0.11127650  0.87498114  1
  Se  Se22  1  0.20999598  0.38872350  0.37498114  1
  Se  Se23  1  0.70999598  0.88872350  0.12501886  1
  Se  Se24  1  0.76609142  0.52918116  0.36558197  1
  Se  Se25  1  0.26609142  0.02918116  0.13441803  1
  Se  Se26  1  0.23390858  0.47081884  0.63441803  1
  Se  Se27  1  0.73390858  0.97081884  0.86558197  1
  Se  Se28  1  0.81394403  0.30308347  0.51487398  1
  Se  Se29  1  0.31394403  0.80308347  0.98512602  1
  Se  Se30  1  0.18605597  0.69691653  0.48512602  1
  Se  Se31  1  0.68605597  0.19691653  0.01487398  1
  Br  Br32  1  0.46008845  0.85869501  0.64234503  1
  Br  Br33  1  0.96008845  0.35869501  0.85765497  1
  Br  Br34  1  0.53991155  0.14130499  0.35765497  1
  Br  Br35  1  0.03991155  0.64130499  0.14234503  1
  Br  Br36  1  0.42835346  0.74965212  0.30906321  1
  Br  Br37  1  0.92835346  0.24965212  0.19093679  1
  Br  Br38  1  0.57164654  0.25034788  0.69093679  1
  Br  Br39  1  0.07164654  0.75034788  0.80906321  1
