# generated using pymatgen
data_Cs8Ga11Cl
_symmetry_space_group_name_H-M   'P 1'
_cell_length_a   10.16680862
_cell_length_b   10.16680862
_cell_length_c   18.07532647
_cell_angle_alpha   73.66610531
_cell_angle_beta   73.66610531
_cell_angle_gamma   60.00000010
_symmetry_Int_Tables_number   1
_chemical_formula_structural   Cs8Ga11Cl
_chemical_formula_sum   'Cs16 Ga22 Cl2'
_cell_volume   1530.33555298
_cell_formula_units_Z   2
loop_
 _symmetry_equiv_pos_site_id
 _symmetry_equiv_pos_as_xyz
  1  'x, y, z'
loop_
 _atom_site_type_symbol
 _atom_site_label
 _atom_site_symmetry_multiplicity
 _atom_site_fract_x
 _atom_site_fract_y
 _atom_site_fract_z
 _atom_site_occupancy
  Cs  Cs0  1  0.80903033  0.59827416  0.43215299  1
  Cs  Cs1  1  0.59827416  0.16054252  0.43215299  1
  Cs  Cs2  1  0.16054252  0.80903033  0.43215299  1
  Cs  Cs3  1  0.30903033  0.66054252  0.93215299  1
  Cs  Cs4  1  0.66054252  0.09827416  0.93215299  1
  Cs  Cs5  1  0.09827416  0.30903033  0.93215299  1
  Cs  Cs6  1  0.19096967  0.40172584  0.56784701  1
  Cs  Cs7  1  0.40172584  0.83945748  0.56784701  1
  Cs  Cs8  1  0.83945748  0.19096967  0.56784701  1
  Cs  Cs9  1  0.69096967  0.33945748  0.06784701  1
  Cs  Cs10  1  0.33945748  0.90172584  0.06784701  1
  Cs  Cs11  1  0.90172584  0.69096967  0.06784701  1
  Cs  Cs12  1  0.57453779  0.57453779  0.27638662  1
  Cs  Cs13  1  0.07453779  0.07453779  0.77638662  1
  Cs  Cs14  1  0.42546221  0.42546221  0.72361338  1
  Cs  Cs15  1  0.92546221  0.92546221  0.22361338  1
  Ga  Ga16  1  0.93777102  0.56222898  0.75000000  1
  Ga  Ga17  1  0.56222898  0.75000000  0.75000000  1
  Ga  Ga18  1  0.75000000  0.93777102  0.75000000  1
  Ga  Ga19  1  0.43777102  0.25000000  0.25000000  1
  Ga  Ga20  1  0.25000000  0.06222898  0.25000000  1
  Ga  Ga21  1  0.06222898  0.43777102  0.25000000  1
  Ga  Ga22  1  0.20564658  0.20564658  0.38306025  1
  Ga  Ga23  1  0.70564658  0.70564658  0.88306025  1
  Ga  Ga24  1  0.79435342  0.79435342  0.61693975  1
  Ga  Ga25  1  0.29435342  0.29435342  0.11693975  1
  Ga  Ga26  1  0.47406873  0.97080517  0.33129239  1
  Ga  Ga27  1  0.97080517  0.22383371  0.33129239  1
  Ga  Ga28  1  0.22383371  0.47406873  0.33129239  1
  Ga  Ga29  1  0.97406873  0.72383371  0.83129239  1
  Ga  Ga30  1  0.72383371  0.47080517  0.83129239  1
  Ga  Ga31  1  0.47080517  0.97406873  0.83129239  1
  Ga  Ga32  1  0.52593127  0.02919483  0.66870761  1
  Ga  Ga33  1  0.02919483  0.77616629  0.66870761  1
  Ga  Ga34  1  0.77616629  0.52593127  0.66870761  1
  Ga  Ga35  1  0.02593127  0.27616629  0.16870761  1
  Ga  Ga36  1  0.27616629  0.52919483  0.16870761  1
  Ga  Ga37  1  0.52919483  0.02593127  0.16870761  1
  Cl  Cl38  1  0.50000000  0.50000000  0.50000000  1
  Cl  Cl39  1  -0.00000000  0.00000000  0.00000000  1
