# generated using pymatgen
data_Pr7C3Br10
_symmetry_space_group_name_H-M   'P 1'
_cell_length_a   9.22913526
_cell_length_b   11.17585710
_cell_length_c   13.57924718
_cell_angle_alpha   86.39215037
_cell_angle_beta   72.34428062
_cell_angle_gamma   66.71304919
_symmetry_Int_Tables_number   1
_chemical_formula_structural   Pr7C3Br10
_chemical_formula_sum   'Pr14 C6 Br20'
_cell_volume   1223.31243208
_cell_formula_units_Z   2
loop_
 _symmetry_equiv_pos_site_id
 _symmetry_equiv_pos_as_xyz
  1  'x, y, z'
loop_
 _atom_site_type_symbol
 _atom_site_label
 _atom_site_symmetry_multiplicity
 _atom_site_fract_x
 _atom_site_fract_y
 _atom_site_fract_z
 _atom_site_occupancy
  Pr  Pr0  1  0.59387488  0.78150451  0.42038687  1
  Pr  Pr1  1  0.40612512  0.21849549  0.57961313  1
  Pr  Pr2  1  0.94028204  0.61775224  0.17966492  1
  Pr  Pr3  1  0.05971796  0.38224776  0.82033508  1
  Pr  Pr4  1  0.68750722  0.54868424  0.07926242  1
  Pr  Pr5  1  0.31249278  0.45131576  0.92073758  1
  Pr  Pr6  1  0.07193036  0.24439551  0.09937118  1
  Pr  Pr7  1  0.92806964  0.75560449  0.90062882  1
  Pr  Pr8  1  0.30233124  0.58337255  0.63929115  1
  Pr  Pr9  1  0.69766876  0.41662745  0.36070885  1
  Pr  Pr10  1  0.67894059  0.29057630  0.68882318  1
  Pr  Pr11  1  0.32105941  0.70942370  0.31117682  1
  Pr  Pr12  1  0.46757826  0.06480203  0.83025881  1
  Pr  Pr13  1  0.53242174  0.93519797  0.16974119  1
  C  C14  1  0.60530691  0.73005889  0.23276288  1
  C  C15  1  0.39469309  0.26994111  0.76723712  1
  C  C16  1  0.98159595  0.56027573  0.97763506  1
  C  C17  1  0.01840405  0.43972427  0.02236494  1
  C  C18  1  0.64223498  0.61013250  0.27811580  1
  C  C19  1  0.35776502  0.38986750  0.72188420  1
  Br  Br20  1  0.66813997  0.54507046  0.56440567  1
  Br  Br21  1  0.33186003  0.45492954  0.43559433  1
  Br  Br22  1  0.05948774  0.36360662  0.29640618  1
  Br  Br23  1  0.94051226  0.63639338  0.70359382  1
  Br  Br24  1  0.94423327  0.74680789  0.37344773  1
  Br  Br25  1  0.05576673  0.25319211  0.62655227  1
  Br  Br26  1  0.71716595  0.27935201  0.17040491  1
  Br  Br27  1  0.28283405  0.72064799  0.82959509  1
  Br  Br28  1  0.31919789  0.57927270  0.12178586  1
  Br  Br29  1  0.68080211  0.42072730  0.87821414  1
  Br  Br30  1  0.55863809  0.81035706  0.96541182  1
  Br  Br31  1  0.44136191  0.18964294  0.03458818  1
  Br  Br32  1  0.52074300  0.93474968  0.63361819  1
  Br  Br33  1  0.47925700  0.06525032  0.36638181  1
  Br  Br34  1  0.89018034  0.89631712  0.09357089  1
  Br  Br35  1  0.10981966  0.10368288  0.90642911  1
  Br  Br36  1  0.18008980  0.97527115  0.22417386  1
  Br  Br37  1  0.81991020  0.02472885  0.77582614  1
  Br  Br38  1  0.23083798  0.84285598  0.51615226  1
  Br  Br39  1  0.76916202  0.15714402  0.48384774  1
