# generated using pymatgen
data_La2SbS5Br
_symmetry_space_group_name_H-M   'P 1'
_cell_length_a   5.51588662
_cell_length_b   8.99205721
_cell_length_c   18.07430567
_cell_angle_alpha   90.00000000
_cell_angle_beta   90.00000000
_cell_angle_gamma   90.00000000
_symmetry_Int_Tables_number   1
_chemical_formula_structural   La2SbS5Br
_chemical_formula_sum   'La8 Sb4 S20 Br4'
_cell_volume   896.47052433
_cell_formula_units_Z   4
loop_
 _symmetry_equiv_pos_site_id
 _symmetry_equiv_pos_as_xyz
  1  'x, y, z'
loop_
 _atom_site_type_symbol
 _atom_site_label
 _atom_site_symmetry_multiplicity
 _atom_site_fract_x
 _atom_site_fract_y
 _atom_site_fract_z
 _atom_site_occupancy
  La  La0  1  0.75000000  0.22558269  0.02968059  1
  La  La1  1  0.75000000  0.72558269  0.47031941  1
  La  La2  1  0.25000000  0.77441731  0.97031941  1
  La  La3  1  0.25000000  0.27441731  0.52968059  1
  La  La4  1  0.75000000  0.15541303  0.30017433  1
  La  La5  1  0.75000000  0.65541303  0.19982567  1
  La  La6  1  0.25000000  0.84458697  0.69982567  1
  La  La7  1  0.25000000  0.34458697  0.80017433  1
  Sb  Sb8  1  0.25000000  0.98617612  0.16906272  1
  Sb  Sb9  1  0.25000000  0.48617612  0.33093728  1
  Sb  Sb10  1  0.75000000  0.01382388  0.83093728  1
  Sb  Sb11  1  0.75000000  0.51382388  0.66906272  1
  S  S12  1  0.93877465  0.34513500  0.17326727  1
  S  S13  1  0.56122535  0.84513500  0.32673273  1
  S  S14  1  0.43877465  0.65486500  0.82673273  1
  S  S15  1  0.06122535  0.15486500  0.67326727  1
  S  S16  1  0.06122535  0.65486500  0.82673273  1
  S  S17  1  0.43877465  0.15486500  0.67326727  1
  S  S18  1  0.56122535  0.34513500  0.17326727  1
  S  S19  1  0.93877465  0.84513500  0.32673273  1
  S  S20  1  0.25000000  0.07352332  0.04271806  1
  S  S21  1  0.25000000  0.57352332  0.45728194  1
  S  S22  1  0.75000000  0.92647668  0.95728194  1
  S  S23  1  0.75000000  0.42647668  0.54271806  1
  S  S24  1  0.75000000  0.97966820  0.15361213  1
  S  S25  1  0.75000000  0.47966820  0.34638787  1
  S  S26  1  0.25000000  0.02033180  0.84638787  1
  S  S27  1  0.25000000  0.52033180  0.65361213  1
  S  S28  1  0.25000000  0.71819342  0.14222350  1
  S  S29  1  0.25000000  0.21819342  0.35777650  1
  S  S30  1  0.75000000  0.28180658  0.85777650  1
  S  S31  1  0.75000000  0.78180658  0.64222350  1
  Br  Br32  1  0.75000000  0.09631932  0.47198570  1
  Br  Br33  1  0.75000000  0.59631932  0.02801430  1
  Br  Br34  1  0.25000000  0.90368068  0.52801430  1
  Br  Br35  1  0.25000000  0.40368068  0.97198570  1
