# generated using pymatgen
data_Li4MnCo2O7
_symmetry_space_group_name_H-M   'P 1'
_cell_length_a   2.98448048
_cell_length_b   11.20846264
_cell_length_c   7.79589197
_cell_angle_alpha   100.18689265
_cell_angle_beta   98.37801048
_cell_angle_gamma   82.90514006
_symmetry_Int_Tables_number   1
_chemical_formula_structural   Li4MnCo2O7
_chemical_formula_sum   'Li8 Mn2 Co4 O14'
_cell_volume   252.65111759
_cell_formula_units_Z   2
loop_
 _symmetry_equiv_pos_site_id
 _symmetry_equiv_pos_as_xyz
  1  'x, y, z'
loop_
 _atom_site_type_symbol
 _atom_site_label
 _atom_site_symmetry_multiplicity
 _atom_site_fract_x
 _atom_site_fract_y
 _atom_site_fract_z
 _atom_site_occupancy
  Li  Li0  1  0.79065902  0.07525671  0.64611343  1
  Li  Li1  1  0.93914970  0.35766001  0.22652510  1
  Li  Li2  1  0.07005003  0.64161901  0.78501945  1
  Li  Li3  1  0.21383688  0.92654695  0.35443855  1
  Li  Li4  1  0.33539269  0.22324532  0.92373093  1
  Li  Li5  1  0.50645707  0.49040247  0.50048602  1
  Li  Li6  1  0.64689298  0.78278888  0.07228227  1
  Li  Li7  1  0.12417979  0.29198321  0.56553836  1
  Mn  Mn8  1  0.01022994  0.99808634  -0.00156020  1
  Mn  Mn9  1  0.58185447  0.14806225  0.29643831  1
  Co  Co10  1  0.28760823  0.56873858  0.14168073  1
  Co  Co11  1  0.41866385  0.85677381  0.71114587  1
  Co  Co12  1  0.70904378  0.42451463  0.84636189  1
  Co  Co13  1  0.85327653  0.71235818  0.42893975  1
  O  O14  1  0.36585531  0.02878257  0.82034768  1
  O  O15  1  0.53133927  0.31012029  0.38299089  1
  O  O16  1  0.69381074  0.59222077  0.96456373  1
  O  O17  1  0.78316380  0.88415746  0.53885427  1
  O  O18  1  0.00365880  0.16832284  0.12642122  1
  O  O19  1  0.08467122  0.46290048  0.69490705  1
  O  O20  1  0.25599002  0.73924979  0.24803177  1
  O  O21  1  0.15510212  0.11245343  0.44386972  1
  O  O22  1  0.35160472  0.40267671  0.03106358  1
  O  O23  1  0.44453471  0.69008159  0.60294398  1
  O  O24  1  0.64577639  0.97195297  0.17567540  1
  O  O25  1  0.75125072  0.26749039  0.76856900  1
  O  O26  1  0.88725298  0.54348758  0.32061399  1
  O  O27  1  0.05869423  0.82806680  0.88400727  1
