# generated using pymatgen
data_LiCa7(GeH)3
_symmetry_space_group_name_H-M   'P 1'
_cell_length_a   8.74082653
_cell_length_b   9.85921852
_cell_length_c   13.73153844
_cell_angle_alpha   90.00000000
_cell_angle_beta   90.00000000
_cell_angle_gamma   90.00000000
_symmetry_Int_Tables_number   1
_chemical_formula_structural   LiCa7(GeH)3
_chemical_formula_sum   'Li4 Ca28 Ge12 H12'
_cell_volume   1183.35265844
_cell_formula_units_Z   4
loop_
 _symmetry_equiv_pos_site_id
 _symmetry_equiv_pos_as_xyz
  1  'x, y, z'
loop_
 _atom_site_type_symbol
 _atom_site_label
 _atom_site_symmetry_multiplicity
 _atom_site_fract_x
 _atom_site_fract_y
 _atom_site_fract_z
 _atom_site_occupancy
  Li  Li0  1  0.74476268  0.63544824  0.25000000  1
  Li  Li1  1  0.75523732  0.13544824  0.25000000  1
  Li  Li2  1  0.25523732  0.36455176  0.75000000  1
  Li  Li3  1  0.24476268  0.86455176  0.75000000  1
  Ca  Ca4  1  0.44490753  0.59001066  0.10949345  1
  Ca  Ca5  1  0.05509247  0.09001066  0.39050655  1
  Ca  Ca6  1  0.55509247  0.40998934  0.60949345  1
  Ca  Ca7  1  0.94490753  0.90998934  0.89050655  1
  Ca  Ca8  1  0.55509247  0.40998934  0.89050655  1
  Ca  Ca9  1  0.94490753  0.90998934  0.60949345  1
  Ca  Ca10  1  0.44490753  0.59001066  0.39050655  1
  Ca  Ca11  1  0.05509247  0.09001066  0.10949345  1
  Ca  Ca12  1  0.17054402  0.61265597  0.61043250  1
  Ca  Ca13  1  0.32945598  0.11265597  0.88956750  1
  Ca  Ca14  1  0.82945598  0.38734403  0.11043250  1
  Ca  Ca15  1  0.67054402  0.88734403  0.38956750  1
  Ca  Ca16  1  0.82945598  0.38734403  0.38956750  1
  Ca  Ca17  1  0.67054402  0.88734403  0.11043250  1
  Ca  Ca18  1  0.17054402  0.61265597  0.88956750  1
  Ca  Ca19  1  0.32945598  0.11265597  0.61043250  1
  Ca  Ca20  1  0.04556165  0.68581516  0.11910259  1
  Ca  Ca21  1  0.45443835  0.18581516  0.38089741  1
  Ca  Ca22  1  0.95443835  0.31418484  0.61910259  1
  Ca  Ca23  1  0.54556165  0.81418484  0.88089741  1
  Ca  Ca24  1  0.95443835  0.31418484  0.88089741  1
  Ca  Ca25  1  0.54556165  0.81418484  0.61910259  1
  Ca  Ca26  1  0.04556165  0.68581516  0.38089741  1
  Ca  Ca27  1  0.45443835  0.18581516  0.11910259  1
  Ca  Ca28  1  0.30443794  0.88440524  0.25000000  1
  Ca  Ca29  1  0.19556206  0.38440524  0.25000000  1
  Ca  Ca30  1  0.69556206  0.11559476  0.75000000  1
  Ca  Ca31  1  0.80443794  0.61559476  0.75000000  1
  Ge  Ge32  1  0.28855531  0.86822587  0.02500021  1
  Ge  Ge33  1  0.21144469  0.36822587  0.47499979  1
  Ge  Ge34  1  0.71144469  0.13177413  0.52500021  1
  Ge  Ge35  1  0.78855531  0.63177413  0.97499979  1
  Ge  Ge36  1  0.71144469  0.13177413  0.97499979  1
  Ge  Ge37  1  0.78855531  0.63177413  0.52500021  1
  Ge  Ge38  1  0.28855531  0.86822587  0.47499979  1
  Ge  Ge39  1  0.21144469  0.36822587  0.02500021  1
  Ge  Ge40  1  0.92414659  0.89406139  0.25000000  1
  Ge  Ge41  1  0.57585341  0.39406139  0.25000000  1
  Ge  Ge42  1  0.07585341  0.10593861  0.75000000  1
  Ge  Ge43  1  0.42414659  0.60593861  0.75000000  1
  H  H44  1  0.95531029  0.53011112  0.25000000  1
  H  H45  1  0.54468971  0.03011112  0.25000000  1
  H  H46  1  0.04468971  0.46988888  0.75000000  1
  H  H47  1  0.45531029  0.96988888  0.75000000  1
  H  H48  1  0.24878306  0.62866321  0.25000000  1
  H  H49  1  0.25121694  0.12866321  0.25000000  1
  H  H50  1  0.75121694  0.37133679  0.75000000  1
  H  H51  1  0.74878306  0.87133679  0.75000000  1
  H  H52  1  0.96519103  0.24546216  0.25000000  1
  H  H53  1  0.53480897  0.74546216  0.25000000  1
  H  H54  1  0.03480897  0.75453784  0.75000000  1
  H  H55  1  0.46519103  0.25453784  0.75000000  1
