# generated using pymatgen
data_HfHg4(PCl3)2
_symmetry_space_group_name_H-M   'P 1'
_cell_length_a   13.32101744
_cell_length_b   13.58449277
_cell_length_c   16.53221329
_cell_angle_alpha   90.00000000
_cell_angle_beta   90.00000000
_cell_angle_gamma   90.00000000
_symmetry_Int_Tables_number   1
_chemical_formula_structural   HfHg4(PCl3)2
_chemical_formula_sum   'Hf8 Hg32 P16 Cl48'
_cell_volume   2991.65716748
_cell_formula_units_Z   8
loop_
 _symmetry_equiv_pos_site_id
 _symmetry_equiv_pos_as_xyz
  1  'x, y, z'
loop_
 _atom_site_type_symbol
 _atom_site_label
 _atom_site_symmetry_multiplicity
 _atom_site_fract_x
 _atom_site_fract_y
 _atom_site_fract_z
 _atom_site_occupancy
  Hf  Hf0  1  0.30135330  0.48945496  0.11314082  1
  Hf  Hf1  1  0.80135330  0.01054504  0.88685918  1
  Hf  Hf2  1  0.69864670  0.98945496  0.38685918  1
  Hf  Hf3  1  0.19864670  0.51054504  0.61314082  1
  Hf  Hf4  1  0.69864670  0.51054504  0.88685918  1
  Hf  Hf5  1  0.19864670  0.98945496  0.11314082  1
  Hf  Hf6  1  0.30135330  0.01054504  0.61314082  1
  Hf  Hf7  1  0.80135330  0.48945496  0.38685918  1
  Hg  Hg8  1  0.23129825  0.23712793  0.87239585  1
  Hg  Hg9  1  0.73129825  0.26287207  0.12760415  1
  Hg  Hg10  1  0.76870175  0.73712793  0.62760415  1
  Hg  Hg11  1  0.26870175  0.76287207  0.37239585  1
  Hg  Hg12  1  0.76870175  0.76287207  0.12760415  1
  Hg  Hg13  1  0.26870175  0.73712793  0.87239585  1
  Hg  Hg14  1  0.23129825  0.26287207  0.37239585  1
  Hg  Hg15  1  0.73129825  0.23712793  0.62760415  1
  Hg  Hg16  1  0.47938946  0.20715233  0.00492286  1
  Hg  Hg17  1  0.97938946  0.29284767  0.99507714  1
  Hg  Hg18  1  0.52061054  0.70715233  0.49507714  1
  Hg  Hg19  1  0.02061054  0.79284767  0.50492286  1
  Hg  Hg20  1  0.52061054  0.79284767  0.99507714  1
  Hg  Hg21  1  0.02061054  0.70715233  0.00492286  1
  Hg  Hg22  1  0.47938946  0.29284767  0.50492286  1
  Hg  Hg23  1  0.97938946  0.20715233  0.49507714  1
  Hg  Hg24  1  0.48002812  0.24576885  0.75385446  1
  Hg  Hg25  1  0.98002812  0.25423115  0.24614554  1
  Hg  Hg26  1  0.51997188  0.74576885  0.74614554  1
  Hg  Hg27  1  0.01997188  0.75423115  0.25385446  1
  Hg  Hg28  1  0.51997188  0.75423115  0.24614554  1
  Hg  Hg29  1  0.01997188  0.74576885  0.75385446  1
  Hg  Hg30  1  0.48002812  0.25423115  0.25385446  1
  Hg  Hg31  1  0.98002812  0.24576885  0.74614554  1
  Hg  Hg32  1  0.41033846  0.99229946  0.85504830  1
  Hg  Hg33  1  0.91033846  0.50770054  0.14495170  1
  Hg  Hg34  1  0.58966154  0.49229946  0.64495170  1
  Hg  Hg35  1  0.08966154  0.00770054  0.35504830  1
  Hg  Hg36  1  0.58966154  0.00770054  0.14495170  1
  Hg  Hg37  1  0.08966154  0.49229946  0.85504830  1
  Hg  Hg38  1  0.41033846  0.50770054  0.35504830  1
  Hg  Hg39  1  0.91033846  0.99229946  0.64495170  1
  P  P40  1  0.40149217  0.17204073  0.87309776  1
  P  P41  1  0.90149217  0.32795927  0.12690224  1
  P  P42  1  0.59850783  0.67204073  0.62690224  1
  P  P43  1  0.09850783  0.82795927  0.37309776  1
  P  P44  1  0.59850783  0.82795927  0.12690224  1
  P  P45  1  0.09850783  0.67204073  0.87309776  1
  P  P46  1  0.40149217  0.32795927  0.37309776  1
  P  P47  1  0.90149217  0.17204073  0.62690224  1
  P  P48  1  0.06502654  0.31273745  0.86474362  1
  P  P49  1  0.56502654  0.18726255  0.13525638  1
  P  P50  1  0.93497346  0.81273745  0.63525638  1
  P  P51  1  0.43497346  0.68726255  0.36474362  1
  P  P52  1  0.93497346  0.68726255  0.13525638  1
  P  P53  1  0.43497346  0.81273745  0.86474362  1
  P  P54  1  0.06502654  0.18726255  0.36474362  1
  P  P55  1  0.56502654  0.31273745  0.63525638  1
  Cl  Cl56  1  0.12888749  0.48802693  0.05330732  1
  Cl  Cl57  1  0.62888749  0.01197307  0.94669268  1
  Cl  Cl58  1  0.87111251  0.98802693  0.44669268  1
  Cl  Cl59  1  0.37111251  0.51197307  0.55330732  1
  Cl  Cl60  1  0.87111251  0.51197307  0.94669268  1
  Cl  Cl61  1  0.37111251  0.98802693  0.05330732  1
  Cl  Cl62  1  0.12888749  0.01197307  0.55330732  1
  Cl  Cl63  1  0.62888749  0.48802693  0.44669268  1
  Cl  Cl64  1  0.35924856  0.40283039  0.99122437  1
  Cl  Cl65  1  0.85924856  0.09716961  0.00877563  1
  Cl  Cl66  1  0.64075144  0.90283039  0.50877563  1
  Cl  Cl67  1  0.14075144  0.59716961  0.49122437  1
  Cl  Cl68  1  0.64075144  0.59716961  0.00877563  1
  Cl  Cl69  1  0.14075144  0.90283039  0.99122437  1
  Cl  Cl70  1  0.35924856  0.09716961  0.49122437  1
  Cl  Cl71  1  0.85924856  0.40283039  0.50877563  1
  Cl  Cl72  1  0.47074392  0.48893876  0.17186621  1
  Cl  Cl73  1  0.97074392  0.01106124  0.82813379  1
  Cl  Cl74  1  0.52925608  0.98893876  0.32813379  1
  Cl  Cl75  1  0.02925608  0.51106124  0.67186621  1
  Cl  Cl76  1  0.52925608  0.51106124  0.82813379  1
  Cl  Cl77  1  0.02925608  0.98893876  0.17186621  1
  Cl  Cl78  1  0.47074392  0.01106124  0.67186621  1
  Cl  Cl79  1  0.97074392  0.48893876  0.32813379  1
  Cl  Cl80  1  0.22920308  0.57047180  0.23325646  1
  Cl  Cl81  1  0.72920308  0.92952820  0.76674354  1
  Cl  Cl82  1  0.77079692  0.07047180  0.26674354  1
  Cl  Cl83  1  0.27079692  0.42952820  0.73325646  1
  Cl  Cl84  1  0.77079692  0.42952820  0.76674354  1
  Cl  Cl85  1  0.27079692  0.07047180  0.23325646  1
  Cl  Cl86  1  0.22920308  0.92952820  0.73325646  1
  Cl  Cl87  1  0.72920308  0.57047180  0.26674354  1
  Cl  Cl88  1  0.26683684  0.33083955  0.17813957  1
  Cl  Cl89  1  0.76683684  0.16916045  0.82186043  1
  Cl  Cl90  1  0.73316316  0.83083955  0.32186043  1
  Cl  Cl91  1  0.23316316  0.66916045  0.67813957  1
  Cl  Cl92  1  0.73316316  0.66916045  0.82186043  1
  Cl  Cl93  1  0.23316316  0.83083955  0.17813957  1
  Cl  Cl94  1  0.26683684  0.16916045  0.67813957  1
  Cl  Cl95  1  0.76683684  0.33083955  0.32186043  1
  Cl  Cl96  1  0.33488547  0.64859976  0.04800656  1
  Cl  Cl97  1  0.83488547  0.85140024  0.95199344  1
  Cl  Cl98  1  0.66511453  0.14859976  0.45199344  1
  Cl  Cl99  1  0.16511453  0.35140024  0.54800656  1
  Cl  Cl100  1  0.66511453  0.35140024  0.95199344  1
  Cl  Cl101  1  0.16511453  0.14859976  0.04800656  1
  Cl  Cl102  1  0.33488547  0.85140024  0.54800656  1
  Cl  Cl103  1  0.83488547  0.64859976  0.45199344  1
