# generated using pymatgen
data_LiZr2(AsO4)3
_symmetry_space_group_name_H-M   'P 1'
_cell_length_a   9.30935830
_cell_length_b   9.33996004
_cell_length_c   13.01138591
_cell_angle_alpha   90.00000000
_cell_angle_beta   90.63197873
_cell_angle_gamma   90.00000000
_symmetry_Int_Tables_number   1
_chemical_formula_structural   LiZr2(AsO4)3
_chemical_formula_sum   'Li4 Zr8 As12 O48'
_cell_volume   1131.25862273
_cell_formula_units_Z   4
loop_
 _symmetry_equiv_pos_site_id
 _symmetry_equiv_pos_as_xyz
  1  'x, y, z'
loop_
 _atom_site_type_symbol
 _atom_site_label
 _atom_site_symmetry_multiplicity
 _atom_site_fract_x
 _atom_site_fract_y
 _atom_site_fract_z
 _atom_site_occupancy
  Li  Li0  1  0.19880797  0.71667171  0.17337735  1
  Li  Li1  1  0.69880797  0.78332829  0.67337735  1
  Li  Li2  1  0.80119203  0.28332829  0.82662265  1
  Li  Li3  1  0.30119203  0.21667171  0.32662265  1
  Zr  Zr4  1  0.74510107  0.96124022  0.88777926  1
  Zr  Zr5  1  0.24510107  0.53875978  0.38777926  1
  Zr  Zr6  1  0.25489893  0.03875978  0.11222074  1
  Zr  Zr7  1  0.75489893  0.46124022  0.61222074  1
  Zr  Zr8  1  0.75045890  0.52247297  0.12054550  1
  Zr  Zr9  1  0.25045890  0.97752703  0.62054550  1
  Zr  Zr10  1  0.24954110  0.47752703  0.87945450  1
  Zr  Zr11  1  0.74954110  0.02247297  0.37945450  1
  As  As12  1  0.88875474  0.60326862  0.85552919  1
  As  As13  1  0.38875474  0.89673138  0.35552919  1
  As  As14  1  0.11124526  0.39673138  0.14447081  1
  As  As15  1  0.61124526  0.10326862  0.64447081  1
  As  As16  1  0.90026472  0.87752803  0.14554878  1
  As  As17  1  0.40026472  0.62247197  0.64554878  1
  As  As18  1  0.09973528  0.12247197  0.85445122  1
  As  As19  1  0.59973528  0.37752803  0.35445122  1
  As  As20  1  0.46887100  0.75219228  0.00921385  1
  As  As21  1  0.96887100  0.74780772  0.50921385  1
  As  As22  1  0.53112900  0.24780772  0.99078615  1
  As  As23  1  0.03112900  0.25219228  0.49078615  1
  O  O24  1  0.85139353  0.91979319  0.02181225  1
  O  O25  1  0.35139353  0.58020681  0.52181225  1
  O  O26  1  0.14860647  0.08020681  0.97818775  1
  O  O27  1  0.64860647  0.41979319  0.47818775  1
  O  O28  1  0.81394301  0.76493763  0.81946278  1
  O  O29  1  0.31394301  0.73506237  0.31946278  1
  O  O30  1  0.18605699  0.23506237  0.18053722  1
  O  O31  1  0.68605699  0.26493763  0.68053722  1
  O  O32  1  0.55506695  0.87925298  0.93870030  1
  O  O33  1  0.05506695  0.62074702  0.43870030  1
  O  O34  1  0.44493305  0.12074702  0.06129970  1
  O  O35  1  0.94493305  0.37925298  0.56129970  1
  O  O36  1  0.91752635  0.09720757  0.83948456  1
  O  O37  1  0.41752635  0.40279243  0.33948456  1
  O  O38  1  0.08247365  0.90279243  0.16051544  1
  O  O39  1  0.58247365  0.59720757  0.66051544  1
  O  O40  1  0.66336481  0.97625612  0.73362256  1
  O  O41  1  0.16336481  0.52374388  0.23362256  1
  O  O42  1  0.33663519  0.02374388  0.26637744  1
  O  O43  1  0.83663519  0.47625612  0.76637744  1
  O  O44  1  0.66596756  0.17185186  0.91901187  1
  O  O45  1  0.16596756  0.32814814  0.41901187  1
  O  O46  1  0.33403244  0.82814814  0.08098813  1
  O  O47  1  0.83403244  0.67185186  0.58098813  1
  O  O48  1  0.81804164  0.54152978  0.96680865  1
  O  O49  1  0.31804164  0.95847022  0.46680865  1
  O  O50  1  0.18195836  0.45847022  0.03319135  1
  O  O51  1  0.68195836  0.04152978  0.53319135  1
  O  O52  1  0.87825488  0.69834916  0.16480716  1
  O  O53  1  0.37825488  0.80165084  0.66480716  1
  O  O54  1  0.12174512  0.30165084  0.83519284  1
  O  O55  1  0.62174512  0.19834916  0.33519284  1
  O  O56  1  0.58514562  0.67163102  0.09234957  1
  O  O57  1  0.08514562  0.82836898  0.59234957  1
  O  O58  1  0.41485438  0.32836898  0.90765043  1
  O  O59  1  0.91485438  0.17163102  0.40765043  1
  O  O60  1  0.92942550  0.38364080  0.14054338  1
  O  O61  1  0.42942550  0.11635920  0.64054338  1
  O  O62  1  0.07057450  0.61635920  0.85945662  1
  O  O63  1  0.57057450  0.88364080  0.35945662  1
  O  O64  1  0.69128250  0.48512308  0.27354732  1
  O  O65  1  0.19128250  0.01487692  0.77354732  1
  O  O66  1  0.30871750  0.51487692  0.72645268  1
  O  O67  1  0.80871750  0.98512308  0.22645268  1
  O  O68  1  0.60965492  0.36164497  0.07597583  1
  O  O69  1  0.10965492  0.13835503  0.57597583  1
  O  O70  1  0.39034508  0.63835503  0.92402417  1
  O  O71  1  0.89034508  0.86164497  0.42402417  1
