# generated using pymatgen
data_Rb4Fe8CuH6(Se8O25)2
_symmetry_space_group_name_H-M   'P 1'
_cell_length_a   7.89743661
_cell_length_b   10.54991652
_cell_length_c   16.04211687
_cell_angle_alpha   77.70510244
_cell_angle_beta   89.78274394
_cell_angle_gamma   86.72505019
_symmetry_Int_Tables_number   1
_chemical_formula_structural   Rb4Fe8CuH6(Se8O25)2
_chemical_formula_sum   'Rb4 Fe8 Cu1 H6 Se16 O50'
_cell_volume   1303.74984467
_cell_formula_units_Z   1
loop_
 _symmetry_equiv_pos_site_id
 _symmetry_equiv_pos_as_xyz
  1  'x, y, z'
loop_
 _atom_site_type_symbol
 _atom_site_label
 _atom_site_symmetry_multiplicity
 _atom_site_fract_x
 _atom_site_fract_y
 _atom_site_fract_z
 _atom_site_occupancy
  Rb  Rb0  1  0.51726314  0.69818515  0.26387280  1
  Rb  Rb1  1  0.48273686  0.30181485  0.73612720  1
  Rb  Rb2  1  0.89710764  0.69471135  0.82527615  1
  Rb  Rb3  1  0.10289236  0.30528865  0.17472385  1
  Fe  Fe4  1  0.59319784  0.26185090  0.30631915  1
  Fe  Fe5  1  0.40680216  0.73814910  0.69368085  1
  Fe  Fe6  1  0.75304578  0.64354454  0.52271914  1
  Fe  Fe7  1  0.24695422  0.35645546  0.47728086  1
  Fe  Fe8  1  0.54952419  0.74960140  0.99699868  1
  Fe  Fe9  1  0.45047581  0.25039860  0.00300132  1
  Fe  Fe10  1  0.97534031  0.09592687  0.77079193  1
  Fe  Fe11  1  0.02465969  0.90407313  0.22920807  1
  Cu  Cu12  1  0.50000000  -0.00000000  0.50000000  1
  H  H13  1  0.20869187  0.61232675  0.09492819  1
  H  H14  1  0.79130813  0.38767325  0.90507181  1
  H  H15  1  0.00520960  0.71969449  0.61229179  1
  H  H16  1  0.99479040  0.28030551  0.38770821  1
  H  H17  1  0.85122112  0.83175458  0.60077234  1
  H  H18  1  0.14877888  0.16824542  0.39922766  1
  Se  Se19  1  0.55563064  0.46132893  0.11856235  1
  Se  Se20  1  0.44436936  0.53867107  0.88143765  1
  Se  Se21  1  0.80511998  0.93702651  0.40080253  1
  Se  Se22  1  0.19488002  0.06297349  0.59919747  1
  Se  Se23  1  0.68975295  0.03388350  0.93371827  1
  Se  Se24  1  0.31024705  0.96611650  0.06628173  1
  Se  Se25  1  0.97169913  0.37786052  0.63472036  1
  Se  Se26  1  0.02830087  0.62213948  0.36527964  1
  Se  Se27  1  0.67062282  0.37206281  0.45770966  1
  Se  Se28  1  0.32937718  0.62793719  0.54229034  1
  Se  Se29  1  0.71695234  0.10620304  0.15386479  1
  Se  Se30  1  0.28304766  0.89379696  0.84613521  1
  Se  Se31  1  0.65967248  0.98452603  0.68133531  1
  Se  Se32  1  0.34032752  0.01547397  0.31866469  1
  Se  Se33  1  0.96141003  0.74876614  0.07995896  1
  Se  Se34  1  0.03858997  0.25123386  0.92004104  1
  O  O35  1  0.51505550  0.42849970  0.22800236  1
  O  O36  1  0.48494450  0.57150030  0.77199764  1
  O  O37  1  0.45293962  0.61561424  0.09465156  1
  O  O38  1  0.54706038  0.38438576  0.90534844  1
  O  O39  1  0.40285691  0.37823292  0.07929516  1
  O  O40  1  0.59714309  0.62176708  0.92070484  1
  O  O41  1  0.67272783  0.81635080  0.44780874  1
  O  O42  1  0.32727217  0.18364920  0.55219126  1
  O  O43  1  0.65041968  0.06637176  0.39632083  1
  O  O44  1  0.34958032  0.93362824  0.60367917  1
  O  O45  1  0.80423008  0.91479951  0.29767284  1
  O  O46  1  0.19576992  0.08520049  0.70232716  1
  O  O47  1  0.49145347  0.11714635  0.92822636  1
  O  O48  1  0.50854653  0.88285365  0.07177364  1
  O  O49  1  0.64329014  0.89074041  0.90480062  1
  O  O50  1  0.35670986  0.10925959  0.09519938  1
  O  O51  1  0.76764891  0.12074928  0.83847383  1
  O  O52  1  0.23235109  0.87925072  0.16152617  1
  O  O53  1  0.86884714  0.23987257  0.67818921  1
  O  O54  1  0.13115286  0.76012743  0.32181079  1
  O  O55  1  0.02133710  0.34776186  0.53417331  1
  O  O56  1  0.97866290  0.65223814  0.46582669  1
  O  O57  1  0.79425525  0.48158733  0.61029807  1
  O  O58  1  0.20574475  0.51841267  0.38970193  1
  O  O59  1  0.65800208  0.54082032  0.43769596  1
  O  O60  1  0.34199792  0.45917968  0.56230404  1
  O  O61  1  0.78124922  0.33597316  0.37027499  1
  O  O62  1  0.21875078  0.66402684  0.62972501  1
  O  O63  1  0.47787487  0.33650558  0.41419251  1
  O  O64  1  0.52212513  0.66349442  0.58580749  1
  O  O65  1  0.74924170  0.21827210  0.21907249  1
  O  O66  1  0.25075830  0.78172790  0.78092751  1
  O  O67  1  0.68765670  0.21174913  0.05532030  1
  O  O68  1  0.31234330  0.78825087  0.94467970  1
  O  O69  1  0.92504587  0.05513002  0.13960964  1
  O  O70  1  0.07495413  0.94486998  0.86039036  1
  O  O71  1  0.69687084  0.99104194  0.57356988  1
  O  O72  1  0.30312916  0.00895806  0.42643012  1
  O  O73  1  0.86870023  0.96460240  0.71383738  1
  O  O74  1  0.13129977  0.03539760  0.28616262  1
  O  O75  1  0.60661316  0.82436138  0.71887431  1
  O  O76  1  0.39338684  0.17563862  0.28112569  1
  O  O77  1  0.78796067  0.68609271  0.04591608  1
  O  O78  1  0.21203933  0.31390729  0.95408392  1
  O  O79  1  0.90032370  0.76961130  0.17908579  1
  O  O80  1  0.09967630  0.23038870  0.82091421  1
  O  O81  1  0.08672308  0.59576508  0.10704592  1
  O  O82  1  0.91327692  0.40423492  0.89295408  1
  O  O83  1  0.87902965  0.73788625  0.60833188  1
  O  O84  1  0.12097035  0.26211375  0.39166812  1
