# generated using pymatgen
data_Lu3Ga5
_symmetry_space_group_name_H-M   'P 1'
_cell_length_a   6.02799692
_cell_length_b   9.58176464
_cell_length_c   11.18569903
_cell_angle_alpha   90.00000000
_cell_angle_beta   90.00000000
_cell_angle_gamma   90.00000000
_symmetry_Int_Tables_number   1
_chemical_formula_structural   Lu3Ga5
_chemical_formula_sum   'Lu12 Ga20'
_cell_volume   646.07308712
_cell_formula_units_Z   4
loop_
 _symmetry_equiv_pos_site_id
 _symmetry_equiv_pos_as_xyz
  1  'x, y, z'
loop_
 _atom_site_type_symbol
 _atom_site_label
 _atom_site_symmetry_multiplicity
 _atom_site_fract_x
 _atom_site_fract_y
 _atom_site_fract_z
 _atom_site_occupancy
  Lu  Lu0  1  0.65205310  0.75000000  0.42791592  1
  Lu  Lu1  1  0.84794690  0.75000000  0.92791592  1
  Lu  Lu2  1  0.34794690  0.25000000  0.57208408  1
  Lu  Lu3  1  0.15205310  0.25000000  0.07208408  1
  Lu  Lu4  1  0.61086859  0.98921513  0.14702171  1
  Lu  Lu5  1  0.88913141  0.51078487  0.64702171  1
  Lu  Lu6  1  0.38913141  0.48921513  0.85297829  1
  Lu  Lu7  1  0.11086859  0.01078487  0.35297829  1
  Lu  Lu8  1  0.38913141  0.01078487  0.85297829  1
  Lu  Lu9  1  0.11086859  0.48921513  0.35297829  1
  Lu  Lu10  1  0.61086859  0.51078487  0.14702171  1
  Lu  Lu11  1  0.88913141  0.98921513  0.64702171  1
  Ga  Ga12  1  0.62748859  0.44866348  0.40867242  1
  Ga  Ga13  1  0.87251141  0.05133652  0.90867242  1
  Ga  Ga14  1  0.37251141  0.94866348  0.59132758  1
  Ga  Ga15  1  0.12748859  0.55133652  0.09132758  1
  Ga  Ga16  1  0.37251141  0.55133652  0.59132758  1
  Ga  Ga17  1  0.12748859  0.94866348  0.09132758  1
  Ga  Ga18  1  0.62748859  0.05133652  0.40867242  1
  Ga  Ga19  1  0.87251141  0.44866348  0.90867242  1
  Ga  Ga20  1  0.32335346  0.75000000  0.24971622  1
  Ga  Ga21  1  0.17664654  0.75000000  0.74971622  1
  Ga  Ga22  1  0.67664654  0.25000000  0.75028378  1
  Ga  Ga23  1  0.82335346  0.25000000  0.25028378  1
  Ga  Ga24  1  0.12747141  0.75000000  0.49266681  1
  Ga  Ga25  1  0.37252859  0.75000000  0.99266681  1
  Ga  Ga26  1  0.87252859  0.25000000  0.50733319  1
  Ga  Ga27  1  0.62747141  0.25000000  0.00733319  1
  Ga  Ga28  1  0.89325403  0.75000000  0.20064134  1
  Ga  Ga29  1  0.60674597  0.75000000  0.70064134  1
  Ga  Ga30  1  0.10674597  0.25000000  0.79935866  1
  Ga  Ga31  1  0.39325403  0.25000000  0.29935866  1
