# generated using pymatgen
data_Li4MnCo2O7
_symmetry_space_group_name_H-M   'P 1'
_cell_length_a   2.97449782
_cell_length_b   5.96662721
_cell_length_c   14.33619852
_cell_angle_alpha   83.02023519
_cell_angle_beta   95.44434891
_cell_angle_gamma   93.99668198
_symmetry_Int_Tables_number   1
_chemical_formula_structural   Li4MnCo2O7
_chemical_formula_sum   'Li8 Mn2 Co4 O14'
_cell_volume   250.97393780
_cell_formula_units_Z   2
loop_
 _symmetry_equiv_pos_site_id
 _symmetry_equiv_pos_as_xyz
  1  'x, y, z'
loop_
 _atom_site_type_symbol
 _atom_site_label
 _atom_site_symmetry_multiplicity
 _atom_site_fract_x
 _atom_site_fract_y
 _atom_site_fract_z
 _atom_site_occupancy
  Li  Li0  1  0.99717007  0.50234591  0.99838767  1
  Li  Li1  1  0.57765510  0.21898024  0.15055723  1
  Li  Li2  1  0.14893351  0.91682685  0.29068034  1
  Li  Li3  1  0.42827875  0.78383381  0.85423424  1
  Li  Li4  1  0.85666364  0.07111165  0.71336785  1
  Li  Li5  1  0.28304485  0.35791588  0.56979367  1
  Li  Li6  1  0.71036496  0.63789046  0.42295764  1
  Li  Li7  1  0.13661127  0.43634546  0.29066421  1
  Mn  Mn8  1  0.00519773  0.00042700  0.99785801  1
  Mn  Mn9  1  0.57872744  0.70470672  0.14896651  1
  Co  Co10  1  0.70695129  0.15243980  0.42347835  1
  Co  Co11  1  0.28642817  0.85664378  0.57005534  1
  Co  Co12  1  0.85706578  0.57335871  0.71280028  1
  Co  Co13  1  0.42621517  0.28951562  0.85522984  1
  O  O14  1  0.46941006  0.24541388  0.99395615  1
  O  O15  1  0.09563626  0.93776584  0.13915000  1
  O  O16  1  0.63299081  0.68282320  0.27670749  1
  O  O17  1  0.89713548  0.52598543  0.84899008  1
  O  O18  1  0.32535278  0.81314133  0.70628385  1
  O  O19  1  0.75302262  0.09546973  0.56062159  1
  O  O20  1  0.18465035  0.37144391  0.43036273  1
  O  O21  1  0.53842768  0.75725132  0.00588283  1
  O  O22  1  0.05138448  0.49226903  0.14392003  1
  O  O23  1  0.65126600  0.17013718  0.30053622  1
  O  O24  1  0.95724955  0.04916547  0.85958444  1
  O  O25  1  0.38695852  0.33396481  0.72014078  1
  O  O26  1  0.81412431  0.61885996  0.57847640  1
  O  O27  1  0.24308336  0.90396702  0.43635623  1
