# generated using pymatgen
data_TmGe2Os
_symmetry_space_group_name_H-M   'P 1'
_cell_length_a   8.35964230
_cell_length_b   9.62669223
_cell_length_c   10.56767155
_cell_angle_alpha   90.00000000
_cell_angle_beta   90.00000000
_cell_angle_gamma   90.00000000
_symmetry_Int_Tables_number   1
_chemical_formula_structural   TmGe2Os
_chemical_formula_sum   'Tm12 Ge24 Os12'
_cell_volume   850.44080314
_cell_formula_units_Z   12
loop_
 _symmetry_equiv_pos_site_id
 _symmetry_equiv_pos_as_xyz
  1  'x, y, z'
loop_
 _atom_site_type_symbol
 _atom_site_label
 _atom_site_symmetry_multiplicity
 _atom_site_fract_x
 _atom_site_fract_y
 _atom_site_fract_z
 _atom_site_occupancy
  Tm  Tm0  1  0.24524011  0.82310809  0.44942906  1
  Tm  Tm1  1  0.24524011  0.17689191  0.55057094  1
  Tm  Tm2  1  0.75475989  0.32310809  0.05057094  1
  Tm  Tm3  1  0.75475989  0.67689191  0.94942906  1
  Tm  Tm4  1  0.75475989  0.17689191  0.55057094  1
  Tm  Tm5  1  0.75475989  0.82310809  0.44942906  1
  Tm  Tm6  1  0.24524011  0.67689191  0.94942906  1
  Tm  Tm7  1  0.24524011  0.32310809  0.05057094  1
  Tm  Tm8  1  0.00000000  0.83560145  0.17693053  1
  Tm  Tm9  1  0.00000000  0.16439855  0.82306947  1
  Tm  Tm10  1  0.00000000  0.33560145  0.32306947  1
  Tm  Tm11  1  0.00000000  0.66439855  0.67693053  1
  Ge  Ge12  1  0.34819615  0.84162102  0.17960144  1
  Ge  Ge13  1  0.34819615  0.15837898  0.82039856  1
  Ge  Ge14  1  0.65180385  0.34162102  0.32039856  1
  Ge  Ge15  1  0.65180385  0.65837898  0.67960144  1
  Ge  Ge16  1  0.65180385  0.15837898  0.82039856  1
  Ge  Ge17  1  0.65180385  0.84162102  0.17960144  1
  Ge  Ge18  1  0.34819615  0.65837898  0.67960144  1
  Ge  Ge19  1  0.34819615  0.34162102  0.32039856  1
  Ge  Ge20  1  0.50000000  0.54496941  0.11757776  1
  Ge  Ge21  1  0.50000000  0.45503059  0.88242224  1
  Ge  Ge22  1  0.50000000  0.04496941  0.38242224  1
  Ge  Ge23  1  0.50000000  0.95503059  0.61757776  1
  Ge  Ge24  1  0.00000000  0.53634652  0.11831751  1
  Ge  Ge25  1  0.00000000  0.46365348  0.88168249  1
  Ge  Ge26  1  0.00000000  0.03634652  0.38168249  1
  Ge  Ge27  1  0.00000000  0.96365348  0.61831751  1
  Ge  Ge28  1  0.50000000  0.62783285  0.40354144  1
  Ge  Ge29  1  0.50000000  0.37216715  0.59645856  1
  Ge  Ge30  1  0.50000000  0.12783285  0.09645856  1
  Ge  Ge31  1  0.50000000  0.87216715  0.90354144  1
  Ge  Ge32  1  0.00000000  0.63043927  0.39918703  1
  Ge  Ge33  1  0.00000000  0.36956073  0.60081297  1
  Ge  Ge34  1  0.00000000  0.13043927  0.10081297  1
  Ge  Ge35  1  0.00000000  0.86956073  0.89918703  1
  Os  Os36  1  0.25051355  0.58880976  0.23741536  1
  Os  Os37  1  0.25051355  0.41119024  0.76258464  1
  Os  Os38  1  0.74948645  0.08880976  0.26258464  1
  Os  Os39  1  0.74948645  0.91119024  0.73741536  1
  Os  Os40  1  0.74948645  0.41119024  0.76258464  1
  Os  Os41  1  0.74948645  0.58880976  0.23741536  1
  Os  Os42  1  0.25051355  0.91119024  0.73741536  1
  Os  Os43  1  0.25051355  0.08880976  0.26258464  1
  Os  Os44  1  0.24888898  0.50000000  0.50000000  1
  Os  Os45  1  0.75111102  -0.00000000  -0.00000000  1
  Os  Os46  1  0.75111102  0.50000000  0.50000000  1
  Os  Os47  1  0.24888898  -0.00000000  0.00000000  1
