# generated using pymatgen
data_Pr5Mo3O16
_symmetry_space_group_name_H-M   'P 1'
_cell_length_a   11.20886916
_cell_length_b   11.20886916
_cell_length_c   11.20886916
_cell_angle_alpha   90.00000000
_cell_angle_beta   90.00000000
_cell_angle_gamma   90.00000000
_symmetry_Int_Tables_number   1
_chemical_formula_structural   Pr5Mo3O16
_chemical_formula_sum   'Pr20 Mo12 O64'
_cell_volume   1408.26828603
_cell_formula_units_Z   4
loop_
 _symmetry_equiv_pos_site_id
 _symmetry_equiv_pos_as_xyz
  1  'x, y, z'
loop_
 _atom_site_type_symbol
 _atom_site_label
 _atom_site_symmetry_multiplicity
 _atom_site_fract_x
 _atom_site_fract_y
 _atom_site_fract_z
 _atom_site_occupancy
  Pr  Pr0  1  0.25000000  0.00949513  0.25000000  1
  Pr  Pr1  1  0.25000000  0.49050487  0.25000000  1
  Pr  Pr2  1  0.75000000  0.50949513  0.75000000  1
  Pr  Pr3  1  0.75000000  0.99050487  0.75000000  1
  Pr  Pr4  1  0.25000000  0.25000000  0.00949513  1
  Pr  Pr5  1  0.25000000  0.25000000  0.49050487  1
  Pr  Pr6  1  0.75000000  0.75000000  0.50949513  1
  Pr  Pr7  1  0.75000000  0.75000000  0.99050487  1
  Pr  Pr8  1  0.00949513  0.25000000  0.25000000  1
  Pr  Pr9  1  0.49050487  0.25000000  0.25000000  1
  Pr  Pr10  1  0.50949513  0.75000000  0.75000000  1
  Pr  Pr11  1  0.99050487  0.75000000  0.75000000  1
  Pr  Pr12  1  0.50000000  0.00000000  -0.00000000  1
  Pr  Pr13  1  -0.00000000  0.00000000  0.50000000  1
  Pr  Pr14  1  -0.00000000  0.50000000  -0.00000000  1
  Pr  Pr15  1  0.50000000  0.50000000  0.50000000  1
  Pr  Pr16  1  -0.00000000  0.50000000  0.50000000  1
  Pr  Pr17  1  0.50000000  0.50000000  -0.00000000  1
  Pr  Pr18  1  0.50000000  0.00000000  0.50000000  1
  Pr  Pr19  1  -0.00000000  0.00000000  -0.00000000  1
  Mo  Mo20  1  0.75000000  0.00000000  0.25000000  1
  Mo  Mo21  1  0.75000000  0.50000000  0.25000000  1
  Mo  Mo22  1  0.25000000  0.75000000  -0.00000000  1
  Mo  Mo23  1  0.25000000  0.75000000  0.50000000  1
  Mo  Mo24  1  -0.00000000  0.25000000  0.75000000  1
  Mo  Mo25  1  0.50000000  0.25000000  0.75000000  1
  Mo  Mo26  1  0.25000000  0.00000000  0.75000000  1
  Mo  Mo27  1  0.25000000  0.50000000  0.75000000  1
  Mo  Mo28  1  0.75000000  0.25000000  -0.00000000  1
  Mo  Mo29  1  0.75000000  0.25000000  0.50000000  1
  Mo  Mo30  1  0.00000000  0.75000000  0.25000000  1
  Mo  Mo31  1  0.50000000  0.75000000  0.25000000  1
  O  O32  1  0.13461146  0.58356916  0.83019064  1
  O  O33  1  0.36538854  0.58356916  0.66980936  1
  O  O34  1  0.36538854  0.91643084  0.83019064  1
  O  O35  1  0.13461146  0.91643084  0.66980936  1
  O  O36  1  0.16980936  0.08356916  0.86538854  1
  O  O37  1  0.33019064  0.08356916  0.63461146  1
  O  O38  1  0.33019064  0.41643084  0.86538854  1
  O  O39  1  0.16980936  0.41643084  0.63461146  1
  O  O40  1  0.83019064  0.13461146  0.58356916  1
  O  O41  1  0.66980936  0.36538854  0.58356916  1
  O  O42  1  0.83019064  0.36538854  0.91643084  1
  O  O43  1  0.66980936  0.13461146  0.91643084  1
  O  O44  1  0.86538854  0.16980936  0.08356916  1
  O  O45  1  0.63461146  0.33019064  0.08356916  1
  O  O46  1  0.86538854  0.33019064  0.41643084  1
  O  O47  1  0.63461146  0.16980936  0.41643084  1
  O  O48  1  0.58356916  0.83019064  0.13461146  1
  O  O49  1  0.58356916  0.66980936  0.36538854  1
  O  O50  1  0.91643084  0.83019064  0.36538854  1
  O  O51  1  0.91643084  0.66980936  0.13461146  1
  O  O52  1  0.08356916  0.86538854  0.16980936  1
  O  O53  1  0.08356916  0.63461146  0.33019064  1
  O  O54  1  0.41643084  0.86538854  0.33019064  1
  O  O55  1  0.41643084  0.63461146  0.16980936  1
  O  O56  1  0.86538854  0.41643084  0.16980936  1
  O  O57  1  0.63461146  0.41643084  0.33019064  1
  O  O58  1  0.63461146  0.08356916  0.16980936  1
  O  O59  1  0.86538854  0.08356916  0.33019064  1
  O  O60  1  0.83019064  0.91643084  0.13461146  1
  O  O61  1  0.66980936  0.91643084  0.36538854  1
  O  O62  1  0.66980936  0.58356916  0.13461146  1
  O  O63  1  0.83019064  0.58356916  0.36538854  1
  O  O64  1  0.16980936  0.86538854  0.41643084  1
  O  O65  1  0.33019064  0.63461146  0.41643084  1
  O  O66  1  0.16980936  0.63461146  0.08356916  1
  O  O67  1  0.33019064  0.86538854  0.08356916  1
  O  O68  1  0.13461146  0.83019064  0.91643084  1
  O  O69  1  0.36538854  0.66980936  0.91643084  1
  O  O70  1  0.13461146  0.66980936  0.58356916  1
  O  O71  1  0.36538854  0.83019064  0.58356916  1
  O  O72  1  0.41643084  0.16980936  0.86538854  1
  O  O73  1  0.41643084  0.33019064  0.63461146  1
  O  O74  1  0.08356916  0.16980936  0.63461146  1
  O  O75  1  0.08356916  0.33019064  0.86538854  1
  O  O76  1  0.91643084  0.13461146  0.83019064  1
  O  O77  1  0.91643084  0.36538854  0.66980936  1
  O  O78  1  0.58356916  0.13461146  0.66980936  1
  O  O79  1  0.58356916  0.36538854  0.83019064  1
  O  O80  1  0.37895875  0.12104125  0.12104125  1
  O  O81  1  0.12104125  0.12104125  0.37895875  1
  O  O82  1  0.12104125  0.37895875  0.12104125  1
  O  O83  1  0.37895875  0.37895875  0.37895875  1
  O  O84  1  0.87895875  0.62104125  0.62104125  1
  O  O85  1  0.62104125  0.62104125  0.87895875  1
  O  O86  1  0.62104125  0.87895875  0.62104125  1
  O  O87  1  0.87895875  0.87895875  0.87895875  1
  O  O88  1  0.62104125  0.87895875  0.87895875  1
  O  O89  1  0.87895875  0.87895875  0.62104125  1
  O  O90  1  0.87895875  0.62104125  0.87895875  1
  O  O91  1  0.62104125  0.62104125  0.62104125  1
  O  O92  1  0.12104125  0.37895875  0.37895875  1
  O  O93  1  0.37895875  0.37895875  0.12104125  1
  O  O94  1  0.37895875  0.12104125  0.37895875  1
  O  O95  1  0.12104125  0.12104125  0.12104125  1
