# generated using pymatgen
data_Ga4Hg11(PCl4)4
_symmetry_space_group_name_H-M   'P 1'
_cell_length_a   7.65651107
_cell_length_b   7.66319229
_cell_length_c   22.57559535
_cell_angle_alpha   99.27471570
_cell_angle_beta   89.99999998
_cell_angle_gamma   119.97116691
_symmetry_Int_Tables_number   1
_chemical_formula_structural   Ga4Hg11(PCl4)4
_chemical_formula_sum   'Ga4 Hg11 P4 Cl16'
_cell_volume   1127.42378772
_cell_formula_units_Z   1
loop_
 _symmetry_equiv_pos_site_id
 _symmetry_equiv_pos_as_xyz
  1  'x, y, z'
loop_
 _atom_site_type_symbol
 _atom_site_label
 _atom_site_symmetry_multiplicity
 _atom_site_fract_x
 _atom_site_fract_y
 _atom_site_fract_z
 _atom_site_occupancy
  Ga  Ga0  1  0.63079823  0.26159645  0.38670025  1
  Ga  Ga1  1  0.36920177  0.73840355  0.61329975  1
  Ga  Ga2  1  0.21182030  0.42364059  0.11546146  1
  Ga  Ga3  1  0.78817970  0.57635941  0.88453854  1
  Hg  Hg4  1  0.52184501  0.04369002  0.06011033  1
  Hg  Hg5  1  0.47815499  0.95630998  0.93988967  1
  Hg  Hg6  1  0.96110041  0.92220082  0.37967896  1
  Hg  Hg7  1  0.03889959  0.07779918  0.62032104  1
  Hg  Hg8  1  0.00000000  -0.00000000  0.50000000  1
  Hg  Hg9  1  0.74436762  0.48873524  0.21927192  1
  Hg  Hg10  1  0.25563238  0.51126476  0.78072808  1
  Hg  Hg11  1  0.24408755  0.98847403  0.22002392  1
  Hg  Hg12  1  0.74438647  0.98847403  0.22002392  1
  Hg  Hg13  1  0.75591245  0.01152597  0.77997608  1
  Hg  Hg14  1  0.25561353  0.01152597  0.77997608  1
  P  P15  1  0.56281983  0.12563966  0.17363256  1
  P  P16  1  0.43718017  0.87436034  0.82636744  1
  P  P17  1  0.92488098  0.84976196  0.26511679  1
  P  P18  1  0.07511902  0.15023804  0.73488321  1
  Cl  Cl19  1  0.24330691  0.48661383  0.21533955  1
  Cl  Cl20  1  0.75669309  0.51338617  0.78466045  1
  Cl  Cl21  1  0.04445781  0.08891562  0.08547353  1
  Cl  Cl22  1  0.95554219  0.91108438  0.91452647  1
  Cl  Cl23  1  0.46382525  0.39193937  0.34846838  1
  Cl  Cl24  1  0.92811412  0.39193937  0.34846838  1
  Cl  Cl25  1  0.53617475  0.60806063  0.65153162  1
  Cl  Cl26  1  0.07188588  0.60806063  0.65153162  1
  Cl  Cl27  1  0.46404882  0.92809763  0.34848446  1
  Cl  Cl28  1  0.53595118  0.07190237  0.65151554  1
  Cl  Cl29  1  0.04443755  0.56367897  0.08596553  1
  Cl  Cl30  1  0.51924141  0.56367897  0.08596553  1
  Cl  Cl31  1  0.95556245  0.43632103  0.91403447  1
  Cl  Cl32  1  0.48075859  0.43632103  0.91403447  1
  Cl  Cl33  1  0.66065201  0.32130402  0.48432551  1
  Cl  Cl34  1  0.33934799  0.67869598  0.51567449  1
