# generated using pymatgen
data_Mg2CdH24(BrO2)6
_symmetry_space_group_name_H-M   'P 1'
_cell_length_a   8.69076498
_cell_length_b   8.69076499
_cell_length_c   8.69076498
_cell_angle_alpha   74.16184550
_cell_angle_beta   74.16184549
_cell_angle_gamma   74.16184277
_symmetry_Int_Tables_number   1
_chemical_formula_structural   Mg2CdH24(BrO2)6
_chemical_formula_sum   'Mg2 Cd1 H24 Br6 O12'
_cell_volume   593.38720986
_cell_formula_units_Z   1
loop_
 _symmetry_equiv_pos_site_id
 _symmetry_equiv_pos_as_xyz
  1  'x, y, z'
loop_
 _atom_site_type_symbol
 _atom_site_label
 _atom_site_symmetry_multiplicity
 _atom_site_fract_x
 _atom_site_fract_y
 _atom_site_fract_z
 _atom_site_occupancy
  Mg  Mg0  1  0.67816170  0.67816170  0.67816170  1
  Mg  Mg1  1  0.32183830  0.32183830  0.32183830  1
  Cd  Cd2  1  0.00000000  -0.00000000  0.00000000  1
  H  H3  1  0.93944364  0.82067279  0.60894827  1
  H  H4  1  0.82067279  0.60894827  0.93944364  1
  H  H5  1  0.60894827  0.93944364  0.82067279  1
  H  H6  1  0.06055636  0.17932721  0.39105173  1
  H  H7  1  0.17932721  0.39105173  0.06055636  1
  H  H8  1  0.39105173  0.06055636  0.17932721  1
  H  H9  1  0.84756120  0.90679898  0.46441150  1
  H  H10  1  0.90679898  0.46441150  0.84756120  1
  H  H11  1  0.46441150  0.84756120  0.90679898  1
  H  H12  1  0.15243880  0.09320102  0.53558850  1
  H  H13  1  0.09320102  0.53558850  0.15243880  1
  H  H14  1  0.53558850  0.15243880  0.09320102  1
  H  H15  1  0.37641689  0.59770032  0.79614616  1
  H  H16  1  0.59770032  0.79614616  0.37641689  1
  H  H17  1  0.79614616  0.37641689  0.59770032  1
  H  H18  1  0.62358311  0.40229968  0.20385384  1
  H  H19  1  0.40229968  0.20385384  0.62358311  1
  H  H20  1  0.20385384  0.62358311  0.40229968  1
  H  H21  1  0.51126078  0.43711526  0.84408379  1
  H  H22  1  0.43711526  0.84408379  0.51126078  1
  H  H23  1  0.84408379  0.51126078  0.43711526  1
  H  H24  1  0.48873922  0.56288474  0.15591621  1
  H  H25  1  0.56288474  0.15591621  0.48873922  1
  H  H26  1  0.15591621  0.48873922  0.56288474  1
  Br  Br27  1  0.15274948  0.84690459  0.72605385  1
  Br  Br28  1  0.84690459  0.72605385  0.15274948  1
  Br  Br29  1  0.72605385  0.15274948  0.84690459  1
  Br  Br30  1  0.84725052  0.15309541  0.27394615  1
  Br  Br31  1  0.15309541  0.27394615  0.84725052  1
  Br  Br32  1  0.27394615  0.84725052  0.15309541  1
  O  O33  1  0.85653173  0.81101648  0.55644876  1
  O  O34  1  0.81101648  0.55644876  0.85653173  1
  O  O35  1  0.55644876  0.85653173  0.81101648  1
  O  O36  1  0.14346827  0.18898352  0.44355124  1
  O  O37  1  0.18898352  0.44355124  0.14346827  1
  O  O38  1  0.44355124  0.14346827  0.18898352  1
  O  O39  1  0.49188213  0.55529070  0.80030465  1
  O  O40  1  0.55529070  0.80030465  0.49188213  1
  O  O41  1  0.80030465  0.49188213  0.55529070  1
  O  O42  1  0.50811787  0.44470930  0.19969535  1
  O  O43  1  0.44470930  0.19969535  0.50811787  1
  O  O44  1  0.19969535  0.50811787  0.44470930  1
