# generated using pymatgen
data_Np2N3
_symmetry_space_group_name_H-M   'P 1'
_cell_length_a   9.16784977
_cell_length_b   9.16784977
_cell_length_c   9.16784977
_cell_angle_alpha   109.47122063
_cell_angle_beta   109.47122063
_cell_angle_gamma   109.47122063
_symmetry_Int_Tables_number   1
_chemical_formula_structural   Np2N3
_chemical_formula_sum   'Np16 N24'
_cell_volume   593.17190485
_cell_formula_units_Z   8
loop_
 _symmetry_equiv_pos_site_id
 _symmetry_equiv_pos_as_xyz
  1  'x, y, z'
loop_
 _atom_site_type_symbol
 _atom_site_label
 _atom_site_symmetry_multiplicity
 _atom_site_fract_x
 _atom_site_fract_y
 _atom_site_fract_z
 _atom_site_occupancy
  Np  Np0  1  0.00000000  0.50000000  0.00000000  1
  Np  Np1  1  0.00000000  0.00000000  0.50000000  1
  Np  Np2  1  0.50000000  0.00000000  0.00000000  1
  Np  Np3  1  0.50000000  0.50000000  0.50000000  1
  Np  Np4  1  0.27381356  0.75000000  0.52381356  1
  Np  Np5  1  0.22618644  0.25000000  0.97618644  1
  Np  Np6  1  0.75000000  0.52381356  0.27381356  1
  Np  Np7  1  0.25000000  0.97618644  0.22618644  1
  Np  Np8  1  0.52381356  0.27381356  0.75000000  1
  Np  Np9  1  0.97618644  0.22618644  0.25000000  1
  Np  Np10  1  0.72618644  0.25000000  0.47618644  1
  Np  Np11  1  0.77381356  0.75000000  0.02381356  1
  Np  Np12  1  0.25000000  0.47618644  0.72618644  1
  Np  Np13  1  0.75000000  0.02381356  0.77381356  1
  Np  Np14  1  0.47618644  0.72618644  0.25000000  1
  Np  Np15  1  0.02381356  0.77381356  0.75000000  1
  N  N16  1  0.99719629  0.73383296  0.97047312  1
  N  N17  1  0.73664016  0.76616704  0.26336333  1
  N  N18  1  0.50280371  0.97327683  0.23663667  1
  N  N19  1  0.76335984  0.52672317  0.52952688  1
  N  N20  1  0.73383296  0.97047312  0.99719629  1
  N  N21  1  0.76616704  0.26336333  0.73664016  1
  N  N22  1  0.97327683  0.23663667  0.50280371  1
  N  N23  1  0.52672317  0.52952688  0.76335984  1
  N  N24  1  0.97047312  0.99719629  0.73383296  1
  N  N25  1  0.26336333  0.73664016  0.76616704  1
  N  N26  1  0.23663667  0.50280371  0.97327683  1
  N  N27  1  0.52952688  0.76335984  0.52672317  1
  N  N28  1  0.00280371  0.26616704  0.02952688  1
  N  N29  1  0.26335984  0.23383296  0.73663667  1
  N  N30  1  0.49719629  0.02672317  0.76336333  1
  N  N31  1  0.23664016  0.47327683  0.47047312  1
  N  N32  1  0.26616704  0.02952688  0.00280371  1
  N  N33  1  0.23383296  0.73663667  0.26335984  1
  N  N34  1  0.02672317  0.76336333  0.49719629  1
  N  N35  1  0.47327683  0.47047312  0.23664016  1
  N  N36  1  0.02952688  0.00280371  0.26616704  1
  N  N37  1  0.73663667  0.26335984  0.23383296  1
  N  N38  1  0.76336333  0.49719629  0.02672317  1
  N  N39  1  0.47047312  0.23664016  0.47327683  1
