# generated using pymatgen
data_Tc3Se4I
_symmetry_space_group_name_H-M   'P 1'
_cell_length_a   6.68510833
_cell_length_b   10.54495248
_cell_length_c   12.24931204
_cell_angle_alpha   90.00000000
_cell_angle_beta   90.00000000
_cell_angle_gamma   99.98519861
_symmetry_Int_Tables_number   1
_chemical_formula_structural   Tc3Se4I
_chemical_formula_sum   'Tc12 Se16 I4'
_cell_volume   850.42496464
_cell_formula_units_Z   4
loop_
 _symmetry_equiv_pos_site_id
 _symmetry_equiv_pos_as_xyz
  1  'x, y, z'
loop_
 _atom_site_type_symbol
 _atom_site_label
 _atom_site_symmetry_multiplicity
 _atom_site_fract_x
 _atom_site_fract_y
 _atom_site_fract_z
 _atom_site_occupancy
  Tc  Tc0  1  0.62002923  0.66114110  0.44480016  1
  Tc  Tc1  1  0.12002923  0.16114110  0.05519984  1
  Tc  Tc2  1  0.37997077  0.33885890  0.55519984  1
  Tc  Tc3  1  0.87997077  0.83885890  0.94480016  1
  Tc  Tc4  1  0.58564791  0.55005507  0.64208547  1
  Tc  Tc5  1  0.08564791  0.05005507  0.85791453  1
  Tc  Tc6  1  0.41435209  0.44994493  0.35791453  1
  Tc  Tc7  1  0.91435209  0.94994493  0.14208547  1
  Tc  Tc8  1  0.74196133  0.44008177  0.47739225  1
  Tc  Tc9  1  0.24196133  0.94008177  0.02260775  1
  Tc  Tc10  1  0.25803867  0.55991823  0.52260775  1
  Tc  Tc11  1  0.75803867  0.05991823  0.97739225  1
  Se  Se12  1  0.92498204  0.65681400  0.56598849  1
  Se  Se13  1  0.42498204  0.15681400  0.93401151  1
  Se  Se14  1  0.07501796  0.34318600  0.43401151  1
  Se  Se15  1  0.57501796  0.84318600  0.06598849  1
  Se  Se16  1  0.69690196  0.33450978  0.66177422  1
  Se  Se17  1  0.19690196  0.83450978  0.83822578  1
  Se  Se18  1  0.30309804  0.66549022  0.33822578  1
  Se  Se19  1  0.80309804  0.16549022  0.16177422  1
  Se  Se20  1  0.46344820  0.75954931  0.60377933  1
  Se  Se21  1  0.96344820  0.25954931  0.89622067  1
  Se  Se22  1  0.53655180  0.24045069  0.39622067  1
  Se  Se23  1  0.03655180  0.74045069  0.10377933  1
  Se  Se24  1  0.76205480  0.54446133  0.29289780  1
  Se  Se25  1  0.26205480  0.04446133  0.20710220  1
  Se  Se26  1  0.23794520  0.45553867  0.70710220  1
  Se  Se27  1  0.73794520  0.95553867  0.79289780  1
  I  I28  1  0.70249419  0.59193373  0.86597937  1
  I  I29  1  0.20249419  0.09193373  0.63402063  1
  I  I30  1  0.29750581  0.40806627  0.13402063  1
  I  I31  1  0.79750581  0.90806627  0.36597937  1
