# generated using pymatgen
data_Pr4InSbS9
_symmetry_space_group_name_H-M   'P 1'
_cell_length_a   10.28256524
_cell_length_b   10.28256524
_cell_length_c   28.18766936
_cell_angle_alpha   90.00000000
_cell_angle_beta   90.00000000
_cell_angle_gamma   90.00000000
_symmetry_Int_Tables_number   1
_chemical_formula_structural   Pr4InSbS9
_chemical_formula_sum   'Pr32 In8 Sb8 S72'
_cell_volume   2980.31463848
_cell_formula_units_Z   8
loop_
 _symmetry_equiv_pos_site_id
 _symmetry_equiv_pos_as_xyz
  1  'x, y, z'
loop_
 _atom_site_type_symbol
 _atom_site_label
 _atom_site_symmetry_multiplicity
 _atom_site_fract_x
 _atom_site_fract_y
 _atom_site_fract_z
 _atom_site_occupancy
  Pr  Pr0  1  0.93954032  0.27601493  0.16181632  1
  Pr  Pr1  1  0.06045968  0.72398507  0.66181632  1
  Pr  Pr2  1  0.77601493  0.56045968  0.41181632  1
  Pr  Pr3  1  0.22398507  0.43954032  0.91181632  1
  Pr  Pr4  1  0.72398507  0.06045968  0.33818368  1
  Pr  Pr5  1  0.27601493  0.93954032  0.83818368  1
  Pr  Pr6  1  0.56045968  0.77601493  0.58818368  1
  Pr  Pr7  1  0.43954032  0.22398507  0.08818368  1
  Pr  Pr8  1  0.98949017  0.34934735  0.30278059  1
  Pr  Pr9  1  0.01050983  0.65065265  0.80278059  1
  Pr  Pr10  1  0.84934735  0.51050983  0.55278059  1
  Pr  Pr11  1  0.15065265  0.48949017  0.05278059  1
  Pr  Pr12  1  0.65065265  0.01050983  0.19721941  1
  Pr  Pr13  1  0.34934735  0.98949017  0.69721941  1
  Pr  Pr14  1  0.51050983  0.84934735  0.44721941  1
  Pr  Pr15  1  0.48949017  0.15065265  0.94721941  1
  Pr  Pr16  1  0.26702240  0.49833339  0.19926437  1
  Pr  Pr17  1  0.73297760  0.50166661  0.69926437  1
  Pr  Pr18  1  0.99833339  0.23297760  0.44926437  1
  Pr  Pr19  1  0.00166661  0.76702240  0.94926437  1
  Pr  Pr20  1  0.50166661  0.73297760  0.30073563  1
  Pr  Pr21  1  0.49833339  0.26702240  0.80073563  1
  Pr  Pr22  1  0.23297760  0.99833339  0.55073563  1
  Pr  Pr23  1  0.76702240  0.00166661  0.05073563  1
  Pr  Pr24  1  0.94346185  0.72821419  0.15759886  1
  Pr  Pr25  1  0.05653815  0.27178581  0.65759886  1
  Pr  Pr26  1  0.22821419  0.55653815  0.40759886  1
  Pr  Pr27  1  0.77178581  0.44346185  0.90759886  1
  Pr  Pr28  1  0.27178581  0.05653815  0.34240114  1
  Pr  Pr29  1  0.72821419  0.94346185  0.84240114  1
  Pr  Pr30  1  0.55653815  0.22821419  0.59240114  1
  Pr  Pr31  1  0.44346185  0.77178581  0.09240114  1
  In  In32  1  0.70248157  0.48637342  0.04691805  1
  In  In33  1  0.29751843  0.51362658  0.54691805  1
  In  In34  1  0.98637342  0.79751843  0.29691805  1
  In  In35  1  0.01362658  0.20248157  0.79691805  1
  In  In36  1  0.51362658  0.29751843  0.45308195  1
  In  In37  1  0.48637342  0.70248157  0.95308195  1
  In  In38  1  0.79751843  0.98637342  0.70308195  1
  In  In39  1  0.20248157  0.01362658  0.20308195  1
  Sb  Sb40  1  0.14064449  0.99107476  0.05554671  1
  Sb  Sb41  1  0.85935551  0.00892524  0.55554671  1
  Sb  Sb42  1  0.49107476  0.35935551  0.30554671  1
  Sb  Sb43  1  0.50892524  0.64064449  0.80554671  1
  Sb  Sb44  1  0.00892524  0.85935551  0.44445329  1
  Sb  Sb45  1  0.99107476  0.14064449  0.94445329  1
  Sb  Sb46  1  0.35935551  0.49107476  0.69445329  1
  Sb  Sb47  1  0.64064449  0.50892524  0.19445329  1
  S  S48  1  0.17589583  0.98906563  0.96228072  1
  S  S49  1  0.82410417  0.01093437  0.46228072  1
  S  S50  1  0.48906563  0.32410417  0.21228072  1
  S  S51  1  0.51093437  0.67589583  0.71228072  1
  S  S52  1  0.01093437  0.82410417  0.53771928  1
  S  S53  1  0.98906563  0.17589583  0.03771928  1
  S  S54  1  0.32410417  0.48906563  0.78771928  1
  S  S55  1  0.67589583  0.51093437  0.28771928  1
  S  S56  1  0.97925715  0.81266046  0.04994665  1
  S  S57  1  0.02074285  0.18733954  0.54994665  1
  S  S58  1  0.31266046  0.52074285  0.29994665  1
  S  S59  1  0.68733954  0.47925715  0.79994665  1
  S  S60  1  0.18733954  0.02074285  0.45005335  1
  S  S61  1  0.81266046  0.97925715  0.95005335  1
  S  S62  1  0.52074285  0.31266046  0.70005335  1
  S  S63  1  0.47925715  0.68733954  0.20005335  1
  S  S64  1  0.01179130  0.00559465  0.14778280  1
  S  S65  1  0.98820870  0.99440535  0.64778280  1
  S  S66  1  0.50559465  0.48820870  0.39778280  1
  S  S67  1  0.49440535  0.51179130  0.89778280  1
  S  S68  1  0.99440535  0.98820870  0.35221720  1
  S  S69  1  0.00559465  0.01179130  0.85221720  1
  S  S70  1  0.48820870  0.50559465  0.60221720  1
  S  S71  1  0.51179130  0.49440535  0.10221720  1
  S  S72  1  0.89727629  0.49678447  0.09922632  1
  S  S73  1  0.10272371  0.50321553  0.59922632  1
  S  S74  1  0.99678447  0.60272371  0.34922632  1
  S  S75  1  0.00321553  0.39727629  0.84922632  1
  S  S76  1  0.50321553  0.10272371  0.40077368  1
  S  S77  1  0.49678447  0.89727629  0.90077368  1
  S  S78  1  0.60272371  0.99678447  0.65077368  1
  S  S79  1  0.39727629  0.00321553  0.15077368  1
  S  S80  1  0.69316282  0.69316282  -0.00000000  1
  S  S81  1  0.30683718  0.30683718  0.50000000  1
  S  S82  1  0.19316282  0.80683718  0.25000000  1
  S  S83  1  0.80683718  0.19316282  0.75000000  1
  S  S84  1  0.79390723  0.80255767  0.24398519  1
  S  S85  1  0.20609277  0.19744233  0.74398519  1
  S  S86  1  0.30255767  0.70609277  0.49398519  1
  S  S87  1  0.69744233  0.29390723  0.99398519  1
  S  S88  1  0.19744233  0.20609277  0.25601481  1
  S  S89  1  0.80255767  0.79390723  0.75601481  1
  S  S90  1  0.70609277  0.30255767  0.50601481  1
  S  S91  1  0.29390723  0.69744233  0.00601481  1
  S  S92  1  0.99666698  0.50092799  0.21828562  1
  S  S93  1  0.00333302  0.49907201  0.71828562  1
  S  S94  1  0.00092799  0.50333302  0.46828562  1
  S  S95  1  0.99907201  0.49666698  0.96828562  1
  S  S96  1  0.49907201  0.00333302  0.28171438  1
  S  S97  1  0.50092799  0.99666698  0.78171438  1
  S  S98  1  0.50333302  0.00092799  0.53171438  1
  S  S99  1  0.49666698  0.99907201  0.03171438  1
  S  S100  1  0.70198796  0.82484365  0.12353296  1
  S  S101  1  0.29801204  0.17515635  0.62353296  1
  S  S102  1  0.32484365  0.79801204  0.37353296  1
  S  S103  1  0.67515635  0.20198796  0.87353296  1
  S  S104  1  0.17515635  0.29801204  0.37646704  1
  S  S105  1  0.82484365  0.70198796  0.87646704  1
  S  S106  1  0.79801204  0.32484365  0.62646704  1
  S  S107  1  0.20198796  0.67515635  0.12646704  1
  S  S108  1  0.70118928  0.18938491  0.12217487  1
  S  S109  1  0.29881072  0.81061509  0.62217487  1
  S  S110  1  0.68938491  0.79881072  0.37217487  1
  S  S111  1  0.31061509  0.20118928  0.87217487  1
  S  S112  1  0.81061509  0.29881072  0.37782513  1
  S  S113  1  0.18938491  0.70118928  0.87782513  1
  S  S114  1  0.79881072  0.68938491  0.62782513  1
  S  S115  1  0.20118928  0.31061509  0.12782513  1
  S  S116  1  0.81695563  0.18304437  0.25000000  1
  S  S117  1  0.18304437  0.81695563  0.75000000  1
  S  S118  1  0.68304437  0.68304437  0.50000000  1
  S  S119  1  0.31695563  0.31695563  -0.00000000  1
