# generated using pymatgen
data_TaBr5
_symmetry_space_group_name_H-M   'P 1'
_cell_length_a   6.79195322
_cell_length_b   14.44005282
_cell_length_c   14.44005282
_cell_angle_alpha   85.27344263
_cell_angle_beta   89.23461244
_cell_angle_gamma   89.23461244
_symmetry_Int_Tables_number   1
_chemical_formula_structural   TaBr5
_chemical_formula_sum   'Ta6 Br30'
_cell_volume   1411.17612396
_cell_formula_units_Z   6
loop_
 _symmetry_equiv_pos_site_id
 _symmetry_equiv_pos_as_xyz
  1  'x, y, z'
loop_
 _atom_site_type_symbol
 _atom_site_label
 _atom_site_symmetry_multiplicity
 _atom_site_fract_x
 _atom_site_fract_y
 _atom_site_fract_z
 _atom_site_occupancy
  Ta  Ta0  1  0.50000000  0.39182667  0.60817333  1
  Ta  Ta1  1  0.50000000  0.60817333  0.39182667  1
  Ta  Ta2  1  0.02106517  0.05860730  0.27494914  1
  Ta  Ta3  1  0.02106517  0.27494914  0.05860730  1
  Ta  Ta4  1  0.97893483  0.94139270  0.72505086  1
  Ta  Ta5  1  0.97893483  0.72505086  0.94139270  1
  Br  Br6  1  0.81816444  0.11918879  0.11918879  1
  Br  Br7  1  0.18183556  0.88081121  0.88081121  1
  Br  Br8  1  0.79435773  0.92881417  0.29974425  1
  Br  Br9  1  0.79435773  0.29974425  0.92881417  1
  Br  Br10  1  0.20564227  0.07118583  0.70025575  1
  Br  Br11  1  0.20564227  0.70025575  0.07118583  1
  Br  Br12  1  0.24039492  0.97384768  0.17010938  1
  Br  Br13  1  0.24039492  0.17010938  0.97384768  1
  Br  Br14  1  0.75960508  0.02615232  0.82989062  1
  Br  Br15  1  0.75960508  0.82989062  0.02615232  1
  Br  Br16  1  0.24686910  0.03380945  0.40500571  1
  Br  Br17  1  0.24686910  0.40500571  0.03380945  1
  Br  Br18  1  0.75313090  0.96619055  0.59499429  1
  Br  Br19  1  0.75313090  0.59499429  0.96619055  1
  Br  Br20  1  0.22464742  0.21422326  0.21422326  1
  Br  Br21  1  0.77535258  0.78577674  0.78577674  1
  Br  Br22  1  0.29011163  0.30777568  0.50347121  1
  Br  Br23  1  0.29011163  0.50347121  0.30777568  1
  Br  Br24  1  0.70988837  0.69222432  0.49652879  1
  Br  Br25  1  0.70988837  0.49652879  0.69222432  1
  Br  Br26  1  0.80251072  0.16389390  0.35950149  1
  Br  Br27  1  0.80251072  0.35950149  0.16389390  1
  Br  Br28  1  0.19748928  0.83610610  0.64049851  1
  Br  Br29  1  0.19748928  0.64049851  0.83610610  1
  Br  Br30  1  0.26874756  0.36701766  0.73831364  1
  Br  Br31  1  0.26874756  0.73831364  0.36701766  1
  Br  Br32  1  0.73125244  0.63298234  0.26168636  1
  Br  Br33  1  0.73125244  0.26168636  0.63298234  1
  Br  Br34  1  0.29182679  0.54785058  0.54785058  1
  Br  Br35  1  0.70817321  0.45214942  0.45214942  1
