# generated using pymatgen
data_NaHoP2O7
_symmetry_space_group_name_H-M   'P 1'
_cell_length_a   5.41845674
_cell_length_b   8.74486857
_cell_length_c   13.85374877
_cell_angle_alpha   106.18090242
_cell_angle_beta   90.00000000
_cell_angle_gamma   90.00000000
_symmetry_Int_Tables_number   1
_chemical_formula_structural   NaHoP2O7
_chemical_formula_sum   'Na4 Ho4 P8 O28'
_cell_volume   630.43789132
_cell_formula_units_Z   4
loop_
 _symmetry_equiv_pos_site_id
 _symmetry_equiv_pos_as_xyz
  1  'x, y, z'
loop_
 _atom_site_type_symbol
 _atom_site_label
 _atom_site_symmetry_multiplicity
 _atom_site_fract_x
 _atom_site_fract_y
 _atom_site_fract_z
 _atom_site_occupancy
  Na  Na0  1  0.77720889  0.72060405  0.66453866  1
  Na  Na1  1  0.72279111  0.22060405  0.16453866  1
  Na  Na2  1  0.22279111  0.27939595  0.33546134  1
  Na  Na3  1  0.27720889  0.77939595  0.83546134  1
  Ho  Ho4  1  0.26765285  0.89841339  0.14673823  1
  Ho  Ho5  1  0.23234715  0.39841339  0.64673823  1
  Ho  Ho6  1  0.73234715  0.10158661  0.85326177  1
  Ho  Ho7  1  0.76765285  0.60158661  0.35326177  1
  P  P8  1  0.78585634  0.78938690  0.97707396  1
  P  P9  1  0.71414366  0.28938690  0.47707396  1
  P  P10  1  0.21414366  0.21061310  0.02292604  1
  P  P11  1  0.28585634  0.71061310  0.52292604  1
  P  P12  1  0.75361631  0.49843622  0.81271229  1
  P  P13  1  0.74638369  0.99843622  0.31271229  1
  P  P14  1  0.24638369  0.50156378  0.18728771  1
  P  P15  1  0.25361631  0.00156378  0.68728771  1
  O  O16  1  0.63353869  0.83895190  0.07298929  1
  O  O17  1  0.86646131  0.33895190  0.57298929  1
  O  O18  1  0.36646131  0.16104810  0.92701071  1
  O  O19  1  0.13353869  0.66104810  0.42701071  1
  O  O20  1  0.70284441  0.86864097  0.89669410  1
  O  O21  1  0.79715559  0.36864097  0.39669410  1
  O  O22  1  0.29715559  0.13135903  0.10330590  1
  O  O23  1  0.20284441  0.63135903  0.60330590  1
  O  O24  1  0.06471758  0.80761456  0.99778097  1
  O  O25  1  0.43528242  0.30761456  0.49778097  1
  O  O26  1  0.93528242  0.19238544  0.00221903  1
  O  O27  1  0.56471758  0.69238544  0.50221903  1
  O  O28  1  0.72872497  0.60043387  0.92975265  1
  O  O29  1  0.77127503  0.10043387  0.42975265  1
  O  O30  1  0.27127503  0.39956613  0.07024735  1
  O  O31  1  0.22872497  0.89956613  0.57024735  1
  O  O32  1  0.76630805  0.32621818  0.81463351  1
  O  O33  1  0.73369195  0.82621818  0.31463351  1
  O  O34  1  0.23369195  0.67378182  0.18536649  1
  O  O35  1  0.26630805  0.17378182  0.68536649  1
  O  O36  1  0.98966870  0.55557483  0.77151835  1
  O  O37  1  0.51033130  0.05557483  0.27151835  1
  O  O38  1  0.01033130  0.44442517  0.22848165  1
  O  O39  1  0.48966870  0.94442517  0.72848165  1
  O  O40  1  0.52585428  0.53633949  0.75657832  1
  O  O41  1  0.97414572  0.03633949  0.25657832  1
  O  O42  1  0.47414572  0.46366051  0.24342168  1
  O  O43  1  0.02585428  0.96366051  0.74342168  1
