# generated using pymatgen
data_Li4MnCo2O7
_symmetry_space_group_name_H-M   'P 1'
_cell_length_a   2.98540460
_cell_length_b   13.61471279
_cell_length_c   6.43388427
_cell_angle_alpha   83.24884044
_cell_angle_beta   76.69716447
_cell_angle_gamma   86.38624973
_symmetry_Int_Tables_number   1
_chemical_formula_structural   Li4MnCo2O7
_chemical_formula_sum   'Li8 Mn2 Co4 O14'
_cell_volume   252.55121733
_cell_formula_units_Z   2
loop_
 _symmetry_equiv_pos_site_id
 _symmetry_equiv_pos_as_xyz
  1  'x, y, z'
loop_
 _atom_site_type_symbol
 _atom_site_label
 _atom_site_symmetry_multiplicity
 _atom_site_fract_x
 _atom_site_fract_y
 _atom_site_fract_z
 _atom_site_occupancy
  Li  Li0  1  0.84778173  0.21754884  0.06893151  1
  Li  Li1  1  0.99449401  0.50087344  0.49873756  1
  Li  Li2  1  0.15087469  0.78403524  0.93210996  1
  Li  Li3  1  0.42513835  0.35798145  0.78802135  1
  Li  Li4  1  0.56235271  0.64315962  0.22307093  1
  Li  Li5  1  0.71974022  0.92693734  0.62645868  1
  Li  Li6  1  0.29962497  0.06372237  0.36063342  1
  Li  Li7  1  0.40719172  0.86287275  0.29374728  1
  Mn  Mn8  1  0.00641114  0.99565495  0.00736313  1
  Mn  Mn9  1  0.13652987  0.28448594  0.43016878  1
  Co  Co10  1  0.28615227  0.57358645  0.85422690  1
  Co  Co11  1  0.59107841  0.13983285  0.71160005  1
  Co  Co12  1  0.70688594  0.42999704  0.13973857  1
  Co  Co13  1  0.85669889  0.72087961  0.56218764  1
  O  O14  1  0.46499637  0.09530416  0.01658079  1
  O  O15  1  0.53039320  0.39313628  0.44905792  1
  O  O16  1  0.73451442  0.67760477  0.87046427  1
  O  O17  1  0.97821419  0.24362068  0.74135774  1
  O  O18  1  0.15671296  0.53453507  0.16025929  1
  O  O19  1  0.25752815  0.81212484  0.60852220  1
  O  O20  1  0.86350952  0.96820371  0.29991754  1
  O  O21  1  0.25881999  0.32450676  0.11906831  1
  O  O22  1  0.45765102  0.61090804  0.55301607  1
  O  O23  1  0.55507454  0.90658676  0.96711971  1
  O  O24  1  0.84304045  0.46721636  0.83499601  1
  O  O25  1  0.98775543  0.74336135  0.28336940  1
  O  O26  1  0.17836420  0.04104373  0.69259258  1
  O  O27  1  0.74247063  0.18027958  0.40668239  1
