# generated using pymatgen
data_SbH36S4N11
_symmetry_space_group_name_H-M   'P 1'
_cell_length_a   8.81154890
_cell_length_b   9.84641626
_cell_length_c   13.31402926
_cell_angle_alpha   90.00000000
_cell_angle_beta   90.00000000
_cell_angle_gamma   98.11429784
_symmetry_Int_Tables_number   1
_chemical_formula_structural   SbH36S4N11
_chemical_formula_sum   'Sb2 H72 S8 N22'
_cell_volume   1143.58931525
_cell_formula_units_Z   2
loop_
 _symmetry_equiv_pos_site_id
 _symmetry_equiv_pos_as_xyz
  1  'x, y, z'
loop_
 _atom_site_type_symbol
 _atom_site_label
 _atom_site_symmetry_multiplicity
 _atom_site_fract_x
 _atom_site_fract_y
 _atom_site_fract_z
 _atom_site_occupancy
  Sb  Sb0  1  0.28280593  0.68118968  0.36562183  1
  Sb  Sb1  1  0.71719407  0.31881032  0.86562183  1
  H  H2  1  0.87219364  0.13871252  0.41103909  1
  H  H3  1  0.12780636  0.86128748  0.91103909  1
  H  H4  1  0.79619127  0.97934164  0.39200756  1
  H  H5  1  0.20380873  0.02065836  0.89200756  1
  H  H6  1  0.79395589  0.09275869  0.30282927  1
  H  H7  1  0.20604411  0.90724131  0.80282927  1
  H  H8  1  0.64930714  0.39926917  0.34281283  1
  H  H9  1  0.35069286  0.60073083  0.84281283  1
  H  H10  1  0.55771396  0.28603866  0.25590965  1
  H  H11  1  0.44228604  0.71396134  0.75590965  1
  H  H12  1  0.58038144  0.45632335  0.22725854  1
  H  H13  1  0.41961856  0.54367665  0.72725854  1
  H  H14  1  0.45587742  0.39553417  0.32014872  1
  H  H15  1  0.54412258  0.60446583  0.82014872  1
  H  H16  1  0.85646084  0.79248410  0.22111595  1
  H  H17  1  0.14353916  0.20751590  0.72111595  1
  H  H18  1  0.85143495  0.62603409  0.25499266  1
  H  H19  1  0.14856505  0.37396591  0.75499266  1
  H  H20  1  0.73226118  0.72818686  0.31589582  1
  H  H21  1  0.26773882  0.27181314  0.81589582  1
  H  H22  1  0.92542760  0.75095712  0.33753577  1
  H  H23  1  0.07457240  0.24904288  0.83753577  1
  H  H24  1  0.88307764  0.73719397  0.59248218  1
  H  H25  1  0.11692236  0.26280603  0.09248218  1
  H  H26  1  0.69466624  0.72171128  0.59537032  1
  H  H27  1  0.30533376  0.27828872  0.09537032  1
  H  H28  1  0.78823935  0.65123167  0.68524624  1
  H  H29  1  0.21176065  0.34876833  0.18524624  1
  H  H30  1  0.78039564  0.37294309  0.50817889  1
  H  H31  1  0.21960436  0.62705691  0.00817889  1
  H  H32  1  0.77084439  0.52680037  0.46610040  1
  H  H33  1  0.22915561  0.47319963  0.96610040  1
  H  H34  1  0.91214555  0.44699368  0.43023630  1
  H  H35  1  0.08785445  0.55300632  0.93023630  1
  H  H36  1  0.52890755  0.48493325  0.06524608  1
  H  H37  1  0.47109245  0.51506675  0.56524608  1
  H  H38  1  0.66377974  0.60941356  0.09440110  1
  H  H39  1  0.33622026  0.39058644  0.59440110  1
  H  H40  1  0.48631222  0.61480160  0.13602938  1
  H  H41  1  0.51368778  0.38519840  0.63602938  1
  H  H42  1  0.87569311  0.43080601  0.13329136  1
  H  H43  1  0.12430689  0.56919399  0.63329136  1
  H  H44  1  0.03098595  0.51771311  0.18312443  1
  H  H45  1  0.96901405  0.48228689  0.68312443  1
  H  H46  1  0.92667712  0.40298947  0.24983733  1
  H  H47  1  0.07332288  0.59701053  0.74983733  1
  H  H48  1  0.25581776  0.08358045  0.35512756  1
  H  H49  1  0.74418224  0.91641955  0.85512756  1
  H  H50  1  0.06346545  0.04663604  0.32204914  1
  H  H51  1  0.93653455  0.95336396  0.82204914  1
  H  H52  1  0.19266944  0.13010278  0.23808316  1
  H  H53  1  0.80733056  0.86989722  0.73808316  1
  H  H54  1  0.20004920  0.96196042  0.26844052  1
  H  H55  1  0.79995080  0.03803958  0.76844052  1
  H  H56  1  0.45805646  0.01289141  0.44379846  1
  H  H57  1  0.54194354  0.98710859  0.94379846  1
  H  H58  1  0.50889060  0.14842026  0.37439630  1
  H  H59  1  0.49110940  0.85157974  0.87439630  1
  H  H60  1  0.46019544  0.16837262  0.49156971  1
  H  H61  1  0.53980456  0.83162738  0.99156971  1
  H  H62  1  0.02044083  0.84865402  0.10252786  1
  H  H63  1  0.97955917  0.15134598  0.60252786  1
  H  H64  1  0.86193184  0.79351384  0.04035836  1
  H  H65  1  0.13806816  0.20648616  0.54035836  1
  H  H66  1  0.90176927  0.95734103  0.06782107  1
  H  H67  1  0.09823073  0.04265897  0.56782107  1
  H  H68  1  0.49121218  0.84985042  0.61067487  1
  H  H69  1  0.50878782  0.15014958  0.11067487  1
  H  H70  1  0.33223192  0.89622030  0.64667958  1
  H  H71  1  0.66776808  0.10377970  0.14667958  1
  H  H72  1  0.49494250  0.97867953  0.68953488  1
  H  H73  1  0.50505750  0.02132047  0.18953488  1
  S  S74  1  0.21774144  0.44020233  0.37045638  1
  S  S75  1  0.78225856  0.55979767  0.87045638  1
  S  S76  1  0.53467354  0.74698355  0.42813196  1
  S  S77  1  0.46532646  0.25301645  0.92813196  1
  S  S78  1  0.10481570  0.78006352  0.46497771  1
  S  S79  1  0.89518430  0.21993648  0.96497771  1
  S  S80  1  0.27605675  0.76258969  0.19737156  1
  S  S81  1  0.72394325  0.23741031  0.69737156  1
  N  N82  1  0.86073419  0.06185376  0.35885888  1
  N  N83  1  0.13926581  0.93814624  0.85885888  1
  N  N84  1  0.56177715  0.38360030  0.28830824  1
  N  N85  1  0.43822285  0.61639970  0.78830824  1
  N  N86  1  0.83970954  0.72530407  0.28330206  1
  N  N87  1  0.16029046  0.27469593  0.78330206  1
  N  N88  1  0.79051927  0.73597879  0.63981264  1
  N  N89  1  0.20948073  0.26402121  0.13981264  1
  N  N90  1  0.79619469  0.43277459  0.44474039  1
  N  N91  1  0.20380531  0.56722541  0.94474039  1
  N  N92  1  0.56747320  0.55169072  0.12205986  1
  N  N93  1  0.43252680  0.44830928  0.62205986  1
  N  N94  1  0.91910370  0.47796533  0.19777717  1
  N  N95  1  0.08089630  0.52203467  0.69777717  1
  N  N96  1  0.17703120  0.05611182  0.29621047  1
  N  N97  1  0.82296880  0.94388818  0.79621047  1
  N  N98  1  0.43371881  0.11025142  0.42893777  1
  N  N99  1  0.56628119  0.88974858  0.92893777  1
  N  N100  1  0.90712480  0.86062277  0.09475587  1
  N  N101  1  0.09287520  0.13937723  0.59475587  1
  N  N102  1  0.43813112  0.88269099  0.67336585  1
  N  N103  1  0.56186888  0.11730901  0.17336585  1
