# generated using pymatgen
data_Fe3B11HO20
_symmetry_space_group_name_H-M   'P 1'
_cell_length_a   7.76838134
_cell_length_b   8.30819942
_cell_length_c   17.89477721
_cell_angle_alpha   90.00000000
_cell_angle_beta   90.00000000
_cell_angle_gamma   90.00000000
_symmetry_Int_Tables_number   1
_chemical_formula_structural   Fe3B11HO20
_chemical_formula_sum   'Fe12 B44 H4 O80'
_cell_volume   1154.95149259
_cell_formula_units_Z   4
loop_
 _symmetry_equiv_pos_site_id
 _symmetry_equiv_pos_as_xyz
  1  'x, y, z'
loop_
 _atom_site_type_symbol
 _atom_site_label
 _atom_site_symmetry_multiplicity
 _atom_site_fract_x
 _atom_site_fract_y
 _atom_site_fract_z
 _atom_site_occupancy
  Fe  Fe0  1  -0.00000000  0.67210490  0.83993571  1
  Fe  Fe1  1  0.50000000  0.32789510  0.33993571  1
  Fe  Fe2  1  0.50000000  0.95955827  0.20296819  1
  Fe  Fe3  1  0.00000000  0.04044173  0.70296819  1
  Fe  Fe4  1  0.50000000  0.84243845  0.75704834  1
  Fe  Fe5  1  0.00000000  0.15756155  0.25704834  1
  Fe  Fe6  1  0.50000000  0.23074588  0.62793722  1
  Fe  Fe7  1  0.00000000  0.76925412  0.12793722  1
  Fe  Fe8  1  0.00000000  0.26680896  0.96015318  1
  Fe  Fe9  1  0.50000000  0.73319104  0.46015318  1
  Fe  Fe10  1  0.50000000  0.44784631  0.89797602  1
  Fe  Fe11  1  -0.00000000  0.55215369  0.39797602  1
  B  B12  1  0.66568588  0.79076136  0.91186035  1
  B  B13  1  0.33431412  0.79076136  0.91186035  1
  B  B14  1  0.83431412  0.20923864  0.41186035  1
  B  B15  1  0.16568588  0.20923864  0.41186035  1
  B  B16  1  0.82611051  0.01544840  0.84586274  1
  B  B17  1  0.17388949  0.01544840  0.84586274  1
  B  B18  1  0.67388949  0.98455160  0.34586274  1
  B  B19  1  0.32611051  0.98455160  0.34586274  1
  B  B20  1  0.83054892  0.60284717  0.99937707  1
  B  B21  1  0.16945108  0.60284717  0.99937707  1
  B  B22  1  0.66945108  0.39715283  0.49937707  1
  B  B23  1  0.33054892  0.39715283  0.49937707  1
  B  B24  1  0.66287847  0.08538177  0.96225951  1
  B  B25  1  0.33712153  0.08538177  0.96225951  1
  B  B26  1  0.83712153  0.91461823  0.46225951  1
  B  B27  1  0.16287847  0.91461823  0.46225951  1
  B  B28  1  0.66764379  0.35211687  0.03850084  1
  B  B29  1  0.33235621  0.35211687  0.03850084  1
  B  B30  1  0.83235621  0.64788313  0.53850084  1
  B  B31  1  0.16764379  0.64788313  0.53850084  1
  B  B32  1  0.83521085  0.14689720  0.55798555  1
  B  B33  1  0.16478915  0.14689720  0.55798555  1
  B  B34  1  0.66478915  0.85310280  0.05798555  1
  B  B35  1  0.33521085  0.85310280  0.05798555  1
  B  B36  1  0.83255705  0.10332901  0.09525311  1
  B  B37  1  0.16744295  0.10332901  0.09525311  1
  B  B38  1  0.66744295  0.89667099  0.59525311  1
  B  B39  1  0.33255705  0.89667099  0.59525311  1
  B  B40  1  0.66649272  0.49957318  0.74846135  1
  B  B41  1  0.33350728  0.49957318  0.74846135  1
  B  B42  1  0.83350728  0.50042682  0.24846135  1
  B  B43  1  0.16649272  0.50042682  0.24846135  1
  B  B44  1  0.83151991  0.71089914  0.68355540  1
  B  B45  1  0.16848009  0.71089914  0.68355540  1
  B  B46  1  0.66848009  0.28910086  0.18355540  1
  B  B47  1  0.33151991  0.28910086  0.18355540  1
  B  B48  1  0.66155456  0.58673425  0.13321889  1
  B  B49  1  0.33844544  0.58673425  0.13321889  1
  B  B50  1  0.83844544  0.41326575  0.63321889  1
  B  B51  1  0.16155456  0.41326575  0.63321889  1
  B  B52  1  0.66640161  0.23077800  0.77126269  1
  B  B53  1  0.33359839  0.23077800  0.77126269  1
  B  B54  1  0.83359839  0.76922200  0.27126269  1
  B  B55  1  0.16640161  0.76922200  0.27126269  1
  H  H56  1  0.89478570  0.36659717  0.83070136  1
  H  H57  1  0.10521430  0.36659717  0.83070136  1
  H  H58  1  0.60521430  0.63340283  0.33070136  1
  H  H59  1  0.39478570  0.63340283  0.33070136  1
  O  O60  1  0.80447356  0.67675359  0.92594815  1
  O  O61  1  0.19552644  0.67675359  0.92594815  1
  O  O62  1  0.69552644  0.32324641  0.42594815  1
  O  O63  1  0.30447356  0.32324641  0.42594815  1
  O  O64  1  0.69881356  0.87761941  0.27623371  1
  O  O65  1  0.30118644  0.87761941  0.27623371  1
  O  O66  1  0.80118644  0.12238059  0.77623371  1
  O  O67  1  0.19881356  0.12238059  0.77623371  1
  O  O68  1  0.69691569  0.82920553  0.67048226  1
  O  O69  1  0.30308431  0.82920553  0.67048226  1
  O  O70  1  0.80308431  0.17079447  0.17048226  1
  O  O71  1  0.19691569  0.17079447  0.17048226  1
  O  O72  1  0.50000000  0.57871255  0.74515892  1
  O  O73  1  -0.00000000  0.42128745  0.24515892  1
  O  O74  1  0.50000000  0.20898284  0.18615924  1
  O  O75  1  -0.00000000  0.79101716  0.68615924  1
  O  O76  1  -0.00000000  0.94190834  0.83702440  1
  O  O77  1  0.50000000  0.05809166  0.33702440  1
  O  O78  1  0.50000000  0.89255715  0.09198630  1
  O  O79  1  -0.00000000  0.10744285  0.59198630  1
  O  O80  1  0.80415939  0.61567193  0.75109912  1
  O  O81  1  0.19584061  0.61567193  0.75109912  1
  O  O82  1  0.69584061  0.38432807  0.25109912  1
  O  O83  1  0.30415939  0.38432807  0.25109912  1
  O  O84  1  0.50000000  0.39463055  0.00786826  1
  O  O85  1  0.00000000  0.60536945  0.50786826  1
  O  O86  1  0.80709692  0.11692861  0.91261765  1
  O  O87  1  0.19290308  0.11692861  0.91261765  1
  O  O88  1  0.69290308  0.88307139  0.41261765  1
  O  O89  1  0.30709692  0.88307139  0.41261765  1
  O  O90  1  0.00000000  0.14473723  0.06504228  1
  O  O91  1  0.50000000  0.85526277  0.56504228  1
  O  O92  1  0.80057739  0.42937719  0.99483291  1
  O  O93  1  0.19942261  0.42937719  0.99483291  1
  O  O94  1  0.69942261  0.57062281  0.49483291  1
  O  O95  1  0.30057739  0.57062281  0.49483291  1
  O  O96  1  0.50000000  0.70417861  0.90828070  1
  O  O97  1  -0.00000000  0.29582139  0.40828070  1
  O  O98  1  0.69327013  0.88783304  0.84474517  1
  O  O99  1  0.30672987  0.88783304  0.84474517  1
  O  O100  1  0.80672987  0.11216696  0.34474517  1
  O  O101  1  0.19327013  0.11216696  0.34474517  1
  O  O102  1  0.67346730  0.37977584  0.81264210  1
  O  O103  1  0.32653270  0.37977584  0.81264210  1
  O  O104  1  0.82653270  0.62022416  0.31264210  1
  O  O105  1  0.17346730  0.62022416  0.31264210  1
  O  O106  1  0.69508862  0.37368216  0.68613920  1
  O  O107  1  0.30491138  0.37368216  0.68613920  1
  O  O108  1  0.80491138  0.62631784  0.18613920  1
  O  O109  1  0.19508862  0.62631784  0.18613920  1
  O  O110  1  0.50000000  0.35890121  0.53010954  1
  O  O111  1  0.00000000  0.64109879  0.03010954  1
  O  O112  1  0.69639967  0.07137077  0.59898148  1
  O  O113  1  0.30360033  0.07137077  0.59898148  1
  O  O114  1  0.80360033  0.92862923  0.09898148  1
  O  O115  1  0.19639967  0.92862923  0.09898148  1
  O  O116  1  0.66685976  0.90721891  0.97919299  1
  O  O117  1  0.33314024  0.90721891  0.97919299  1
  O  O118  1  0.83314024  0.09278109  0.47919299  1
  O  O119  1  0.16685976  0.09278109  0.47919299  1
  O  O120  1  0.69785868  0.17251645  0.03869878  1
  O  O121  1  0.30214132  0.17251645  0.03869878  1
  O  O122  1  0.80214132  0.82748355  0.53869878  1
  O  O123  1  0.19785868  0.82748355  0.53869878  1
  O  O124  1  0.67663454  0.40898064  0.11764761  1
  O  O125  1  0.32336546  0.40898064  0.11764761  1
  O  O126  1  0.82336546  0.59101936  0.61764761  1
  O  O127  1  0.17663454  0.59101936  0.61764761  1
  O  O128  1  0.69801932  0.67221476  0.05789274  1
  O  O129  1  0.30198068  0.67221476  0.05789274  1
  O  O130  1  0.80198068  0.32778524  0.55789274  1
  O  O131  1  0.19801932  0.32778524  0.55789274  1
  O  O132  1  0.50000000  0.13405147  0.93213649  1
  O  O133  1  0.00000000  0.86594853  0.43213649  1
  O  O134  1  0.50000000  0.16352691  0.75349801  1
  O  O135  1  -0.00000000  0.83647309  0.25349801  1
  O  O136  1  0.00000000  0.40475699  0.85632633  1
  O  O137  1  0.50000000  0.59524301  0.35632633  1
  O  O138  1  0.50000000  0.62988932  0.16390543  1
  O  O139  1  0.00000000  0.37011068  0.66390543  1
