# generated using pymatgen
data_Lu2Co17
_symmetry_space_group_name_H-M   'P 1'
_cell_length_a   8.06512423
_cell_length_b   8.23255706
_cell_length_c   8.23255706
_cell_angle_alpha   120.01909386
_cell_angle_beta   90.00000000
_cell_angle_gamma   90.00000000
_symmetry_Int_Tables_number   1
_chemical_formula_structural   Lu2Co17
_chemical_formula_sum   'Lu4 Co34'
_cell_volume   473.29029657
_cell_formula_units_Z   2
loop_
 _symmetry_equiv_pos_site_id
 _symmetry_equiv_pos_as_xyz
  1  'x, y, z'
loop_
 _atom_site_type_symbol
 _atom_site_label
 _atom_site_symmetry_multiplicity
 _atom_site_fract_x
 _atom_site_fract_y
 _atom_site_fract_z
 _atom_site_occupancy
  Lu  Lu0  1  0.75000000  -0.00004254  0.00004254  1
  Lu  Lu1  1  0.25000000  0.00004254  -0.00004254  1
  Lu  Lu2  1  0.25000000  0.66664693  0.33335307  1
  Lu  Lu3  1  0.75000000  0.33335307  0.66664693  1
  Co  Co4  1  0.60664922  0.66666927  0.33333073  1
  Co  Co5  1  0.39335078  0.33333073  0.66666927  1
  Co  Co6  1  0.10664922  0.33333073  0.66666927  1
  Co  Co7  1  0.89335078  0.66666927  0.33333073  1
  Co  Co8  1  0.50000000  0.50000000  -0.00000000  1
  Co  Co9  1  0.50000000  0.50000000  0.50000000  1
  Co  Co10  1  0.50000000  0.00000000  0.50000000  1
  Co  Co11  1  0.00000000  0.50000000  -0.00000000  1
  Co  Co12  1  0.00000000  0.50000000  0.50000000  1
  Co  Co13  1  0.00000000  0.00000000  0.50000000  1
  Co  Co14  1  0.75000000  0.67199346  0.04423089  1
  Co  Co15  1  0.75000000  0.37247883  0.32834988  1
  Co  Co16  1  0.75000000  0.95564884  0.62753132  1
  Co  Co17  1  0.75000000  0.37246868  0.04435116  1
  Co  Co18  1  0.75000000  0.95576911  0.32800654  1
  Co  Co19  1  0.75000000  0.67165012  0.62752117  1
  Co  Co20  1  0.25000000  0.32800654  0.95576911  1
  Co  Co21  1  0.25000000  0.62752117  0.67165012  1
  Co  Co22  1  0.25000000  0.04435116  0.37246868  1
  Co  Co23  1  0.25000000  0.62753132  0.95564884  1
  Co  Co24  1  0.25000000  0.04423089  0.67199346  1
  Co  Co25  1  0.25000000  0.32834988  0.37247883  1
  Co  Co26  1  0.47780176  0.83360357  0.66737691  1
  Co  Co27  1  0.47787051  0.83364387  0.16635613  1
  Co  Co28  1  0.47780176  0.33262309  0.16639643  1
  Co  Co29  1  0.52219824  0.16639643  0.33262309  1
  Co  Co30  1  0.52212949  0.16635613  0.83364387  1
  Co  Co31  1  0.52219824  0.66737691  0.83360357  1
  Co  Co32  1  0.97780176  0.16639643  0.33262309  1
  Co  Co33  1  0.97787051  0.16635613  0.83364387  1
  Co  Co34  1  0.97780176  0.66737691  0.83360357  1
  Co  Co35  1  0.02219824  0.83360357  0.66737691  1
  Co  Co36  1  0.02212949  0.83364387  0.16635613  1
  Co  Co37  1  0.02219824  0.33262309  0.16639643  1
