# generated using pymatgen
data_Th(BRu)4
_symmetry_space_group_name_H-M   'P 1'
_cell_length_a   7.57611004
_cell_length_b   7.57611004
_cell_length_c   9.31525748
_cell_angle_alpha   113.99460352
_cell_angle_beta   113.99460352
_cell_angle_gamma   90.00000000
_symmetry_Int_Tables_number   1
_chemical_formula_structural   Th(BRu)4
_chemical_formula_sum   'Th4 B16 Ru16'
_cell_volume   437.40956889
_cell_formula_units_Z   4
loop_
 _symmetry_equiv_pos_site_id
 _symmetry_equiv_pos_as_xyz
  1  'x, y, z'
loop_
 _atom_site_type_symbol
 _atom_site_label
 _atom_site_symmetry_multiplicity
 _atom_site_fract_x
 _atom_site_fract_y
 _atom_site_fract_z
 _atom_site_occupancy
  Th  Th0  1  0.12500000  0.37500000  0.25000000  1
  Th  Th1  1  0.62500000  0.87500000  0.25000000  1
  Th  Th2  1  0.87500000  0.62500000  0.75000000  1
  Th  Th3  1  0.37500000  0.12500000  0.75000000  1
  B  B4  1  0.78997506  0.35330671  0.91462966  1
  B  B5  1  0.62465460  0.85330671  0.91462966  1
  B  B6  1  0.85330671  0.28997506  0.41462966  1
  B  B7  1  0.06132295  0.78997506  0.41462966  1
  B  B8  1  0.21002494  0.64669329  0.08537034  1
  B  B9  1  0.37534540  0.14669329  0.08537034  1
  B  B10  1  0.14669329  0.71002494  0.58537034  1
  B  B11  1  0.93867705  0.21002494  0.58537034  1
  B  B12  1  0.28997506  0.56132295  0.91462966  1
  B  B13  1  0.12465460  0.06132295  0.91462966  1
  B  B14  1  0.35330671  0.12465460  0.41462966  1
  B  B15  1  0.56132295  0.62465460  0.41462966  1
  B  B16  1  0.71002494  0.43867705  0.08537034  1
  B  B17  1  0.87534540  0.93867705  0.08537034  1
  B  B18  1  0.64669329  0.87534540  0.58537034  1
  B  B19  1  0.43867705  0.37534540  0.58537034  1
  Ru  Ru20  1  0.94926080  0.66838794  0.12724529  1
  Ru  Ru21  1  0.67798449  0.16838794  0.12724529  1
  Ru  Ru22  1  0.16838794  0.44926080  0.62724529  1
  Ru  Ru23  1  0.95885735  0.94926080  0.62724529  1
  Ru  Ru24  1  0.05073920  0.33161206  0.87275471  1
  Ru  Ru25  1  0.32201551  0.83161206  0.87275471  1
  Ru  Ru26  1  0.83161206  0.55073920  0.37275471  1
  Ru  Ru27  1  0.04114265  0.05073920  0.37275471  1
  Ru  Ru28  1  0.44926080  0.45885735  0.12724529  1
  Ru  Ru29  1  0.17798449  0.95885735  0.12724529  1
  Ru  Ru30  1  0.66838794  0.17798449  0.62724529  1
  Ru  Ru31  1  0.45885735  0.67798449  0.62724529  1
  Ru  Ru32  1  0.55073920  0.54114265  0.87275471  1
  Ru  Ru33  1  0.82201551  0.04114265  0.87275471  1
  Ru  Ru34  1  0.33161206  0.82201551  0.37275471  1
  Ru  Ru35  1  0.54114265  0.32201551  0.37275471  1
