# generated using pymatgen
data_Na2Nb2(P2O7)3
_symmetry_space_group_name_H-M   'P 1'
_cell_length_a   9.22191297
_cell_length_b   9.22198565
_cell_length_c   12.82054857
_cell_angle_alpha   90.00000000
_cell_angle_beta   90.00000000
_cell_angle_gamma   120.00013854
_symmetry_Int_Tables_number   1
_chemical_formula_structural   Na2Nb2(P2O7)3
_chemical_formula_sum   'Na4 Nb4 P12 O42'
_cell_volume   944.23935017
_cell_formula_units_Z   2
loop_
 _symmetry_equiv_pos_site_id
 _symmetry_equiv_pos_as_xyz
  1  'x, y, z'
loop_
 _atom_site_type_symbol
 _atom_site_label
 _atom_site_symmetry_multiplicity
 _atom_site_fract_x
 _atom_site_fract_y
 _atom_site_fract_z
 _atom_site_occupancy
  Na  Na0  1  -0.00000000  0.00000000  0.50000000  1
  Na  Na1  1  -0.00000000  0.00000000  -0.00000000  1
  Na  Na2  1  0.99999638  0.00000314  0.75000000  1
  Na  Na3  1  0.00000362  0.99999686  0.25000000  1
  Nb  Nb4  1  0.66666486  0.33333242  0.52559233  1
  Nb  Nb5  1  0.33333514  0.66666758  0.02559233  1
  Nb  Nb6  1  0.33333514  0.66666758  0.47440767  1
  Nb  Nb7  1  0.66666486  0.33333242  0.97440767  1
  P  P8  1  0.33912317  0.97790562  0.63466906  1
  P  P9  1  0.02209237  0.36122046  0.63466858  1
  P  P10  1  0.63878363  0.66087484  0.63466974  1
  P  P11  1  0.66087683  0.02209438  0.13466906  1
  P  P12  1  0.97790763  0.63877954  0.13466858  1
  P  P13  1  0.36121637  0.33912516  0.13466974  1
  P  P14  1  0.66087683  0.02209438  0.36533094  1
  P  P15  1  0.97790763  0.63877954  0.36533142  1
  P  P16  1  0.36121637  0.33912516  0.36533026  1
  P  P17  1  0.33912317  0.97790562  0.86533094  1
  P  P18  1  0.02209237  0.36122046  0.86533142  1
  P  P19  1  0.63878363  0.66087484  0.86533026  1
  O  O20  1  0.38052135  0.93772757  0.75000000  1
  O  O21  1  0.06226630  0.44279116  0.75000000  1
  O  O22  1  0.55720833  0.61947849  0.75000000  1
  O  O23  1  0.61947865  0.06227243  0.25000000  1
  O  O24  1  0.93773370  0.55720884  0.25000000  1
  O  O25  1  0.44279167  0.38052151  0.25000000  1
  O  O26  1  0.48434171  0.16031920  0.61264985  1
  O  O27  1  0.83967891  0.32402428  0.61264696  1
  O  O28  1  0.67597349  0.51565304  0.61264920  1
  O  O29  1  0.51565829  0.83968080  0.11264985  1
  O  O30  1  0.16032109  0.67597572  0.11264696  1
  O  O31  1  0.32402651  0.48434696  0.11264920  1
  O  O32  1  0.51565829  0.83968080  0.38735015  1
  O  O33  1  0.16032109  0.67597572  0.38735304  1
  O  O34  1  0.32402651  0.48434696  0.38735080  1
  O  O35  1  0.48434171  0.16031920  0.88735015  1
  O  O36  1  0.83967891  0.32402428  0.88735304  1
  O  O37  1  0.67597349  0.51565304  0.88735080  1
  O  O38  1  0.36851984  0.85695284  0.56602817  1
  O  O39  1  0.14305164  0.51156695  0.56602814  1
  O  O40  1  0.48843647  0.63148538  0.56602790  1
  O  O41  1  0.63148016  0.14304716  0.06602817  1
  O  O42  1  0.85694836  0.48843305  0.06602814  1
  O  O43  1  0.51156353  0.36851462  0.06602790  1
  O  O44  1  0.63148016  0.14304716  0.43397183  1
  O  O45  1  0.85694836  0.48843305  0.43397186  1
  O  O46  1  0.51156353  0.36851462  0.43397210  1
  O  O47  1  0.36851984  0.85695284  0.93397183  1
  O  O48  1  0.14305164  0.51156695  0.93397186  1
  O  O49  1  0.48843647  0.63148538  0.93397210  1
  O  O50  1  0.16982851  0.95759512  0.62639232  1
  O  O51  1  0.04240129  0.21223723  0.62639139  1
  O  O52  1  0.78776601  0.83016931  0.62639247  1
  O  O53  1  0.83017149  0.04240488  0.12639232  1
  O  O54  1  0.95759871  0.78776277  0.12639139  1
  O  O55  1  0.21223399  0.16983069  0.12639247  1
  O  O56  1  0.83017149  0.04240488  0.37360768  1
  O  O57  1  0.95759871  0.78776277  0.37360861  1
  O  O58  1  0.21223399  0.16983069  0.37360753  1
  O  O59  1  0.16982851  0.95759512  0.87360768  1
  O  O60  1  0.04240129  0.21223723  0.87360861  1
  O  O61  1  0.78776601  0.83016931  0.87360753  1
