# generated using pymatgen
data_La2SiC(NO2)2
_symmetry_space_group_name_H-M   'P 1'
_cell_length_a   6.68015703
_cell_length_b   6.57529459
_cell_length_c   12.91621630
_cell_angle_alpha   90.00000000
_cell_angle_beta   90.00000000
_cell_angle_gamma   105.27518395
_symmetry_Int_Tables_number   1
_chemical_formula_structural   La2SiC(NO2)2
_chemical_formula_sum   'La8 Si4 C4 N8 O16'
_cell_volume   547.28897098
_cell_formula_units_Z   4
loop_
 _symmetry_equiv_pos_site_id
 _symmetry_equiv_pos_as_xyz
  1  'x, y, z'
loop_
 _atom_site_type_symbol
 _atom_site_label
 _atom_site_symmetry_multiplicity
 _atom_site_fract_x
 _atom_site_fract_y
 _atom_site_fract_z
 _atom_site_occupancy
  La  La0  1  0.71887186  0.41168595  0.40085705  1
  La  La1  1  0.78112814  0.58831405  0.90085705  1
  La  La2  1  0.28112814  0.58831405  0.59914295  1
  La  La3  1  0.21887186  0.41168595  0.09914295  1
  La  La4  1  0.83021432  0.03043998  0.64519452  1
  La  La5  1  0.66978568  0.96956002  0.14519452  1
  La  La6  1  0.16978568  0.96956002  0.35480548  1
  La  La7  1  0.33021432  0.03043998  0.85480548  1
  Si  Si8  1  0.31280012  0.09228876  0.59927130  1
  Si  Si9  1  0.18719988  0.90771124  0.09927130  1
  Si  Si10  1  0.68719988  0.90771124  0.40072870  1
  Si  Si11  1  0.81280012  0.09228876  0.90072870  1
  C  C12  1  0.76862889  0.52599870  0.65182658  1
  C  C13  1  0.73137111  0.47400130  0.15182658  1
  C  C14  1  0.23137111  0.47400130  0.34817342  1
  C  C15  1  0.26862889  0.52599870  0.84817342  1
  N  N16  1  0.86163807  0.42526749  0.59772740  1
  N  N17  1  0.63836193  0.57473251  0.09772740  1
  N  N18  1  0.13836193  0.57473251  0.40227260  1
  N  N19  1  0.36163807  0.42526749  0.90227260  1
  N  N20  1  0.67589959  0.62956389  0.70425437  1
  N  N21  1  0.82410041  0.37043611  0.20425437  1
  N  N22  1  0.32410041  0.37043611  0.29574563  1
  N  N23  1  0.17589959  0.62956389  0.79574563  1
  O  O24  1  0.87068042  0.10595927  0.44795353  1
  O  O25  1  0.62931958  0.89404073  0.94795353  1
  O  O26  1  0.12931958  0.89404073  0.55204647  1
  O  O27  1  0.37068042  0.10595927  0.05204647  1
  O  O28  1  0.41569213  0.25325451  0.50697399  1
  O  O29  1  0.08430787  0.74674549  0.00697399  1
  O  O30  1  0.58430787  0.74674549  0.49302601  1
  O  O31  1  0.91569213  0.25325451  0.99302601  1
  O  O32  1  0.45943001  0.97455129  0.66628705  1
  O  O33  1  0.04056999  0.02544871  0.16628705  1
  O  O34  1  0.54056999  0.02544871  0.33371295  1
  O  O35  1  0.95943001  0.97455129  0.83371295  1
  O  O36  1  0.20287115  0.22301420  0.68000298  1
  O  O37  1  0.29712885  0.77698580  0.18000298  1
  O  O38  1  0.79712885  0.77698580  0.31999702  1
  O  O39  1  0.70287115  0.22301420  0.81999702  1
