# generated using pymatgen
data_Sm5P12Ru19
_symmetry_space_group_name_H-M   'P 1'
_cell_length_a   4.01087058
_cell_length_b   12.59070574
_cell_length_c   12.58951015
_cell_angle_alpha   120.00314187
_cell_angle_beta   90.00000000
_cell_angle_gamma   90.00000000
_symmetry_Int_Tables_number   1
_chemical_formula_structural   Sm5P12Ru19
_chemical_formula_sum   'Sm5 P12 Ru19'
_cell_volume   550.57239986
_cell_formula_units_Z   1
loop_
 _symmetry_equiv_pos_site_id
 _symmetry_equiv_pos_as_xyz
  1  'x, y, z'
loop_
 _atom_site_type_symbol
 _atom_site_label
 _atom_site_symmetry_multiplicity
 _atom_site_fract_x
 _atom_site_fract_y
 _atom_site_fract_z
 _atom_site_occupancy
  Sm  Sm0  1  0.50000000  0.99998186  0.18407171  1
  Sm  Sm1  1  0.50000000  0.18416522  1.00000000  1
  Sm  Sm2  1  0.50000000  0.81591015  0.81592829  1
  Sm  Sm3  1  -0.00000000  0.33335561  0.66672702  1
  Sm  Sm4  1  -0.00000000  0.66662858  0.33327298  1
  P  P5  1  0.00000000  -0.00001144  0.81351573  1
  P  P6  1  -0.00000000  0.81352626  1.00000000  1
  P  P7  1  0.00000000  0.18647283  0.18648427  1
  P  P8  1  0.50000000  0.30616996  0.47650721  1
  P  P9  1  0.50000000  0.17033764  0.69384509  1
  P  P10  1  0.50000000  0.52346287  0.82964990  1
  P  P11  1  0.50000000  0.82966275  0.52349279  1
  P  P12  1  0.50000000  0.47649255  0.30615491  1
  P  P13  1  0.50000000  0.69381297  0.17035010  1
  P  P14  1  0.00000000  -0.00000103  0.37418193  1
  P  P15  1  0.00000000  0.37417773  0.00000000  1
  P  P16  1  0.00000000  0.62581705  0.62581807  1
  Ru  Ru17  1  -0.00000000  -0.00000915  0.55471276  1
  Ru  Ru18  1  0.00000000  0.55467687  1.00000000  1
  Ru  Ru19  1  -0.00000000  0.44527808  0.44528724  1
  Ru  Ru20  1  0.50000000  0.00002350  0.71589596  1
  Ru  Ru21  1  0.50000000  0.71577772  1.00000000  1
  Ru  Ru22  1  0.50000000  0.28412754  0.28410404  1
  Ru  Ru23  1  0.00000000  0.19311606  0.37772026  1
  Ru  Ru24  1  0.00000000  0.18466243  0.80695363  1
  Ru  Ru25  1  -0.00000000  0.62228637  0.81539664  1
  Ru  Ru26  1  -0.00000000  0.81539580  0.62227974  1
  Ru  Ru27  1  0.00000000  0.37770880  0.19304637  1
  Ru  Ru28  1  -0.00000000  0.80688973  0.18460336  1
  Ru  Ru29  1  0.50000000  0.12512551  0.49113089  1
  Ru  Ru30  1  0.50000000  0.36601649  0.87486869  1
  Ru  Ru31  1  0.50000000  0.50884936  0.63399521  1
  Ru  Ru32  1  0.50000000  0.63399461  0.50886911  1
  Ru  Ru33  1  0.50000000  0.49114781  0.12513131  1
  Ru  Ru34  1  0.50000000  0.87485415  0.36600479  1
  Ru  Ru35  1  0.00000000  0.00001676  0.00000000  1
