# generated using pymatgen
data_Cs2ZnI4
_symmetry_space_group_name_H-M   'P 1'
_cell_length_a   8.56860588
_cell_length_b   14.97348776
_cell_length_c   33.29865356
_cell_angle_alpha   90.00000000
_cell_angle_beta   90.00000000
_cell_angle_gamma   90.00000000
_symmetry_Int_Tables_number   1
_chemical_formula_structural   Cs2ZnI4
_chemical_formula_sum   'Cs24 Zn12 I48'
_cell_volume   4272.28102748
_cell_formula_units_Z   12
loop_
 _symmetry_equiv_pos_site_id
 _symmetry_equiv_pos_as_xyz
  1  'x, y, z'
loop_
 _atom_site_type_symbol
 _atom_site_label
 _atom_site_symmetry_multiplicity
 _atom_site_fract_x
 _atom_site_fract_y
 _atom_site_fract_z
 _atom_site_occupancy
  Cs  Cs0  1  0.74968507  0.16490096  0.49182853  1
  Cs  Cs1  1  0.24968507  0.83509904  0.50817147  1
  Cs  Cs2  1  0.24968507  0.66490096  0.00817147  1
  Cs  Cs3  1  0.74968507  0.33509904  0.99182853  1
  Cs  Cs4  1  0.74499672  0.16661402  0.15844189  1
  Cs  Cs5  1  0.24499672  0.83338598  0.84155811  1
  Cs  Cs6  1  0.24499672  0.66661402  0.34155811  1
  Cs  Cs7  1  0.74499672  0.33338598  0.65844189  1
  Cs  Cs8  1  0.74920671  0.16453669  0.82510599  1
  Cs  Cs9  1  0.24920671  0.83546331  0.17489401  1
  Cs  Cs10  1  0.24920671  0.66453669  0.67489401  1
  Cs  Cs11  1  0.74920671  0.33546331  0.32510599  1
  Cs  Cs12  1  0.74874068  0.89711218  0.37685899  1
  Cs  Cs13  1  0.24874068  0.10288782  0.62314101  1
  Cs  Cs14  1  0.24874068  0.39711218  0.12314101  1
  Cs  Cs15  1  0.74874068  0.60288782  0.87685899  1
  Cs  Cs16  1  0.75371070  0.90033045  0.04319902  1
  Cs  Cs17  1  0.25371070  0.09966955  0.95680098  1
  Cs  Cs18  1  0.25371070  0.40033045  0.45680098  1
  Cs  Cs19  1  0.75371070  0.59966955  0.54319902  1
  Cs  Cs20  1  0.74282292  0.89574372  0.71020887  1
  Cs  Cs21  1  0.24282292  0.10425628  0.28979113  1
  Cs  Cs22  1  0.24282292  0.39574372  0.78979113  1
  Cs  Cs23  1  0.74282292  0.60425628  0.21020887  1
  Zn  Zn24  1  0.74601873  0.92366055  0.24547004  1
  Zn  Zn25  1  0.24601873  0.07633945  0.75452996  1
  Zn  Zn26  1  0.24601873  0.42366055  0.25452996  1
  Zn  Zn27  1  0.74601873  0.57633945  0.74547004  1
  Zn  Zn28  1  0.75041122  0.92221589  0.91208258  1
  Zn  Zn29  1  0.25041122  0.07778411  0.08791742  1
  Zn  Zn30  1  0.25041122  0.42221589  0.58791742  1
  Zn  Zn31  1  0.75041122  0.57778411  0.41208258  1
  Zn  Zn32  1  0.74278802  0.92163102  0.57891080  1
  Zn  Zn33  1  0.24278802  0.07836898  0.42108920  1
  Zn  Zn34  1  0.24278802  0.42163102  0.92108920  1
  Zn  Zn35  1  0.74278802  0.57836898  0.07891080  1
  I  I36  1  0.73752106  0.90115243  0.50050956  1
  I  I37  1  0.23752106  0.09884757  0.49949044  1
  I  I38  1  0.23752106  0.40115243  0.99949044  1
  I  I39  1  0.73752106  0.59884757  0.00050956  1
  I  I40  1  0.74942293  0.90237510  0.16712266  1
  I  I41  1  0.24942293  0.09762490  0.83287734  1
  I  I42  1  0.24942293  0.40237510  0.33287734  1
  I  I43  1  0.74942293  0.59762490  0.66712266  1
  I  I44  1  0.75457983  0.90059311  0.83380585  1
  I  I45  1  0.25457983  0.09940689  0.16619415  1
  I  I46  1  0.25457983  0.40059311  0.66619415  1
  I  I47  1  0.75457983  0.59940689  0.33380585  1
  I  I48  1  0.72661161  0.09217460  0.26949598  1
  I  I49  1  0.22661161  0.90782540  0.73050402  1
  I  I50  1  0.22661161  0.59217460  0.23050402  1
  I  I51  1  0.72661161  0.40782540  0.76949598  1
  I  I52  1  0.75828060  0.09087423  0.93629627  1
  I  I53  1  0.25828060  0.90912577  0.06370373  1
  I  I54  1  0.25828060  0.59087423  0.56370373  1
  I  I55  1  0.75828060  0.40912577  0.43629627  1
  I  I56  1  0.75848705  0.09039638  0.60287626  1
  I  I57  1  0.25848705  0.90960362  0.39712374  1
  I  I58  1  0.25848705  0.59039638  0.89712374  1
  I  I59  1  0.75848705  0.40960362  0.10287626  1
  I  I60  1  0.50072904  0.84007906  0.27535241  1
  I  I61  1  0.00072904  0.15992094  0.72464759  1
  I  I62  1  0.00072904  0.34007906  0.22464759  1
  I  I63  1  0.50072904  0.65992094  0.77535241  1
  I  I64  1  0.49366750  0.85229100  0.94253764  1
  I  I65  1  0.99366750  0.14770900  0.05746236  1
  I  I66  1  0.99366750  0.35229100  0.55746236  1
  I  I67  1  0.49366750  0.64770900  0.44253764  1
  I  I68  1  0.48466312  0.85588717  0.61079081  1
  I  I69  1  0.98466312  0.14411283  0.38920919  1
  I  I70  1  0.98466312  0.35588717  0.88920919  1
  I  I71  1  0.48466312  0.64411283  0.11079081  1
  I  I72  1  0.50521638  0.14254594  0.72363948  1
  I  I73  1  0.00521638  0.85745406  0.27636052  1
  I  I74  1  0.00521638  0.64254594  0.77636052  1
  I  I75  1  0.50521638  0.35745406  0.22363948  1
  I  I76  1  0.49858231  0.15740320  0.05732981  1
  I  I77  1  0.99858231  0.84259680  0.94267019  1
  I  I78  1  0.99858231  0.65740320  0.44267019  1
  I  I79  1  0.49858231  0.34259680  0.55732981  1
  I  I80  1  0.48995782  0.16151457  0.39236684  1
  I  I81  1  0.98995782  0.83848543  0.60763316  1
  I  I82  1  0.98995782  0.66151457  0.10763316  1
  I  I83  1  0.48995782  0.33848543  0.89236684  1
