# generated using pymatgen
data_La5P12Ir19
_symmetry_space_group_name_H-M   'P 1'
_cell_length_a   4.04629741
_cell_length_b   12.85039216
_cell_length_c   12.85008401
_cell_angle_alpha   120.00079183
_cell_angle_beta   90.00000000
_cell_angle_gamma   90.00000000
_symmetry_Int_Tables_number   1
_chemical_formula_structural   La5P12Ir19
_chemical_formula_sum   'La5 P12 Ir19'
_cell_volume   578.63848621
_cell_formula_units_Z   1
loop_
 _symmetry_equiv_pos_site_id
 _symmetry_equiv_pos_as_xyz
  1  'x, y, z'
loop_
 _atom_site_type_symbol
 _atom_site_label
 _atom_site_symmetry_multiplicity
 _atom_site_fract_x
 _atom_site_fract_y
 _atom_site_fract_z
 _atom_site_occupancy
  La  La0  1  0.50000000  0.18628505  1.00000000  1
  La  La1  1  0.50000000  0.81371476  0.81370924  1
  La  La2  1  0.50000000  0.00000553  0.18629076  1
  La  La3  1  0.00000000  0.33330897  0.66665361  1
  La  La4  1  -0.00000000  0.66665536  0.33334639  1
  P  P5  1  -0.00000000  0.81811895  0.00000000  1
  P  P6  1  0.00000000  0.18187360  0.18187531  1
  P  P7  1  0.00000000  0.99999829  0.81812469  1
  P  P8  1  0.50000000  0.31054141  0.48114730  1
  P  P9  1  0.50000000  0.17059265  0.68945046  1
  P  P10  1  0.50000000  0.51886227  0.82940644  1
  P  P11  1  0.50000000  0.82939411  0.51885270  1
  P  P12  1  0.50000000  0.48114219  0.31054954  1
  P  P13  1  0.50000000  0.68945584  0.17059356  1
  P  P14  1  0.00000000  0.36292005  1.00000000  1
  P  P15  1  -0.00000000  0.63708168  0.63708289  1
  P  P16  1  -0.00000000  0.99999879  0.36291711  1
  Ir  Ir17  1  0.50000000  0.71316978  0.00000000  1
  Ir  Ir18  1  0.50000000  0.28682401  0.28682283  1
  Ir  Ir19  1  0.50000000  0.00000118  0.71317717  1
  Ir  Ir20  1  0.00000000  0.19869203  0.37929444  1
  Ir  Ir21  1  -0.00000000  0.18059781  0.80131641  1
  Ir  Ir22  1  0.00000000  0.62071092  0.81940278  1
  Ir  Ir23  1  0.00000000  0.81939758  0.62070556  1
  Ir  Ir24  1  0.00000000  0.37928140  0.19868359  1
  Ir  Ir25  1  0.00000000  0.80130814  0.18059722  1
  Ir  Ir26  1  0.50000000  0.12881098  0.49129921  1
  Ir  Ir27  1  0.50000000  0.36249442  0.87119298  1
  Ir  Ir28  1  0.50000000  0.50868566  0.63750450  1
  Ir  Ir29  1  0.50000000  0.63751176  0.50870079  1
  Ir  Ir30  1  0.50000000  0.49130144  0.12880702  1
  Ir  Ir31  1  0.50000000  0.87118115  0.36249550  1
  Ir  Ir32  1  0.00000000  0.00000199  0.00000000  1
  Ir  Ir33  1  -0.00000000  0.54012565  0.00000000  1
  Ir  Ir34  1  0.00000000  0.45986944  0.45988428  1
  Ir  Ir35  1  0.00000000  0.99998516  0.54011572  1
