# generated using pymatgen
data_LaMoClO4
_symmetry_space_group_name_H-M   'P 1'
_cell_length_a   5.90318495
_cell_length_b   8.07667240
_cell_length_c   19.42327990
_cell_angle_alpha   90.00261159
_cell_angle_beta   90.00000000
_cell_angle_gamma   90.00000000
_symmetry_Int_Tables_number   1
_chemical_formula_structural   LaMoClO4
_chemical_formula_sum   'La8 Mo8 Cl8 O32'
_cell_volume   926.06490452
_cell_formula_units_Z   8
loop_
 _symmetry_equiv_pos_site_id
 _symmetry_equiv_pos_as_xyz
  1  'x, y, z'
loop_
 _atom_site_type_symbol
 _atom_site_label
 _atom_site_symmetry_multiplicity
 _atom_site_fract_x
 _atom_site_fract_y
 _atom_site_fract_z
 _atom_site_occupancy
  La  La0  1  0.30055141  0.62685234  0.10443193  1
  La  La1  1  0.80055141  0.87314766  0.89556807  1
  La  La2  1  0.69944859  0.37314766  0.89556807  1
  La  La3  1  0.19944859  0.12685234  0.10443193  1
  La  La4  1  0.29905874  0.62232500  0.60462791  1
  La  La5  1  0.79905874  0.87767500  0.39537209  1
  La  La6  1  0.70094126  0.37767500  0.39537209  1
  La  La7  1  0.20094126  0.12232500  0.60462791  1
  Mo  Mo8  1  0.25196419  0.59002665  0.82144035  1
  Mo  Mo9  1  0.75196419  0.90997335  0.17855965  1
  Mo  Mo10  1  0.74803581  0.40997335  0.17855965  1
  Mo  Mo11  1  0.24803581  0.09002665  0.82144035  1
  Mo  Mo12  1  0.24373226  0.65904021  0.32115121  1
  Mo  Mo13  1  0.74373226  0.84095979  0.67884879  1
  Mo  Mo14  1  0.75626774  0.34095979  0.67884879  1
  Mo  Mo15  1  0.25626774  0.15904021  0.32115121  1
  Cl  Cl16  1  0.23975971  0.87558012  0.98858749  1
  Cl  Cl17  1  0.73975971  0.62441988  0.01141251  1
  Cl  Cl18  1  0.76024029  0.12441988  0.01141251  1
  Cl  Cl19  1  0.26024029  0.37558012  0.98858749  1
  Cl  Cl20  1  0.24050234  0.87300855  0.48853695  1
  Cl  Cl21  1  0.74050234  0.62699145  0.51146305  1
  Cl  Cl22  1  0.75949766  0.12699145  0.51146305  1
  Cl  Cl23  1  0.25949766  0.37300855  0.48853695  1
  O  O24  1  0.23331838  0.62598605  0.73132396  1
  O  O25  1  0.73331838  0.87401395  0.26867604  1
  O  O26  1  0.76668162  0.37401395  0.26867604  1
  O  O27  1  0.26668162  0.12598605  0.73132396  1
  O  O28  1  0.18582727  0.87130425  0.82771783  1
  O  O29  1  0.68582727  0.62869575  0.17228217  1
  O  O30  1  0.81417273  0.12869575  0.17228217  1
  O  O31  1  0.31417273  0.37130425  0.82771783  1
  O  O32  1  0.01381575  0.84734926  0.13497582  1
  O  O33  1  0.51381575  0.65265074  0.86502418  1
  O  O34  1  0.98618425  0.15265074  0.86502418  1
  O  O35  1  0.48618425  0.34734926  0.13497582  1
  O  O36  1  0.47969952  0.89982004  0.13260261  1
  O  O37  1  0.97969952  0.60017996  0.86739739  1
  O  O38  1  0.52030048  0.10017996  0.86739739  1
  O  O39  1  0.02030048  0.39982004  0.13260261  1
  O  O40  1  0.23985484  0.62048555  0.23126990  1
  O  O41  1  0.73985484  0.87951445  0.76873010  1
  O  O42  1  0.76014516  0.37951445  0.76873010  1
  O  O43  1  0.26014516  0.12048555  0.23126990  1
  O  O44  1  0.18386213  0.87815676  0.32709792  1
  O  O45  1  0.68386213  0.62184324  0.67290208  1
  O  O46  1  0.81613787  0.12184324  0.67290208  1
  O  O47  1  0.31613787  0.37815676  0.32709792  1
  O  O48  1  0.02073675  0.84977839  0.63550385  1
  O  O49  1  0.52073675  0.65022161  0.36449615  1
  O  O50  1  0.97926325  0.15022161  0.36449615  1
  O  O51  1  0.47926325  0.34977839  0.63550385  1
  O  O52  1  0.48685780  0.90298247  0.63237867  1
  O  O53  1  0.98685780  0.59701753  0.36762133  1
  O  O54  1  0.51314220  0.09701753  0.36762133  1
  O  O55  1  0.01314220  0.40298247  0.63237867  1
