# generated using pymatgen
data_Fe3P4PbO14
_symmetry_space_group_name_H-M   'P 1'
_cell_length_a   7.65891608
_cell_length_b   7.88604437
_cell_length_c   9.72178466
_cell_angle_alpha   90.00000000
_cell_angle_beta   112.09199313
_cell_angle_gamma   90.00000000
_symmetry_Int_Tables_number   1
_chemical_formula_structural   Fe3P4PbO14
_chemical_formula_sum   'Fe6 P8 Pb2 O28'
_cell_volume   544.07153827
_cell_formula_units_Z   2
loop_
 _symmetry_equiv_pos_site_id
 _symmetry_equiv_pos_as_xyz
  1  'x, y, z'
loop_
 _atom_site_type_symbol
 _atom_site_label
 _atom_site_symmetry_multiplicity
 _atom_site_fract_x
 _atom_site_fract_y
 _atom_site_fract_z
 _atom_site_occupancy
  Fe  Fe0  1  0.31231273  0.37745882  0.47072740  1
  Fe  Fe1  1  0.68768727  0.87745882  0.02927260  1
  Fe  Fe2  1  0.68768727  0.62254118  0.52927260  1
  Fe  Fe3  1  0.31231273  0.12254118  0.97072740  1
  Fe  Fe4  1  0.50000000  0.50000000  -0.00000000  1
  Fe  Fe5  1  0.50000000  0.00000000  0.50000000  1
  P  P6  1  0.10467612  0.44400127  0.70145362  1
  P  P7  1  0.89532388  0.94400127  0.79854638  1
  P  P8  1  0.89532388  0.55599873  0.29854638  1
  P  P9  1  0.10467612  0.05599873  0.20145362  1
  P  P10  1  0.38712789  0.70297145  0.69431966  1
  P  P11  1  0.61287211  0.20297145  0.80568034  1
  P  P12  1  0.61287211  0.29702855  0.30568034  1
  P  P13  1  0.38712789  0.79702855  0.19431966  1
  Pb  Pb14  1  0.00000000  0.50000000  -0.00000000  1
  Pb  Pb15  1  0.00000000  0.00000000  0.50000000  1
  O  O16  1  0.90405959  0.48222165  0.69155145  1
  O  O17  1  0.09594041  0.98222165  0.80844855  1
  O  O18  1  0.09594041  0.51777835  0.30844855  1
  O  O19  1  0.90405959  0.01777835  0.19155145  1
  O  O20  1  0.12258949  0.32338056  0.58491654  1
  O  O21  1  0.87741051  0.82338056  0.91508346  1
  O  O22  1  0.87741051  0.67661944  0.41508346  1
  O  O23  1  0.12258949  0.17661944  0.08491654  1
  O  O24  1  0.22742448  0.38518586  0.86212724  1
  O  O25  1  0.77257552  0.88518586  0.63787276  1
  O  O26  1  0.77257552  0.61481414  0.13787276  1
  O  O27  1  0.22742448  0.11481414  0.36212724  1
  O  O28  1  0.18356033  0.62883136  0.67913420  1
  O  O29  1  0.81643967  0.12883136  0.82086580  1
  O  O30  1  0.81643967  0.37116864  0.32086580  1
  O  O31  1  0.18356033  0.87116864  0.17913420  1
  O  O32  1  0.34414593  0.87414366  0.61349392  1
  O  O33  1  0.65585407  0.37414366  0.88650608  1
  O  O34  1  0.65585407  0.12585634  0.38650608  1
  O  O35  1  0.34414593  0.62585634  0.11349392  1
  O  O36  1  0.47111536  0.57822823  0.61491862  1
  O  O37  1  0.52888464  0.07822823  0.88508138  1
  O  O38  1  0.52888464  0.42177177  0.38508138  1
  O  O39  1  0.47111536  0.92177177  0.11491862  1
  O  O40  1  0.49798430  0.71337096  0.86259443  1
  O  O41  1  0.50201570  0.21337096  0.63740557  1
  O  O42  1  0.50201570  0.28662904  0.13740557  1
  O  O43  1  0.49798430  0.78662904  0.36259443  1
