# generated using pymatgen
data_Mn3P4H12(NO8)2
_symmetry_space_group_name_H-M   'P 1'
_cell_length_a   8.50937664
_cell_length_b   9.58505399
_cell_length_c   9.53131285
_cell_angle_alpha   99.73423221
_cell_angle_beta   90.00000000
_cell_angle_gamma   90.00000000
_symmetry_Int_Tables_number   1
_chemical_formula_structural   Mn3P4H12(NO8)2
_chemical_formula_sum   'Mn6 P8 H24 N4 O32'
_cell_volume   766.20836166
_cell_formula_units_Z   2
loop_
 _symmetry_equiv_pos_site_id
 _symmetry_equiv_pos_as_xyz
  1  'x, y, z'
loop_
 _atom_site_type_symbol
 _atom_site_label
 _atom_site_symmetry_multiplicity
 _atom_site_fract_x
 _atom_site_fract_y
 _atom_site_fract_z
 _atom_site_occupancy
  Mn  Mn0  1  0.86171946  0.99697355  0.86259319  1
  Mn  Mn1  1  0.36171946  0.50302645  0.13740681  1
  Mn  Mn2  1  0.13828054  0.00302645  0.13740681  1
  Mn  Mn3  1  0.63828054  0.49697355  0.86259319  1
  Mn  Mn4  1  0.50000000  -0.00000000  -0.00000000  1
  Mn  Mn5  1  -0.00000000  0.50000000  -0.00000000  1
  P  P6  1  0.94537778  0.26399446  0.70110391  1
  P  P7  1  0.44537778  0.23600554  0.29889609  1
  P  P8  1  0.05462222  0.73600554  0.29889609  1
  P  P9  1  0.55462222  0.76399446  0.70110391  1
  P  P10  1  0.19720664  0.21114294  0.90272919  1
  P  P11  1  0.69720664  0.28885706  0.09727081  1
  P  P12  1  0.80279336  0.78885706  0.09727081  1
  P  P13  1  0.30279336  0.71114294  0.90272919  1
  H  H14  1  0.66860138  0.92094873  0.46774754  1
  H  H15  1  0.16860138  0.57905127  0.53225246  1
  H  H16  1  0.33139862  0.07905127  0.53225246  1
  H  H17  1  0.83139862  0.42094873  0.46774754  1
  H  H18  1  0.79096372  0.05469290  0.53296668  1
  H  H19  1  0.29096372  0.44530710  0.46703332  1
  H  H20  1  0.20903628  0.94530710  0.46703332  1
  H  H21  1  0.70903628  0.55469290  0.53296668  1
  H  H22  1  0.62775173  0.08629769  0.44029192  1
  H  H23  1  0.12775173  0.41370231  0.55970808  1
  H  H24  1  0.37224827  0.91370231  0.55970808  1
  H  H25  1  0.87224827  0.58629769  0.44029192  1
  H  H26  1  0.77902830  0.99598093  0.35177618  1
  H  H27  1  0.27902830  0.50401907  0.64822382  1
  H  H28  1  0.22097170  0.00401907  0.64822382  1
  H  H29  1  0.72097170  0.49598093  0.35177618  1
  H  H30  1  0.99741213  0.79141632  0.62304334  1
  H  H31  1  0.49741213  0.70858368  0.37695666  1
  H  H32  1  0.00258787  0.20858368  0.37695666  1
  H  H33  1  0.50258787  0.29141632  0.62304334  1
  H  H34  1  0.03658634  0.75610890  0.77793593  1
  H  H35  1  0.53658634  0.74389110  0.22206407  1
  H  H36  1  0.96341366  0.24389110  0.22206407  1
  H  H37  1  0.46341366  0.25610890  0.77793593  1
  N  N38  1  0.71882932  0.01375761  0.44605113  1
  N  N39  1  0.21882932  0.48624239  0.55394887  1
  N  N40  1  0.28117068  0.98624239  0.55394887  1
  N  N41  1  0.78117068  0.51375761  0.44605113  1
  O  O42  1  0.64190418  0.85572265  0.13169321  1
  O  O43  1  0.14190418  0.64427735  0.86830679  1
  O  O44  1  0.35809582  0.14427735  0.86830679  1
  O  O45  1  0.85809582  0.35572265  0.13169321  1
  O  O46  1  0.62160454  0.88432904  0.81280903  1
  O  O47  1  0.12160454  0.61567096  0.18719097  1
  O  O48  1  0.37839546  0.11567096  0.18719097  1
  O  O49  1  0.87839546  0.38432904  0.81280903  1
  O  O50  1  0.70048989  0.14120663  0.00416168  1
  O  O51  1  0.20048989  0.35879337  0.99583832  1
  O  O52  1  0.29951011  0.85879337  0.99583832  1
  O  O53  1  0.79951011  0.64120663  0.00416168  1
  O  O54  1  0.08030832  0.11105604  0.95819570  1
  O  O55  1  0.58030832  0.38894396  0.04180430  1
  O  O56  1  0.91969168  0.88894396  0.04180430  1
  O  O57  1  0.41969168  0.61105604  0.95819570  1
  O  O58  1  0.99192963  0.82931711  0.72611865  1
  O  O59  1  0.49192963  0.67068289  0.27388135  1
  O  O60  1  0.00807037  0.17068289  0.27388135  1
  O  O61  1  0.50807037  0.32931711  0.72611865  1
  O  O62  1  0.86074325  0.12258108  0.69715854  1
  O  O63  1  0.36074325  0.37741892  0.30284146  1
  O  O64  1  0.13925675  0.87741892  0.30284146  1
  O  O65  1  0.63925675  0.62258108  0.69715854  1
  O  O66  1  0.12770231  0.23822904  0.74825500  1
  O  O67  1  0.62770231  0.26177096  0.25174500  1
  O  O68  1  0.87229769  0.76177096  0.25174500  1
  O  O69  1  0.37229769  0.73822904  0.74825500  1
  O  O70  1  0.96278805  0.30314185  0.55286191  1
  O  O71  1  0.46278805  0.19685815  0.44713809  1
  O  O72  1  0.03721195  0.69685815  0.44713809  1
  O  O73  1  0.53721195  0.80314185  0.55286191  1
