# generated using pymatgen
data_Ce4CI6N
_symmetry_space_group_name_H-M   'P 1'
_cell_length_a   9.61645308
_cell_length_b   14.08859921
_cell_length_c   14.08859921
_cell_angle_alpha   90.00000000
_cell_angle_beta   90.00000000
_cell_angle_gamma   90.00000000
_symmetry_Int_Tables_number   1
_chemical_formula_structural   Ce4CI6N
_chemical_formula_sum   'Ce16 C4 I24 N4'
_cell_volume   1908.75657519
_cell_formula_units_Z   4
loop_
 _symmetry_equiv_pos_site_id
 _symmetry_equiv_pos_as_xyz
  1  'x, y, z'
loop_
 _atom_site_type_symbol
 _atom_site_label
 _atom_site_symmetry_multiplicity
 _atom_site_fract_x
 _atom_site_fract_y
 _atom_site_fract_z
 _atom_site_occupancy
  Ce  Ce0  1  0.50000000  0.09010389  0.90989611  1
  Ce  Ce1  1  0.50000000  0.90989611  0.09010389  1
  Ce  Ce2  1  0.00000000  0.40989611  0.40989611  1
  Ce  Ce3  1  0.00000000  0.59010389  0.59010389  1
  Ce  Ce4  1  0.30922867  0.41309922  0.58690078  1
  Ce  Ce5  1  0.30922867  0.58690078  0.41309922  1
  Ce  Ce6  1  0.80922867  0.08690078  0.08690078  1
  Ce  Ce7  1  0.80922867  0.91309922  0.91309922  1
  Ce  Ce8  1  0.69077133  0.58690078  0.41309922  1
  Ce  Ce9  1  0.69077133  0.41309922  0.58690078  1
  Ce  Ce10  1  0.19077133  0.91309922  0.91309922  1
  Ce  Ce11  1  0.19077133  0.08690078  0.08690078  1
  Ce  Ce12  1  0.50000000  0.34750204  0.34750204  1
  Ce  Ce13  1  0.50000000  0.65249796  0.65249796  1
  Ce  Ce14  1  0.00000000  0.15249796  0.84750204  1
  Ce  Ce15  1  0.00000000  0.84750204  0.15249796  1
  C  C16  1  0.50000000  0.46417357  0.46417357  1
  C  C17  1  0.50000000  0.53582643  0.53582643  1
  C  C18  1  0.00000000  0.03582643  0.96417357  1
  C  C19  1  0.00000000  0.96417357  0.03582643  1
  I  I20  1  0.50000000  0.28050803  0.71949197  1
  I  I21  1  0.50000000  0.71949197  0.28050803  1
  I  I22  1  0.00000000  0.21949197  0.21949197  1
  I  I23  1  0.00000000  0.78050803  0.78050803  1
  I  I24  1  0.50000000  0.17093291  0.17093291  1
  I  I25  1  0.50000000  0.82906709  0.82906709  1
  I  I26  1  0.00000000  0.32906709  0.67093291  1
  I  I27  1  0.00000000  0.67093291  0.32906709  1
  I  I28  1  0.24834235  0.04934762  0.73596669  1
  I  I29  1  0.24834235  0.95065238  0.26403331  1
  I  I30  1  0.74834235  0.45065238  0.23596669  1
  I  I31  1  0.74834235  0.54934762  0.76403331  1
  I  I32  1  0.75165765  0.95065238  0.26403331  1
  I  I33  1  0.75165765  0.04934762  0.73596669  1
  I  I34  1  0.25165765  0.54934762  0.76403331  1
  I  I35  1  0.25165765  0.45065238  0.23596669  1
  I  I36  1  0.24834235  0.73596669  0.04934762  1
  I  I37  1  0.24834235  0.26403331  0.95065238  1
  I  I38  1  0.74834235  0.23596669  0.45065238  1
  I  I39  1  0.74834235  0.76403331  0.54934762  1
  I  I40  1  0.75165765  0.26403331  0.95065238  1
  I  I41  1  0.75165765  0.73596669  0.04934762  1
  I  I42  1  0.25165765  0.76403331  0.54934762  1
  I  I43  1  0.25165765  0.23596669  0.45065238  1
  N  N44  1  0.15158597  0.50000000  0.50000000  1
  N  N45  1  0.65158597  0.00000000  -0.00000000  1
  N  N46  1  0.84841403  0.50000000  0.50000000  1
  N  N47  1  0.34841403  0.00000000  -0.00000000  1
