# generated using pymatgen
data_HfCrSi2
_symmetry_space_group_name_H-M   'P 1'
_cell_length_a   7.99617826
_cell_length_b   9.05462686
_cell_length_c   9.72496203
_cell_angle_alpha   90.00000000
_cell_angle_beta   90.00000000
_cell_angle_gamma   90.00000000
_symmetry_Int_Tables_number   1
_chemical_formula_structural   HfCrSi2
_chemical_formula_sum   'Hf12 Cr12 Si24'
_cell_volume   704.11069251
_cell_formula_units_Z   12
loop_
 _symmetry_equiv_pos_site_id
 _symmetry_equiv_pos_as_xyz
  1  'x, y, z'
loop_
 _atom_site_type_symbol
 _atom_site_label
 _atom_site_symmetry_multiplicity
 _atom_site_fract_x
 _atom_site_fract_y
 _atom_site_fract_z
 _atom_site_occupancy
  Hf  Hf0  1  0.74634729  0.82816172  0.04801643  1
  Hf  Hf1  1  0.74634729  0.17183828  0.95198357  1
  Hf  Hf2  1  0.25365271  0.67183828  0.54801643  1
  Hf  Hf3  1  0.25365271  0.32816172  0.45198357  1
  Hf  Hf4  1  0.25365271  0.17183828  0.95198357  1
  Hf  Hf5  1  0.25365271  0.82816172  0.04801643  1
  Hf  Hf6  1  0.74634729  0.32816172  0.45198357  1
  Hf  Hf7  1  0.74634729  0.67183828  0.54801643  1
  Hf  Hf8  1  0.50000000  0.83088607  0.32028790  1
  Hf  Hf9  1  0.50000000  0.16911393  0.67971210  1
  Hf  Hf10  1  0.50000000  0.66911393  0.82028790  1
  Hf  Hf11  1  0.50000000  0.33088607  0.17971210  1
  Cr  Cr12  1  0.74862956  0.57937603  0.24799196  1
  Cr  Cr13  1  0.74862956  0.42062397  0.75200804  1
  Cr  Cr14  1  0.25137044  0.92062397  0.74799196  1
  Cr  Cr15  1  0.25137044  0.07937603  0.25200804  1
  Cr  Cr16  1  0.25137044  0.42062397  0.75200804  1
  Cr  Cr17  1  0.25137044  0.57937603  0.24799196  1
  Cr  Cr18  1  0.74862956  0.07937603  0.25200804  1
  Cr  Cr19  1  0.74862956  0.92062397  0.74799196  1
  Cr  Cr20  1  0.74449462  -0.00000000  0.50000000  1
  Cr  Cr21  1  0.25550538  0.50000000  0.00000000  1
  Cr  Cr22  1  0.25550538  -0.00000000  0.50000000  1
  Cr  Cr23  1  0.74449462  0.50000000  -0.00000000  1
  Si  Si24  1  0.85106548  0.82886125  0.31888924  1
  Si  Si25  1  0.85106548  0.17113875  0.68111076  1
  Si  Si26  1  0.14893452  0.67113875  0.81888924  1
  Si  Si27  1  0.14893452  0.32886125  0.18111076  1
  Si  Si28  1  0.14893452  0.17113875  0.68111076  1
  Si  Si29  1  0.14893452  0.82886125  0.31888924  1
  Si  Si30  1  0.85106548  0.32886125  0.18111076  1
  Si  Si31  1  0.85106548  0.67113875  0.81888924  1
  Si  Si32  1  0.50000000  0.53937048  0.38037712  1
  Si  Si33  1  0.50000000  0.46062952  0.61962288  1
  Si  Si34  1  0.50000000  0.96062952  0.88037712  1
  Si  Si35  1  0.50000000  0.03937048  0.11962288  1
  Si  Si36  1  -0.00000000  0.53963186  0.37647415  1
  Si  Si37  1  0.00000000  0.46036814  0.62352585  1
  Si  Si38  1  0.00000000  0.96036814  0.87647415  1
  Si  Si39  1  -0.00000000  0.03963186  0.12352585  1
  Si  Si40  1  0.50000000  0.62661362  0.10399506  1
  Si  Si41  1  0.50000000  0.37338638  0.89600494  1
  Si  Si42  1  0.50000000  0.87338638  0.60399506  1
  Si  Si43  1  0.50000000  0.12661362  0.39600494  1
  Si  Si44  1  -0.00000000  0.61362075  0.09800652  1
  Si  Si45  1  -0.00000000  0.38637925  0.90199348  1
  Si  Si46  1  0.00000000  0.88637925  0.59800652  1
  Si  Si47  1  0.00000000  0.11362075  0.40199348  1
