# generated using pymatgen
data_Li5Mn3O8
_symmetry_space_group_name_H-M   'P 1'
_cell_length_a   2.95299709
_cell_length_b   9.78127916
_cell_length_c   5.08916380
_cell_angle_alpha   86.48420710
_cell_angle_beta   87.85347193
_cell_angle_gamma   82.69685988
_symmetry_Int_Tables_number   1
_chemical_formula_structural   Li5Mn3O8
_chemical_formula_sum   'Li5 Mn3 O8'
_cell_volume   145.46361772
_cell_formula_units_Z   1
loop_
 _symmetry_equiv_pos_site_id
 _symmetry_equiv_pos_as_xyz
  1  'x, y, z'
loop_
 _atom_site_type_symbol
 _atom_site_label
 _atom_site_symmetry_multiplicity
 _atom_site_fract_x
 _atom_site_fract_y
 _atom_site_fract_z
 _atom_site_occupancy
  Li  Li0  1  0.88350869  0.22711288  0.61230111  1
  Li  Li1  1  0.11649131  0.77288712  0.38769889  1
  Li  Li2  1  0.39006345  0.23489208  0.13110686  1
  Li  Li3  1  0.60993655  0.76510792  0.86889314  1
  Li  Li4  1  0.50000000  0.00000000  0.50000000  1
  Mn  Mn5  1  -0.00000000  0.00000000  0.00000000  1
  Mn  Mn6  1  0.24951535  0.50027380  0.75032472  1
  Mn  Mn7  1  0.75048465  0.49972620  0.24967528  1
  O  O8  1  0.46058959  0.10923557  0.83413704  1
  O  O9  1  0.66881582  0.61348551  0.55823287  1
  O  O10  1  0.93487787  0.11787478  0.28779186  1
  O  O11  1  0.17021752  0.61149340  0.06111935  1
  O  O12  1  0.33118418  0.38651449  0.44176713  1
  O  O13  1  0.53941041  0.89076443  0.16586296  1
  O  O14  1  0.82978248  0.38850660  0.93888065  1
  O  O15  1  0.06512213  0.88212522  0.71220814  1
