# generated using pymatgen
data_Y2Mo(SeO4)3
_symmetry_space_group_name_H-M   'P 1'
_cell_length_a   6.60317876
_cell_length_b   7.18197185
_cell_length_c   10.92683681
_cell_angle_alpha   84.80542431
_cell_angle_beta   73.11137644
_cell_angle_gamma   86.54104862
_symmetry_Int_Tables_number   1
_chemical_formula_structural   Y2Mo(SeO4)3
_chemical_formula_sum   'Y4 Mo2 Se6 O24'
_cell_volume   493.49220245
_cell_formula_units_Z   2
loop_
 _symmetry_equiv_pos_site_id
 _symmetry_equiv_pos_as_xyz
  1  'x, y, z'
loop_
 _atom_site_type_symbol
 _atom_site_label
 _atom_site_symmetry_multiplicity
 _atom_site_fract_x
 _atom_site_fract_y
 _atom_site_fract_z
 _atom_site_occupancy
  Y  Y0  1  0.73261749  0.63831274  0.50935239  1
  Y  Y1  1  0.26738251  0.36168726  0.49064761  1
  Y  Y2  1  0.20340687  0.18317470  0.16831063  1
  Y  Y3  1  0.79659313  0.81682530  0.83168937  1
  Mo  Mo4  1  0.72251085  0.89302037  0.20639269  1
  Mo  Mo5  1  0.27748915  0.10697963  0.79360731  1
  Se  Se6  1  0.20216121  0.66052733  0.21653520  1
  Se  Se7  1  0.79783879  0.33947267  0.78346480  1
  Se  Se8  1  0.65806372  0.36246686  0.14214803  1
  Se  Se9  1  0.34193628  0.63753314  0.85785197  1
  Se  Se10  1  0.78779691  0.13987527  0.49327431  1
  Se  Se11  1  0.21220309  0.86012473  0.50672569  1
  O  O12  1  0.69195546  0.67350455  0.29973784  1
  O  O13  1  0.30804454  0.32649545  0.70026216  1
  O  O14  1  0.71876394  0.96003808  0.41672854  1
  O  O15  1  0.28123606  0.03996192  0.58327146  1
  O  O16  1  0.45174418  0.97475571  0.23293994  1
  O  O17  1  0.54825582  0.02524429  0.76706006  1
  O  O18  1  0.82464947  0.17070408  0.17840745  1
  O  O19  1  0.17535053  0.82929592  0.82159255  1
  O  O20  1  0.78528106  0.83298715  0.04512029  1
  O  O21  1  0.21471894  0.16701285  0.95487971  1
  O  O22  1  0.05859216  0.87357914  0.19600199  1
  O  O23  1  0.94140784  0.12642086  0.80399801  1
  O  O24  1  0.09953897  0.49915390  0.14871878  1
  O  O25  1  0.90046103  0.50084610  0.85128122  1
  O  O26  1  0.08159107  0.60035925  0.38241091  1
  O  O27  1  0.91840893  0.39964075  0.61758909  1
  O  O28  1  0.54991590  0.27139494  0.03820481  1
  O  O29  1  0.45008410  0.72860506  0.96179519  1
  O  O30  1  0.42524058  0.34525987  0.27027623  1
  O  O31  1  0.57475942  0.65474013  0.72972377  1
  O  O32  1  0.04178788  0.19180066  0.39245006  1
  O  O33  1  0.95821212  0.80819934  0.60754994  1
  O  O34  1  0.64007022  0.33813323  0.45987568  1
  O  O35  1  0.35992978  0.66186677  0.54012432  1
