# generated using pymatgen
data_Er4BClO7
_symmetry_space_group_name_H-M   'P 1'
_cell_length_a   8.00802096
_cell_length_b   8.54741636
_cell_length_c   10.87860869
_cell_angle_alpha   103.27282752
_cell_angle_beta   90.00000000
_cell_angle_gamma   90.00000000
_symmetry_Int_Tables_number   1
_chemical_formula_structural   Er4BClO7
_chemical_formula_sum   'Er16 B4 Cl4 O28'
_cell_volume   724.72747223
_cell_formula_units_Z   4
loop_
 _symmetry_equiv_pos_site_id
 _symmetry_equiv_pos_as_xyz
  1  'x, y, z'
loop_
 _atom_site_type_symbol
 _atom_site_label
 _atom_site_symmetry_multiplicity
 _atom_site_fract_x
 _atom_site_fract_y
 _atom_site_fract_z
 _atom_site_occupancy
  Er  Er0  1  0.37500452  0.98115177  0.77896886  1
  Er  Er1  1  0.12499548  0.48115177  0.27896886  1
  Er  Er2  1  0.62499548  0.01884823  0.22103114  1
  Er  Er3  1  0.87500452  0.51884823  0.72103114  1
  Er  Er4  1  0.38217286  0.66659156  0.09109729  1
  Er  Er5  1  0.11782714  0.16659156  0.59109729  1
  Er  Er6  1  0.61782714  0.33340844  0.90890271  1
  Er  Er7  1  0.88217286  0.83340844  0.40890271  1
  Er  Er8  1  0.36144972  0.84943809  0.41898705  1
  Er  Er9  1  0.13855028  0.34943809  0.91898705  1
  Er  Er10  1  0.63855028  0.15056191  0.58101295  1
  Er  Er11  1  0.86144972  0.65056191  0.08101295  1
  Er  Er12  1  0.38556955  0.53863489  0.72054048  1
  Er  Er13  1  0.11443045  0.03863489  0.22054048  1
  Er  Er14  1  0.61443045  0.46136511  0.27945952  1
  Er  Er15  1  0.88556955  0.96136511  0.77945952  1
  B  B16  1  0.13121437  0.71735798  0.58569030  1
  B  B17  1  0.36878563  0.21735798  0.08569030  1
  B  B18  1  0.86878563  0.28264202  0.41430970  1
  B  B19  1  0.63121437  0.78264202  0.91430970  1
  Cl  Cl20  1  0.14989490  0.84956896  0.96802861  1
  Cl  Cl21  1  0.35010510  0.34956896  0.46802861  1
  Cl  Cl22  1  0.85010510  0.15043104  0.03197139  1
  Cl  Cl23  1  0.64989490  0.65043104  0.53197139  1
  O  O24  1  0.37762454  0.05628348  0.59771189  1
  O  O25  1  0.12237546  0.55628348  0.09771189  1
  O  O26  1  0.62237546  0.94371652  0.40228811  1
  O  O27  1  0.87762454  0.44371652  0.90228811  1
  O  O28  1  0.36314430  0.91650344  0.22490171  1
  O  O29  1  0.13685570  0.41650344  0.72490171  1
  O  O30  1  0.63685570  0.08349656  0.77509829  1
  O  O31  1  0.86314430  0.58349656  0.27509829  1
  O  O32  1  0.38232725  0.60330754  0.28338124  1
  O  O33  1  0.11767275  0.10330754  0.78338124  1
  O  O34  1  0.61767275  0.39669246  0.71661876  1
  O  O35  1  0.88232725  0.89669246  0.21661876  1
  O  O36  1  0.37854454  0.48153485  0.90671655  1
  O  O37  1  0.12145546  0.98153485  0.40671655  1
  O  O38  1  0.62145546  0.51846515  0.09328345  1
  O  O39  1  0.87854454  0.01846515  0.59328345  1
  O  O40  1  0.11008518  0.68273882  0.45598762  1
  O  O41  1  0.38991482  0.18273882  0.95598762  1
  O  O42  1  0.88991482  0.31726118  0.54401238  1
  O  O43  1  0.61008518  0.81726118  0.04401238  1
  O  O44  1  0.99656093  0.72889244  0.66568613  1
  O  O45  1  0.50343907  0.22889244  0.16568613  1
  O  O46  1  0.00343907  0.27110756  0.33431387  1
  O  O47  1  0.49656093  0.77110756  0.83431387  1
  O  O48  1  0.29075285  0.74844940  0.63319726  1
  O  O49  1  0.20924715  0.24844940  0.13319726  1
  O  O50  1  0.70924715  0.25155060  0.36680274  1
  O  O51  1  0.79075285  0.75155060  0.86680274  1
