# generated using pymatgen
data_DyCo5P3
_symmetry_space_group_name_H-M   'P 1'
_cell_length_a   3.64387822
_cell_length_b   10.25677204
_cell_length_c   11.71873261
_cell_angle_alpha   90.00000000
_cell_angle_beta   90.00000000
_cell_angle_gamma   90.00000000
_symmetry_Int_Tables_number   1
_chemical_formula_structural   DyCo5P3
_chemical_formula_sum   'Dy4 Co20 P12'
_cell_volume   437.98093104
_cell_formula_units_Z   4
loop_
 _symmetry_equiv_pos_site_id
 _symmetry_equiv_pos_as_xyz
  1  'x, y, z'
loop_
 _atom_site_type_symbol
 _atom_site_label
 _atom_site_symmetry_multiplicity
 _atom_site_fract_x
 _atom_site_fract_y
 _atom_site_fract_z
 _atom_site_occupancy
  Dy  Dy0  1  0.25000000  0.58307816  0.70350573  1
  Dy  Dy1  1  0.25000000  0.91692184  0.20350573  1
  Dy  Dy2  1  0.75000000  0.41692184  0.29649427  1
  Dy  Dy3  1  0.75000000  0.08307816  0.79649427  1
  Co  Co4  1  0.25000000  0.71519688  0.98929769  1
  Co  Co5  1  0.25000000  0.78480312  0.48929769  1
  Co  Co6  1  0.75000000  0.28480312  0.01070231  1
  Co  Co7  1  0.75000000  0.21519688  0.51070231  1
  Co  Co8  1  0.25000000  0.40653376  0.48783430  1
  Co  Co9  1  0.25000000  0.09346624  0.98783430  1
  Co  Co10  1  0.75000000  0.59346624  0.51216570  1
  Co  Co11  1  0.75000000  0.90653376  0.01216570  1
  Co  Co12  1  0.25000000  0.22046089  0.17605752  1
  Co  Co13  1  0.25000000  0.27953911  0.67605752  1
  Co  Co14  1  0.75000000  0.77953911  0.82394248  1
  Co  Co15  1  0.75000000  0.72046089  0.32394248  1
  Co  Co16  1  0.25000000  0.88238332  0.69784872  1
  Co  Co17  1  0.25000000  0.61761668  0.19784872  1
  Co  Co18  1  0.75000000  0.11761668  0.30215128  1
  Co  Co19  1  0.75000000  0.38238332  0.80215128  1
  Co  Co20  1  0.25000000  0.46686052  0.93233107  1
  Co  Co21  1  0.25000000  0.03313948  0.43233107  1
  Co  Co22  1  0.75000000  0.53313948  0.06766893  1
  Co  Co23  1  0.75000000  0.96686052  0.56766893  1
  P  P24  1  0.25000000  0.41844169  0.11226233  1
  P  P25  1  0.25000000  0.08155831  0.61226233  1
  P  P26  1  0.75000000  0.58155831  0.88773767  1
  P  P27  1  0.75000000  0.91844169  0.38773767  1
  P  P28  1  0.25000000  0.27071555  0.86947129  1
  P  P29  1  0.25000000  0.22928445  0.36947129  1
  P  P30  1  0.75000000  0.72928445  0.13052871  1
  P  P31  1  0.75000000  0.77071555  0.63052871  1
  P  P32  1  0.25000000  0.60138519  0.39120872  1
  P  P33  1  0.25000000  0.89861481  0.89120872  1
  P  P34  1  0.75000000  0.39861481  0.60879128  1
  P  P35  1  0.75000000  0.10138519  0.10879128  1
