# generated using pymatgen
data_Li4MnCo2O7
_symmetry_space_group_name_H-M   'P 1'
_cell_length_a   2.91245433
_cell_length_b   10.78412711
_cell_length_c   8.32744255
_cell_angle_alpha   78.00133080
_cell_angle_beta   90.00000000
_cell_angle_gamma   82.23939609
_symmetry_Int_Tables_number   1
_chemical_formula_structural   Li4MnCo2O7
_chemical_formula_sum   'Li8 Mn2 Co4 O14'
_cell_volume   253.38680229
_cell_formula_units_Z   2
loop_
 _symmetry_equiv_pos_site_id
 _symmetry_equiv_pos_as_xyz
  1  'x, y, z'
loop_
 _atom_site_type_symbol
 _atom_site_label
 _atom_site_symmetry_multiplicity
 _atom_site_fract_x
 _atom_site_fract_y
 _atom_site_fract_z
 _atom_site_occupancy
  Li  Li0  1  0.43388879  0.13222141  0.21422742  1
  Li  Li1  1  0.28108636  0.43782628  0.64647779  1
  Li  Li2  1  0.14192936  0.71614128  0.08327146  1
  Li  Li3  1  0.00741456  0.98517088  0.48717376  1
  Li  Li4  1  0.85585916  0.28828168  0.93126209  1
  Li  Li5  1  0.70879833  0.58240434  0.35685446  1
  Li  Li6  1  0.57552630  0.84894840  0.78488148  1
  Li  Li7  1  0.57050147  0.85899807  0.28726491  1
  Mn  Mn8  1  0.00043106  0.99913788  0.01290671  1
  Mn  Mn9  1  0.85836818  0.28326364  0.42625988  1
  Co  Co10  1  0.71050451  0.57899197  0.84522986  1
  Co  Co11  1  0.42986001  0.14027899  0.71651062  1
  Co  Co12  1  0.28345147  0.43309606  0.13152699  1
  Co  Co13  1  0.13775946  0.72448108  0.54825933  1
  O  O14  1  0.43508996  0.12982008  0.96895014  1
  O  O15  1  0.29610218  0.40779565  0.39999819  1
  O  O16  1  0.14682127  0.70635846  0.82507588  1
  O  O17  1  0.99978912  0.00042277  0.23059061  1
  O  O18  1  0.86574075  0.26851750  0.66615756  1
  O  O19  1  0.72006027  0.55987846  0.10328407  1
  O  O20  1  0.57359344  0.85281311  0.54102166  1
  O  O21  1  0.42071678  0.15856643  0.45583681  1
  O  O22  1  0.28484674  0.43030753  0.89903342  1
  O  O23  1  0.14549903  0.70900294  0.33500026  1
  O  O24  1  0.99096950  0.01806001  0.76213864  1
  O  O25  1  0.85063028  0.29873844  0.19175043  1
  O  O26  1  0.71335370  0.57329259  0.62067720  1
  O  O27  1  0.56140797  0.87718407  0.02837837  1
