# generated using pymatgen
data_Pr5Ir3
_symmetry_space_group_name_H-M   'P 1'
_cell_length_a   6.60642519
_cell_length_b   11.33972606
_cell_length_c   11.33972606
_cell_angle_alpha   90.00000000
_cell_angle_beta   90.00000000
_cell_angle_gamma   90.00000000
_symmetry_Int_Tables_number   1
_chemical_formula_structural   Pr5Ir3
_chemical_formula_sum   'Pr20 Ir12'
_cell_volume   849.51616621
_cell_formula_units_Z   4
loop_
 _symmetry_equiv_pos_site_id
 _symmetry_equiv_pos_as_xyz
  1  'x, y, z'
loop_
 _atom_site_type_symbol
 _atom_site_label
 _atom_site_symmetry_multiplicity
 _atom_site_fract_x
 _atom_site_fract_y
 _atom_site_fract_z
 _atom_site_occupancy
  Pr  Pr0  1  0.38037486  0.83828942  0.54084332  1
  Pr  Pr1  1  0.88037486  0.66171058  0.54084332  1
  Pr  Pr2  1  0.88037486  0.83828942  0.95915668  1
  Pr  Pr3  1  0.38037486  0.66171058  0.95915668  1
  Pr  Pr4  1  0.88037486  0.54084332  0.83828942  1
  Pr  Pr5  1  0.38037486  0.95915668  0.83828942  1
  Pr  Pr6  1  0.38037486  0.54084332  0.66171058  1
  Pr  Pr7  1  0.88037486  0.95915668  0.66171058  1
  Pr  Pr8  1  0.61962514  0.16171058  0.45915668  1
  Pr  Pr9  1  0.11962514  0.33828942  0.45915668  1
  Pr  Pr10  1  0.11962514  0.16171058  0.04084332  1
  Pr  Pr11  1  0.61962514  0.33828942  0.04084332  1
  Pr  Pr12  1  0.11962514  0.45915668  0.16171058  1
  Pr  Pr13  1  0.61962514  0.04084332  0.16171058  1
  Pr  Pr14  1  0.61962514  0.45915668  0.33828942  1
  Pr  Pr15  1  0.11962514  0.04084332  0.33828942  1
  Pr  Pr16  1  0.50000000  0.75000000  0.25000000  1
  Pr  Pr17  1  -0.00000000  0.75000000  0.25000000  1
  Pr  Pr18  1  -0.00000000  0.25000000  0.75000000  1
  Pr  Pr19  1  0.50000000  0.25000000  0.75000000  1
  Ir  Ir20  1  0.25000000  0.90378414  0.09621586  1
  Ir  Ir21  1  0.75000000  0.59621586  0.09621586  1
  Ir  Ir22  1  0.75000000  0.90378414  0.40378414  1
  Ir  Ir23  1  0.25000000  0.59621586  0.40378414  1
  Ir  Ir24  1  0.75000000  0.09621586  0.90378414  1
  Ir  Ir25  1  0.25000000  0.40378414  0.90378414  1
  Ir  Ir26  1  0.25000000  0.09621586  0.59621586  1
  Ir  Ir27  1  0.75000000  0.40378414  0.59621586  1
  Ir  Ir28  1  0.11430494  0.75000000  0.75000000  1
  Ir  Ir29  1  0.61430494  0.75000000  0.75000000  1
  Ir  Ir30  1  0.88569506  0.25000000  0.25000000  1
  Ir  Ir31  1  0.38569506  0.25000000  0.25000000  1
