# generated using pymatgen
data_CrH10N2Cl5O
_symmetry_space_group_name_H-M   'P 1'
_cell_length_a   7.53452329
_cell_length_b   9.77275633
_cell_length_c   14.34620217
_cell_angle_alpha   90.00000000
_cell_angle_beta   90.00000000
_cell_angle_gamma   90.00000000
_symmetry_Int_Tables_number   1
_chemical_formula_structural   CrH10N2Cl5O
_chemical_formula_sum   'Cr4 H40 N8 Cl20 O4'
_cell_volume   1056.35476768
_cell_formula_units_Z   4
loop_
 _symmetry_equiv_pos_site_id
 _symmetry_equiv_pos_as_xyz
  1  'x, y, z'
loop_
 _atom_site_type_symbol
 _atom_site_label
 _atom_site_symmetry_multiplicity
 _atom_site_fract_x
 _atom_site_fract_y
 _atom_site_fract_z
 _atom_site_occupancy
  Cr  Cr0  1  0.68893462  0.75000000  0.39296320  1
  Cr  Cr1  1  0.81106538  0.75000000  0.89296320  1
  Cr  Cr2  1  0.31106538  0.25000000  0.60703680  1
  Cr  Cr3  1  0.18893462  0.25000000  0.10703680  1
  H  H4  1  0.46058677  0.66760284  0.52789666  1
  H  H5  1  0.03941323  0.83239716  0.02789666  1
  H  H6  1  0.53941323  0.16760284  0.47210334  1
  H  H7  1  0.96058677  0.33239716  0.97210334  1
  H  H8  1  0.53941323  0.33239716  0.47210334  1
  H  H9  1  0.96058677  0.16760284  0.97210334  1
  H  H10  1  0.46058677  0.83239716  0.52789666  1
  H  H11  1  0.03941323  0.66760284  0.02789666  1
  H  H12  1  0.27432076  0.94396829  0.33793877  1
  H  H13  1  0.22567924  0.55603171  0.83793877  1
  H  H14  1  0.72567924  0.44396829  0.66206123  1
  H  H15  1  0.77432076  0.05603171  0.16206123  1
  H  H16  1  0.72567924  0.05603171  0.66206123  1
  H  H17  1  0.77432076  0.44396829  0.16206123  1
  H  H18  1  0.27432076  0.55603171  0.33793877  1
  H  H19  1  0.22567924  0.94396829  0.83793877  1
  H  H20  1  0.16891977  0.02384181  0.42776446  1
  H  H21  1  0.33108023  0.47615819  0.92776446  1
  H  H22  1  0.83108023  0.52384181  0.57223554  1
  H  H23  1  0.66891977  0.97615819  0.07223554  1
  H  H24  1  0.83108023  0.97615819  0.57223554  1
  H  H25  1  0.66891977  0.52384181  0.07223554  1
  H  H26  1  0.16891977  0.47615819  0.42776446  1
  H  H27  1  0.33108023  0.02384181  0.92776446  1
  H  H28  1  0.15083057  0.08553088  0.31884399  1
  H  H29  1  0.34916943  0.41446912  0.81884399  1
  H  H30  1  0.84916943  0.58553088  0.68115601  1
  H  H31  1  0.65083057  0.91446912  0.18115601  1
  H  H32  1  0.84916943  0.91446912  0.68115601  1
  H  H33  1  0.65083057  0.58553088  0.18115601  1
  H  H34  1  0.15083057  0.41446912  0.31884399  1
  H  H35  1  0.34916943  0.08553088  0.81884399  1
  H  H36  1  0.05254399  0.93580019  0.34690631  1
  H  H37  1  0.44745601  0.56419981  0.84690631  1
  H  H38  1  0.94745601  0.43580019  0.65309369  1
  H  H39  1  0.55254399  0.06419981  0.15309369  1
  H  H40  1  0.94745601  0.06419981  0.65309369  1
  H  H41  1  0.55254399  0.43580019  0.15309369  1
  H  H42  1  0.05254399  0.56419981  0.34690631  1
  H  H43  1  0.44745601  0.93580019  0.84690631  1
  N  N44  1  0.16200305  0.99744332  0.35806627  1
  N  N45  1  0.33799695  0.50255668  0.85806627  1
  N  N46  1  0.83799695  0.49744332  0.64193373  1
  N  N47  1  0.66200305  0.00255668  0.14193373  1
  N  N48  1  0.83799695  0.00255668  0.64193373  1
  N  N49  1  0.66200305  0.49744332  0.14193373  1
  N  N50  1  0.16200305  0.50255668  0.35806627  1
  N  N51  1  0.33799695  0.99744332  0.85806627  1
  Cl  Cl52  1  0.68138339  0.99380994  0.40013627  1
  Cl  Cl53  1  0.81861661  0.50619006  0.90013627  1
  Cl  Cl54  1  0.31861661  0.49380994  0.59986373  1
  Cl  Cl55  1  0.18138339  0.00619006  0.09986373  1
  Cl  Cl56  1  0.31861661  0.00619006  0.59986373  1
  Cl  Cl57  1  0.18138339  0.49380994  0.09986373  1
  Cl  Cl58  1  0.68138339  0.50619006  0.40013627  1
  Cl  Cl59  1  0.81861661  0.99380994  0.90013627  1
  Cl  Cl60  1  0.43938225  0.75000000  0.28922836  1
  Cl  Cl61  1  0.06061775  0.75000000  0.78922836  1
  Cl  Cl62  1  0.56061775  0.25000000  0.71077164  1
  Cl  Cl63  1  0.93938225  0.25000000  0.21077164  1
  Cl  Cl64  1  0.88173655  0.75000000  0.26251919  1
  Cl  Cl65  1  0.61826345  0.75000000  0.76251919  1
  Cl  Cl66  1  0.11826345  0.25000000  0.73748081  1
  Cl  Cl67  1  0.38173655  0.25000000  0.23748081  1
  Cl  Cl68  1  0.94168672  0.75000000  0.49250360  1
  Cl  Cl69  1  0.55831328  0.75000000  0.99250360  1
  Cl  Cl70  1  0.05831328  0.25000000  0.50749640  1
  Cl  Cl71  1  0.44168672  0.25000000  0.00749640  1
  O  O72  1  0.52555136  0.75000000  0.50778962  1
  O  O73  1  0.97444864  0.75000000  0.00778962  1
  O  O74  1  0.47444864  0.25000000  0.49221038  1
  O  O75  1  0.02555136  0.25000000  0.99221038  1
