# generated using pymatgen
data_Tb6OsI10
_symmetry_space_group_name_H-M   'P 1'
_cell_length_a   7.75774663
_cell_length_b   9.76353912
_cell_length_c   9.80530297
_cell_angle_alpha   107.58242741
_cell_angle_beta   97.02434940
_cell_angle_gamma   105.00433086
_symmetry_Int_Tables_number   1
_chemical_formula_structural   Tb6OsI10
_chemical_formula_sum   'Tb6 Os1 I10'
_cell_volume   667.44138358
_cell_formula_units_Z   1
loop_
 _symmetry_equiv_pos_site_id
 _symmetry_equiv_pos_as_xyz
  1  'x, y, z'
loop_
 _atom_site_type_symbol
 _atom_site_label
 _atom_site_symmetry_multiplicity
 _atom_site_fract_x
 _atom_site_fract_y
 _atom_site_fract_z
 _atom_site_occupancy
  Tb  Tb0  1  0.34966430  0.12656438  0.16688629  1
  Tb  Tb1  1  0.65033570  0.87343562  0.83311371  1
  Tb  Tb2  1  0.97242297  0.28345776  0.08445701  1
  Tb  Tb3  1  0.02757703  0.71654224  0.91554299  1
  Tb  Tb4  1  0.88613184  0.95984457  0.24342694  1
  Tb  Tb5  1  0.11386816  0.04015543  0.75657306  1
  Os  Os6  1  0.00000000  -0.00000000  -0.00000000  1
  I  I7  1  0.35682154  0.45458134  0.27335865  1
  I  I8  1  0.64317846  0.54541866  0.72664135  1
  I  I9  1  0.78946407  0.26220741  0.34987481  1
  I  I10  1  0.21053593  0.73779259  0.65012519  1
  I  I11  1  0.54748751  0.18300092  0.90914915  1
  I  I12  1  0.45251249  0.81699908  0.09085085  1
  I  I13  1  0.73755531  0.91138353  0.53786979  1
  I  I14  1  0.26244469  0.08861647  0.46213021  1
  I  I15  1  0.91337424  0.63013151  0.17978022  1
  I  I16  1  0.08662576  0.36986849  0.82021978  1
