# generated using pymatgen
data_Ho5(Si5Ir2)2
_symmetry_space_group_name_H-M   'P 1'
_cell_length_a   4.26012797
_cell_length_b   12.61772266
_cell_length_c   12.61772266
_cell_angle_alpha   90.00000000
_cell_angle_beta   90.00000000
_cell_angle_gamma   90.00000000
_symmetry_Int_Tables_number   1
_chemical_formula_structural   Ho5(Si5Ir2)2
_chemical_formula_sum   'Ho10 Si20 Ir8'
_cell_volume   678.24187474
_cell_formula_units_Z   2
loop_
 _symmetry_equiv_pos_site_id
 _symmetry_equiv_pos_as_xyz
  1  'x, y, z'
loop_
 _atom_site_type_symbol
 _atom_site_label
 _atom_site_symmetry_multiplicity
 _atom_site_fract_x
 _atom_site_fract_y
 _atom_site_fract_z
 _atom_site_occupancy
  Ho  Ho0  1  0.00000000  0.50000000  0.50000000  1
  Ho  Ho1  1  0.00000000  -0.00000000  0.00000000  1
  Ho  Ho2  1  0.50000000  0.17552171  0.67552171  1
  Ho  Ho3  1  0.50000000  0.82447829  0.32447829  1
  Ho  Ho4  1  0.50000000  0.32447829  0.17552171  1
  Ho  Ho5  1  0.50000000  0.67552171  0.82447829  1
  Ho  Ho6  1  0.50000000  0.38390234  0.88390234  1
  Ho  Ho7  1  0.50000000  0.61609766  0.11609766  1
  Ho  Ho8  1  0.50000000  0.11609766  0.38390234  1
  Ho  Ho9  1  0.50000000  0.88390234  0.61609766  1
  Si  Si10  1  -0.00000000  0.06568323  0.56568323  1
  Si  Si11  1  0.00000000  0.93431677  0.43431677  1
  Si  Si12  1  0.00000000  0.43431677  0.06568323  1
  Si  Si13  1  -0.00000000  0.56568323  0.93431677  1
  Si  Si14  1  -0.00000000  0.70070198  0.66380337  1
  Si  Si15  1  0.00000000  0.29929802  0.33619663  1
  Si  Si16  1  0.00000000  0.79929802  0.16380337  1
  Si  Si17  1  -0.00000000  0.20070198  0.83619663  1
  Si  Si18  1  0.00000000  0.66380337  0.29929802  1
  Si  Si19  1  -0.00000000  0.33619663  0.70070198  1
  Si  Si20  1  0.00000000  0.16380337  0.20070198  1
  Si  Si21  1  -0.00000000  0.83619663  0.79929802  1
  Si  Si22  1  0.50000000  0.50349261  0.65651213  1
  Si  Si23  1  0.50000000  0.49650739  0.34348787  1
  Si  Si24  1  0.50000000  0.99650739  0.15651213  1
  Si  Si25  1  0.50000000  0.00349261  0.84348787  1
  Si  Si26  1  0.50000000  0.65651213  0.49650739  1
  Si  Si27  1  0.50000000  0.34348787  0.50349261  1
  Si  Si28  1  0.50000000  0.15651213  0.00349261  1
  Si  Si29  1  0.50000000  0.84348787  0.99650739  1
  Ir  Ir30  1  -0.00000000  0.52044899  0.74570216  1
  Ir  Ir31  1  0.00000000  0.47955101  0.25429784  1
  Ir  Ir32  1  0.00000000  0.97955101  0.24570216  1
  Ir  Ir33  1  -0.00000000  0.02044899  0.75429784  1
  Ir  Ir34  1  -0.00000000  0.74570216  0.47955101  1
  Ir  Ir35  1  0.00000000  0.25429784  0.52044899  1
  Ir  Ir36  1  -0.00000000  0.24570216  0.02044899  1
  Ir  Ir37  1  0.00000000  0.75429784  0.97955101  1
