# generated using pymatgen
data_MnSb2H18(Se2N3)2
_symmetry_space_group_name_H-M   'P 1'
_cell_length_a   7.71192903
_cell_length_b   12.72646520
_cell_length_c   18.58328400
_cell_angle_alpha   90.00000000
_cell_angle_beta   90.00000000
_cell_angle_gamma   90.00000000
_symmetry_Int_Tables_number   1
_chemical_formula_structural   MnSb2H18(Se2N3)2
_chemical_formula_sum   'Mn4 Sb8 H72 Se16 N24'
_cell_volume   1823.86749172
_cell_formula_units_Z   4
loop_
 _symmetry_equiv_pos_site_id
 _symmetry_equiv_pos_as_xyz
  1  'x, y, z'
loop_
 _atom_site_type_symbol
 _atom_site_label
 _atom_site_symmetry_multiplicity
 _atom_site_fract_x
 _atom_site_fract_y
 _atom_site_fract_z
 _atom_site_occupancy
  Mn  Mn0  1  0.08663239  0.53603975  0.31979018  1
  Mn  Mn1  1  0.58663239  0.46396025  0.68020982  1
  Mn  Mn2  1  0.58663239  0.03603975  0.18020982  1
  Mn  Mn3  1  0.08663239  0.96396025  0.81979018  1
  Sb  Sb4  1  0.92456790  0.65370689  0.04047664  1
  Sb  Sb5  1  0.42456790  0.34629311  0.95952336  1
  Sb  Sb6  1  0.42456790  0.15370689  0.45952336  1
  Sb  Sb7  1  0.92456790  0.84629311  0.54047664  1
  Sb  Sb8  1  0.43720054  0.58518869  0.08319984  1
  Sb  Sb9  1  0.93720054  0.41481131  0.91680016  1
  Sb  Sb10  1  0.93720054  0.08518869  0.41680016  1
  Sb  Sb11  1  0.43720054  0.91481131  0.58319984  1
  H  H12  1  0.28863121  0.40048390  0.22923392  1
  H  H13  1  0.78863121  0.59951610  0.77076608  1
  H  H14  1  0.78863121  0.90048390  0.27076608  1
  H  H15  1  0.28863121  0.09951610  0.72923392  1
  H  H16  1  0.41206670  0.49799609  0.25585438  1
  H  H17  1  0.91206670  0.50200391  0.74414562  1
  H  H18  1  0.91206670  0.99799609  0.24414562  1
  H  H19  1  0.41206670  0.00200391  0.75585438  1
  H  H20  1  0.36936800  0.39857883  0.31146157  1
  H  H21  1  0.86936800  0.60142117  0.68853843  1
  H  H22  1  0.86936800  0.89857883  0.18853843  1
  H  H23  1  0.36936800  0.10142117  0.81146157  1
  H  H24  1  0.10124459  0.74843198  0.28484633  1
  H  H25  1  0.60124459  0.25156802  0.71515367  1
  H  H26  1  0.60124459  0.24843198  0.21515367  1
  H  H27  1  0.10124459  0.75156802  0.78484633  1
  H  H28  1  0.23011519  0.68716216  0.22732408  1
  H  H29  1  0.73011519  0.31283784  0.77267592  1
  H  H30  1  0.73011519  0.18716216  0.27267592  1
  H  H31  1  0.23011519  0.81283784  0.72732408  1
  H  H32  1  0.01796815  0.69183436  0.21306655  1
  H  H33  1  0.51796815  0.30816564  0.78693345  1
  H  H34  1  0.51796815  0.19183436  0.28693345  1
  H  H35  1  0.01796815  0.80816564  0.71306655  1
  H  H36  1  0.37797509  0.55712508  0.40902991  1
  H  H37  1  0.87797509  0.44287492  0.59097009  1
  H  H38  1  0.87797509  0.05712508  0.09097009  1
  H  H39  1  0.37797509  0.94287492  0.90902991  1
  H  H40  1  0.36184547  0.67213557  0.36944297  1
  H  H41  1  0.86184547  0.32786443  0.63055703  1
  H  H42  1  0.86184547  0.17213557  0.13055703  1
  H  H43  1  0.36184547  0.82786443  0.86944297  1
  H  H44  1  0.23714264  0.64409848  0.43922758  1
  H  H45  1  0.73714264  0.35590152  0.56077242  1
  H  H46  1  0.73714264  0.14409848  0.06077242  1
  H  H47  1  0.23714264  0.85590152  0.93922758  1
  H  H48  1  0.88928115  0.37543137  0.25761698  1
  H  H49  1  0.38928115  0.62456863  0.74238302  1
  H  H50  1  0.38928115  0.87543137  0.24238302  1
  H  H51  1  0.88928115  0.12456863  0.75761698  1
  H  H52  1  0.80157151  0.48758880  0.22848559  1
  H  H53  1  0.30157151  0.51241120  0.77151441  1
  H  H54  1  0.30157151  0.98758880  0.27151441  1
  H  H55  1  0.80157151  0.01241120  0.72848559  1
  H  H56  1  0.97364213  0.43909011  0.18932969  1
  H  H57  1  0.47364213  0.56090989  0.81067031  1
  H  H58  1  0.47364213  0.93909011  0.31067031  1
  H  H59  1  0.97364213  0.06090989  0.68932969  1
  H  H60  1  0.16396789  0.39040527  0.42913377  1
  H  H61  1  0.66396789  0.60959473  0.57086623  1
  H  H62  1  0.66396789  0.89040527  0.07086623  1
  H  H63  1  0.16396789  0.10959473  0.92913377  1
  H  H64  1  0.98946966  0.45630782  0.45319347  1
  H  H65  1  0.48946966  0.54369218  0.54680653  1
  H  H66  1  0.48946966  0.95630782  0.04680653  1
  H  H67  1  0.98946966  0.04369218  0.95319347  1
  H  H68  1  0.97449290  0.35577048  0.39768918  1
  H  H69  1  0.47449290  0.64422952  0.60231082  1
  H  H70  1  0.47449290  0.85577048  0.10231082  1
  H  H71  1  0.97449290  0.14422952  0.89768918  1
  H  H72  1  0.85935899  0.62963110  0.42227015  1
  H  H73  1  0.35935899  0.37036890  0.57772985  1
  H  H74  1  0.35935899  0.12963110  0.07772985  1
  H  H75  1  0.85935899  0.87036890  0.92227015  1
  H  H76  1  0.80211644  0.68052285  0.34432282  1
  H  H77  1  0.30211644  0.31947715  0.65567718  1
  H  H78  1  0.30211644  0.18052285  0.15567718  1
  H  H79  1  0.80211644  0.81947715  0.84432282  1
  H  H80  1  0.73651112  0.56239054  0.36557274  1
  H  H81  1  0.23651112  0.43760946  0.63442726  1
  H  H82  1  0.23651112  0.06239054  0.13442726  1
  H  H83  1  0.73651112  0.93760946  0.86557274  1
  Se  Se84  1  0.07939719  0.60465769  0.91645700  1
  Se  Se85  1  0.57939719  0.39534231  0.08354300  1
  Se  Se86  1  0.57939719  0.10465769  0.58354300  1
  Se  Se87  1  0.07939719  0.89534231  0.41645700  1
  Se  Se88  1  0.61807381  0.66959684  0.97760938  1
  Se  Se89  1  0.11807381  0.33040316  0.02239062  1
  Se  Se90  1  0.11807381  0.16959684  0.52239062  1
  Se  Se91  1  0.61807381  0.83040316  0.47760938  1
  Se  Se92  1  0.01981074  0.84346292  0.05303138  1
  Se  Se93  1  0.51981074  0.15653708  0.94696862  1
  Se  Se94  1  0.51981074  0.34346292  0.44696862  1
  Se  Se95  1  0.01981074  0.65653708  0.55303138  1
  Se  Se96  1  0.58623724  0.65755877  0.19458405  1
  Se  Se97  1  0.08623724  0.34244123  0.80541595  1
  Se  Se98  1  0.08623724  0.15755877  0.30541595  1
  Se  Se99  1  0.58623724  0.84244123  0.69458405  1
  N  N100  1  0.31658371  0.44668466  0.27270911  1
  N  N101  1  0.81658371  0.55331534  0.72729089  1
  N  N102  1  0.81658371  0.94668466  0.22729089  1
  N  N103  1  0.31658371  0.05331534  0.77270911  1
  N  N104  1  0.11080581  0.68371964  0.25212200  1
  N  N105  1  0.61080581  0.31628036  0.74787800  1
  N  N106  1  0.61080581  0.18371964  0.24787800  1
  N  N107  1  0.11080581  0.81628036  0.75212200  1
  N  N108  1  0.29116594  0.61340619  0.39297725  1
  N  N109  1  0.79116594  0.38659381  0.60702275  1
  N  N110  1  0.79116594  0.11340619  0.10702275  1
  N  N111  1  0.29116594  0.88659381  0.89297725  1
  N  N112  1  0.91662089  0.44930600  0.23858231  1
  N  N113  1  0.41662089  0.55069400  0.76141769  1
  N  N114  1  0.41662089  0.94930600  0.26141769  1
  N  N115  1  0.91662089  0.05069400  0.73858231  1
  N  N116  1  0.04833996  0.42009794  0.41037883  1
  N  N117  1  0.54833996  0.57990206  0.58962117  1
  N  N118  1  0.54833996  0.92009794  0.08962117  1
  N  N119  1  0.04833996  0.07990206  0.91037883  1
  N  N120  1  0.84033504  0.61225476  0.36865012  1
  N  N121  1  0.34033504  0.38774524  0.63134988  1
  N  N122  1  0.34033504  0.11225476  0.13134988  1
  N  N123  1  0.84033504  0.88774524  0.86865012  1
