# generated using pymatgen
data_Zr(TlSe)4
_symmetry_space_group_name_H-M   'P 1'
_cell_length_a   9.56848527
_cell_length_b   9.56577123
_cell_length_c   16.45337009
_cell_angle_alpha   105.11165475
_cell_angle_beta   104.48007959
_cell_angle_gamma   90.02872536
_symmetry_Int_Tables_number   1
_chemical_formula_structural   Zr(TlSe)4
_chemical_formula_sum   'Zr5 Tl20 Se20'
_cell_volume   1404.23498699
_cell_formula_units_Z   5
loop_
 _symmetry_equiv_pos_site_id
 _symmetry_equiv_pos_as_xyz
  1  'x, y, z'
loop_
 _atom_site_type_symbol
 _atom_site_label
 _atom_site_symmetry_multiplicity
 _atom_site_fract_x
 _atom_site_fract_y
 _atom_site_fract_z
 _atom_site_occupancy
  Zr  Zr0  1  0.68651107  0.01680907  0.59974896  1
  Zr  Zr1  1  0.31348893  0.98319093  0.40025104  1
  Zr  Zr2  1  0.30540330  0.17765002  0.19982981  1
  Zr  Zr3  1  0.69459670  0.82234998  0.80017019  1
  Zr  Zr4  1  0.50000000  0.00000000  0.00000000  1
  Tl  Tl5  1  0.08245744  0.04720646  0.80076833  1
  Tl  Tl6  1  0.91754256  0.95279354  0.19923167  1
  Tl  Tl7  1  0.71830927  0.21566609  0.40021979  1
  Tl  Tl8  1  0.28169073  0.78433391  0.59978021  1
  Tl  Tl9  1  0.08639089  0.21992695  0.59457919  1
  Tl  Tl10  1  0.91360911  0.78007305  0.40542081  1
  Tl  Tl11  1  0.45577215  0.22170883  0.79612767  1
  Tl  Tl12  1  0.54422785  0.77829117  0.20387233  1
  Tl  Tl13  1  0.09567023  0.37817369  0.38886685  1
  Tl  Tl14  1  0.90432977  0.62182631  0.61113315  1
  Tl  Tl15  1  0.69998635  0.38913293  0.19162371  1
  Tl  Tl16  1  0.30001365  0.61086707  0.80837629  1
  Tl  Tl17  1  0.46702671  0.41122671  0.59932267  1
  Tl  Tl18  1  0.53297329  0.58877329  0.40067733  1
  Tl  Tl19  1  0.09762070  0.58026074  0.20062890  1
  Tl  Tl20  1  0.90237930  0.41973926  0.79937110  1
  Tl  Tl21  1  0.71798401  0.60768420  0.99820722  1
  Tl  Tl22  1  0.28201599  0.39231580  0.00179278  1
  Tl  Tl23  1  0.10245785  0.77494331  0.00735355  1
  Tl  Tl24  1  0.89754215  0.22505669  0.99264645  1
  Se  Se25  1  0.04400400  0.06344149  0.40157614  1
  Se  Se26  1  0.95599600  0.93655851  0.59842386  1
  Se  Se27  1  0.39627032  0.06983663  0.57909633  1
  Se  Se28  1  0.60372968  0.93016337  0.42090367  1
  Se  Se29  1  0.22919789  0.07394300  0.01939453  1
  Se  Se30  1  0.77080211  0.92605700  0.98060547  1
  Se  Se31  1  0.58051936  0.09035344  0.17986948  1
  Se  Se32  1  0.41948064  0.90964656  0.82013052  1
  Se  Se33  1  0.03166493  0.24501733  0.19371815  1
  Se  Se34  1  0.96833507  0.75498267  0.80628185  1
  Se  Se35  1  0.38489540  0.25514214  0.37906466  1
  Se  Se36  1  0.61510460  0.74485786  0.62093534  1
  Se  Se37  1  0.37996815  0.44779271  0.19784711  1
  Se  Se38  1  0.62003185  0.55220729  0.80215289  1
  Se  Se39  1  0.23913393  0.71032057  0.39610597  1
  Se  Se40  1  0.76086607  0.28967943  0.60389403  1
  Se  Se41  1  0.42756885  0.72525174  0.00310978  1
  Se  Se42  1  0.57243115  0.27474826  0.99689022  1
  Se  Se43  1  0.25720169  0.90448993  0.22196304  1
  Se  Se44  1  0.74279831  0.09551007  0.77803696  1
