# generated using pymatgen
data_Dy2Nb2S7O30
_symmetry_space_group_name_H-M   'P 1'
_cell_length_a   7.13502824
_cell_length_b   12.83008853
_cell_length_c   12.83008853
_cell_angle_alpha   90.00000000
_cell_angle_beta   90.00000000
_cell_angle_gamma   90.00000000
_symmetry_Int_Tables_number   1
_chemical_formula_structural   Dy2Nb2S7O30
_chemical_formula_sum   'Dy4 Nb4 S14 O60'
_cell_volume   1174.50535861
_cell_formula_units_Z   2
loop_
 _symmetry_equiv_pos_site_id
 _symmetry_equiv_pos_as_xyz
  1  'x, y, z'
loop_
 _atom_site_type_symbol
 _atom_site_label
 _atom_site_symmetry_multiplicity
 _atom_site_fract_x
 _atom_site_fract_y
 _atom_site_fract_z
 _atom_site_occupancy
  Dy  Dy0  1  0.40756628  0.19864992  0.69864992  1
  Dy  Dy1  1  0.59243372  0.30135008  0.19864992  1
  Dy  Dy2  1  0.40756628  0.80135008  0.30135008  1
  Dy  Dy3  1  0.59243372  0.69864992  0.80135008  1
  Nb  Nb4  1  0.01960387  0.36097784  0.86097784  1
  Nb  Nb5  1  0.98039613  0.13902216  0.36097784  1
  Nb  Nb6  1  0.01960387  0.63902216  0.13902216  1
  Nb  Nb7  1  0.98039613  0.86097784  0.63902216  1
  S  S8  1  0.65336179  0.50000000  0.00000000  1
  S  S9  1  0.34663821  0.00000000  0.50000000  1
  S  S10  1  0.10633251  0.62388244  0.87611756  1
  S  S11  1  0.89366749  0.87611756  0.37611756  1
  S  S12  1  0.10633251  0.37611756  0.12388244  1
  S  S13  1  0.89366749  0.12388244  0.62388244  1
  S  S14  1  0.69931738  0.43558099  0.67681426  1
  S  S15  1  0.30068262  0.06441901  0.17681426  1
  S  S16  1  0.69931738  0.56441901  0.32318574  1
  S  S17  1  0.30068262  0.93558099  0.82318574  1
  S  S18  1  0.30068262  0.32318574  0.43558099  1
  S  S19  1  0.69931738  0.17681426  0.93558099  1
  S  S20  1  0.30068262  0.67681426  0.56441901  1
  S  S21  1  0.69931738  0.82318574  0.06441901  1
  O  O22  1  0.20961631  0.29753732  0.79753732  1
  O  O23  1  0.79038369  0.20246268  0.29753732  1
  O  O24  1  0.20961631  0.70246268  0.20246268  1
  O  O25  1  0.79038369  0.79753732  0.70246268  1
  O  O26  1  0.53925239  0.43232756  0.06767244  1
  O  O27  1  0.46074761  0.06767244  0.56767244  1
  O  O28  1  0.53925239  0.56767244  0.93232756  1
  O  O29  1  0.46074761  0.93232756  0.43232756  1
  O  O30  1  0.77556057  0.43349303  0.93349303  1
  O  O31  1  0.22443943  0.06650697  0.43349303  1
  O  O32  1  0.77556057  0.56650697  0.06650697  1
  O  O33  1  0.22443943  0.93349303  0.56650697  1
  O  O34  1  0.92067787  0.65655059  0.84344941  1
  O  O35  1  0.07932213  0.84344941  0.34344941  1
  O  O36  1  0.92067787  0.34344941  0.15655059  1
  O  O37  1  0.07932213  0.15655059  0.65655059  1
  O  O38  1  0.26017832  0.67684818  0.82315182  1
  O  O39  1  0.73982168  0.82315182  0.32315182  1
  O  O40  1  0.26017832  0.32315182  0.17684818  1
  O  O41  1  0.73982168  0.17684818  0.67684818  1
  O  O42  1  0.13087866  0.50861239  0.85752395  1
  O  O43  1  0.86912134  0.99138761  0.35752395  1
  O  O44  1  0.13087866  0.49138761  0.14247605  1
  O  O45  1  0.86912134  0.00861239  0.64247605  1
  O  O46  1  0.86912134  0.14247605  0.50861239  1
  O  O47  1  0.13087866  0.35752395  0.00861239  1
  O  O48  1  0.86912134  0.85752395  0.49138761  1
  O  O49  1  0.13087866  0.64247605  0.99138761  1
  O  O50  1  0.54438401  0.36820336  0.71164078  1
  O  O51  1  0.45561599  0.13179664  0.21164078  1
  O  O52  1  0.54438401  0.63179664  0.28835922  1
  O  O53  1  0.45561599  0.86820336  0.78835922  1
  O  O54  1  0.45561599  0.28835922  0.36820336  1
  O  O55  1  0.54438401  0.21164078  0.86820336  1
  O  O56  1  0.45561599  0.71164078  0.63179664  1
  O  O57  1  0.54438401  0.78835922  0.13179664  1
  O  O58  1  0.67217260  0.54384695  0.71016706  1
  O  O59  1  0.32782740  0.95615305  0.21016706  1
  O  O60  1  0.67217260  0.45615305  0.28983294  1
  O  O61  1  0.32782740  0.04384695  0.78983294  1
  O  O62  1  0.32782740  0.28983294  0.54384695  1
  O  O63  1  0.67217260  0.21016706  0.04384695  1
  O  O64  1  0.32782740  0.71016706  0.45615305  1
  O  O65  1  0.67217260  0.78983294  0.95615305  1
  O  O66  1  0.72734015  0.42499141  0.56428996  1
  O  O67  1  0.27265985  0.07500859  0.06428996  1
  O  O68  1  0.72734015  0.57500859  0.43571004  1
  O  O69  1  0.27265985  0.92499141  0.93571004  1
  O  O70  1  0.27265985  0.43571004  0.42499141  1
  O  O71  1  0.72734015  0.06428996  0.92499141  1
  O  O72  1  0.27265985  0.56428996  0.57500859  1
  O  O73  1  0.72734015  0.93571004  0.07500859  1
  O  O74  1  0.87923098  0.39466952  0.72964565  1
  O  O75  1  0.12076902  0.10533048  0.22964565  1
  O  O76  1  0.87923098  0.60533048  0.27035435  1
  O  O77  1  0.12076902  0.89466952  0.77035435  1
  O  O78  1  0.12076902  0.27035435  0.39466952  1
  O  O79  1  0.87923098  0.22964565  0.89466952  1
  O  O80  1  0.12076902  0.72964565  0.60533048  1
  O  O81  1  0.87923098  0.77035435  0.10533048  1
