# generated using pymatgen
data_Ce4(TmS2)11
_symmetry_space_group_name_H-M   'P 1'
_cell_length_a   3.93169359
_cell_length_b   11.31532571
_cell_length_c   19.59585135
_cell_angle_alpha   91.38815948
_cell_angle_beta   95.75756985
_cell_angle_gamma   90.00000000
_symmetry_Int_Tables_number   1
_chemical_formula_structural   Ce4(TmS2)11
_chemical_formula_sum   'Ce4 Tm11 S22'
_cell_volume   867.13286259
_cell_formula_units_Z   1
loop_
 _symmetry_equiv_pos_site_id
 _symmetry_equiv_pos_as_xyz
  1  'x, y, z'
loop_
 _atom_site_type_symbol
 _atom_site_label
 _atom_site_symmetry_multiplicity
 _atom_site_fract_x
 _atom_site_fract_y
 _atom_site_fract_z
 _atom_site_occupancy
  Ce  Ce0  1  0.10396677  0.01193739  0.20793353  1
  Ce  Ce1  1  0.89603323  0.98806261  0.79206647  1
  Ce  Ce2  1  0.36728166  0.34748109  0.73456333  1
  Ce  Ce3  1  0.63271834  0.65251891  0.26543667  1
  Tm  Tm4  1  0.79810664  0.05820362  0.59621328  1
  Tm  Tm5  1  0.20189336  0.94179638  0.40378672  1
  Tm  Tm6  1  0.46175645  0.27106124  0.92351289  1
  Tm  Tm7  1  0.53824355  0.72893876  0.07648711  1
  Tm  Tm8  1  0.65761475  0.30218225  0.31522950  1
  Tm  Tm9  1  0.34238525  0.69781775  0.68477050  1
  Tm  Tm10  1  0.26412215  0.35202723  0.52824431  1
  Tm  Tm11  1  0.73587785  0.64797277  0.47175569  1
  Tm  Tm12  1  0.06950945  0.35977354  0.13901890  1
  Tm  Tm13  1  0.93049055  0.64022646  0.86098110  1
  Tm  Tm14  1  -0.00000000  -0.00000000  -0.00000000  1
  S  S15  1  0.08760277  0.75155730  0.17520553  1
  S  S16  1  0.91239723  0.24844270  0.82479447  1
  S  S17  1  0.18858901  0.69212366  0.37717803  1
  S  S18  1  0.81141099  0.30787634  0.62282197  1
  S  S19  1  0.27996137  0.59022376  0.55992275  1
  S  S20  1  0.72003863  0.40977624  0.44007725  1
  S  S21  1  0.44582963  0.49548209  0.89165926  1
  S  S22  1  0.55417037  0.50451791  0.10834074  1
  S  S23  1  0.13481135  0.45419498  0.26962269  1
  S  S24  1  0.86518865  0.54580502  0.73037731  1
  S  S25  1  0.59296175  0.21139921  0.18592350  1
  S  S26  1  0.40703825  0.78860079  0.81407650  1
  S  S27  1  0.45281149  0.03152546  0.90562297  1
  S  S28  1  0.54718851  0.96847454  0.09437703  1
  S  S29  1  0.35111276  0.09142731  0.70222552  1
  S  S30  1  0.64888724  0.90857269  0.29777448  1
  S  S31  1  0.16830933  0.15124047  0.33661866  1
  S  S32  1  0.83169067  0.84875953  0.66338134  1
  S  S33  1  0.00786399  0.23955760  0.01572797  1
  S  S34  1  0.99213601  0.76044240  0.98427203  1
  S  S35  1  0.25515371  0.11936211  0.51030742  1
  S  S36  1  0.74484629  0.88063789  0.48969258  1
