# generated using pymatgen
data_Cs4FeO3
_symmetry_space_group_name_H-M   'P 1'
_cell_length_a   7.19939298
_cell_length_b   7.23443495
_cell_length_c   10.14108504
_cell_angle_alpha   80.69282161
_cell_angle_beta   71.25998505
_cell_angle_gamma   64.02340863
_symmetry_Int_Tables_number   1
_chemical_formula_structural   Cs4FeO3
_chemical_formula_sum   'Cs8 Fe2 O6'
_cell_volume   449.51371691
_cell_formula_units_Z   2
loop_
 _symmetry_equiv_pos_site_id
 _symmetry_equiv_pos_as_xyz
  1  'x, y, z'
loop_
 _atom_site_type_symbol
 _atom_site_label
 _atom_site_symmetry_multiplicity
 _atom_site_fract_x
 _atom_site_fract_y
 _atom_site_fract_z
 _atom_site_occupancy
  Cs  Cs0  1  0.97873434  0.74938625  0.59529876  1
  Cs  Cs1  1  0.02126566  0.25061375  0.40470124  1
  Cs  Cs2  1  0.79405257  0.79285522  0.98858699  1
  Cs  Cs3  1  0.20594743  0.20714478  0.01141301  1
  Cs  Cs4  1  0.73091854  0.34975202  0.85273684  1
  Cs  Cs5  1  0.26908146  0.65024798  0.14726316  1
  Cs  Cs6  1  0.56200368  0.79068215  0.37770597  1
  Cs  Cs7  1  0.43799632  0.20931785  0.62229403  1
  Fe  Fe8  1  0.31482866  0.79312437  0.76443286  1
  Fe  Fe9  1  0.68517134  0.20687563  0.23556714  1
  O  O10  1  0.87148005  0.98241847  0.32908213  1
  O  O11  1  0.12851995  0.01758153  0.67091787  1
  O  O12  1  0.55408394  0.81996531  0.79329372  1
  O  O13  1  0.44591606  0.18003469  0.20670628  1
  O  O14  1  0.26969444  0.54908822  0.82437624  1
  O  O15  1  0.73030556  0.45091178  0.17562376  1
