# generated using pymatgen
data_Ce(Co2B)6
_symmetry_space_group_name_H-M   'P 1'
_cell_length_a   5.98043477
_cell_length_b   5.98043477
_cell_length_c   5.98043515
_cell_angle_alpha   104.12181369
_cell_angle_beta   104.12181369
_cell_angle_gamma   104.12180733
_symmetry_Int_Tables_number   1
_chemical_formula_structural   Ce(Co2B)6
_chemical_formula_sum   'Ce1 Co12 B6'
_cell_volume   190.39763217
_cell_formula_units_Z   1
loop_
 _symmetry_equiv_pos_site_id
 _symmetry_equiv_pos_as_xyz
  1  'x, y, z'
loop_
 _atom_site_type_symbol
 _atom_site_label
 _atom_site_symmetry_multiplicity
 _atom_site_fract_x
 _atom_site_fract_y
 _atom_site_fract_z
 _atom_site_occupancy
  Ce  Ce0  1  -0.00000000  -0.00000000  0.00000000  1
  Co  Co1  1  0.86589701  0.13410299  0.50000000  1
  Co  Co2  1  0.13410299  0.50000000  0.86589701  1
  Co  Co3  1  0.50000000  0.86589701  0.13410299  1
  Co  Co4  1  0.86589701  0.50000000  0.13410299  1
  Co  Co5  1  0.50000000  0.13410299  0.86589701  1
  Co  Co6  1  0.13410299  0.86589701  0.50000000  1
  Co  Co7  1  0.81369584  0.54414687  0.54414687  1
  Co  Co8  1  0.54414687  0.54414687  0.81369584  1
  Co  Co9  1  0.54414687  0.81369584  0.54414687  1
  Co  Co10  1  0.18630416  0.45585313  0.45585313  1
  Co  Co11  1  0.45585313  0.45585313  0.18630416  1
  Co  Co12  1  0.45585313  0.18630416  0.45585313  1
  B  B13  1  0.33035266  0.76963805  0.76963805  1
  B  B14  1  0.76963805  0.76963805  0.33035266  1
  B  B15  1  0.76963805  0.33035266  0.76963805  1
  B  B16  1  0.66964734  0.23036195  0.23036195  1
  B  B17  1  0.23036195  0.23036195  0.66964734  1
  B  B18  1  0.23036195  0.66964734  0.23036195  1
