# generated using pymatgen
data_Pr2ScSi2
_symmetry_space_group_name_H-M   'P 1'
_cell_length_a   4.48030043
_cell_length_b   7.42948942
_cell_length_c   7.42948942
_cell_angle_alpha   90.00000000
_cell_angle_beta   90.00000000
_cell_angle_gamma   90.00000000
_symmetry_Int_Tables_number   1
_chemical_formula_structural   Pr2ScSi2
_chemical_formula_sum   'Pr4 Sc2 Si4'
_cell_volume   247.30054536
_cell_formula_units_Z   2
loop_
 _symmetry_equiv_pos_site_id
 _symmetry_equiv_pos_as_xyz
  1  'x, y, z'
loop_
 _atom_site_type_symbol
 _atom_site_label
 _atom_site_symmetry_multiplicity
 _atom_site_fract_x
 _atom_site_fract_y
 _atom_site_fract_z
 _atom_site_occupancy
  Pr  Pr0  1  0.50000000  0.17791297  0.67791297  1
  Pr  Pr1  1  0.50000000  0.82208703  0.32208703  1
  Pr  Pr2  1  0.50000000  0.32208703  0.17791297  1
  Pr  Pr3  1  0.50000000  0.67791297  0.82208703  1
  Sc  Sc4  1  -0.00000000  0.00000000  -0.00000000  1
  Sc  Sc5  1  -0.00000000  0.50000000  0.50000000  1
  Si  Si6  1  0.00000000  0.61730750  0.11730750  1
  Si  Si7  1  -0.00000000  0.38269250  0.88269250  1
  Si  Si8  1  -0.00000000  0.88269250  0.61730750  1
  Si  Si9  1  0.00000000  0.11730750  0.38269250  1
