# generated using pymatgen
data_Li4MnCo2O7
_symmetry_space_group_name_H-M   'P 1'
_cell_length_a   2.90239414
_cell_length_b   7.79813617
_cell_length_c   11.52685205
_cell_angle_alpha   84.14253053
_cell_angle_beta   97.23256332
_cell_angle_gamma   79.27500082
_symmetry_Int_Tables_number   1
_chemical_formula_structural   Li4MnCo2O7
_chemical_formula_sum   'Li8 Mn2 Co4 O14'
_cell_volume   252.17734344
_cell_formula_units_Z   2
loop_
 _symmetry_equiv_pos_site_id
 _symmetry_equiv_pos_as_xyz
  1  'x, y, z'
loop_
 _atom_site_type_symbol
 _atom_site_label
 _atom_site_symmetry_multiplicity
 _atom_site_fract_x
 _atom_site_fract_y
 _atom_site_fract_z
 _atom_site_occupancy
  Li  Li0  1  0.56733922  0.07468663  0.20936408  1
  Li  Li1  1  0.72267733  0.21204593  0.65739960  1
  Li  Li2  1  0.84566199  0.36589075  0.05721472  1
  Li  Li3  1  0.28923647  0.77854761  0.35702154  1
  Li  Li4  1  0.42785643  0.93367697  0.78939083  1
  Li  Li5  1  -0.00022836  0.50775227  0.50729554  1
  Li  Li6  1  0.14380761  0.63709254  0.92470777  1
  Li  Li7  1  0.28778906  0.28080232  0.85638144  1
  Mn  Mn8  1  0.99197633  0.00828116  0.99223383  1
  Mn  Mn9  1  0.14236341  0.14369708  0.42842389  1
  Co  Co10  1  0.42472436  0.43354275  0.28299246  1
  Co  Co11  1  0.59144167  0.54980585  0.73268819  1
  Co  Co12  1  0.71299524  0.71667333  0.14266280  1
  Co  Co13  1  0.86554270  0.84504727  0.57613266  1
  O  O14  1  0.43654507  0.15868759  0.03177673  1
  O  O15  1  0.57761603  0.30282426  0.45805632  1
  O  O16  1  0.70775758  0.47202158  0.88753673  1
  O  O17  1  0.13930720  0.88777117  0.16638656  1
  O  O18  1  0.28126718  0.03048215  0.59301552  1
  O  O19  1  0.85463614  0.60613200  0.31540429  1
  O  O20  1  0.00249873  0.73644387  0.74144233  1
  O  O21  1  0.70615623  0.98477539  0.39708886  1
  O  O22  1  0.87060810  0.09412861  0.83534381  1
  O  O23  1  0.00637352  0.25040516  0.26315121  1
  O  O24  1  0.42066195  0.69470192  0.53602582  1
  O  O25  1  0.56450330  0.84156715  0.97057476  1
  O  O26  1  0.13708637  0.40519934  0.67937208  1
  O  O27  1  0.28179913  0.54731737  0.11091563  1
