# generated using pymatgen
data_U3VSb5
_symmetry_space_group_name_H-M   'P 1'
_cell_length_a   6.08218322
_cell_length_b   9.10695743
_cell_length_c   9.11311861
_cell_angle_alpha   119.97764114
_cell_angle_beta   90.00000000
_cell_angle_gamma   90.00000000
_symmetry_Int_Tables_number   1
_chemical_formula_structural   U3VSb5
_chemical_formula_sum   'U6 V2 Sb10'
_cell_volume   437.24843477
_cell_formula_units_Z   2
loop_
 _symmetry_equiv_pos_site_id
 _symmetry_equiv_pos_as_xyz
  1  'x, y, z'
loop_
 _atom_site_type_symbol
 _atom_site_label
 _atom_site_symmetry_multiplicity
 _atom_site_fract_x
 _atom_site_fract_y
 _atom_site_fract_z
 _atom_site_occupancy
  U  U0  1  0.74999870  0.61127866  0.00000000  1
  U  U1  1  0.75001431  0.38887551  0.38880247  1
  U  U2  1  0.75001431  0.00007304  0.61119753  1
  U  U3  1  0.24999870  0.38872134  1.00000000  1
  U  U4  1  0.25001431  0.61112449  0.61119753  1
  U  U5  1  0.25001431  0.99992696  0.38880247  1
  V  V6  1  0.49998371  0.99999476  0.00000000  1
  V  V7  1  0.99998371  0.00000524  1.00000000  1
  Sb  Sb8  1  0.74999814  0.25646449  0.00000000  1
  Sb  Sb9  1  0.74999557  0.74347504  0.74352590  1
  Sb  Sb10  1  0.74999557  0.99994913  0.25647410  1
  Sb  Sb11  1  0.24999814  0.74353551  1.00000000  1
  Sb  Sb12  1  0.24999557  0.25652496  0.25647410  1
  Sb  Sb13  1  0.24999557  0.00005087  0.74352590  1
  Sb  Sb14  1  0.49999985  0.33330966  0.66662804  1
  Sb  Sb15  1  0.49999985  0.66668162  0.33337196  1
  Sb  Sb16  1  -0.00000015  0.66669034  0.33337196  1
  Sb  Sb17  1  -0.00000015  0.33331838  0.66662804  1
