# generated using pymatgen
data_Tm4Ni2C5
_symmetry_space_group_name_H-M   'P 1'
_cell_length_a   3.55263501
_cell_length_b   3.66522135
_cell_length_c   11.46972175
_cell_angle_alpha   90.00000000
_cell_angle_beta   90.00000000
_cell_angle_gamma   90.00000000
_symmetry_Int_Tables_number   1
_chemical_formula_structural   Tm4Ni2C5
_chemical_formula_sum   'Tm4 Ni2 C5'
_cell_volume   149.34946845
_cell_formula_units_Z   1
loop_
 _symmetry_equiv_pos_site_id
 _symmetry_equiv_pos_as_xyz
  1  'x, y, z'
loop_
 _atom_site_type_symbol
 _atom_site_label
 _atom_site_symmetry_multiplicity
 _atom_site_fract_x
 _atom_site_fract_y
 _atom_site_fract_z
 _atom_site_occupancy
  Tm  Tm0  1  0.50000000  0.49691532  0.79732658  1
  Tm  Tm1  1  0.50000000  0.49691532  0.20267342  1
  Tm  Tm2  1  0.50000000  0.79161620  0.50000000  1
  Tm  Tm3  1  0.00000000  0.00025791  0.00000000  1
  Ni  Ni4  1  -0.00000000  0.30095562  0.61523348  1
  Ni  Ni5  1  -0.00000000  0.30095562  0.38476652  1
  C  C6  1  0.00000000  -0.00001329  0.77186849  1
  C  C7  1  0.00000000  -0.00001329  0.22813151  1
  C  C8  1  0.00000000  0.80154277  0.66833112  1
  C  C9  1  0.00000000  0.80154277  0.33166888  1
  C  C10  1  0.50000000  0.50782504  -0.00000000  1
