# generated using pymatgen
data_Rb2Pd3S4
_symmetry_space_group_name_H-M   'P 1'
_cell_length_a   6.24976791
_cell_length_b   6.30864479
_cell_length_c   14.04341932
_cell_angle_alpha   83.67202741
_cell_angle_beta   77.14315596
_cell_angle_gamma   60.30825308
_symmetry_Int_Tables_number   1
_chemical_formula_structural   Rb2Pd3S4
_chemical_formula_sum   'Rb4 Pd6 S8'
_cell_volume   468.93981489
_cell_formula_units_Z   2
loop_
 _symmetry_equiv_pos_site_id
 _symmetry_equiv_pos_as_xyz
  1  'x, y, z'
loop_
 _atom_site_type_symbol
 _atom_site_label
 _atom_site_symmetry_multiplicity
 _atom_site_fract_x
 _atom_site_fract_y
 _atom_site_fract_z
 _atom_site_occupancy
  Rb  Rb0  1  0.54668926  0.25000000  0.90662149  1
  Rb  Rb1  1  0.70331074  0.25000000  0.59337851  1
  Rb  Rb2  1  0.45331074  0.75000000  0.09337851  1
  Rb  Rb3  1  0.29668926  0.75000000  0.40662149  1
  Pd  Pd4  1  0.12500000  0.25000000  0.75000000  1
  Pd  Pd5  1  0.87500000  0.75000000  0.25000000  1
  Pd  Pd6  1  0.87566209  0.25000000  0.24867582  1
  Pd  Pd7  1  0.37433791  0.25000000  0.25132418  1
  Pd  Pd8  1  0.12433791  0.75000000  0.75132418  1
  Pd  Pd9  1  0.62566209  0.75000000  0.74867582  1
  S  S10  1  0.34285288  0.91791372  0.63807875  1
  S  S11  1  0.23923340  0.91791372  0.86192125  1
  S  S12  1  0.01906837  0.58208628  0.63807875  1
  S  S13  1  0.89884535  0.58208628  0.86192125  1
  S  S14  1  0.65714712  0.08208628  0.36192125  1
  S  S15  1  0.76076660  0.08208628  0.13807875  1
  S  S16  1  0.98093163  0.41791372  0.36192125  1
  S  S17  1  0.10115465  0.41791372  0.13807875  1
