# generated using pymatgen
data_La2Zn5Sn
_symmetry_space_group_name_H-M   'P 1'
_cell_length_a   4.57630318
_cell_length_b   8.70987513
_cell_length_c   9.16035582
_cell_angle_alpha   90.00000000
_cell_angle_beta   90.00000000
_cell_angle_gamma   105.23079058
_symmetry_Int_Tables_number   1
_chemical_formula_structural   La2Zn5Sn
_chemical_formula_sum   'La4 Zn10 Sn2'
_cell_volume   352.29811525
_cell_formula_units_Z   2
loop_
 _symmetry_equiv_pos_site_id
 _symmetry_equiv_pos_as_xyz
  1  'x, y, z'
loop_
 _atom_site_type_symbol
 _atom_site_label
 _atom_site_symmetry_multiplicity
 _atom_site_fract_x
 _atom_site_fract_y
 _atom_site_fract_z
 _atom_site_occupancy
  La  La0  1  0.79290222  0.58580445  0.25000000  1
  La  La1  1  0.20709778  0.41419555  0.75000000  1
  La  La2  1  -0.00000000  -0.00000000  0.50000000  1
  La  La3  1  -0.00000000  0.00000000  0.00000000  1
  Zn  Zn4  1  0.18524481  0.37048962  0.39189274  1
  Zn  Zn5  1  0.81475519  0.62951038  0.60810726  1
  Zn  Zn6  1  0.18524481  0.37048962  0.10810726  1
  Zn  Zn7  1  0.81475519  0.62951038  0.89189274  1
  Zn  Zn8  1  0.34381954  0.68763909  0.48563662  1
  Zn  Zn9  1  0.65618046  0.31236091  0.51436338  1
  Zn  Zn10  1  0.34381954  0.68763909  0.01436338  1
  Zn  Zn11  1  0.65618046  0.31236091  0.98563662  1
  Zn  Zn12  1  0.60243519  0.20487037  0.25000000  1
  Zn  Zn13  1  0.39756481  0.79512963  0.75000000  1
  Sn  Sn14  1  0.44354929  0.88709859  0.25000000  1
  Sn  Sn15  1  0.55645071  0.11290141  0.75000000  1
