# generated using pymatgen
data_Sc2Se3
_symmetry_space_group_name_H-M   'P 1'
_cell_length_a   6.69240086
_cell_length_b   6.69240086
_cell_length_c   12.20825811
_cell_angle_alpha   100.67008321
_cell_angle_beta   100.67008321
_cell_angle_gamma   108.93449611
_symmetry_Int_Tables_number   1
_chemical_formula_structural   Sc2Se3
_chemical_formula_sum   'Sc8 Se12'
_cell_volume   490.25008171
_cell_formula_units_Z   4
loop_
 _symmetry_equiv_pos_site_id
 _symmetry_equiv_pos_as_xyz
  1  'x, y, z'
loop_
 _atom_site_type_symbol
 _atom_site_label
 _atom_site_symmetry_multiplicity
 _atom_site_fract_x
 _atom_site_fract_y
 _atom_site_fract_z
 _atom_site_occupancy
  Sc  Sc0  1  0.70816399  0.95816399  0.91632797  1
  Sc  Sc1  1  0.54183601  0.79183601  0.58367203  1
  Sc  Sc2  1  0.29183601  0.04183601  0.08367203  1
  Sc  Sc3  1  0.45816399  0.20816399  0.41632797  1
  Sc  Sc4  1  0.37291585  0.62291585  0.24583171  1
  Sc  Sc5  1  0.87708415  0.12708415  0.25416829  1
  Sc  Sc6  1  0.62708415  0.37708415  0.75416829  1
  Sc  Sc7  1  0.12291585  0.87291585  0.74583171  1
  Se  Se8  1  0.86967842  0.11967842  0.75000000  1
  Se  Se9  1  0.38032158  0.63032158  0.75000000  1
  Se  Se10  1  0.13032158  0.88032158  0.25000000  1
  Se  Se11  1  0.61967842  0.36967842  0.25000000  1
  Se  Se12  1  0.54823646  0.80206429  0.08724377  1
  Se  Se13  1  0.69793571  0.95176354  0.41275623  1
  Se  Se14  1  0.21482052  0.46099269  0.41275623  1
  Se  Se15  1  0.03900731  0.28517948  0.08724377  1
  Se  Se16  1  0.45176354  0.19793571  0.91275623  1
  Se  Se17  1  0.30206429  0.04823646  0.58724377  1
  Se  Se18  1  0.78517948  0.53900731  0.58724377  1
  Se  Se19  1  0.96099269  0.71482052  0.91275623  1
