# generated using pymatgen
data_PrSiRu2C
_symmetry_space_group_name_H-M   'P 1'
_cell_length_a   3.95384416
_cell_length_b   5.92260612
_cell_length_c   7.25321712
_cell_angle_alpha   90.00000000
_cell_angle_beta   90.00000000
_cell_angle_gamma   109.49913315
_symmetry_Int_Tables_number   1
_chemical_formula_structural   PrSiRu2C
_chemical_formula_sum   'Pr2 Si2 Ru4 C2'
_cell_volume   160.10760265
_cell_formula_units_Z   2
loop_
 _symmetry_equiv_pos_site_id
 _symmetry_equiv_pos_as_xyz
  1  'x, y, z'
loop_
 _atom_site_type_symbol
 _atom_site_label
 _atom_site_symmetry_multiplicity
 _atom_site_fract_x
 _atom_site_fract_y
 _atom_site_fract_z
 _atom_site_occupancy
  Pr  Pr0  1  0.45016181  0.90032362  0.25000000  1
  Pr  Pr1  1  0.54983819  0.09967638  0.75000000  1
  Si  Si2  1  0.72873031  0.45746061  0.25000000  1
  Si  Si3  1  0.27126969  0.54253939  0.75000000  1
  Ru  Ru4  1  0.16468539  0.32937077  0.05930523  1
  Ru  Ru5  1  0.83531461  0.67062923  0.94069477  1
  Ru  Ru6  1  0.83531461  0.67062923  0.55930523  1
  Ru  Ru7  1  0.16468539  0.32937077  0.44069477  1
  C  C8  1  0.00000000  0.00000000  0.00000000  1
  C  C9  1  0.00000000  0.00000000  0.50000000  1
