# generated using pymatgen
data_Cs3BrO
_symmetry_space_group_name_H-M   'P 1'
_cell_length_a   7.29463423
_cell_length_b   8.04884841
_cell_length_c   8.04884841
_cell_angle_alpha   120.00000731
_cell_angle_beta   90.00000000
_cell_angle_gamma   90.00000000
_symmetry_Int_Tables_number   1
_chemical_formula_structural   Cs3BrO
_chemical_formula_sum   'Cs6 Br2 O2'
_cell_volume   409.26218258
_cell_formula_units_Z   2
loop_
 _symmetry_equiv_pos_site_id
 _symmetry_equiv_pos_as_xyz
  1  'x, y, z'
loop_
 _atom_site_type_symbol
 _atom_site_label
 _atom_site_symmetry_multiplicity
 _atom_site_fract_x
 _atom_site_fract_y
 _atom_site_fract_z
 _atom_site_occupancy
  Cs  Cs0  1  0.75000000  0.84343126  0.15656874  1
  Cs  Cs1  1  0.25000000  0.15656874  0.84343126  1
  Cs  Cs2  1  0.75000000  0.31313747  0.15656874  1
  Cs  Cs3  1  0.25000000  0.68686253  0.84343126  1
  Cs  Cs4  1  0.75000000  0.84343126  0.68686253  1
  Cs  Cs5  1  0.25000000  0.15656874  0.31313747  1
  Br  Br6  1  0.25000000  0.66666700  0.33333300  1
  Br  Br7  1  0.75000000  0.33333300  0.66666700  1
  O  O8  1  -0.00000000  0.00000000  -0.00000000  1
  O  O9  1  0.50000000  0.00000000  -0.00000000  1
