# generated using pymatgen
data_Li4MnCo2O7
_symmetry_space_group_name_H-M   'P 1'
_cell_length_a   2.89431475
_cell_length_b   5.13813996
_cell_length_c   18.03259081
_cell_angle_alpha   100.38998343
_cell_angle_beta   94.60307887
_cell_angle_gamma   73.64128870
_symmetry_Int_Tables_number   1
_chemical_formula_structural   Li4MnCo2O7
_chemical_formula_sum   'Li8 Mn2 Co4 O14'
_cell_volume   252.97102195
_cell_formula_units_Z   2
loop_
 _symmetry_equiv_pos_site_id
 _symmetry_equiv_pos_as_xyz
  1  'x, y, z'
loop_
 _atom_site_type_symbol
 _atom_site_label
 _atom_site_symmetry_multiplicity
 _atom_site_fract_x
 _atom_site_fract_y
 _atom_site_fract_z
 _atom_site_occupancy
  Li  Li0  1  0.28801425  0.50316129  0.07919080  1
  Li  Li1  1  0.86189865  0.48574443  0.20954174  1
  Li  Li2  1  0.43577054  0.48054439  0.35208646  1
  Li  Li3  1  -0.00358678  0.50088565  0.49371208  1
  Li  Li4  1  0.57441239  0.49973626  0.64856005  1
  Li  Li5  1  0.14151564  0.50518699  0.78821826  1
  Li  Li6  1  0.70981839  0.51131810  0.93095387  1
  Li  Li7  1  0.56725569  0.00747254  0.14198292  1
  Mn  Mn8  1  0.99692935  0.01253615  0.00639484  1
  Mn  Mn9  1  0.28508932  0.00084249  0.57102212  1
  Co  Co10  1  0.14927605  0.97363058  0.27218267  1
  Co  Co11  1  0.71192816  0.99889199  0.42274731  1
  Co  Co12  1  0.85668262  0.00463051  0.71799575  1
  Co  Co13  1  0.42941253  0.00000262  0.85882868  1
  O  O14  1  0.37058532  0.22569518  0.96686582  1
  O  O15  1  0.93080887  0.23611260  0.09772933  1
  O  O16  1  0.51726421  0.21896086  0.25349027  1
  O  O17  1  0.07858121  0.23885817  0.39602058  1
  O  O18  1  0.66042267  0.21785491  0.53870125  1
  O  O19  1  0.22190074  0.22748375  0.67128524  1
  O  O20  1  0.79441456  0.23504969  0.82387781  1
  O  O21  1  0.21714586  0.74904491  0.18333764  1
  O  O22  1  0.77223684  0.77608673  0.32056042  1
  O  O23  1  0.34632179  0.77745066  0.47009323  1
  O  O24  1  0.91160046  0.78052479  0.60372571  1
  O  O25  1  0.49405252  0.76414155  0.75224560  1
  O  O26  1  0.05740295  0.78240313  0.89721004  1
  O  O27  1  0.62284521  0.78574910  0.03143952  1
