# generated using pymatgen
data_Ho2CdCu2
_symmetry_space_group_name_H-M   'P 1'
_cell_length_a   3.62631748
_cell_length_b   7.58605974
_cell_length_c   7.58605974
_cell_angle_alpha   90.00000000
_cell_angle_beta   90.00000000
_cell_angle_gamma   90.00000000
_symmetry_Int_Tables_number   1
_chemical_formula_structural   Ho2CdCu2
_chemical_formula_sum   'Ho4 Cd2 Cu4'
_cell_volume   208.68841486
_cell_formula_units_Z   2
loop_
 _symmetry_equiv_pos_site_id
 _symmetry_equiv_pos_as_xyz
  1  'x, y, z'
loop_
 _atom_site_type_symbol
 _atom_site_label
 _atom_site_symmetry_multiplicity
 _atom_site_fract_x
 _atom_site_fract_y
 _atom_site_fract_z
 _atom_site_occupancy
  Ho  Ho0  1  0.50000000  0.17637321  0.67637321  1
  Ho  Ho1  1  0.50000000  0.82362679  0.32362679  1
  Ho  Ho2  1  0.50000000  0.32362679  0.17637321  1
  Ho  Ho3  1  0.50000000  0.67637321  0.82362679  1
  Cd  Cd4  1  0.00000000  0.00000000  -0.00000000  1
  Cd  Cd5  1  0.00000000  0.50000000  0.50000000  1
  Cu  Cu6  1  -0.00000000  0.61719853  0.11719853  1
  Cu  Cu7  1  0.00000000  0.38280147  0.88280147  1
  Cu  Cu8  1  0.00000000  0.88280147  0.61719853  1
  Cu  Cu9  1  -0.00000000  0.11719853  0.38280147  1
