# generated using pymatgen
data_YRe2SiC
_symmetry_space_group_name_H-M   'P 1'
_cell_length_a   3.95928555
_cell_length_b   5.80737579
_cell_length_c   7.31729067
_cell_angle_alpha   90.00000000
_cell_angle_beta   90.00000000
_cell_angle_gamma   109.93075470
_symmetry_Int_Tables_number   1
_chemical_formula_structural   YRe2SiC
_chemical_formula_sum   'Y2 Re4 Si2 C2'
_cell_volume   158.16979677
_cell_formula_units_Z   2
loop_
 _symmetry_equiv_pos_site_id
 _symmetry_equiv_pos_as_xyz
  1  'x, y, z'
loop_
 _atom_site_type_symbol
 _atom_site_label
 _atom_site_symmetry_multiplicity
 _atom_site_fract_x
 _atom_site_fract_y
 _atom_site_fract_z
 _atom_site_occupancy
  Y  Y0  1  0.45642152  0.91284304  0.25000000  1
  Y  Y1  1  0.54357848  0.08715696  0.75000000  1
  Re  Re2  1  0.17381466  0.34762932  0.06081707  1
  Re  Re3  1  0.82618534  0.65237068  0.93918293  1
  Re  Re4  1  0.82618534  0.65237068  0.56081707  1
  Re  Re5  1  0.17381466  0.34762932  0.43918293  1
  Si  Si6  1  0.73434241  0.46868482  0.25000000  1
  Si  Si7  1  0.26565759  0.53131518  0.75000000  1
  C  C8  1  0.00000000  -0.00000000  0.00000000  1
  C  C9  1  0.00000000  0.00000000  0.50000000  1
