# generated using pymatgen
data_Li4MnCo2O7
_symmetry_space_group_name_H-M   'P 1'
_cell_length_a   2.86621693
_cell_length_b   5.09190052
_cell_length_c   18.16300451
_cell_angle_alpha   99.59806866
_cell_angle_beta   94.52549988
_cell_angle_gamma   73.65331537
_symmetry_Int_Tables_number   1
_chemical_formula_structural   Li4MnCo2O7
_chemical_formula_sum   'Li8 Mn2 Co4 O14'
_cell_volume   250.66035970
_cell_formula_units_Z   2
loop_
 _symmetry_equiv_pos_site_id
 _symmetry_equiv_pos_as_xyz
  1  'x, y, z'
loop_
 _atom_site_type_symbol
 _atom_site_label
 _atom_site_symmetry_multiplicity
 _atom_site_fract_x
 _atom_site_fract_y
 _atom_site_fract_z
 _atom_site_occupancy
  Li  Li0  1  0.28614434  0.50840285  0.08069253  1
  Li  Li1  1  0.86785338  0.47062708  0.20633384  1
  Li  Li2  1  0.43001401  0.49121866  0.35124768  1
  Li  Li3  1  0.00634168  0.48623451  0.49891787  1
  Li  Li4  1  0.56972558  0.49877208  0.63822223  1
  Li  Li5  1  0.13925374  0.50934457  0.78785205  1
  Li  Li6  1  0.71036101  0.51456757  0.93528858  1
  Li  Li7  1  0.56852291  0.00575820  0.14280302  1
  Mn  Mn8  1  0.99201239  0.02448348  0.00850826  1
  Mn  Mn9  1  0.85981308  0.99416478  0.71379095  1
  Co  Co10  1  0.14985314  0.97261053  0.27231681  1
  Co  Co11  1  0.71379292  0.99792085  0.42550568  1
  Co  Co12  1  0.29117018  0.98462047  0.56696183  1
  Co  Co13  1  0.42087846  0.02077740  0.86253532  1
  O  O14  1  0.36404224  0.24340742  0.97149189  1
  O  O15  1  0.93124577  0.23755697  0.10004750  1
  O  O16  1  0.51470054  0.22501959  0.25442168  1
  O  O17  1  0.09107906  0.21407185  0.39622997  1
  O  O18  1  0.65614134  0.21354468  0.52582836  1
  O  O19  1  0.22894592  0.22051237  0.67840420  1
  O  O20  1  0.79413862  0.24167603  0.82995226  1
  O  O21  1  0.21995390  0.74630336  0.18621216  1
  O  O22  1  0.77095592  0.78812414  0.33003597  1
  O  O23  1  0.33908459  0.77896729  0.45713546  1
  O  O24  1  0.92774125  0.74480851  0.60029102  1
  O  O25  1  0.48860639  0.77226353  0.74947531  1
  O  O26  1  0.04624435  0.80510781  0.89759750  1
  O  O27  1  0.62138331  0.78913342  0.03190004  1
