# generated using pymatgen
data_Tm2CoSi2
_symmetry_space_group_name_H-M   'P 1'
_cell_length_a   4.10336346
_cell_length_b   5.51568576
_cell_length_c   8.87899624
_cell_angle_alpha   82.90378254
_cell_angle_beta   76.63984804
_cell_angle_gamma   68.16270662
_symmetry_Int_Tables_number   1
_chemical_formula_structural   Tm2CoSi2
_chemical_formula_sum   'Tm4 Co2 Si4'
_cell_volume   181.33169838
_cell_formula_units_Z   2
loop_
 _symmetry_equiv_pos_site_id
 _symmetry_equiv_pos_as_xyz
  1  'x, y, z'
loop_
 _atom_site_type_symbol
 _atom_site_label
 _atom_site_symmetry_multiplicity
 _atom_site_fract_x
 _atom_site_fract_y
 _atom_site_fract_z
 _atom_site_occupancy
  Tm  Tm0  1  0.99755384  0.67486716  0.33002516  1
  Tm  Tm1  1  0.00244616  0.32513284  0.66997484  1
  Tm  Tm2  1  0.81413675  0.26457685  0.10714965  1
  Tm  Tm3  1  0.18586325  0.73542315  0.89285035  1
  Co  Co4  1  0.72687139  0.92054943  0.62570780  1
  Co  Co5  1  0.27312861  0.07945057  0.37429220  1
  Si  Si6  1  0.64904234  0.26872968  0.43318564  1
  Si  Si7  1  0.35095766  0.73127032  0.56681436  1
  Si  Si8  1  0.50829313  0.85895758  0.12445616  1
  Si  Si9  1  0.49170687  0.14104242  0.87554384  1
