# generated using pymatgen
data_UFe2SiC
_symmetry_space_group_name_H-M   'P 1'
_cell_length_a   3.70803023
_cell_length_b   5.66428622
_cell_length_c   6.52821781
_cell_angle_alpha   90.00000000
_cell_angle_beta   90.00000000
_cell_angle_gamma   109.10599187
_symmetry_Int_Tables_number   1
_chemical_formula_structural   UFe2SiC
_chemical_formula_sum   'U2 Fe4 Si2 C2'
_cell_volume   129.56141790
_cell_formula_units_Z   2
loop_
 _symmetry_equiv_pos_site_id
 _symmetry_equiv_pos_as_xyz
  1  'x, y, z'
loop_
 _atom_site_type_symbol
 _atom_site_label
 _atom_site_symmetry_multiplicity
 _atom_site_fract_x
 _atom_site_fract_y
 _atom_site_fract_z
 _atom_site_occupancy
  U  U0  1  0.43658599  0.87317197  0.25000000  1
  U  U1  1  0.56341401  0.12682803  0.75000000  1
  Fe  Fe2  1  0.16329289  0.32658579  0.05085445  1
  Fe  Fe3  1  0.83670711  0.67341421  0.94914555  1
  Fe  Fe4  1  0.83670711  0.67341421  0.55085445  1
  Fe  Fe5  1  0.16329289  0.32658579  0.44914555  1
  Si  Si6  1  0.71870152  0.43740303  0.25000000  1
  Si  Si7  1  0.28129848  0.56259697  0.75000000  1
  C  C8  1  -0.00000000  -0.00000000  0.00000000  1
  C  C9  1  -0.00000000  -0.00000000  0.50000000  1
