# generated using pymatgen
data_LuAgGe
_symmetry_space_group_name_H-M   'P 1'
_cell_length_a   4.13422711
_cell_length_b   7.10481878
_cell_length_c   7.10481878
_cell_angle_alpha   120.00000648
_cell_angle_beta   90.00000000
_cell_angle_gamma   90.00000000
_symmetry_Int_Tables_number   1
_chemical_formula_structural   LuAgGe
_chemical_formula_sum   'Lu3 Ag3 Ge3'
_cell_volume   180.73028913
_cell_formula_units_Z   3
loop_
 _symmetry_equiv_pos_site_id
 _symmetry_equiv_pos_as_xyz
  1  'x, y, z'
loop_
 _atom_site_type_symbol
 _atom_site_label
 _atom_site_symmetry_multiplicity
 _atom_site_fract_x
 _atom_site_fract_y
 _atom_site_fract_z
 _atom_site_occupancy
  Lu  Lu0  1  -0.00000000  0.41358760  0.41358760  1
  Lu  Lu1  1  -0.00000000  0.00000000  0.58641240  1
  Lu  Lu2  1  0.00000000  0.58641240  0.00000000  1
  Ag  Ag3  1  0.50000000  0.74601824  0.74601824  1
  Ag  Ag4  1  0.50000000  1.00000000  0.25398176  1
  Ag  Ag5  1  0.50000000  0.25398176  1.00000000  1
  Ge  Ge6  1  0.50000000  0.66666700  0.33333300  1
  Ge  Ge7  1  0.50000000  0.33333300  0.66666700  1
  Ge  Ge8  1  0.00000000  -0.00000000  0.00000000  1
