# generated using pymatgen
data_Li7Mn2(CoO4)3
_symmetry_space_group_name_H-M   'P 1'
_cell_length_a   4.98738398
_cell_length_b   6.49777975
_cell_length_c   6.81669068
_cell_angle_alpha   84.59416092
_cell_angle_beta   99.61155928
_cell_angle_gamma   97.14290670
_symmetry_Int_Tables_number   1
_chemical_formula_structural   Li7Mn2(CoO4)3
_chemical_formula_sum   'Li7 Mn2 Co3 O12'
_cell_volume   215.50663378
_cell_formula_units_Z   1
loop_
 _symmetry_equiv_pos_site_id
 _symmetry_equiv_pos_as_xyz
  1  'x, y, z'
loop_
 _atom_site_type_symbol
 _atom_site_label
 _atom_site_symmetry_multiplicity
 _atom_site_fract_x
 _atom_site_fract_y
 _atom_site_fract_z
 _atom_site_occupancy
  Li  Li0  1  0.74323629  0.25889135  0.25482924  1
  Li  Li1  1  0.75268967  0.57863476  0.91421286  1
  Li  Li2  1  0.25183369  0.09194311  0.41830858  1
  Li  Li3  1  0.24751512  0.41830594  0.08812355  1
  Li  Li4  1  0.75538558  0.91021970  0.57433474  1
  Li  Li5  1  0.25223736  0.74063741  0.75129075  1
  Li  Li6  1  0.50253168  0.49966307  0.49789754  1
  Mn  Mn7  1  0.00059495  -0.00042537  0.00071414  1
  Mn  Mn8  1  0.49854485  0.82717448  0.17249313  1
  Co  Co9  1  -0.00046363  0.34295800  0.65515883  1
  Co  Co10  1  0.00020347  0.66150004  0.33905353  1
  Co  Co11  1  0.50186070  0.17222776  0.82718268  1
  O  O12  1  0.85895401  0.27243907  0.96009138  1
  O  O13  1  0.88702938  0.60648439  0.63048427  1
  O  O14  1  0.36905999  0.10869009  0.12080335  1
  O  O15  1  0.34044837  0.44160184  0.78329864  1
  O  O16  1  0.85889462  0.93160566  0.29517327  1
  O  O17  1  0.36376066  0.79163676  0.42318819  1
  O  O18  1  0.65896680  0.21261511  0.56364931  1
  O  O19  1  0.63365201  0.56396468  0.20812139  1
  O  O20  1  0.14265012  0.06554725  0.70365996  1
  O  O21  1  0.10793568  0.39572637  0.37582022  1
  O  O22  1  0.62915335  0.87856074  0.90370895  1
  O  O23  1  0.14332527  0.72939778  0.03840152  1
