# generated using pymatgen
data_PrMgIn
_symmetry_space_group_name_H-M   'P 1'
_cell_length_a   4.74353993
_cell_length_b   7.83819283
_cell_length_c   7.83819283
_cell_angle_alpha   120.00000380
_cell_angle_beta   90.00000000
_cell_angle_gamma   90.00000000
_symmetry_Int_Tables_number   1
_chemical_formula_structural   PrMgIn
_chemical_formula_sum   'Pr3 Mg3 In3'
_cell_volume   252.38588499
_cell_formula_units_Z   3
loop_
 _symmetry_equiv_pos_site_id
 _symmetry_equiv_pos_as_xyz
  1  'x, y, z'
loop_
 _atom_site_type_symbol
 _atom_site_label
 _atom_site_symmetry_multiplicity
 _atom_site_fract_x
 _atom_site_fract_y
 _atom_site_fract_z
 _atom_site_occupancy
  Pr  Pr0  1  0.00000000  0.42147746  0.42147746  1
  Pr  Pr1  1  -0.00000000  0.00000000  0.57852254  1
  Pr  Pr2  1  0.00000000  0.57852254  0.00000000  1
  Mg  Mg3  1  0.50000000  0.75589391  0.75589391  1
  Mg  Mg4  1  0.50000000  0.00000000  0.24410609  1
  Mg  Mg5  1  0.50000000  0.24410609  0.00000000  1
  In  In6  1  0.50000000  0.66666700  0.33333300  1
  In  In7  1  0.50000000  0.33333300  0.66666700  1
  In  In8  1  0.00000000  -0.00000000  0.00000000  1
