# generated using pymatgen
data_Sm2CdAu2
_symmetry_space_group_name_H-M   'P 1'
_cell_length_a   3.75021351
_cell_length_b   8.17794953
_cell_length_c   8.17794953
_cell_angle_alpha   90.00000000
_cell_angle_beta   90.00000000
_cell_angle_gamma   90.00000000
_symmetry_Int_Tables_number   1
_chemical_formula_structural   Sm2CdAu2
_chemical_formula_sum   'Sm4 Cd2 Au4'
_cell_volume   250.80999874
_cell_formula_units_Z   2
loop_
 _symmetry_equiv_pos_site_id
 _symmetry_equiv_pos_as_xyz
  1  'x, y, z'
loop_
 _atom_site_type_symbol
 _atom_site_label
 _atom_site_symmetry_multiplicity
 _atom_site_fract_x
 _atom_site_fract_y
 _atom_site_fract_z
 _atom_site_occupancy
  Sm  Sm0  1  0.50000000  0.16902653  0.66902653  1
  Sm  Sm1  1  0.50000000  0.83097347  0.33097347  1
  Sm  Sm2  1  0.50000000  0.33097347  0.16902653  1
  Sm  Sm3  1  0.50000000  0.66902653  0.83097347  1
  Cd  Cd4  1  0.00000000  -0.00000000  0.00000000  1
  Cd  Cd5  1  -0.00000000  0.50000000  0.50000000  1
  Au  Au6  1  -0.00000000  0.62960459  0.12960459  1
  Au  Au7  1  0.00000000  0.37039541  0.87039541  1
  Au  Au8  1  0.00000000  0.87039541  0.62960459  1
  Au  Au9  1  -0.00000000  0.12960459  0.37039541  1
