# generated using pymatgen
data_Y7(TeAu)2
_symmetry_space_group_name_H-M   'P 1'
_cell_length_a   4.07316903
_cell_length_b   9.48286114
_cell_length_c   9.48286114
_cell_angle_alpha   62.35497684
_cell_angle_beta   77.59826992
_cell_angle_gamma   77.59826992
_symmetry_Int_Tables_number   1
_chemical_formula_structural   Y7(TeAu)2
_chemical_formula_sum   'Y7 Te2 Au2'
_cell_volume   314.07498068
_cell_formula_units_Z   1
loop_
 _symmetry_equiv_pos_site_id
 _symmetry_equiv_pos_as_xyz
  1  'x, y, z'
loop_
 _atom_site_type_symbol
 _atom_site_label
 _atom_site_symmetry_multiplicity
 _atom_site_fract_x
 _atom_site_fract_y
 _atom_site_fract_z
 _atom_site_occupancy
  Y  Y0  1  0.12540938  0.45859334  0.29058789  1
  Y  Y1  1  0.87459062  0.70941211  0.54140666  1
  Y  Y2  1  0.31641722  0.05866555  0.30850000  1
  Y  Y3  1  0.68358278  0.69150000  0.94133445  1
  Y  Y4  1  0.35990718  0.37762352  0.90256213  1
  Y  Y5  1  0.64009282  0.09743787  0.62237648  1
  Y  Y6  1  0.00000000  0.99601525  0.00398475  1
  Te  Te7  1  0.50000000  0.73706794  0.26293206  1
  Te  Te8  1  0.00000000  0.33592929  0.66407071  1
  Au  Au9  1  0.23688328  0.83656429  0.68966916  1
  Au  Au10  1  0.76311672  0.31033084  0.16343571  1
