# generated using pymatgen
data_Li7Mn2(CoO4)3
_symmetry_space_group_name_H-M   'P 1'
_cell_length_a   2.97419394
_cell_length_b   7.60238699
_cell_length_c   9.88637274
_cell_angle_alpha   78.95575748
_cell_angle_beta   92.40645905
_cell_angle_gamma   80.96345310
_symmetry_Int_Tables_number   1
_chemical_formula_structural   Li7Mn2(CoO4)3
_chemical_formula_sum   'Li7 Mn2 Co3 O12'
_cell_volume   216.07744622
_cell_formula_units_Z   1
loop_
 _symmetry_equiv_pos_site_id
 _symmetry_equiv_pos_as_xyz
  1  'x, y, z'
loop_
 _atom_site_type_symbol
 _atom_site_label
 _atom_site_symmetry_multiplicity
 _atom_site_fract_x
 _atom_site_fract_y
 _atom_site_fract_z
 _atom_site_occupancy
  Li  Li0  1  0.91829919  0.15634018  0.26112852  1
  Li  Li1  1  0.41679048  0.17249176  0.74653720  1
  Li  Li2  1  0.26212321  0.49858694  0.24541811  1
  Li  Li3  1  0.75833915  0.49487312  0.75069603  1
  Li  Li4  1  0.57023232  0.84106558  0.25698702  1
  Li  Li5  1  0.07471669  0.83839155  0.74696505  1
  Li  Li6  1  0.51162742  0.99894142  0.49060996  1
  Mn  Mn7  1  0.99195301  0.99924067  0.99891702  1
  Mn  Mn8  1  0.16087968  0.67299095  0.50014051  1
  Co  Co9  1  0.33181738  0.33641640  0.00225580  1
  Co  Co10  1  0.83810923  0.31853844  0.50406363  1
  Co  Co11  1  0.67496529  0.66562322  0.99837569  1
  O  O12  1  0.41006985  0.09287843  0.11812808  1
  O  O13  1  0.94087964  0.10805663  0.61610498  1
  O  O14  1  0.79845247  0.42795748  0.11434695  1
  O  O15  1  0.25975783  0.42104569  0.61150180  1
  O  O16  1  0.09295224  0.75339955  0.11192680  1
  O  O17  1  0.64844500  0.73757286  0.60992474  1
  O  O18  1  0.39605878  0.26396339  0.38562084  1
  O  O19  1  0.86487572  0.24481898  0.88595613  1
  O  O20  1  0.69334140  0.57842890  0.39829466  1
  O  O21  1  0.25438812  0.57677237  0.88410726  1
  O  O22  1  0.05697585  0.89537664  0.38138559  1
  O  O23  1  0.57395004  0.90622885  0.88060765  1
