# generated using pymatgen
data_RbTlO
_symmetry_space_group_name_H-M   'P 1'
_cell_length_a   3.78259921
_cell_length_b   6.54852994
_cell_length_c   7.09623666
_cell_angle_alpha   106.27808292
_cell_angle_beta   105.45738454
_cell_angle_gamma   90.00000000
_symmetry_Int_Tables_number   1
_chemical_formula_structural   RbTlO
_chemical_formula_sum   'Rb2 Tl2 O2'
_cell_volume   162.09643299
_cell_formula_units_Z   2
loop_
 _symmetry_equiv_pos_site_id
 _symmetry_equiv_pos_as_xyz
  1  'x, y, z'
loop_
 _atom_site_type_symbol
 _atom_site_label
 _atom_site_symmetry_multiplicity
 _atom_site_fract_x
 _atom_site_fract_y
 _atom_site_fract_z
 _atom_site_occupancy
  Rb  Rb0  1  0.12609962  0.34467037  0.25219925  1
  Rb  Rb1  1  0.87390038  0.65532963  0.74780075  1
  Tl  Tl2  1  0.35526077  0.14552076  0.71052155  1
  Tl  Tl3  1  0.64473923  0.85447924  0.28947845  1
  O  O4  1  0.75066027  0.21204617  0.50132053  1
  O  O5  1  0.24933973  0.78795383  0.49867947  1
