# generated using pymatgen
data_SmRe2SiC
_symmetry_space_group_name_H-M   'P 1'
_cell_length_a   4.00090958
_cell_length_b   5.81540841
_cell_length_c   7.33355103
_cell_angle_alpha   90.00000000
_cell_angle_beta   90.00000000
_cell_angle_gamma   110.12028888
_symmetry_Int_Tables_number   1
_chemical_formula_structural   SmRe2SiC
_chemical_formula_sum   'Sm2 Re4 Si2 C2'
_cell_volume   160.21609734
_cell_formula_units_Z   2
loop_
 _symmetry_equiv_pos_site_id
 _symmetry_equiv_pos_as_xyz
  1  'x, y, z'
loop_
 _atom_site_type_symbol
 _atom_site_label
 _atom_site_symmetry_multiplicity
 _atom_site_fract_x
 _atom_site_fract_y
 _atom_site_fract_z
 _atom_site_occupancy
  Sm  Sm0  1  0.45600245  0.91200489  0.25000000  1
  Sm  Sm1  1  0.54399755  0.08799511  0.75000000  1
  Re  Re2  1  0.17444893  0.34889785  0.06126710  1
  Re  Re3  1  0.82555107  0.65110215  0.93873290  1
  Re  Re4  1  0.82555107  0.65110215  0.56126710  1
  Re  Re5  1  0.17444893  0.34889785  0.43873290  1
  Si  Si6  1  0.73403075  0.46806151  0.25000000  1
  Si  Si7  1  0.26596925  0.53193849  0.75000000  1
  C  C8  1  0.00000000  -0.00000000  0.00000000  1
  C  C9  1  0.00000000  -0.00000000  0.50000000  1
