# generated using pymatgen
data_Li7Mn2(CoO4)3
_symmetry_space_group_name_H-M   'P 1'
_cell_length_a   2.97198550
_cell_length_b   7.60288466
_cell_length_c   9.87037443
_cell_angle_alpha   78.95458370
_cell_angle_beta   92.30566304
_cell_angle_gamma   80.75500782
_symmetry_Int_Tables_number   1
_chemical_formula_structural   Li7Mn2(CoO4)3
_chemical_formula_sum   'Li7 Mn2 Co3 O12'
_cell_volume   215.47159749
_cell_formula_units_Z   1
loop_
 _symmetry_equiv_pos_site_id
 _symmetry_equiv_pos_as_xyz
  1  'x, y, z'
loop_
 _atom_site_type_symbol
 _atom_site_label
 _atom_site_symmetry_multiplicity
 _atom_site_fract_x
 _atom_site_fract_y
 _atom_site_fract_z
 _atom_site_occupancy
  Li  Li0  1  0.90537758  0.17211401  0.24767891  1
  Li  Li1  1  0.40471063  0.17592020  0.75513802  1
  Li  Li2  1  0.25230237  0.50298846  0.24721759  1
  Li  Li3  1  0.75515882  0.48739667  0.76205933  1
  Li  Li4  1  0.58964149  0.83082568  0.24844989  1
  Li  Li5  1  0.08959019  0.83238396  0.74720264  1
  Li  Li6  1  0.34258243  0.33249064  0.99156481  1
  Mn  Mn7  1  0.99498381  0.00693163  0.99955424  1
  Mn  Mn8  1  0.17080991  0.66756073  0.50203920  1
  Co  Co9  1  0.49360476  0.00199886  0.49780217  1
  Co  Co10  1  0.83625306  0.32963953  0.49932256  1
  Co  Co11  1  0.67108431  0.65121831  0.00445617  1
  O  O12  1  0.48200184  0.07165692  0.10931079  1
  O  O13  1  0.91609694  0.08832015  0.61253390  1
  O  O14  1  0.77418148  0.44096112  0.11642274  1
  O  O15  1  0.29738192  0.42345300  0.61633426  1
  O  O16  1  0.09526578  0.75485192  0.11096983  1
  O  O17  1  0.59385676  0.76360210  0.61626136  1
  O  O18  1  0.36902656  0.24078830  0.38268462  1
  O  O19  1  0.89071638  0.22918624  0.88072061  1
  O  O20  1  0.74901427  0.57466646  0.38374299  1
  O  O21  1  0.22525043  0.59677445  0.88628284  1
  O  O22  1  0.07433575  0.91226377  0.38445914  1
  O  O23  1  0.52677253  0.91200688  0.89779136  1
