# generated using pymatgen
data_ErMn2SiC
_symmetry_space_group_name_H-M   'P 1'
_cell_length_a   3.67761064
_cell_length_b   5.59200628
_cell_length_c   6.97634080
_cell_angle_alpha   90.00000000
_cell_angle_beta   90.00000000
_cell_angle_gamma   109.19761904
_symmetry_Int_Tables_number   1
_chemical_formula_structural   ErMn2SiC
_chemical_formula_sum   'Er2 Mn4 Si2 C2'
_cell_volume   135.49163451
_cell_formula_units_Z   2
loop_
 _symmetry_equiv_pos_site_id
 _symmetry_equiv_pos_as_xyz
  1  'x, y, z'
loop_
 _atom_site_type_symbol
 _atom_site_label
 _atom_site_symmetry_multiplicity
 _atom_site_fract_x
 _atom_site_fract_y
 _atom_site_fract_z
 _atom_site_occupancy
  Er  Er0  1  0.45639696  0.91279393  0.25000000  1
  Er  Er1  1  0.54360304  0.08720607  0.75000000  1
  Mn  Mn2  1  0.16787248  0.33574497  0.06117478  1
  Mn  Mn3  1  0.83212752  0.66425503  0.93882522  1
  Mn  Mn4  1  0.83212752  0.66425503  0.56117478  1
  Mn  Mn5  1  0.16787248  0.33574497  0.43882522  1
  Si  Si6  1  0.73560843  0.47121686  0.25000000  1
  Si  Si7  1  0.26439157  0.52878314  0.75000000  1
  C  C8  1  0.00000000  0.00000000  -0.00000000  1
  C  C9  1  0.00000000  0.00000000  0.50000000  1
