# generated using pymatgen
data_NdMgIn
_symmetry_space_group_name_H-M   'P 1'
_cell_length_a   4.74822533
_cell_length_b   7.75559737
_cell_length_c   7.75559737
_cell_angle_alpha   119.99999461
_cell_angle_beta   90.00000000
_cell_angle_gamma   90.00000000
_symmetry_Int_Tables_number   1
_chemical_formula_structural   NdMgIn
_chemical_formula_sum   'Nd3 Mg3 In3'
_cell_volume   247.33893415
_cell_formula_units_Z   3
loop_
 _symmetry_equiv_pos_site_id
 _symmetry_equiv_pos_as_xyz
  1  'x, y, z'
loop_
 _atom_site_type_symbol
 _atom_site_label
 _atom_site_symmetry_multiplicity
 _atom_site_fract_x
 _atom_site_fract_y
 _atom_site_fract_z
 _atom_site_occupancy
  Nd  Nd0  1  -0.00000000  0.42741547  0.42741547  1
  Nd  Nd1  1  -0.00000000  0.00000000  0.57258453  1
  Nd  Nd2  1  0.00000000  0.57258453  0.00000000  1
  Mg  Mg3  1  0.50000000  0.75802971  0.75802971  1
  Mg  Mg4  1  0.50000000  0.00000000  0.24197029  1
  Mg  Mg5  1  0.50000000  0.24197029  0.00000000  1
  In  In6  1  0.50000000  0.66666700  0.33333300  1
  In  In7  1  0.50000000  0.33333300  0.66666700  1
  In  In8  1  -0.00000000  0.00000000  0.00000000  1
