# generated using pymatgen
data_Li7Mn2(CoO4)3
_symmetry_space_group_name_H-M   'P 1'
_cell_length_a   2.97332584
_cell_length_b   12.03718783
_cell_length_c   6.43077629
_cell_angle_alpha   104.69689260
_cell_angle_beta   76.66106858
_cell_angle_gamma   86.75661572
_symmetry_Int_Tables_number   1
_chemical_formula_structural   Li7Mn2(CoO4)3
_chemical_formula_sum   'Li7 Mn2 Co3 O12'
_cell_volume   214.99779123
_cell_formula_units_Z   1
loop_
 _symmetry_equiv_pos_site_id
 _symmetry_equiv_pos_as_xyz
  1  'x, y, z'
loop_
 _atom_site_type_symbol
 _atom_site_label
 _atom_site_symmetry_multiplicity
 _atom_site_fract_x
 _atom_site_fract_y
 _atom_site_fract_z
 _atom_site_occupancy
  Li  Li0  1  0.74388372  0.25239186  0.25362650  1
  Li  Li1  1  0.74136089  0.58378016  0.92597968  1
  Li  Li2  1  0.24997863  0.41681823  0.07799610  1
  Li  Li3  1  0.25471145  0.74943641  0.75229016  1
  Li  Li4  1  0.75656596  0.91611058  0.56729777  1
  Li  Li5  1  0.26094610  0.07594679  0.41564267  1
  Li  Li6  1  0.48419730  0.83871223  0.17720760  1
  Mn  Mn7  1  0.00304086  0.99565045  0.00528420  1
  Mn  Mn8  1  0.49738316  0.50042137  0.49902558  1
  Co  Co9  1  0.00372751  0.33171776  0.66625674  1
  Co  Co10  1  0.99128329  0.67476166  0.32700684  1
  Co  Co11  1  0.51358919  0.16545379  0.82972193  1
  O  O12  1  0.41934393  0.11263007  0.09796136  1
  O  O13  1  0.35649640  0.45331421  0.77461332  1
  O  O14  1  0.86097425  0.28618610  0.93956010  1
  O  O15  1  0.86047695  0.62504239  0.60319111  1
  O  O16  1  0.35480125  0.78141256  0.45070347  1
  O  O17  1  0.87470152  0.96430094  0.27385864  1
  O  O18  1  0.14228809  0.37435565  0.38851071  1
  O  O19  1  0.12202559  0.70084934  0.06697485  1
  O  O20  1  0.63707682  0.54580946  0.22608044  1
  O  O21  1  0.58798957  0.89150205  0.88987451  1
  O  O22  1  0.14509310  0.04859693  0.72798091  1
  O  O23  1  0.63806447  0.21479901  0.56335480  1
