# generated using pymatgen
data_MoPd2
_symmetry_space_group_name_H-M   'P 1'
_cell_length_a   2.77869386
_cell_length_b   3.96664211
_cell_length_c   4.80670836
_cell_angle_alpha   114.36922533
_cell_angle_beta   106.80069472
_cell_angle_gamma   90.00000000
_symmetry_Int_Tables_number   1
_chemical_formula_structural   MoPd2
_chemical_formula_sum   'Mo1 Pd2'
_cell_volume   45.76567452
_cell_formula_units_Z   1
loop_
 _symmetry_equiv_pos_site_id
 _symmetry_equiv_pos_as_xyz
  1  'x, y, z'
loop_
 _atom_site_type_symbol
 _atom_site_label
 _atom_site_symmetry_multiplicity
 _atom_site_fract_x
 _atom_site_fract_y
 _atom_site_fract_z
 _atom_site_occupancy
  Mo  Mo0  1  0.00000000  0.00000000  0.00000000  1
  Pd  Pd1  1  0.33452420  0.33452420  0.66904841  1
  Pd  Pd2  1  0.66547580  0.66547580  0.33095159  1
