# generated using pymatgen
data_H12C2N14O
_symmetry_space_group_name_H-M   'P 1'
_cell_length_a   3.82205055
_cell_length_b   9.07812086
_cell_length_c   16.06799218
_cell_angle_alpha   96.58186326
_cell_angle_beta   90.00000000
_cell_angle_gamma   90.00000000
_symmetry_Int_Tables_number   1
_chemical_formula_structural   H12C2N14O
_chemical_formula_sum   'H24 C4 N28 O2'
_cell_volume   553.83721182
_cell_formula_units_Z   2
loop_
 _symmetry_equiv_pos_site_id
 _symmetry_equiv_pos_as_xyz
  1  'x, y, z'
loop_
 _atom_site_type_symbol
 _atom_site_label
 _atom_site_symmetry_multiplicity
 _atom_site_fract_x
 _atom_site_fract_y
 _atom_site_fract_z
 _atom_site_occupancy
  H  H0  1  0.68585267  0.54975896  0.12854965  1
  H  H1  1  0.68585267  0.45024104  0.37145035  1
  H  H2  1  0.31414733  0.45024104  0.87145035  1
  H  H3  1  0.31414733  0.54975896  0.62854965  1
  H  H4  1  0.54045192  0.85695393  0.17250735  1
  H  H5  1  0.54045192  0.14304607  0.32749265  1
  H  H6  1  0.45954808  0.14304607  0.82749265  1
  H  H7  1  0.45954808  0.85695393  0.67250735  1
  H  H8  1  0.54276228  0.76570949  0.07187178  1
  H  H9  1  0.54276228  0.23429051  0.42812822  1
  H  H10  1  0.45723772  0.23429051  0.92812822  1
  H  H11  1  0.45723772  0.76570949  0.57187178  1
  H  H12  1  0.23137834  0.72060826  0.14414957  1
  H  H13  1  0.23137834  0.27939174  0.35585043  1
  H  H14  1  0.76862166  0.27939174  0.85585043  1
  H  H15  1  0.76862166  0.72060826  0.64414957  1
  H  H16  1  0.09954005  0.93820320  0.78159167  1
  H  H17  1  0.09954005  0.06179680  0.71840833  1
  H  H18  1  0.90045995  0.06179680  0.21840833  1
  H  H19  1  0.90045995  0.93820320  0.28159167  1
  H  H20  1  0.70132343  0.64293083  0.22301214  1
  H  H21  1  0.70132343  0.35706917  0.27698786  1
  H  H22  1  0.29867657  0.35706917  0.77698786  1
  H  H23  1  0.29867657  0.64293083  0.72301214  1
  C  C24  1  0.84786775  0.85679025  0.92738475  1
  C  C25  1  0.84786775  0.14320975  0.57261525  1
  C  C26  1  0.15213225  0.14320975  0.07261525  1
  C  C27  1  0.15213225  0.85679025  0.42738475  1
  N  N28  1  0.59244472  0.64741730  0.90617568  1
  N  N29  1  0.59244472  0.35258270  0.59382432  1
  N  N30  1  0.40755528  0.35258270  0.09382432  1
  N  N31  1  0.40755528  0.64741730  0.40617568  1
  N  N32  1  0.99484277  0.99014620  0.95997059  1
  N  N33  1  0.99484277  0.00985380  0.54002941  1
  N  N34  1  0.00515723  0.00985380  0.04002941  1
  N  N35  1  0.00515723  0.99014620  0.45997059  1
  N  N36  1  0.85057603  0.81842093  0.84364730  1
  N  N37  1  0.85057603  0.18157907  0.65635270  1
  N  N38  1  0.14942397  0.18157907  0.15635270  1
  N  N39  1  0.14942397  0.81842093  0.34364730  1
  N  N40  1  0.68792329  0.75166995  0.96705359  1
  N  N41  1  0.68792329  0.24833005  0.53294641  1
  N  N42  1  0.31207671  0.24833005  0.03294641  1
  N  N43  1  0.31207671  0.75166995  0.46705359  1
  N  N44  1  0.69165003  0.68703594  0.83177827  1
  N  N45  1  0.69165003  0.31296406  0.66822173  1
  N  N46  1  0.30834997  0.31296406  0.16822173  1
  N  N47  1  0.30834997  0.68703594  0.33177827  1
  N  N48  1  0.49163948  0.75549153  0.13613214  1
  N  N49  1  0.49163948  0.24450847  0.36386786  1
  N  N50  1  0.50836052  0.24450847  0.86386786  1
  N  N51  1  0.50836052  0.75549153  0.63613214  1
  N  N52  1  0.75030051  0.65149365  0.16071376  1
  N  N53  1  0.75030051  0.34850635  0.33928624  1
  N  N54  1  0.24969949  0.34850635  0.83928624  1
  N  N55  1  0.24969949  0.65149365  0.66071376  1
  O  O56  1  0.25718338  -0.00000000  0.75000000  1
  O  O57  1  0.74281662  -0.00000000  0.25000000  1
