# generated using pymatgen
data_Yb2GaNi2
_symmetry_space_group_name_H-M   'P 1'
_cell_length_a   4.09530824
_cell_length_b   5.25660975
_cell_length_c   5.41597216
_cell_angle_alpha   119.03133065
_cell_angle_beta   112.21460964
_cell_angle_gamma   90.00000000
_symmetry_Int_Tables_number   1
_chemical_formula_structural   Yb2GaNi2
_chemical_formula_sum   'Yb2 Ga1 Ni2'
_cell_volume   91.91958571
_cell_formula_units_Z   1
loop_
 _symmetry_equiv_pos_site_id
 _symmetry_equiv_pos_as_xyz
  1  'x, y, z'
loop_
 _atom_site_type_symbol
 _atom_site_label
 _atom_site_symmetry_multiplicity
 _atom_site_fract_x
 _atom_site_fract_y
 _atom_site_fract_z
 _atom_site_occupancy
  Yb  Yb0  1  0.80071786  0.30071786  0.60143571  1
  Yb  Yb1  1  0.19928214  0.69928214  0.39856429  1
  Ga  Ga2  1  0.00000000  0.00000000  0.00000000  1
  Ni  Ni3  1  0.50000000  0.26180251  0.00000000  1
  Ni  Ni4  1  0.50000000  0.73819749  1.00000000  1
