# generated using pymatgen
data_Dy2GaNi2
_symmetry_space_group_name_H-M   'P 1'
_cell_length_a   4.21389998
_cell_length_b   5.36571524
_cell_length_c   5.36957506
_cell_angle_alpha   119.97622912
_cell_angle_beta   113.10309510
_cell_angle_gamma   90.00000000
_symmetry_Int_Tables_number   1
_chemical_formula_structural   Dy2GaNi2
_chemical_formula_sum   'Dy2 Ga1 Ni2'
_cell_volume   93.75999938
_cell_formula_units_Z   1
loop_
 _symmetry_equiv_pos_site_id
 _symmetry_equiv_pos_as_xyz
  1  'x, y, z'
loop_
 _atom_site_type_symbol
 _atom_site_label
 _atom_site_symmetry_multiplicity
 _atom_site_fract_x
 _atom_site_fract_y
 _atom_site_fract_z
 _atom_site_occupancy
  Dy  Dy0  1  0.79838006  0.29838006  0.59676011  1
  Dy  Dy1  1  0.20161994  0.70161994  0.40323989  1
  Ga  Ga2  1  -0.00000000  -0.00000000  -0.00000000  1
  Ni  Ni3  1  0.50000000  0.26702545  1.00000000  1
  Ni  Ni4  1  0.50000000  0.73297455  0.00000000  1
