# generated using pymatgen
data_Li7Mn2(CoO4)3
_symmetry_space_group_name_H-M   'P 1'
_cell_length_a   2.97747292
_cell_length_b   12.05376964
_cell_length_c   6.44031258
_cell_angle_alpha   104.82147660
_cell_angle_beta   76.65046060
_cell_angle_gamma   86.56213439
_symmetry_Int_Tables_number   1
_chemical_formula_structural   Li7Mn2(CoO4)3
_chemical_formula_sum   'Li7 Mn2 Co3 O12'
_cell_volume   215.66515452
_cell_formula_units_Z   1
loop_
 _symmetry_equiv_pos_site_id
 _symmetry_equiv_pos_as_xyz
  1  'x, y, z'
loop_
 _atom_site_type_symbol
 _atom_site_label
 _atom_site_symmetry_multiplicity
 _atom_site_fract_x
 _atom_site_fract_y
 _atom_site_fract_z
 _atom_site_occupancy
  Li  Li0  1  0.74564996  0.25175086  0.25061363  1
  Li  Li1  1  0.75749896  0.58106636  0.91878467  1
  Li  Li2  1  0.24242376  0.41675290  0.08716760  1
  Li  Li3  1  0.25884156  0.74849548  0.73420479  1
  Li  Li4  1  0.76475586  0.90829654  0.57706323  1
  Li  Li5  1  0.23794522  0.08825335  0.42641054  1
  Li  Li6  1  0.98201868  0.67066357  0.34527248  1
  Mn  Mn7  1  0.01071961  0.00003195  0.99496966  1
  Mn  Mn8  1  0.50560784  0.82711350  0.17164452  1
  Co  Co9  1  0.00020201  0.33427511  0.66492731  1
  Co  Co10  1  0.49325551  0.50591855  0.49413149  1
  Co  Co11  1  0.49986244  0.16919693  0.83231740  1
  O  O12  1  0.35867706  0.12479170  0.11008006  1
  O  O13  1  0.36230108  0.45471440  0.76550561  1
  O  O14  1  0.85956775  0.28864742  0.93582282  1
  O  O15  1  0.85139243  0.61273302  0.61870471  1
  O  O16  1  0.37329474  0.79611440  0.44172679  1
  O  O17  1  0.92055533  0.94465982  0.26726261  1
  O  O18  1  0.13629161  0.37956030  0.39785527  1
  O  O19  1  0.08433988  0.72322383  0.05805453  1
  O  O20  1  0.61996301  0.53268172  0.23426155  1
  O  O21  1  0.65094825  0.87791700  0.89111777  1
  O  O22  1  0.14431613  0.05021956  0.72246768  1
  O  O23  1  0.63957133  0.21292172  0.55963330  1
