# generated using pymatgen
data_Pr2GaNi2
_symmetry_space_group_name_H-M   'P 1'
_cell_length_a   4.28788400
_cell_length_b   5.53971497
_cell_length_c   5.53971497
_cell_angle_alpha   59.33932693
_cell_angle_beta   67.23122504
_cell_angle_gamma   67.23122504
_symmetry_Int_Tables_number   1
_chemical_formula_structural   Pr2GaNi2
_chemical_formula_sum   'Pr2 Ga1 Ni2'
_cell_volume   101.34453615
_cell_formula_units_Z   1
loop_
 _symmetry_equiv_pos_site_id
 _symmetry_equiv_pos_as_xyz
  1  'x, y, z'
loop_
 _atom_site_type_symbol
 _atom_site_label
 _atom_site_symmetry_multiplicity
 _atom_site_fract_x
 _atom_site_fract_y
 _atom_site_fract_z
 _atom_site_occupancy
  Pr  Pr0  1  0.20229486  0.29770514  0.29770514  1
  Pr  Pr1  1  0.79770514  0.70229486  0.70229486  1
  Ga  Ga2  1  0.00000000  -0.00000000  -0.00000000  1
  Ni  Ni3  1  0.50000000  0.26628432  0.73371568  1
  Ni  Ni4  1  0.50000000  0.73371568  0.26628432  1
