# generated using pymatgen
data_Li7Mn2(CoO4)3
_symmetry_space_group_name_H-M   'P 1'
_cell_length_a   2.97662059
_cell_length_b   8.09796058
_cell_length_c   9.79170982
_cell_angle_alpha   66.24550503
_cell_angle_beta   94.03886042
_cell_angle_gamma   90.95938371
_symmetry_Int_Tables_number   1
_chemical_formula_structural   Li7Mn2(CoO4)3
_chemical_formula_sum   'Li7 Mn2 Co3 O12'
_cell_volume   215.47478526
_cell_formula_units_Z   1
loop_
 _symmetry_equiv_pos_site_id
 _symmetry_equiv_pos_as_xyz
  1  'x, y, z'
loop_
 _atom_site_type_symbol
 _atom_site_label
 _atom_site_symmetry_multiplicity
 _atom_site_fract_x
 _atom_site_fract_y
 _atom_site_fract_z
 _atom_site_occupancy
  Li  Li0  1  0.99235411  0.84073635  0.33450721  1
  Li  Li1  1  0.48685507  0.32964623  0.84420908  1
  Li  Li2  1  0.50961069  0.00689767  0.49875518  1
  Li  Li3  1  0.99472393  0.48548190  0.00540570  1
  Li  Li4  1  0.01366443  0.17286140  0.65770037  1
  Li  Li5  1  0.50823472  0.66258470  0.16608454  1
  Li  Li6  1  0.51733916  0.17646233  0.15697588  1
  Mn  Mn7  1  0.99407116  0.00405577  0.00457819  1
  Mn  Mn8  1  0.99444167  0.66731350  0.66563933  1
  Co  Co9  1  0.50384250  0.49939773  0.49679555  1
  Co  Co10  1  0.00976161  0.32609811  0.32720709  1
  Co  Co11  1  0.48262562  0.82960615  0.83780500  1
  O  O12  1  0.52153758  0.92569790  0.14653231  1
  O  O13  1  0.96787282  0.43013730  0.65576736  1
  O  O14  1  0.99851137  0.10592398  0.33984056  1
  O  O15  1  0.46583785  0.59631106  0.82884654  1
  O  O16  1  0.48056770  0.26693704  0.49242844  1
  O  O17  1  0.96218768  0.76506474  0.99041709  1
  O  O18  1  0.53159358  0.73963450  0.49855549  1
  O  O19  1  0.00641043  0.23361483  0.99686848  1
  O  O20  1  0.02010394  0.90503636  0.67758661  1
  O  O21  1  0.53430336  0.41039687  0.18149426  1
  O  O22  1  0.46961277  0.06155559  0.85431982  1
  O  O23  1  0.03393625  0.55854798  0.34167993  1
