# generated using pymatgen
data_Zr3AgHg3F20
_symmetry_space_group_name_H-M   'P 1'
_cell_length_a   8.68059328
_cell_length_b   10.87654550
_cell_length_c   10.87654551
_cell_angle_alpha   119.99999803
_cell_angle_beta   90.00000000
_cell_angle_gamma   90.00000000
_symmetry_Int_Tables_number   1
_chemical_formula_structural   Zr3AgHg3F20
_chemical_formula_sum   'Zr6 Ag2 Hg6 F40'
_cell_volume   889.32809212
_cell_formula_units_Z   2
loop_
 _symmetry_equiv_pos_site_id
 _symmetry_equiv_pos_as_xyz
  1  'x, y, z'
loop_
 _atom_site_type_symbol
 _atom_site_label
 _atom_site_symmetry_multiplicity
 _atom_site_fract_x
 _atom_site_fract_y
 _atom_site_fract_z
 _atom_site_occupancy
  Zr  Zr0  1  0.75000000  0.58269725  0.72204660  1
  Zr  Zr1  1  0.25000000  0.41730275  0.27795340  1
  Zr  Zr2  1  0.75000000  0.13934934  0.41730275  1
  Zr  Zr3  1  0.25000000  0.86065066  0.58269725  1
  Zr  Zr4  1  0.75000000  0.27795340  0.86065066  1
  Zr  Zr5  1  0.25000000  0.72204660  0.13934934  1
  Ag  Ag6  1  0.75000000  0.00000000  -0.00000000  1
  Ag  Ag7  1  0.25000000  0.00000000  -0.00000000  1
  Hg  Hg8  1  0.75000000  0.72930188  0.16063518  1
  Hg  Hg9  1  0.25000000  0.27069812  0.83936482  1
  Hg  Hg10  1  0.75000000  0.43133330  0.27069812  1
  Hg  Hg11  1  0.25000000  0.56866670  0.72930188  1
  Hg  Hg12  1  0.75000000  0.83936482  0.56866670  1
  Hg  Hg13  1  0.25000000  0.16063518  0.43133330  1
  F  F14  1  0.98285659  0.57481690  0.72006044  1
  F  F15  1  0.01714341  0.42518310  0.27993956  1
  F  F16  1  0.98285659  0.14524355  0.42518310  1
  F  F17  1  0.48285659  0.42518310  0.27993956  1
  F  F18  1  0.01714341  0.85475645  0.57481690  1
  F  F19  1  0.51714341  0.57481690  0.72006044  1
  F  F20  1  0.98285659  0.27993956  0.85475645  1
  F  F21  1  0.48285659  0.85475645  0.57481690  1
  F  F22  1  0.01714341  0.72006044  0.14524355  1
  F  F23  1  0.51714341  0.14524355  0.42518310  1
  F  F24  1  0.48285659  0.72006044  0.14524355  1
  F  F25  1  0.51714341  0.27993956  0.85475645  1
  F  F26  1  0.75000000  0.71897137  0.94160065  1
  F  F27  1  0.25000000  0.28102863  0.05839935  1
  F  F28  1  0.75000000  0.22262928  0.28102863  1
  F  F29  1  0.25000000  0.77737072  0.71897137  1
  F  F30  1  0.75000000  0.05839935  0.77737072  1
  F  F31  1  0.25000000  0.94160065  0.22262928  1
  F  F32  1  0.75000000  0.96861380  0.20107546  1
  F  F33  1  0.25000000  0.03138620  0.79892454  1
  F  F34  1  0.75000000  0.23246165  0.03138620  1
  F  F35  1  0.25000000  0.76753835  0.96861380  1
  F  F36  1  0.75000000  0.79892454  0.76753835  1
  F  F37  1  0.25000000  0.20107546  0.23246165  1
  F  F38  1  0.75000000  0.66666700  0.33333300  1
  F  F39  1  0.25000000  0.33333300  0.66666700  1
  F  F40  1  0.75000000  0.36602769  0.55059120  1
  F  F41  1  0.25000000  0.63397231  0.44940880  1
  F  F42  1  0.75000000  0.18456351  0.63397231  1
  F  F43  1  0.25000000  0.81543649  0.36602769  1
  F  F44  1  0.75000000  0.44940880  0.81543649  1
  F  F45  1  0.25000000  0.55059120  0.18456351  1
  F  F46  1  0.75000000  0.94439968  0.41334590  1
  F  F47  1  0.25000000  0.05560032  0.58665410  1
  F  F48  1  0.75000000  0.46894621  0.05560032  1
  F  F49  1  0.25000000  0.53105379  0.94439968  1
  F  F50  1  0.75000000  0.58665410  0.53105379  1
  F  F51  1  0.25000000  0.41334590  0.46894621  1
  F  F52  1  -0.00000000  0.00000000  -0.00000000  1
  F  F53  1  0.50000000  0.00000000  -0.00000000  1
