# generated using pymatgen
data_Yb2Si
_symmetry_space_group_name_H-M   'P 1'
_cell_length_a   4.79517329
_cell_length_b   7.46338613
_cell_length_c   8.96938926
_cell_angle_alpha   90.00000000
_cell_angle_beta   90.00000000
_cell_angle_gamma   90.00000000
_symmetry_Int_Tables_number   1
_chemical_formula_structural   Yb2Si
_chemical_formula_sum   'Yb8 Si4'
_cell_volume   320.99856421
_cell_formula_units_Z   4
loop_
 _symmetry_equiv_pos_site_id
 _symmetry_equiv_pos_as_xyz
  1  'x, y, z'
loop_
 _atom_site_type_symbol
 _atom_site_label
 _atom_site_symmetry_multiplicity
 _atom_site_fract_x
 _atom_site_fract_y
 _atom_site_fract_z
 _atom_site_occupancy
  Yb  Yb0  1  0.75000000  0.84506519  0.92526068  1
  Yb  Yb1  1  0.25000000  0.15493481  0.07473932  1
  Yb  Yb2  1  0.25000000  0.65493481  0.42526068  1
  Yb  Yb3  1  0.75000000  0.34506519  0.57473932  1
  Yb  Yb4  1  0.75000000  0.97991145  0.32014553  1
  Yb  Yb5  1  0.25000000  0.02008855  0.67985447  1
  Yb  Yb6  1  0.25000000  0.52008855  0.82014553  1
  Yb  Yb7  1  0.75000000  0.47991145  0.17985447  1
  Si  Si8  1  0.75000000  0.74795025  0.60549471  1
  Si  Si9  1  0.25000000  0.25204975  0.39450529  1
  Si  Si10  1  0.25000000  0.75204975  0.10549471  1
  Si  Si11  1  0.75000000  0.24795025  0.89450529  1
