# generated using pymatgen
data_Zr6PI14
_symmetry_space_group_name_H-M   'P 1'
_cell_length_a   10.98340469
_cell_length_b   10.98340469
_cell_length_c   13.26124334
_cell_angle_alpha   90.00000000
_cell_angle_beta   90.00000000
_cell_angle_gamma   95.13368532
_symmetry_Int_Tables_number   1
_chemical_formula_structural   Zr6PI14
_chemical_formula_sum   'Zr12 P2 I28'
_cell_volume   1593.35518120
_cell_formula_units_Z   2
loop_
 _symmetry_equiv_pos_site_id
 _symmetry_equiv_pos_as_xyz
  1  'x, y, z'
loop_
 _atom_site_type_symbol
 _atom_site_label
 _atom_site_symmetry_multiplicity
 _atom_site_fract_x
 _atom_site_fract_y
 _atom_site_fract_z
 _atom_site_occupancy
  Zr  Zr0  1  0.17589898  0.95512922  0.11334272  1
  Zr  Zr1  1  0.82410102  0.04487078  0.88665728  1
  Zr  Zr2  1  0.32410102  0.54487078  0.61334272  1
  Zr  Zr3  1  0.45512922  0.67589898  0.38665728  1
  Zr  Zr4  1  0.67589898  0.45512922  0.38665728  1
  Zr  Zr5  1  0.54487078  0.32410102  0.61334272  1
  Zr  Zr6  1  0.04487078  0.82410102  0.88665728  1
  Zr  Zr7  1  0.95512922  0.17589898  0.11334272  1
  Zr  Zr8  1  0.36155223  0.36155223  0.39799365  1
  Zr  Zr9  1  0.63844777  0.63844777  0.60200635  1
  Zr  Zr10  1  0.13844777  0.13844777  0.89799365  1
  Zr  Zr11  1  0.86155223  0.86155223  0.10200635  1
  P  P12  1  -0.00000000  0.00000000  0.00000000  1
  P  P13  1  0.50000000  0.50000000  0.50000000  1
  I  I14  1  0.53613845  0.28469870  0.25403437  1
  I  I15  1  0.46386155  0.71530130  0.74596563  1
  I  I16  1  0.96386155  0.21530130  0.75403437  1
  I  I17  1  0.78469870  0.03613845  0.24596563  1
  I  I18  1  0.03613845  0.78469870  0.24596563  1
  I  I19  1  0.21530130  0.96386155  0.75403437  1
  I  I20  1  0.71530130  0.46386155  0.74596563  1
  I  I21  1  0.28469870  0.53613845  0.25403437  1
  I  I22  1  0.36219419  0.11511656  0.00912413  1
  I  I23  1  0.63780581  0.88488344  0.99087587  1
  I  I24  1  0.13780581  0.38488344  0.50912413  1
  I  I25  1  0.61511656  0.86219419  0.49087587  1
  I  I26  1  0.86219419  0.61511656  0.49087587  1
  I  I27  1  0.38488344  0.13780581  0.50912413  1
  I  I28  1  0.88488344  0.63780581  0.99087587  1
  I  I29  1  0.11511656  0.36219419  0.00912413  1
  I  I30  1  0.40002685  0.90002685  0.25000000  1
  I  I31  1  0.59997315  0.09997315  0.75000000  1
  I  I32  1  0.09997315  0.59997315  0.75000000  1
  I  I33  1  0.90002685  0.40002685  0.25000000  1
  I  I34  1  0.25021171  0.74978829  0.00000000  1
  I  I35  1  0.74978829  0.25021171  0.00000000  1
  I  I36  1  0.24978829  0.75021171  0.50000000  1
  I  I37  1  0.75021171  0.24978829  0.50000000  1
  I  I38  1  0.15109230  0.15109230  0.26333911  1
  I  I39  1  0.84890770  0.84890770  0.73666089  1
  I  I40  1  0.34890770  0.34890770  0.76333911  1
  I  I41  1  0.65109230  0.65109230  0.23666089  1
