# generated using pymatgen
data_ZrHg3(SBr3)2
_symmetry_space_group_name_H-M   'P 1'
_cell_length_a   7.14360888
_cell_length_b   7.66403186
_cell_length_c   13.67918878
_cell_angle_alpha   90.00000000
_cell_angle_beta   91.47989269
_cell_angle_gamma   90.00000000
_symmetry_Int_Tables_number   1
_chemical_formula_structural   ZrHg3(SBr3)2
_chemical_formula_sum   'Zr2 Hg6 S4 Br12'
_cell_volume   748.66999819
_cell_formula_units_Z   2
loop_
 _symmetry_equiv_pos_site_id
 _symmetry_equiv_pos_as_xyz
  1  'x, y, z'
loop_
 _atom_site_type_symbol
 _atom_site_label
 _atom_site_symmetry_multiplicity
 _atom_site_fract_x
 _atom_site_fract_y
 _atom_site_fract_z
 _atom_site_occupancy
  Zr  Zr0  1  0.00000000  -0.00000000  -0.00000000  1
  Zr  Zr1  1  0.00000000  0.50000000  0.50000000  1
  Hg  Hg2  1  0.50784420  0.29530173  0.25939768  1
  Hg  Hg3  1  0.49215580  0.70469827  0.74060232  1
  Hg  Hg4  1  0.49215580  0.79530173  0.24060232  1
  Hg  Hg5  1  0.50784420  0.20469827  0.75939768  1
  Hg  Hg6  1  0.50000000  -0.00000000  0.50000000  1
  Hg  Hg7  1  0.50000000  0.50000000  -0.00000000  1
  S  S8  1  0.36246050  0.03908615  0.33180808  1
  S  S9  1  0.63753950  0.96091385  0.66819192  1
  S  S10  1  0.63753950  0.53908615  0.16819192  1
  S  S11  1  0.36246050  0.46091385  0.83180808  1
  Br  Br12  1  0.14830161  0.55083826  0.32762063  1
  Br  Br13  1  0.85169839  0.44916174  0.67237937  1
  Br  Br14  1  0.85169839  0.05083826  0.17237937  1
  Br  Br15  1  0.14830161  0.94916174  0.82762063  1
  Br  Br16  1  0.13423206  0.70109653  0.06587246  1
  Br  Br17  1  0.86576794  0.29890347  0.93412754  1
  Br  Br18  1  0.86576794  0.20109653  0.43412754  1
  Br  Br19  1  0.13423206  0.79890347  0.56587246  1
  Br  Br20  1  0.32008385  0.14961704  0.06046871  1
  Br  Br21  1  0.67991615  0.85038296  0.93953129  1
  Br  Br22  1  0.67991615  0.64961704  0.43953129  1
  Br  Br23  1  0.32008385  0.35038296  0.56046871  1
