# generated using pymatgen
data_ZrNiAs
_symmetry_space_group_name_H-M   'P 1'
_cell_length_a   3.90166930
_cell_length_b   6.49592857
_cell_length_c   7.33734127
_cell_angle_alpha   90.00000000
_cell_angle_beta   90.00000000
_cell_angle_gamma   90.00000000
_symmetry_Int_Tables_number   1
_chemical_formula_structural   ZrNiAs
_chemical_formula_sum   'Zr4 Ni4 As4'
_cell_volume   185.96465824
_cell_formula_units_Z   4
loop_
 _symmetry_equiv_pos_site_id
 _symmetry_equiv_pos_as_xyz
  1  'x, y, z'
loop_
 _atom_site_type_symbol
 _atom_site_label
 _atom_site_symmetry_multiplicity
 _atom_site_fract_x
 _atom_site_fract_y
 _atom_site_fract_z
 _atom_site_occupancy
  Zr  Zr0  1  0.75000000  0.01282385  0.31126641  1
  Zr  Zr1  1  0.25000000  0.98717615  0.68873359  1
  Zr  Zr2  1  0.25000000  0.48717615  0.81126641  1
  Zr  Zr3  1  0.75000000  0.51282385  0.18873359  1
  Ni  Ni4  1  0.75000000  0.66564739  0.57475771  1
  Ni  Ni5  1  0.25000000  0.33435261  0.42524229  1
  Ni  Ni6  1  0.25000000  0.83435261  0.07475771  1
  Ni  Ni7  1  0.75000000  0.16564739  0.92524229  1
  As  As8  1  0.75000000  0.78303278  0.89555010  1
  As  As9  1  0.25000000  0.21696722  0.10444990  1
  As  As10  1  0.25000000  0.71696722  0.39555010  1
  As  As11  1  0.75000000  0.28303278  0.60444990  1
