# generated using pymatgen
data_Y5BiPt2
_symmetry_space_group_name_H-M   'P 1'
_cell_length_a   7.81503061
_cell_length_b   7.81503061
_cell_length_c   8.89678499
_cell_angle_alpha   116.05318479
_cell_angle_beta   116.05318479
_cell_angle_gamma   90.00000000
_symmetry_Int_Tables_number   1
_chemical_formula_structural   Y5BiPt2
_chemical_formula_sum   'Y10 Bi2 Pt4'
_cell_volume   425.84198208
_cell_formula_units_Z   2
loop_
 _symmetry_equiv_pos_site_id
 _symmetry_equiv_pos_as_xyz
  1  'x, y, z'
loop_
 _atom_site_type_symbol
 _atom_site_label
 _atom_site_symmetry_multiplicity
 _atom_site_fract_x
 _atom_site_fract_y
 _atom_site_fract_z
 _atom_site_occupancy
  Y  Y0  1  -0.00000000  0.00000000  -0.00000000  1
  Y  Y1  1  0.50000000  0.50000000  -0.00000000  1
  Y  Y2  1  0.29290647  0.79290647  0.27325173  1
  Y  Y3  1  0.70709353  0.20709353  0.72674827  1
  Y  Y4  1  0.98034526  0.48034526  0.27325173  1
  Y  Y5  1  0.48034526  0.29290647  0.27325173  1
  Y  Y6  1  0.20709353  0.01965474  0.72674827  1
  Y  Y7  1  0.01965474  0.51965474  0.72674827  1
  Y  Y8  1  0.51965474  0.70709353  0.72674827  1
  Y  Y9  1  0.79290647  0.98034526  0.27325173  1
  Bi  Bi10  1  0.25000000  0.25000000  0.50000000  1
  Bi  Bi11  1  0.75000000  0.75000000  0.50000000  1
  Pt  Pt12  1  0.63833844  0.13833844  1.00000000  1
  Pt  Pt13  1  0.36166156  0.86166156  0.00000000  1
  Pt  Pt14  1  0.86166156  0.63833844  0.00000000  1
  Pt  Pt15  1  0.13833844  0.36166156  -0.00000000  1
