# generated using pymatgen
data_Li7Mn2(CoO4)3
_symmetry_space_group_name_H-M   'P 1'
_cell_length_a   2.93052654
_cell_length_b   14.99530533
_cell_length_c   5.06187779
_cell_angle_alpha   96.32472519
_cell_angle_beta   75.41437074
_cell_angle_gamma   85.66580938
_symmetry_Int_Tables_number   1
_chemical_formula_structural   Li7Mn2(CoO4)3
_chemical_formula_sum   'Li7 Mn2 Co3 O12'
_cell_volume   212.72310442
_cell_formula_units_Z   1
loop_
 _symmetry_equiv_pos_site_id
 _symmetry_equiv_pos_as_xyz
  1  'x, y, z'
loop_
 _atom_site_type_symbol
 _atom_site_label
 _atom_site_symmetry_multiplicity
 _atom_site_fract_x
 _atom_site_fract_y
 _atom_site_fract_z
 _atom_site_occupancy
  Li  Li0  1  0.66560205  0.08628586  0.57837212  1
  Li  Li1  1  0.99848287  0.25081473  0.75404766  1
  Li  Li2  1  0.33500005  0.41801464  0.90914540  1
  Li  Li3  1  0.65177475  0.58774782  0.08658699  1
  Li  Li4  1  0.02877259  0.73939210  0.24056883  1
  Li  Li5  1  0.32162514  0.91672089  0.43025603  1
  Li  Li6  1  0.32764825  0.66396568  0.67112798  1
  Mn  Mn7  1  0.00815824  0.00132024  0.99651976  1
  Mn  Mn8  1  0.67640868  0.82638840  0.83312453  1
  Co  Co9  1  0.32516288  0.16843572  0.16640466  1
  Co  Co10  1  0.65693997  0.33398500  0.33906954  1
  Co  Co11  1  0.00774633  0.50472181  0.49894174  1
  O  O12  1  0.30627343  0.04740371  0.27918533  1
  O  O13  1  0.63093962  0.21172254  0.43918569  1
  O  O14  1  0.00533544  0.37998703  0.60373333  1
  O  O15  1  0.36769172  0.53453001  0.74459300  1
  O  O16  1  0.66006562  0.71790936  0.96175283  1
  O  O17  1  0.03567737  0.87562079  0.09291611  1
  O  O18  1  0.01998719  0.12480416  0.89235958  1
  O  O19  1  0.31765565  0.28916717  0.06108034  1
  O  O20  1  0.64187942  0.45902236  0.24641107  1
  O  O21  1  0.00304309  0.61185508  0.37421772  1
  O  O22  1  0.30452358  0.79564615  0.58006397  1
  O  O23  1  0.70360603  0.95453874  0.72033579  1
