# generated using pymatgen
data_TmNiGe2
_symmetry_space_group_name_H-M   'P 1'
_cell_length_a   4.13125852
_cell_length_b   8.47766214
_cell_length_c   9.21023350
_cell_angle_alpha   117.40199054
_cell_angle_beta   102.96027874
_cell_angle_gamma   90.00000000
_symmetry_Int_Tables_number   1
_chemical_formula_structural   TmNiGe2
_chemical_formula_sum   'Tm4 Ni4 Ge8'
_cell_volume   277.09227619
_cell_formula_units_Z   4
loop_
 _symmetry_equiv_pos_site_id
 _symmetry_equiv_pos_as_xyz
  1  'x, y, z'
loop_
 _atom_site_type_symbol
 _atom_site_label
 _atom_site_symmetry_multiplicity
 _atom_site_fract_x
 _atom_site_fract_y
 _atom_site_fract_z
 _atom_site_occupancy
  Tm  Tm0  1  0.20328221  0.20328221  0.40656442  1
  Tm  Tm1  1  0.79671779  0.79671779  0.59343558  1
  Tm  Tm2  1  0.00000000  0.76159474  0.00000000  1
  Tm  Tm3  1  1.00000000  0.23840526  1.00000000  1
  Ni  Ni4  1  0.35276200  0.10310752  0.70552400  1
  Ni  Ni5  1  0.64723800  0.89689248  0.29447600  1
  Ni  Ni6  1  0.35276200  0.60241648  0.70552400  1
  Ni  Ni7  1  0.64723800  0.39758352  0.29447600  1
  Ge  Ge8  1  0.57698331  0.07698331  0.15396661  1
  Ge  Ge9  1  0.42301669  0.92301669  0.84603339  1
  Ge  Ge10  1  0.19781033  0.85622008  0.39562067  1
  Ge  Ge11  1  0.80218967  0.14377992  0.60437933  1
  Ge  Ge12  1  0.19781033  0.53940058  0.39562067  1
  Ge  Ge13  1  0.80218967  0.46059942  0.60437933  1
  Ge  Ge14  1  0.42091493  0.42091493  0.84182986  1
  Ge  Ge15  1  0.57908507  0.57908507  0.15817014  1
