# generated using pymatgen
data_YbAg(WO4)2
_symmetry_space_group_name_H-M   'P 1'
_cell_length_a   7.25567519
_cell_length_b   7.48824422
_cell_length_c   7.48824422
_cell_angle_alpha   94.73034774
_cell_angle_beta   114.87102713
_cell_angle_gamma   114.87102713
_symmetry_Int_Tables_number   1
_chemical_formula_structural   YbAg(WO4)2
_chemical_formula_sum   'Yb2 Ag2 W4 O16'
_cell_volume   317.82897928
_cell_formula_units_Z   2
loop_
 _symmetry_equiv_pos_site_id
 _symmetry_equiv_pos_as_xyz
  1  'x, y, z'
loop_
 _atom_site_type_symbol
 _atom_site_label
 _atom_site_symmetry_multiplicity
 _atom_site_fract_x
 _atom_site_fract_y
 _atom_site_fract_z
 _atom_site_occupancy
  Yb  Yb0  1  0.00000000  0.70521012  0.29478988  1
  Yb  Yb1  1  0.00000000  0.29478988  0.70521012  1
  Ag  Ag2  1  0.49024370  0.71044733  0.71044733  1
  Ag  Ag3  1  0.50975630  0.28955267  0.28955267  1
  W  W4  1  0.99270666  0.22254603  0.22254603  1
  W  W5  1  0.00729334  0.77745397  0.77745397  1
  W  W6  1  0.50000000  0.82971718  0.17028282  1
  W  W7  1  0.50000000  0.17028282  0.82971718  1
  O  O8  1  0.76727485  0.34828927  0.10243731  1
  O  O9  1  0.23272515  0.65171073  0.89756269  1
  O  O10  1  0.23272515  0.89756269  0.65171073  1
  O  O11  1  0.76727485  0.10243731  0.34828927  1
  O  O12  1  0.63621856  0.67366240  0.21267605  1
  O  O13  1  0.36378144  0.32633760  0.78732395  1
  O  O14  1  0.36378144  0.78732395  0.32633760  1
  O  O15  1  0.63621856  0.21267605  0.67366240  1
  O  O16  1  0.88960135  0.69449281  0.94552793  1
  O  O17  1  0.11039865  0.30550719  0.05447207  1
  O  O18  1  0.11039865  0.05447207  0.30550719  1
  O  O19  1  0.88960135  0.94552793  0.69449281  1
  O  O20  1  0.65990260  0.97661635  0.97661635  1
  O  O21  1  0.34009740  0.02338365  0.02338365  1
  O  O22  1  0.83234283  0.54497176  0.54497176  1
  O  O23  1  0.16765717  0.45502824  0.45502824  1
