# generated using pymatgen
data_VCoAs
_symmetry_space_group_name_H-M   'P 1'
_cell_length_a   3.72876230
_cell_length_b   6.01014540
_cell_length_c   6.95254526
_cell_angle_alpha   90.00000000
_cell_angle_beta   90.00000000
_cell_angle_gamma   90.00000000
_symmetry_Int_Tables_number   1
_chemical_formula_structural   VCoAs
_chemical_formula_sum   'V4 Co4 As4'
_cell_volume   155.80934522
_cell_formula_units_Z   4
loop_
 _symmetry_equiv_pos_site_id
 _symmetry_equiv_pos_as_xyz
  1  'x, y, z'
loop_
 _atom_site_type_symbol
 _atom_site_label
 _atom_site_symmetry_multiplicity
 _atom_site_fract_x
 _atom_site_fract_y
 _atom_site_fract_z
 _atom_site_occupancy
  V  V0  1  0.75000000  0.97202525  0.32124278  1
  V  V1  1  0.25000000  0.02797475  0.67875722  1
  V  V2  1  0.25000000  0.52797475  0.82124278  1
  V  V3  1  0.75000000  0.47202525  0.17875722  1
  Co  Co4  1  0.75000000  0.85872163  0.94033497  1
  Co  Co5  1  0.25000000  0.14127837  0.05966503  1
  Co  Co6  1  0.25000000  0.64127837  0.44033497  1
  Co  Co7  1  0.75000000  0.35872163  0.55966503  1
  As  As8  1  0.75000000  0.74115997  0.62216693  1
  As  As9  1  0.25000000  0.25884003  0.37783307  1
  As  As10  1  0.25000000  0.75884003  0.12216693  1
  As  As11  1  0.75000000  0.24115997  0.87783307  1
