# generated using pymatgen
data_Y6Ta4Al43
_symmetry_space_group_name_H-M   'P 1'
_cell_length_a   11.14040242
_cell_length_b   11.14040242
_cell_length_c   17.76045447
_cell_angle_alpha   90.00000000
_cell_angle_beta   90.00000000
_cell_angle_gamma   119.99999703
_symmetry_Int_Tables_number   1
_chemical_formula_structural   Y6Ta4Al43
_chemical_formula_sum   'Y12 Ta8 Al86'
_cell_volume   1908.91450202
_cell_formula_units_Z   2
loop_
 _symmetry_equiv_pos_site_id
 _symmetry_equiv_pos_as_xyz
  1  'x, y, z'
loop_
 _atom_site_type_symbol
 _atom_site_label
 _atom_site_symmetry_multiplicity
 _atom_site_fract_x
 _atom_site_fract_y
 _atom_site_fract_z
 _atom_site_occupancy
  Y  Y0  1  0.47026335  0.47026335  0.90357097  1
  Y  Y1  1  0.52973665  0.52973665  0.09642903  1
  Y  Y2  1  0.00000000  0.52973665  0.90357097  1
  Y  Y3  1  0.52973665  0.52973665  0.40357097  1
  Y  Y4  1  0.00000000  0.52973665  0.59642903  1
  Y  Y5  1  1.00000000  0.47026335  0.09642903  1
  Y  Y6  1  0.47026335  0.47026335  0.59642903  1
  Y  Y7  1  1.00000000  0.47026335  0.40357097  1
  Y  Y8  1  0.52973665  0.00000000  0.90357097  1
  Y  Y9  1  0.47026335  1.00000000  0.09642903  1
  Y  Y10  1  0.47026335  1.00000000  0.40357097  1
  Y  Y11  1  0.52973665  0.00000000  0.59642903  1
  Ta  Ta12  1  -0.00000000  0.00000000  -0.00000000  1
  Ta  Ta13  1  -0.00000000  0.00000000  0.50000000  1
  Ta  Ta14  1  0.27418083  0.27418083  0.75000000  1
  Ta  Ta15  1  0.72581917  0.72581917  0.25000000  1
  Ta  Ta16  1  0.00000000  0.72581917  0.75000000  1
  Ta  Ta17  1  1.00000000  0.27418083  0.25000000  1
  Ta  Ta18  1  0.72581917  0.00000000  0.75000000  1
  Ta  Ta19  1  0.27418083  1.00000000  0.25000000  1
  Al  Al20  1  0.85031645  0.44559412  0.75000000  1
  Al  Al21  1  0.14968355  0.55440588  0.25000000  1
  Al  Al22  1  0.59527767  0.14968355  0.75000000  1
  Al  Al23  1  0.40472233  0.55440588  0.75000000  1
  Al  Al24  1  0.40472233  0.85031645  0.25000000  1
  Al  Al25  1  0.59527767  0.44559412  0.25000000  1
  Al  Al26  1  0.55440588  0.40472233  0.75000000  1
  Al  Al27  1  0.44559412  0.85031645  0.75000000  1
  Al  Al28  1  0.44559412  0.59527767  0.25000000  1
  Al  Al29  1  0.55440588  0.14968355  0.25000000  1
  Al  Al30  1  0.14968355  0.59527767  0.75000000  1
  Al  Al31  1  0.85031645  0.40472233  0.25000000  1
  Al  Al32  1  0.84097318  0.84097318  0.38483956  1
  Al  Al33  1  0.15902682  0.15902682  0.61516044  1
  Al  Al34  1  0.00000000  0.15902682  0.38483956  1
  Al  Al35  1  0.15902682  0.15902682  0.88483956  1
  Al  Al36  1  0.00000000  0.15902682  0.11516044  1
  Al  Al37  1  1.00000000  0.84097318  0.61516044  1
  Al  Al38  1  0.84097318  0.84097318  0.11516044  1
  Al  Al39  1  1.00000000  0.84097318  0.88483956  1
  Al  Al40  1  0.15902682  0.00000000  0.38483956  1
  Al  Al41  1  0.84097318  1.00000000  0.61516044  1
  Al  Al42  1  0.84097318  1.00000000  0.88483956  1
  Al  Al43  1  0.15902682  0.00000000  0.11516044  1
  Al  Al44  1  0.75289118  0.24710882  -0.00000000  1
  Al  Al45  1  0.24710882  0.75289118  -0.00000000  1
  Al  Al46  1  0.49421765  0.24710882  -0.00000000  1
  Al  Al47  1  0.24710882  0.75289118  0.50000000  1
  Al  Al48  1  0.50578235  0.75289118  0.50000000  1
  Al  Al49  1  0.50578235  0.75289118  -0.00000000  1
  Al  Al50  1  0.75289118  0.24710882  0.50000000  1
  Al  Al51  1  0.49421765  0.24710882  0.50000000  1
  Al  Al52  1  0.75289118  0.50578235  -0.00000000  1
  Al  Al53  1  0.24710882  0.49421765  -0.00000000  1
  Al  Al54  1  0.24710882  0.49421765  0.50000000  1
  Al  Al55  1  0.75289118  0.50578235  0.50000000  1
  Al  Al56  1  0.85310721  0.85310721  0.75000000  1
  Al  Al57  1  0.14689279  0.14689279  0.25000000  1
  Al  Al58  1  0.00000000  0.14689279  0.75000000  1
  Al  Al59  1  1.00000000  0.85310721  0.25000000  1
  Al  Al60  1  0.14689279  0.00000000  0.75000000  1
  Al  Al61  1  0.85310721  1.00000000  0.25000000  1
  Al  Al62  1  0.66666700  0.33333300  0.87354907  1
  Al  Al63  1  0.33333300  0.66666700  0.12645093  1
  Al  Al64  1  0.33333300  0.66666700  0.37354907  1
  Al  Al65  1  0.33333300  0.66666700  0.62645093  1
  Al  Al66  1  0.66666700  0.33333300  0.62645093  1
  Al  Al67  1  0.66666700  0.33333300  0.37354907  1
  Al  Al68  1  0.66666700  0.33333300  0.12645093  1
  Al  Al69  1  0.33333300  0.66666700  0.87354907  1
  Al  Al70  1  0.74413974  0.74413974  0.96978937  1
  Al  Al71  1  0.25586026  0.25586026  0.03021063  1
  Al  Al72  1  0.00000000  0.25586026  0.96978937  1
  Al  Al73  1  0.25586026  0.25586026  0.46978937  1
  Al  Al74  1  0.00000000  0.25586026  0.53021063  1
  Al  Al75  1  1.00000000  0.74413974  0.03021063  1
  Al  Al76  1  0.74413974  0.74413974  0.53021063  1
  Al  Al77  1  1.00000000  0.74413974  0.46978937  1
  Al  Al78  1  0.25586026  0.00000000  0.96978937  1
  Al  Al79  1  0.74413974  1.00000000  0.03021063  1
  Al  Al80  1  0.74413974  1.00000000  0.46978937  1
  Al  Al81  1  0.25586026  0.00000000  0.53021063  1
  Al  Al82  1  0.84277515  0.23728996  0.83634925  1
  Al  Al83  1  0.15722485  0.76271004  0.16365075  1
  Al  Al84  1  0.39451481  0.15722485  0.83634925  1
  Al  Al85  1  0.15722485  0.76271004  0.33634925  1
  Al  Al86  1  0.60548519  0.76271004  0.66365075  1
  Al  Al87  1  0.60548519  0.84277515  0.16365075  1
  Al  Al88  1  0.84277515  0.23728996  0.66365075  1
  Al  Al89  1  0.39451481  0.23728996  0.33634925  1
  Al  Al90  1  0.76271004  0.60548519  0.83634925  1
  Al  Al91  1  0.60548519  0.84277515  0.33634925  1
  Al  Al92  1  0.23728996  0.84277515  0.66365075  1
  Al  Al93  1  0.23728996  0.39451481  0.16365075  1
  Al  Al94  1  0.39451481  0.15722485  0.66365075  1
  Al  Al95  1  0.76271004  0.15722485  0.33634925  1
  Al  Al96  1  0.39451481  0.23728996  0.16365075  1
  Al  Al97  1  0.60548519  0.76271004  0.83634925  1
  Al  Al98  1  0.23728996  0.39451481  0.33634925  1
  Al  Al99  1  0.76271004  0.15722485  0.16365075  1
  Al  Al100  1  0.76271004  0.60548519  0.66365075  1
  Al  Al101  1  0.23728996  0.84277515  0.83634925  1
  Al  Al102  1  0.15722485  0.39451481  0.66365075  1
  Al  Al103  1  0.84277515  0.60548519  0.33634925  1
  Al  Al104  1  0.84277515  0.60548519  0.16365075  1
  Al  Al105  1  0.15722485  0.39451481  0.83634925  1
