# generated using pymatgen
data_Yb5Co19P12
_symmetry_space_group_name_H-M   'P 1'
_cell_length_a   3.64485412
_cell_length_b   11.94918043
_cell_length_c   11.94918009
_cell_angle_alpha   59.97337429
_cell_angle_beta   89.99955607
_cell_angle_gamma   90.00050753
_symmetry_Int_Tables_number   1
_chemical_formula_structural   Yb5Co19P12
_chemical_formula_sum   'Yb5 Co19 P12'
_cell_volume   450.57845893
_cell_formula_units_Z   1
loop_
 _symmetry_equiv_pos_site_id
 _symmetry_equiv_pos_as_xyz
  1  'x, y, z'
loop_
 _atom_site_type_symbol
 _atom_site_label
 _atom_site_symmetry_multiplicity
 _atom_site_fract_x
 _atom_site_fract_y
 _atom_site_fract_z
 _atom_site_occupancy
  Yb  Yb0  1  0.99993845  0.33329643  0.33337021  1
  Yb  Yb1  1  0.99993864  0.66662982  0.66670355  1
  Yb  Yb2  1  0.50429759  0.81540531  0.18459459  1
  Yb  Yb3  1  0.50430395  0.18473281  0.99996032  1
  Yb  Yb4  1  0.50430402  0.00003956  0.81526699  1
  Co  Co5  1  0.00054785  0.17926489  0.19852826  1
  Co  Co6  1  0.00054557  0.19864165  0.62226241  1
  Co  Co7  1  0.00053532  0.62216727  0.17931895  1
  Co  Co8  1  0.00054783  0.80147176  0.82073516  1
  Co  Co9  1  0.00054572  0.37773753  0.80135826  1
  Co  Co10  1  0.00053552  0.82068103  0.37783267  1
  Co  Co11  1  0.00072322  0.44754396  0.55245605  1
  Co  Co12  1  0.00069898  0.55259662  0.00012133  1
  Co  Co13  1  0.00069912  0.99987870  0.44740338  1
  Co  Co14  1  0.50021325  0.35735744  0.12534674  1
  Co  Co15  1  0.50018299  0.12537867  0.51737370  1
  Co  Co16  1  0.50016751  0.51715592  0.35748729  1
  Co  Co17  1  0.50021337  0.87465347  0.64264252  1
  Co  Co18  1  0.50018273  0.48262653  0.87462107  1
  Co  Co19  1  0.50016749  0.64251266  0.48284412  1
  Co  Co20  1  0.50201213  0.28482616  0.71517392  1
  Co  Co21  1  0.50204462  0.71511602  0.99998121  1
  Co  Co22  1  0.50204450  0.00001890  0.28488417  1
  Co  Co23  1  0.00891108  0.00003239  0.99996771  1
  P  P24  1  0.00060843  0.63125685  0.36874318  1
  P  P25  1  0.00061186  0.36897919  0.00002955  1
  P  P26  1  0.00061204  0.99997042  0.63102069  1
  P  P27  1  0.50012200  0.16532712  0.31511857  1
  P  P28  1  0.50014366  0.31501633  0.51962174  1
  P  P29  1  0.50013623  0.51953717  0.16533768  1
  P  P30  1  0.50012179  0.68488152  0.83467284  1
  P  P31  1  0.50014396  0.48037833  0.68498348  1
  P  P32  1  0.50013628  0.83466241  0.48046281  1
  P  P33  1  0.00330701  0.18179621  0.81820377  1
  P  P34  1  0.00337754  0.81823594  0.99990693  1
  P  P35  1  0.00337777  0.00009300  0.18176418  1
