# generated using pymatgen
data_Y5Sb3
_symmetry_space_group_name_H-M   'P 1'
_cell_length_a   8.14823805
_cell_length_b   9.32157852
_cell_length_c   11.96459987
_cell_angle_alpha   90.00000000
_cell_angle_beta   90.00000000
_cell_angle_gamma   90.00000000
_symmetry_Int_Tables_number   1
_chemical_formula_structural   Y5Sb3
_chemical_formula_sum   'Y20 Sb12'
_cell_volume   908.76449231
_cell_formula_units_Z   4
loop_
 _symmetry_equiv_pos_site_id
 _symmetry_equiv_pos_as_xyz
  1  'x, y, z'
loop_
 _atom_site_type_symbol
 _atom_site_label
 _atom_site_symmetry_multiplicity
 _atom_site_fract_x
 _atom_site_fract_y
 _atom_site_fract_z
 _atom_site_occupancy
  Y  Y0  1  0.17084820  0.75000000  0.77176871  1
  Y  Y1  1  0.82915180  0.25000000  0.22823129  1
  Y  Y2  1  0.67084820  0.25000000  0.72823129  1
  Y  Y3  1  0.32915180  0.75000000  0.27176871  1
  Y  Y4  1  0.80851297  0.94254607  0.93273117  1
  Y  Y5  1  0.19148703  0.05745393  0.06726883  1
  Y  Y6  1  0.30851297  0.05745393  0.56726883  1
  Y  Y7  1  0.19148703  0.44254607  0.06726883  1
  Y  Y8  1  0.69148703  0.94254607  0.43273117  1
  Y  Y9  1  0.80851297  0.55745393  0.93273117  1
  Y  Y10  1  0.69148703  0.55745393  0.43273117  1
  Y  Y11  1  0.30851297  0.44254607  0.56726883  1
  Y  Y12  1  0.65757809  0.75000000  0.70847706  1
  Y  Y13  1  0.34242191  0.25000000  0.29152294  1
  Y  Y14  1  0.15757809  0.25000000  0.79152294  1
  Y  Y15  1  0.84242191  0.75000000  0.20847706  1
  Y  Y16  1  0.47185313  0.75000000  0.99509775  1
  Y  Y17  1  0.52814687  0.25000000  0.00490225  1
  Y  Y18  1  0.97185313  0.25000000  0.50490225  1
  Y  Y19  1  0.02814687  0.75000000  0.49509775  1
  Sb  Sb20  1  0.93560467  0.99127868  0.67362438  1
  Sb  Sb21  1  0.06439533  0.00872132  0.32637562  1
  Sb  Sb22  1  0.43560467  0.00872132  0.82637562  1
  Sb  Sb23  1  0.06439533  0.49127868  0.32637562  1
  Sb  Sb24  1  0.56439533  0.99127868  0.17362438  1
  Sb  Sb25  1  0.93560467  0.50872132  0.67362438  1
  Sb  Sb26  1  0.56439533  0.50872132  0.17362438  1
  Sb  Sb27  1  0.43560467  0.49127868  0.82637562  1
  Sb  Sb28  1  0.40626464  0.75000000  0.52423639  1
  Sb  Sb29  1  0.59373536  0.25000000  0.47576361  1
  Sb  Sb30  1  0.90626464  0.25000000  0.97576361  1
  Sb  Sb31  1  0.09373536  0.75000000  0.02423639  1
