# generated using pymatgen
data_Yb2(Ga3Ir)3
_symmetry_space_group_name_H-M   'P 1'
_cell_length_a   7.53873283
_cell_length_b   7.53873283
_cell_length_c   9.66136515
_cell_angle_alpha   90.00000000
_cell_angle_beta   90.00000000
_cell_angle_gamma   119.67120012
_symmetry_Int_Tables_number   1
_chemical_formula_structural   Yb2(Ga3Ir)3
_chemical_formula_sum   'Yb4 Ga18 Ir6'
_cell_volume   477.08441057
_cell_formula_units_Z   2
loop_
 _symmetry_equiv_pos_site_id
 _symmetry_equiv_pos_as_xyz
  1  'x, y, z'
loop_
 _atom_site_type_symbol
 _atom_site_label
 _atom_site_symmetry_multiplicity
 _atom_site_fract_x
 _atom_site_fract_y
 _atom_site_fract_z
 _atom_site_occupancy
  Yb  Yb0  1  0.66848584  0.99703920  0.25000000  1
  Yb  Yb1  1  0.33151416  0.00296080  0.75000000  1
  Yb  Yb2  1  0.99703920  0.66848584  0.25000000  1
  Yb  Yb3  1  0.00296080  0.33151416  0.75000000  1
  Ga  Ga4  1  0.12529703  0.12529703  0.25000000  1
  Ga  Ga5  1  0.87470297  0.87470297  0.75000000  1
  Ga  Ga6  1  0.33437683  0.00115969  0.07414438  1
  Ga  Ga7  1  0.66562317  0.99884031  0.92585562  1
  Ga  Ga8  1  0.66562317  0.99884031  0.57414438  1
  Ga  Ga9  1  0.00115969  0.33437683  0.42585562  1
  Ga  Ga10  1  0.33437683  0.00115969  0.42585562  1
  Ga  Ga11  1  0.99884031  0.66562317  0.57414438  1
  Ga  Ga12  1  0.99884031  0.66562317  0.92585562  1
  Ga  Ga13  1  0.00115969  0.33437683  0.07414438  1
  Ga  Ga14  1  0.33414994  0.33414994  0.55936788  1
  Ga  Ga15  1  0.66585006  0.66585006  0.44063212  1
  Ga  Ga16  1  0.66585006  0.66585006  0.05936788  1
  Ga  Ga17  1  0.33414994  0.33414994  0.94063212  1
  Ga  Ga18  1  0.54614483  0.33573429  0.25000000  1
  Ga  Ga19  1  0.45385517  0.66426571  0.75000000  1
  Ga  Ga20  1  0.33573429  0.54614483  0.25000000  1
  Ga  Ga21  1  0.66426571  0.45385517  0.75000000  1
  Ir  Ir22  1  0.32796173  0.67203827  -0.00000000  1
  Ir  Ir23  1  0.67203827  0.32796173  -0.00000000  1
  Ir  Ir24  1  0.67203827  0.32796173  0.50000000  1
  Ir  Ir25  1  0.32796173  0.67203827  0.50000000  1
  Ir  Ir26  1  0.00000000  -0.00000000  -0.00000000  1
  Ir  Ir27  1  0.00000000  -0.00000000  0.50000000  1
