# generated using pymatgen
data_TmSiIr
_symmetry_space_group_name_H-M   'P 1'
_cell_length_a   4.19231784
_cell_length_b   6.74483505
_cell_length_c   7.44927190
_cell_angle_alpha   90.00000000
_cell_angle_beta   90.00000000
_cell_angle_gamma   90.00000000
_symmetry_Int_Tables_number   1
_chemical_formula_structural   TmSiIr
_chemical_formula_sum   'Tm4 Si4 Ir4'
_cell_volume   210.63927958
_cell_formula_units_Z   4
loop_
 _symmetry_equiv_pos_site_id
 _symmetry_equiv_pos_as_xyz
  1  'x, y, z'
loop_
 _atom_site_type_symbol
 _atom_site_label
 _atom_site_symmetry_multiplicity
 _atom_site_fract_x
 _atom_site_fract_y
 _atom_site_fract_z
 _atom_site_occupancy
  Tm  Tm0  1  0.75000000  0.99400208  0.31238696  1
  Tm  Tm1  1  0.25000000  0.00599792  0.68761304  1
  Tm  Tm2  1  0.25000000  0.50599792  0.81238696  1
  Tm  Tm3  1  0.75000000  0.49400208  0.18761304  1
  Si  Si4  1  0.75000000  0.70438102  0.61342905  1
  Si  Si5  1  0.25000000  0.29561898  0.38657095  1
  Si  Si6  1  0.25000000  0.79561898  0.11342905  1
  Si  Si7  1  0.75000000  0.20438102  0.88657095  1
  Ir  Ir8  1  0.75000000  0.84192214  0.93624721  1
  Ir  Ir9  1  0.25000000  0.15807786  0.06375279  1
  Ir  Ir10  1  0.25000000  0.65807786  0.43624721  1
  Ir  Ir11  1  0.75000000  0.34192214  0.56375279  1
