# generated using pymatgen
data_Li7Mn2(CoO4)3
_symmetry_space_group_name_H-M   'P 1'
_cell_length_a   2.93382096
_cell_length_b   7.89637172
_cell_length_c   10.34289770
_cell_angle_alpha   110.46421168
_cell_angle_beta   90.00000000
_cell_angle_gamma   100.70603950
_symmetry_Int_Tables_number   1
_chemical_formula_structural   Li7Mn2(CoO4)3
_chemical_formula_sum   'Li7 Mn2 Co3 O12'
_cell_volume   220.03033191
_cell_formula_units_Z   1
loop_
 _symmetry_equiv_pos_site_id
 _symmetry_equiv_pos_as_xyz
  1  'x, y, z'
loop_
 _atom_site_type_symbol
 _atom_site_label
 _atom_site_symmetry_multiplicity
 _atom_site_fract_x
 _atom_site_fract_y
 _atom_site_fract_z
 _atom_site_occupancy
  Li  Li0  1  0.49555518  0.99111036  0.27369190  1
  Li  Li1  1  0.49900633  0.99801267  0.72893957  1
  Li  Li2  1  0.16798724  0.33597349  0.42463367  1
  Li  Li3  1  0.17202822  0.34405545  0.90288020  1
  Li  Li4  1  0.83465860  0.66931820  0.08797112  1
  Li  Li5  1  0.83304217  0.66608535  0.58240440  1
  Li  Li6  1  0.00040015  0.00080029  0.50072756  1
  Mn  Mn7  1  0.99908514  0.99817029  -0.00101570  1
  Mn  Mn8  1  0.66906388  0.33812677  0.16735185  1
  Co  Co9  1  0.65205852  0.30411603  0.64999922  1
  Co  Co10  1  0.34632942  0.69265984  0.35202247  1
  Co  Co11  1  0.32426895  0.64853890  0.82182845  1
  O  O12  1  0.43023132  0.86046264  0.03861200  1
  O  O13  1  0.40789976  0.81579951  0.53358909  1
  O  O14  1  0.09062453  0.18124806  0.19314970  1
  O  O15  1  0.08859542  0.17718983  0.70878479  1
  O  O16  1  0.75915188  0.51830476  0.87937563  1
  O  O17  1  0.74643186  0.49286472  0.35166201  1
  O  O18  1  0.59004913  0.18009826  0.46651866  1
  O  O19  1  0.57677810  0.15355619  0.97305922  1
  O  O20  1  0.25240408  0.50480716  0.63788070  1
  O  O21  1  0.23580987  0.47161874  0.12429652  1
  O  O22  1  0.90863118  0.81726337  0.28797423  1
  O  O23  1  0.91990907  0.83981913  0.81366273  1
