# generated using pymatgen
data_V2Ni2PbO8
_symmetry_space_group_name_H-M   'P 1'
_cell_length_a   8.47417986
_cell_length_b   9.75825840
_cell_length_c   9.75825840
_cell_angle_alpha   79.13273085
_cell_angle_beta   64.26524761
_cell_angle_gamma   64.26524761
_symmetry_Int_Tables_number   1
_chemical_formula_structural   V2Ni2PbO8
_chemical_formula_sum   'V8 Ni8 Pb4 O32'
_cell_volume   654.80560583
_cell_formula_units_Z   4
loop_
 _symmetry_equiv_pos_site_id
 _symmetry_equiv_pos_as_xyz
  1  'x, y, z'
loop_
 _atom_site_type_symbol
 _atom_site_label
 _atom_site_symmetry_multiplicity
 _atom_site_fract_x
 _atom_site_fract_y
 _atom_site_fract_z
 _atom_site_occupancy
  V  V0  1  0.46019346  0.15760990  0.31850189  1
  V  V1  1  0.93630526  0.84239010  0.68149811  1
  V  V2  1  0.02869535  0.18149811  0.65760990  1
  V  V3  1  0.96019346  0.31850189  0.15760990  1
  V  V4  1  0.86780336  0.81850189  0.34239010  1
  V  V5  1  0.43630526  0.68149811  0.84239010  1
  V  V6  1  0.52869535  0.65760990  0.18149811  1
  V  V7  1  0.36780336  0.34239010  0.81850189  1
  Ni  Ni8  1  0.48401136  0.00497851  0.66231645  1
  Ni  Ni9  1  0.15130633  0.99502149  0.33768355  1
  Ni  Ni10  1  0.39632782  0.83768355  0.50497851  1
  Ni  Ni11  1  0.98401136  0.66231645  0.00497851  1
  Ni  Ni12  1  0.73898987  0.16231645  0.49502149  1
  Ni  Ni13  1  0.65130633  0.33768355  0.99502149  1
  Ni  Ni14  1  0.89632782  0.50497851  0.83768355  1
  Ni  Ni15  1  0.23898987  0.49502149  0.16231645  1
  Pb  Pb16  1  0.99268164  -0.00000000  0.00000000  1
  Pb  Pb17  1  0.24268164  0.50000000  0.50000000  1
  Pb  Pb18  1  0.49268164  -0.00000000  0.00000000  1
  Pb  Pb19  1  0.74268164  0.50000000  0.50000000  1
  O  O20  1  0.23520653  0.02486276  0.65976055  1
  O  O21  1  0.91982984  0.97513724  0.34023945  1
  O  O22  1  0.14496708  0.84023945  0.52486276  1
  O  O23  1  0.73520653  0.65976055  0.02486276  1
  O  O24  1  0.51006929  0.15976055  0.47513724  1
  O  O25  1  0.41982984  0.34023945  0.97513724  1
  O  O26  1  0.64496708  0.52486276  0.84023945  1
  O  O27  1  0.01006929  0.47513724  0.15976055  1
  O  O28  1  0.64791387  0.83365582  0.49264890  1
  O  O29  1  0.97421860  0.16634418  0.50735110  1
  O  O30  1  0.39056278  0.00735110  0.33365582  1
  O  O31  1  0.14791387  0.49264890  0.83365582  1
  O  O32  1  0.73156970  0.99264890  0.66634418  1
  O  O33  1  0.47421860  0.50735110  0.16634418  1
  O  O34  1  0.89056278  0.33365582  0.00735110  1
  O  O35  1  0.23156970  0.66634418  0.99264890  1
  O  O36  1  0.44355329  0.85703014  0.84757410  1
  O  O37  1  0.14815754  0.14296986  0.15242590  1
  O  O38  1  0.54112740  0.65242590  0.35703014  1
  O  O39  1  0.94355329  0.84757410  0.85703014  1
  O  O40  1  0.55058344  0.34757410  0.64296986  1
  O  O41  1  0.64815754  0.15242590  0.14296986  1
  O  O42  1  0.04112740  0.35703014  0.65242590  1
  O  O43  1  0.05058344  0.64296986  0.34757410  1
  O  O44  1  0.42285421  0.67623062  0.67188323  1
  O  O45  1  0.77096806  0.32376938  0.32811677  1
  O  O46  1  0.34473744  0.82811677  0.17623062  1
  O  O47  1  0.92285421  0.67188323  0.67623062  1
  O  O48  1  0.34908483  0.17188323  0.82376938  1
  O  O49  1  0.27096806  0.32811677  0.32376938  1
  O  O50  1  0.84473744  0.17623062  0.82811677  1
  O  O51  1  0.84908483  0.82376938  0.17188323  1
