# generated using pymatgen
data_Y2Ge2Ru
_symmetry_space_group_name_H-M   'P 1'
_cell_length_a   4.31921825
_cell_length_b   5.83078644
_cell_length_c   9.25892338
_cell_angle_alpha   81.63039965
_cell_angle_beta   76.51172927
_cell_angle_gamma   68.26091405
_symmetry_Int_Tables_number   1
_chemical_formula_structural   Y2Ge2Ru
_chemical_formula_sum   'Y4 Ge4 Ru2'
_cell_volume   210.17038743
_cell_formula_units_Z   2
loop_
 _symmetry_equiv_pos_site_id
 _symmetry_equiv_pos_as_xyz
  1  'x, y, z'
loop_
 _atom_site_type_symbol
 _atom_site_label
 _atom_site_symmetry_multiplicity
 _atom_site_fract_x
 _atom_site_fract_y
 _atom_site_fract_z
 _atom_site_occupancy
  Y  Y0  1  0.81627997  0.25807554  0.10936452  1
  Y  Y1  1  0.18372003  0.74192446  0.89063548  1
  Y  Y2  1  0.99914749  0.67383578  0.32786923  1
  Y  Y3  1  0.00085251  0.32616422  0.67213077  1
  Ge  Ge4  1  0.64660359  0.27360167  0.43319114  1
  Ge  Ge5  1  0.35339641  0.72639833  0.56680886  1
  Ge  Ge6  1  0.51036784  0.85444170  0.12482263  1
  Ge  Ge7  1  0.48963216  0.14555830  0.87517737  1
  Ru  Ru8  1  0.72910726  0.91437879  0.62740668  1
  Ru  Ru9  1  0.27089274  0.08562121  0.37259332  1
