# generated using pymatgen
data_Tm4(Al8Pd3)3
_symmetry_space_group_name_H-M   'P 1'
_cell_length_a   7.48138826
_cell_length_b   7.56690921
_cell_length_c   13.25045820
_cell_angle_alpha   84.61407426
_cell_angle_beta   79.38529012
_cell_angle_gamma   60.06728424
_symmetry_Int_Tables_number   1
_chemical_formula_structural   Tm4(Al8Pd3)3
_chemical_formula_sum   'Tm4 Al24 Pd9'
_cell_volume   638.93875827
_cell_formula_units_Z   1
loop_
 _symmetry_equiv_pos_site_id
 _symmetry_equiv_pos_as_xyz
  1  'x, y, z'
loop_
 _atom_site_type_symbol
 _atom_site_label
 _atom_site_symmetry_multiplicity
 _atom_site_fract_x
 _atom_site_fract_y
 _atom_site_fract_z
 _atom_site_occupancy
  Tm  Tm0  1  0.39281377  0.16945383  0.80868105  1
  Tm  Tm1  1  0.60718623  0.83054617  0.19131895  1
  Tm  Tm2  1  0.73414674  0.49795494  0.80828533  1
  Tm  Tm3  1  0.26585326  0.50204506  0.19171467  1
  Al  Al4  1  0.68488940  0.83399169  0.94460187  1
  Al  Al5  1  0.31511060  0.16600831  0.05539813  1
  Al  Al6  1  0.14557932  0.83353734  0.56052641  1
  Al  Al7  1  0.85442068  0.16646266  0.43947359  1
  Al  Al8  1  0.47860116  0.16669236  0.55833480  1
  Al  Al9  1  0.52139884  0.83330764  0.44166520  1
  Al  Al10  1  0.21611706  0.16556440  0.32857686  1
  Al  Al11  1  0.78388294  0.83443560  0.67142314  1
  Al  Al12  1  0.43721342  0.50561063  0.67146604  1
  Al  Al13  1  0.56278658  0.49438937  0.32853396  1
  Al  Al14  1  0.10857358  0.16008140  0.67033009  1
  Al  Al15  1  0.89142642  0.83991860  0.32966991  1
  Al  Al16  1  0.35377958  0.49941427  0.94474787  1
  Al  Al17  1  0.64622042  0.50058573  0.05525213  1
  Al  Al18  1  0.01627410  0.16756150  0.95276454  1
  Al  Al19  1  0.98372590  0.83243850  0.04723546  1
  Al  Al20  1  0.18705805  0.49961826  0.44105772  1
  Al  Al21  1  0.81294195  0.50038174  0.55894228  1
  Al  Al22  1  0.73305477  0.16334262  0.18309895  1
  Al  Al23  1  0.26694523  0.83665738  0.81690105  1
  Al  Al24  1  0.06149607  0.63064461  0.81535226  1
  Al  Al25  1  0.93850393  0.36935539  0.18464774  1
  Al  Al26  1  0.85457786  0.04201364  0.81617869  1
  Al  Al27  1  0.14542214  0.95798636  0.18382131  1
  Pd  Pd28  1  0.11976413  0.49251582  0.63851763  1
  Pd  Pd29  1  0.88023587  0.50748418  0.36148237  1
  Pd  Pd30  1  0.65730508  0.17105613  0.99951781  1
  Pd  Pd31  1  0.34269492  0.82894387  0.00048219  1
  Pd  Pd32  1  0.53864216  0.16677850  0.36110361  1
  Pd  Pd33  1  0.46135784  0.83322150  0.63889639  1
  Pd  Pd34  1  0.77806579  0.17435585  0.63751400  1
  Pd  Pd35  1  0.22193421  0.82564415  0.36248600  1
  Pd  Pd36  1  0.00000000  0.50000000  -0.00000000  1
