# generated using pymatgen
data_Tm5SbPd2
_symmetry_space_group_name_H-M   'P 1'
_cell_length_a   7.62930198
_cell_length_b   7.62930198
_cell_length_c   8.69128184
_cell_angle_alpha   116.03406922
_cell_angle_beta   116.03406922
_cell_angle_gamma   90.00000000
_symmetry_Int_Tables_number   1
_chemical_formula_structural   Tm5SbPd2
_chemical_formula_sum   'Tm10 Sb2 Pd4'
_cell_volume   396.63724736
_cell_formula_units_Z   2
loop_
 _symmetry_equiv_pos_site_id
 _symmetry_equiv_pos_as_xyz
  1  'x, y, z'
loop_
 _atom_site_type_symbol
 _atom_site_label
 _atom_site_symmetry_multiplicity
 _atom_site_fract_x
 _atom_site_fract_y
 _atom_site_fract_z
 _atom_site_occupancy
  Tm  Tm0  1  -0.00000000  0.00000000  -0.00000000  1
  Tm  Tm1  1  0.50000000  0.50000000  -0.00000000  1
  Tm  Tm2  1  0.29968653  0.79968653  0.28469936  1
  Tm  Tm3  1  0.70031347  0.20031347  0.71530064  1
  Tm  Tm4  1  0.98501283  0.48501283  0.28469936  1
  Tm  Tm5  1  0.48501283  0.29968653  0.28469936  1
  Tm  Tm6  1  0.20031347  0.01498717  0.71530064  1
  Tm  Tm7  1  0.01498717  0.51498717  0.71530064  1
  Tm  Tm8  1  0.51498717  0.70031347  0.71530064  1
  Tm  Tm9  1  0.79968653  0.98501283  0.28469936  1
  Sb  Sb10  1  0.25000000  0.25000000  0.50000000  1
  Sb  Sb11  1  0.75000000  0.75000000  0.50000000  1
  Pd  Pd12  1  0.63611581  0.13611581  1.00000000  1
  Pd  Pd13  1  0.36388419  0.86388419  0.00000000  1
  Pd  Pd14  1  0.86388419  0.63611581  -0.00000000  1
  Pd  Pd15  1  0.13611581  0.36388419  0.00000000  1
