# generated using pymatgen
data_Y2Fe14C
_symmetry_space_group_name_H-M   'P 1'
_cell_length_a   8.70045402
_cell_length_b   8.70045402
_cell_length_c   11.72441584
_cell_angle_alpha   90.00000000
_cell_angle_beta   90.00000000
_cell_angle_gamma   90.00000000
_symmetry_Int_Tables_number   1
_chemical_formula_structural   Y2Fe14C
_chemical_formula_sum   'Y8 Fe56 C4'
_cell_volume   887.51365962
_cell_formula_units_Z   4
loop_
 _symmetry_equiv_pos_site_id
 _symmetry_equiv_pos_as_xyz
  1  'x, y, z'
loop_
 _atom_site_type_symbol
 _atom_site_label
 _atom_site_symmetry_multiplicity
 _atom_site_fract_x
 _atom_site_fract_y
 _atom_site_fract_z
 _atom_site_occupancy
  Y  Y0  1  0.35768945  0.35768945  -0.00000000  1
  Y  Y1  1  0.64231055  0.64231055  0.00000000  1
  Y  Y2  1  0.14231055  0.85768945  0.50000000  1
  Y  Y3  1  0.85768945  0.14231055  0.50000000  1
  Y  Y4  1  0.23809852  0.76190148  -0.00000000  1
  Y  Y5  1  0.76190148  0.23809852  -0.00000000  1
  Y  Y6  1  0.73809852  0.73809852  0.50000000  1
  Y  Y7  1  0.26190148  0.26190148  0.50000000  1
  Fe  Fe8  1  0.06621825  0.27468925  0.12095340  1
  Fe  Fe9  1  0.93378175  0.72531075  0.87904660  1
  Fe  Fe10  1  0.93378175  0.72531075  0.12095340  1
  Fe  Fe11  1  0.22531075  0.56621825  0.62095340  1
  Fe  Fe12  1  0.43378175  0.77468925  0.37904660  1
  Fe  Fe13  1  0.06621825  0.27468925  0.87904660  1
  Fe  Fe14  1  0.77468925  0.43378175  0.37904660  1
  Fe  Fe15  1  0.56621825  0.22531075  0.62095340  1
  Fe  Fe16  1  0.77468925  0.43378175  0.62095340  1
  Fe  Fe17  1  0.56621825  0.22531075  0.37904660  1
  Fe  Fe18  1  0.22531075  0.56621825  0.37904660  1
  Fe  Fe19  1  0.43378175  0.77468925  0.62095340  1
  Fe  Fe20  1  0.27468925  0.06621825  0.87904660  1
  Fe  Fe21  1  0.72531075  0.93378175  0.12095340  1
  Fe  Fe22  1  0.72531075  0.93378175  0.87904660  1
  Fe  Fe23  1  0.27468925  0.06621825  0.12095340  1
  Fe  Fe24  1  0.03716745  0.35836136  0.32460869  1
  Fe  Fe25  1  0.96283255  0.64163864  0.67539131  1
  Fe  Fe26  1  0.96283255  0.64163864  0.32460869  1
  Fe  Fe27  1  0.14163864  0.53716745  0.82460869  1
  Fe  Fe28  1  0.46283255  0.85836136  0.17539131  1
  Fe  Fe29  1  0.03716745  0.35836136  0.67539131  1
  Fe  Fe30  1  0.85836136  0.46283255  0.17539131  1
  Fe  Fe31  1  0.53716745  0.14163864  0.82460869  1
  Fe  Fe32  1  0.85836136  0.46283255  0.82460869  1
  Fe  Fe33  1  0.53716745  0.14163864  0.17539131  1
  Fe  Fe34  1  0.14163864  0.53716745  0.17539131  1
  Fe  Fe35  1  0.46283255  0.85836136  0.82460869  1
  Fe  Fe36  1  0.35836136  0.03716745  0.67539131  1
  Fe  Fe37  1  0.64163864  0.96283255  0.32460869  1
  Fe  Fe38  1  0.64163864  0.96283255  0.67539131  1
  Fe  Fe39  1  0.35836136  0.03716745  0.32460869  1
  Fe  Fe40  1  0.31750361  0.31750361  0.25425865  1
  Fe  Fe41  1  0.68249639  0.68249639  0.74574135  1
  Fe  Fe42  1  0.68249639  0.68249639  0.25425865  1
  Fe  Fe43  1  0.18249639  0.81750361  0.75425865  1
  Fe  Fe44  1  0.18249639  0.81750361  0.24574135  1
  Fe  Fe45  1  0.31750361  0.31750361  0.74574135  1
  Fe  Fe46  1  0.81750361  0.18249639  0.24574135  1
  Fe  Fe47  1  0.81750361  0.18249639  0.75425865  1
  Fe  Fe48  1  -0.00000000  0.50000000  -0.00000000  1
  Fe  Fe49  1  -0.00000000  0.50000000  0.50000000  1
  Fe  Fe50  1  0.50000000  -0.00000000  0.50000000  1
  Fe  Fe51  1  0.50000000  -0.00000000  -0.00000000  1
  Fe  Fe52  1  0.09761766  0.09761766  0.29634056  1
  Fe  Fe53  1  0.90238234  0.90238234  0.70365944  1
  Fe  Fe54  1  0.90238234  0.90238234  0.29634056  1
  Fe  Fe55  1  0.40238234  0.59761766  0.79634056  1
  Fe  Fe56  1  0.40238234  0.59761766  0.20365944  1
  Fe  Fe57  1  0.09761766  0.09761766  0.70365944  1
  Fe  Fe58  1  0.59761766  0.40238234  0.20365944  1
  Fe  Fe59  1  0.59761766  0.40238234  0.79634056  1
  Fe  Fe60  1  -0.00000000  -0.00000000  0.10849119  1
  Fe  Fe61  1  -0.00000000  0.00000000  0.89150881  1
  Fe  Fe62  1  0.50000000  0.50000000  0.60849119  1
  Fe  Fe63  1  0.50000000  0.50000000  0.39150881  1
  C  C64  1  0.12559300  0.12559300  -0.00000000  1
  C  C65  1  0.87440700  0.87440700  0.00000000  1
  C  C66  1  0.37440700  0.62559300  0.50000000  1
  C  C67  1  0.62559300  0.37440700  0.50000000  1
