# generated using pymatgen
data_TlPb2Br5
_symmetry_space_group_name_H-M   'P 1'
_cell_length_a   8.54831520
_cell_length_b   9.40509383
_cell_length_c   13.39725247
_cell_angle_alpha   90.03078012
_cell_angle_beta   90.00000000
_cell_angle_gamma   90.00000000
_symmetry_Int_Tables_number   1
_chemical_formula_structural   TlPb2Br5
_chemical_formula_sum   'Tl4 Pb8 Br20'
_cell_volume   1077.10821726
_cell_formula_units_Z   4
loop_
 _symmetry_equiv_pos_site_id
 _symmetry_equiv_pos_as_xyz
  1  'x, y, z'
loop_
 _atom_site_type_symbol
 _atom_site_label
 _atom_site_symmetry_multiplicity
 _atom_site_fract_x
 _atom_site_fract_y
 _atom_site_fract_z
 _atom_site_occupancy
  Tl  Tl0  1  0.98104032  0.50730841  0.67622814  1
  Tl  Tl1  1  0.01895968  0.49269159  0.32377186  1
  Tl  Tl2  1  0.48104032  0.49269159  0.82377186  1
  Tl  Tl3  1  0.51895968  0.50730841  0.17622814  1
  Pb  Pb4  1  0.98583940  0.99554084  0.68023373  1
  Pb  Pb5  1  0.01416060  0.00445916  0.31976627  1
  Pb  Pb6  1  0.48583940  0.00445916  0.81976627  1
  Pb  Pb7  1  0.51416060  0.99554084  0.18023373  1
  Pb  Pb8  1  0.92507487  0.75008570  0.99345533  1
  Pb  Pb9  1  0.07492513  0.24991430  0.00654467  1
  Pb  Pb10  1  0.42507487  0.24991430  0.50654467  1
  Pb  Pb11  1  0.57492513  0.75008570  0.49345533  1
  Br  Br12  1  0.83578085  0.46018085  0.91197436  1
  Br  Br13  1  0.16421915  0.53981915  0.08802564  1
  Br  Br14  1  0.33578085  0.53981915  0.58802564  1
  Br  Br15  1  0.66421915  0.46018085  0.41197436  1
  Br  Br16  1  0.15155687  0.78022532  0.81441392  1
  Br  Br17  1  0.84844313  0.21977468  0.18558608  1
  Br  Br18  1  0.65155687  0.21977468  0.68558608  1
  Br  Br19  1  0.34844313  0.78022532  0.31441392  1
  Br  Br20  1  0.69082528  0.77365867  0.71779663  1
  Br  Br21  1  0.30917472  0.22634133  0.28220337  1
  Br  Br22  1  0.19082528  0.22634133  0.78220337  1
  Br  Br23  1  0.80917472  0.77365867  0.21779663  1
  Br  Br24  1  0.54304040  0.78064359  0.99820266  1
  Br  Br25  1  0.45695960  0.21935641  0.00179734  1
  Br  Br26  1  0.04304040  0.21935641  0.50179734  1
  Br  Br27  1  0.95695960  0.78064359  0.49820266  1
  Br  Br28  1  0.33611392  0.95640673  0.60070879  1
  Br  Br29  1  0.66388608  0.04359327  0.39929121  1
  Br  Br30  1  0.83611392  0.04359327  0.89929121  1
  Br  Br31  1  0.16388608  0.95640673  0.10070879  1
