# generated using pymatgen
data_UV5P3
_symmetry_space_group_name_H-M   'P 1'
_cell_length_a   3.31661331
_cell_length_b   7.51289704
_cell_length_c   10.25295119
_cell_angle_alpha   100.42007486
_cell_angle_beta   90.00000000
_cell_angle_gamma   90.00000000
_symmetry_Int_Tables_number   1
_chemical_formula_structural   UV5P3
_chemical_formula_sum   'U2 V10 P6'
_cell_volume   251.26334339
_cell_formula_units_Z   2
loop_
 _symmetry_equiv_pos_site_id
 _symmetry_equiv_pos_as_xyz
  1  'x, y, z'
loop_
 _atom_site_type_symbol
 _atom_site_label
 _atom_site_symmetry_multiplicity
 _atom_site_fract_x
 _atom_site_fract_y
 _atom_site_fract_z
 _atom_site_occupancy
  U  U0  1  0.75000000  0.80724422  0.21887857  1
  U  U1  1  0.25000000  0.19275578  0.78112143  1
  V  V2  1  0.75000000  0.52958621  0.90835194  1
  V  V3  1  0.25000000  0.47041379  0.09164806  1
  V  V4  1  0.75000000  0.92581076  0.90531369  1
  V  V5  1  0.25000000  0.07418924  0.09468631  1
  V  V6  1  0.75000000  0.62255336  0.49963287  1
  V  V7  1  0.25000000  0.37744664  0.50036713  1
  V  V8  1  0.75000000  0.12941598  0.51330888  1
  V  V9  1  0.25000000  0.87058402  0.48669112  1
  V  V10  1  0.75000000  0.31540074  0.26889588  1
  V  V11  1  0.25000000  0.68459926  0.73110412  1
  P  P12  1  0.75000000  0.25094175  0.01012747  1
  P  P13  1  0.25000000  0.74905825  0.98987253  1
  P  P14  1  0.75000000  0.43187727  0.67221777  1
  P  P15  1  0.25000000  0.56812273  0.32778223  1
  P  P16  1  0.75000000  0.90205806  0.66361987  1
  P  P17  1  0.25000000  0.09794194  0.33638013  1
