# generated using pymatgen
data_Tm3Ga5O12
_symmetry_space_group_name_H-M   'P 1'
_cell_length_a   10.66303509
_cell_length_b   10.66303509
_cell_length_c   10.66303509
_cell_angle_alpha   109.47122063
_cell_angle_beta   109.47122063
_cell_angle_gamma   109.47122063
_symmetry_Int_Tables_number   1
_chemical_formula_structural   Tm3Ga5O12
_chemical_formula_sum   'Tm12 Ga20 O48'
_cell_volume   933.29862179
_cell_formula_units_Z   4
loop_
 _symmetry_equiv_pos_site_id
 _symmetry_equiv_pos_as_xyz
  1  'x, y, z'
loop_
 _atom_site_type_symbol
 _atom_site_label
 _atom_site_symmetry_multiplicity
 _atom_site_fract_x
 _atom_site_fract_y
 _atom_site_fract_z
 _atom_site_occupancy
  Tm  Tm0  1  0.87500000  0.62500000  0.75000000  1
  Tm  Tm1  1  0.12500000  0.37500000  0.25000000  1
  Tm  Tm2  1  0.62500000  0.87500000  0.25000000  1
  Tm  Tm3  1  0.62500000  0.75000000  0.87500000  1
  Tm  Tm4  1  0.87500000  0.25000000  0.62500000  1
  Tm  Tm5  1  0.37500000  0.12500000  0.75000000  1
  Tm  Tm6  1  0.37500000  0.25000000  0.12500000  1
  Tm  Tm7  1  0.12500000  0.75000000  0.37500000  1
  Tm  Tm8  1  0.75000000  0.87500000  0.62500000  1
  Tm  Tm9  1  0.25000000  0.12500000  0.37500000  1
  Tm  Tm10  1  0.25000000  0.62500000  0.87500000  1
  Tm  Tm11  1  0.75000000  0.37500000  0.12500000  1
  Ga  Ga12  1  0.62500000  0.37500000  0.75000000  1
  Ga  Ga13  1  0.37500000  0.62500000  0.25000000  1
  Ga  Ga14  1  0.87500000  0.12500000  0.25000000  1
  Ga  Ga15  1  0.37500000  0.75000000  0.62500000  1
  Ga  Ga16  1  0.62500000  0.25000000  0.37500000  1
  Ga  Ga17  1  0.12500000  0.87500000  0.75000000  1
  Ga  Ga18  1  0.12500000  0.25000000  0.87500000  1
  Ga  Ga19  1  0.87500000  0.75000000  0.12500000  1
  Ga  Ga20  1  0.75000000  0.62500000  0.37500000  1
  Ga  Ga21  1  0.25000000  0.37500000  0.62500000  1
  Ga  Ga22  1  0.25000000  0.87500000  0.12500000  1
  Ga  Ga23  1  0.75000000  0.12500000  0.87500000  1
  Ga  Ga24  1  0.00000000  0.00000000  0.00000000  1
  Ga  Ga25  1  0.50000000  0.00000000  0.50000000  1
  Ga  Ga26  1  0.50000000  0.50000000  0.00000000  1
  Ga  Ga27  1  0.00000000  0.00000000  0.50000000  1
  Ga  Ga28  1  0.00000000  0.50000000  0.50000000  1
  Ga  Ga29  1  0.50000000  0.50000000  0.50000000  1
  Ga  Ga30  1  0.50000000  0.00000000  0.00000000  1
  Ga  Ga31  1  0.00000000  0.50000000  0.00000000  1
  O  O32  1  0.70738659  0.62544106  0.53062626  1
  O  O33  1  0.29261341  0.37455894  0.46937374  1
  O  O34  1  0.79261341  0.82323967  0.41805447  1
  O  O35  1  0.40518520  0.87455894  0.08194553  1
  O  O36  1  0.62544106  0.53062626  0.70738659  1
  O  O37  1  0.70738659  0.08194553  0.67676033  1
  O  O38  1  0.20738659  0.17676033  0.58194553  1
  O  O39  1  0.59481480  0.12544106  0.91805447  1
  O  O40  1  0.37455894  0.46937374  0.29261341  1
  O  O41  1  0.29261341  0.91805447  0.32323967  1
  O  O42  1  0.09481480  0.67676033  0.96937374  1
  O  O43  1  0.82323967  0.41805447  0.79261341  1
  O  O44  1  0.79261341  0.96937374  0.87455894  1
  O  O45  1  0.90518520  0.32323967  0.03062626  1
  O  O46  1  0.17676033  0.58194553  0.20738659  1
  O  O47  1  0.20738659  0.03062626  0.12544106  1
  O  O48  1  0.87455894  0.08194553  0.40518520  1
  O  O49  1  0.40518520  0.53062626  0.82323967  1
  O  O50  1  0.12544106  0.91805447  0.59481480  1
  O  O51  1  0.59481480  0.46937374  0.17676033  1
  O  O52  1  0.67676033  0.96937374  0.09481480  1
  O  O53  1  0.09481480  0.41805447  0.62544106  1
  O  O54  1  0.32323967  0.03062626  0.90518520  1
  O  O55  1  0.90518520  0.58194553  0.37455894  1
  O  O56  1  0.53062626  0.70738659  0.62544106  1
  O  O57  1  0.62544106  0.09481480  0.41805447  1
  O  O58  1  0.46937374  0.29261341  0.37455894  1
  O  O59  1  0.37455894  0.90518520  0.58194553  1
  O  O60  1  0.08194553  0.40518520  0.87455894  1
  O  O61  1  0.87455894  0.79261341  0.96937374  1
  O  O62  1  0.91805447  0.59481480  0.12544106  1
  O  O63  1  0.12544106  0.20738659  0.03062626  1
  O  O64  1  0.96937374  0.09481480  0.67676033  1
  O  O65  1  0.67676033  0.70738659  0.08194553  1
  O  O66  1  0.03062626  0.90518520  0.32323967  1
  O  O67  1  0.32323967  0.29261341  0.91805447  1
  O  O68  1  0.41805447  0.79261341  0.82323967  1
  O  O69  1  0.82323967  0.40518520  0.53062626  1
  O  O70  1  0.58194553  0.20738659  0.17676033  1
  O  O71  1  0.17676033  0.59481480  0.46937374  1
  O  O72  1  0.08194553  0.67676033  0.70738659  1
  O  O73  1  0.91805447  0.32323967  0.29261341  1
  O  O74  1  0.96937374  0.87455894  0.79261341  1
  O  O75  1  0.03062626  0.12544106  0.20738659  1
  O  O76  1  0.41805447  0.62544106  0.09481480  1
  O  O77  1  0.58194553  0.37455894  0.90518520  1
  O  O78  1  0.53062626  0.82323967  0.40518520  1
  O  O79  1  0.46937374  0.17676033  0.59481480  1
