# generated using pymatgen
data_V3Pb5O12F
_symmetry_space_group_name_H-M   'P 1'
_cell_length_a   7.54654030
_cell_length_b   10.29992505
_cell_length_c   10.29992505
_cell_angle_alpha   119.99999975
_cell_angle_beta   90.00000000
_cell_angle_gamma   90.00000000
_symmetry_Int_Tables_number   1
_chemical_formula_structural   V3Pb5O12F
_chemical_formula_sum   'V6 Pb10 O24 F2'
_cell_volume   693.34064063
_cell_formula_units_Z   2
loop_
 _symmetry_equiv_pos_site_id
 _symmetry_equiv_pos_as_xyz
  1  'x, y, z'
loop_
 _atom_site_type_symbol
 _atom_site_label
 _atom_site_symmetry_multiplicity
 _atom_site_fract_x
 _atom_site_fract_y
 _atom_site_fract_z
 _atom_site_occupancy
  V  V0  1  0.75000000  0.60084841  0.62909970  1
  V  V1  1  0.25000000  0.39915159  0.37090030  1
  V  V2  1  0.75000000  0.02825129  0.39915159  1
  V  V3  1  0.25000000  0.97174871  0.60084841  1
  V  V4  1  0.75000000  0.37090030  0.97174871  1
  V  V5  1  0.25000000  0.62909970  0.02825129  1
  Pb  Pb6  1  0.99283242  0.66666700  0.33333300  1
  Pb  Pb7  1  0.00716758  0.33333300  0.66666700  1
  Pb  Pb8  1  0.49283242  0.33333300  0.66666700  1
  Pb  Pb9  1  0.50716758  0.66666700  0.33333300  1
  Pb  Pb10  1  0.75000000  0.75341756  0.99602750  1
  Pb  Pb11  1  0.25000000  0.24658244  0.00397250  1
  Pb  Pb12  1  0.75000000  0.24260994  0.24658244  1
  Pb  Pb13  1  0.25000000  0.75739006  0.75341756  1
  Pb  Pb14  1  0.75000000  0.00397250  0.75739006  1
  Pb  Pb15  1  0.25000000  0.99602750  0.24260994  1
  O  O16  1  0.75000000  0.83311105  0.32380369  1
  O  O17  1  0.25000000  0.16688895  0.67619631  1
  O  O18  1  0.75000000  0.49069264  0.16688895  1
  O  O19  1  0.25000000  0.50930736  0.83311105  1
  O  O20  1  0.75000000  0.67619631  0.50930736  1
  O  O21  1  0.25000000  0.32380369  0.49069264  1
  O  O22  1  0.75000000  0.40356105  0.52659834  1
  O  O23  1  0.25000000  0.59643895  0.47340166  1
  O  O24  1  0.75000000  0.12303729  0.59643895  1
  O  O25  1  0.25000000  0.87696271  0.40356105  1
  O  O26  1  0.75000000  0.47340166  0.87696271  1
  O  O27  1  0.25000000  0.52659834  0.12303729  1
  O  O28  1  0.93247192  0.65895493  0.74772698  1
  O  O29  1  0.06752808  0.34104507  0.25227302  1
  O  O30  1  0.93247192  0.08877204  0.34104507  1
  O  O31  1  0.43247192  0.34104507  0.25227302  1
  O  O32  1  0.06752808  0.91122796  0.65895493  1
  O  O33  1  0.56752808  0.65895493  0.74772698  1
  O  O34  1  0.93247192  0.25227302  0.91122796  1
  O  O35  1  0.43247192  0.91122796  0.65895493  1
  O  O36  1  0.06752808  0.74772698  0.08877204  1
  O  O37  1  0.56752808  0.08877204  0.34104507  1
  O  O38  1  0.43247192  0.74772698  0.08877204  1
  O  O39  1  0.56752808  0.25227302  0.91122796  1
  F  F40  1  0.75000000  -0.00000000  -0.00000000  1
  F  F41  1  0.25000000  -0.00000000  -0.00000000  1
