# generated using pymatgen
data_Tm2(SO4)3
_symmetry_space_group_name_H-M   'P 1'
_cell_length_a   9.21353579
_cell_length_b   12.80209147
_cell_length_c   9.33182239
_cell_angle_alpha   90.00000000
_cell_angle_beta   90.00000000
_cell_angle_gamma   90.00000000
_symmetry_Int_Tables_number   1
_chemical_formula_structural   Tm2(SO4)3
_chemical_formula_sum   'Tm8 S12 O48'
_cell_volume   1100.71204124
_cell_formula_units_Z   4
loop_
 _symmetry_equiv_pos_site_id
 _symmetry_equiv_pos_as_xyz
  1  'x, y, z'
loop_
 _atom_site_type_symbol
 _atom_site_label
 _atom_site_symmetry_multiplicity
 _atom_site_fract_x
 _atom_site_fract_y
 _atom_site_fract_z
 _atom_site_occupancy
  Tm  Tm0  1  0.74869238  0.88314220  0.53405608  1
  Tm  Tm1  1  0.25130762  0.11685780  0.46594392  1
  Tm  Tm2  1  0.75130762  0.61685780  0.03405608  1
  Tm  Tm3  1  0.74869238  0.11685780  0.96594392  1
  Tm  Tm4  1  0.24869238  0.38314220  0.96594392  1
  Tm  Tm5  1  0.25130762  0.88314220  0.03405608  1
  Tm  Tm6  1  0.75130762  0.38314220  0.46594392  1
  Tm  Tm7  1  0.24869238  0.61685780  0.53405608  1
  S  S8  1  0.47128545  0.00000000  0.75000000  1
  S  S9  1  0.52871455  0.00000000  0.25000000  1
  S  S10  1  0.02871455  0.50000000  0.25000000  1
  S  S11  1  0.97128545  0.50000000  0.75000000  1
  S  S12  1  0.89483035  0.85546496  0.88225257  1
  S  S13  1  0.10516965  0.14453504  0.11774743  1
  S  S14  1  0.60516965  0.64453504  0.38225257  1
  S  S15  1  0.89483035  0.14453504  0.61774743  1
  S  S16  1  0.39483035  0.35546496  0.61774743  1
  S  S17  1  0.10516965  0.85546496  0.38225257  1
  S  S18  1  0.60516965  0.35546496  0.11774743  1
  S  S19  1  0.39483035  0.64453504  0.88225257  1
  O  O20  1  0.83276646  0.95828345  0.92083915  1
  O  O21  1  0.16723354  0.04171655  0.07916085  1
  O  O22  1  0.66723354  0.54171655  0.42083915  1
  O  O23  1  0.83276646  0.04171655  0.57916085  1
  O  O24  1  0.33276646  0.45828345  0.57916085  1
  O  O25  1  0.16723354  0.95828345  0.42083915  1
  O  O26  1  0.66723354  0.45828345  0.07916085  1
  O  O27  1  0.33276646  0.54171655  0.92083915  1
  O  O28  1  0.82989483  0.77396854  0.97504835  1
  O  O29  1  0.17010517  0.22603146  0.02495165  1
  O  O30  1  0.67010517  0.72603146  0.47504835  1
  O  O31  1  0.82989483  0.22603146  0.52495165  1
  O  O32  1  0.32989483  0.27396854  0.52495165  1
  O  O33  1  0.17010517  0.77396854  0.47504835  1
  O  O34  1  0.67010517  0.27396854  0.02495165  1
  O  O35  1  0.32989483  0.72603146  0.97504835  1
  O  O36  1  0.87791468  0.55442385  0.85489330  1
  O  O37  1  0.12208532  0.44557615  0.14510670  1
  O  O38  1  0.62208532  0.94557615  0.35489330  1
  O  O39  1  0.87791468  0.44557615  0.64510670  1
  O  O40  1  0.37791468  0.05442385  0.64510670  1
  O  O41  1  0.12208532  0.55442385  0.35489330  1
  O  O42  1  0.62208532  0.05442385  0.14510670  1
  O  O43  1  0.37791468  0.94557615  0.85489330  1
  O  O44  1  0.86363873  0.83097377  0.72985340  1
  O  O45  1  0.13636127  0.16902623  0.27014660  1
  O  O46  1  0.63636127  0.66902623  0.22985340  1
  O  O47  1  0.86363873  0.16902623  0.77014660  1
  O  O48  1  0.36363873  0.33097377  0.77014660  1
  O  O49  1  0.13636127  0.83097377  0.22985340  1
  O  O50  1  0.63636127  0.33097377  0.27014660  1
  O  O51  1  0.36363873  0.66902623  0.72985340  1
  O  O52  1  0.56360384  0.92182437  0.67647010  1
  O  O53  1  0.43639616  0.07817563  0.32352990  1
  O  O54  1  0.93639616  0.57817563  0.17647010  1
  O  O55  1  0.56360384  0.07817563  0.82352990  1
  O  O56  1  0.06360384  0.42182437  0.82352990  1
  O  O57  1  0.43639616  0.92182437  0.17647010  1
  O  O58  1  0.93639616  0.42182437  0.32352990  1
  O  O59  1  0.06360384  0.57817563  0.67647010  1
  O  O60  1  0.55410504  0.64241344  0.90336657  1
  O  O61  1  0.44589496  0.35758656  0.09663343  1
  O  O62  1  0.94589496  0.85758656  0.40336657  1
  O  O63  1  0.55410504  0.35758656  0.59663343  1
  O  O64  1  0.05410504  0.14241344  0.59663343  1
  O  O65  1  0.44589496  0.64241344  0.40336657  1
  O  O66  1  0.94589496  0.14241344  0.09663343  1
  O  O67  1  0.05410504  0.85758656  0.90336657  1
