# generated using pymatgen
data_TmCo5Si3
_symmetry_space_group_name_H-M   'P 1'
_cell_length_a   3.66407404
_cell_length_b   14.71363472
_cell_length_c   14.71363472
_cell_angle_alpha   119.99999927
_cell_angle_beta   90.00000000
_cell_angle_gamma   90.00000000
_symmetry_Int_Tables_number   1
_chemical_formula_structural   TmCo5Si3
_chemical_formula_sum   'Tm6 Co30 Si18'
_cell_volume   686.96532407
_cell_formula_units_Z   6
loop_
 _symmetry_equiv_pos_site_id
 _symmetry_equiv_pos_as_xyz
  1  'x, y, z'
loop_
 _atom_site_type_symbol
 _atom_site_label
 _atom_site_symmetry_multiplicity
 _atom_site_fract_x
 _atom_site_fract_y
 _atom_site_fract_z
 _atom_site_occupancy
  Tm  Tm0  1  0.75000000  0.70661216  0.10068756  1
  Tm  Tm1  1  0.25000000  0.29338784  0.89931244  1
  Tm  Tm2  1  0.75000000  0.39407540  0.29338784  1
  Tm  Tm3  1  0.25000000  0.60592460  0.70661216  1
  Tm  Tm4  1  0.75000000  0.89931244  0.60592460  1
  Tm  Tm5  1  0.25000000  0.10068756  0.39407540  1
  Co  Co6  1  0.75000000  0.58667246  0.85201706  1
  Co  Co7  1  0.25000000  0.41332754  0.14798294  1
  Co  Co8  1  0.75000000  0.26534460  0.41332754  1
  Co  Co9  1  0.25000000  0.73465540  0.58667246  1
  Co  Co10  1  0.75000000  0.14798294  0.73465540  1
  Co  Co11  1  0.25000000  0.85201706  0.26534460  1
  Co  Co12  1  0.75000000  0.45958468  0.53401961  1
  Co  Co13  1  0.25000000  0.54041532  0.46598039  1
  Co  Co14  1  0.75000000  0.07443492  0.54041532  1
  Co  Co15  1  0.25000000  0.92556508  0.45958468  1
  Co  Co16  1  0.75000000  0.46598039  0.92556508  1
  Co  Co17  1  0.25000000  0.53401961  0.07443492  1
  Co  Co18  1  0.75000000  0.89900332  0.02894104  1
  Co  Co19  1  0.25000000  0.10099668  0.97105896  1
  Co  Co20  1  0.75000000  0.12993771  0.10099668  1
  Co  Co21  1  0.25000000  0.87006229  0.89900332  1
  Co  Co22  1  0.75000000  0.97105896  0.87006229  1
  Co  Co23  1  0.25000000  0.02894104  0.12993771  1
  Co  Co24  1  0.75000000  0.77478234  0.34722386  1
  Co  Co25  1  0.25000000  0.22521766  0.65277614  1
  Co  Co26  1  0.75000000  0.57244152  0.22521766  1
  Co  Co27  1  0.25000000  0.42755848  0.77478234  1
  Co  Co28  1  0.75000000  0.65277614  0.42755848  1
  Co  Co29  1  0.25000000  0.34722386  0.57244152  1
  Co  Co30  1  0.75000000  0.95182039  0.21940248  1
  Co  Co31  1  0.25000000  0.04817961  0.78059752  1
  Co  Co32  1  0.75000000  0.26758209  0.04817961  1
  Co  Co33  1  0.25000000  0.73241791  0.95182039  1
  Co  Co34  1  0.75000000  0.78059752  0.73241791  1
  Co  Co35  1  0.25000000  0.21940248  0.26758209  1
  Si  Si36  1  0.75000000  0.44354747  0.68191706  1
  Si  Si37  1  0.25000000  0.55645253  0.31808294  1
  Si  Si38  1  0.75000000  0.23836959  0.55645253  1
  Si  Si39  1  0.25000000  0.76163041  0.44354747  1
  Si  Si40  1  0.75000000  0.31808294  0.76163041  1
  Si  Si41  1  0.25000000  0.68191706  0.23836959  1
  Si  Si42  1  0.75000000  0.75168625  0.86971362  1
  Si  Si43  1  0.25000000  0.24831375  0.13028638  1
  Si  Si44  1  0.75000000  0.11802737  0.24831375  1
  Si  Si45  1  0.25000000  0.88197263  0.75168625  1
  Si  Si46  1  0.75000000  0.13028638  0.88197263  1
  Si  Si47  1  0.25000000  0.86971362  0.11802737  1
  Si  Si48  1  0.75000000  0.93854489  0.36993483  1
  Si  Si49  1  0.25000000  0.06145511  0.63006517  1
  Si  Si50  1  0.75000000  0.43138995  0.06145511  1
  Si  Si51  1  0.25000000  0.56861005  0.93854489  1
  Si  Si52  1  0.75000000  0.63006517  0.56861005  1
  Si  Si53  1  0.25000000  0.36993483  0.43138995  1
