# generated using pymatgen
data_Tl2SbF5
_symmetry_space_group_name_H-M   'P 1'
_cell_length_a   6.56607473
_cell_length_b   6.84649038
_cell_length_c   7.96294625
_cell_angle_alpha   90.00000000
_cell_angle_beta   114.34872914
_cell_angle_gamma   90.00000000
_symmetry_Int_Tables_number   1
_chemical_formula_structural   Tl2SbF5
_chemical_formula_sum   'Tl4 Sb2 F10'
_cell_volume   326.13036118
_cell_formula_units_Z   2
loop_
 _symmetry_equiv_pos_site_id
 _symmetry_equiv_pos_as_xyz
  1  'x, y, z'
loop_
 _atom_site_type_symbol
 _atom_site_label
 _atom_site_symmetry_multiplicity
 _atom_site_fract_x
 _atom_site_fract_y
 _atom_site_fract_z
 _atom_site_occupancy
  Tl  Tl0  1  0.24845908  0.25000000  0.49691815  1
  Tl  Tl1  1  0.75154092  0.75000000  0.50308185  1
  Tl  Tl2  1  0.56971445  0.25000000  0.13942890  1
  Tl  Tl3  1  0.43028555  0.75000000  0.86057110  1
  Sb  Sb4  1  0.90649648  0.25000000  0.81299296  1
  Sb  Sb5  1  0.09350352  0.75000000  0.18700704  1
  F  F6  1  0.10990042  0.03625395  0.76264893  1
  F  F7  1  0.89009958  0.96374605  0.23735107  1
  F  F8  1  0.89009958  0.53625395  0.23735107  1
  F  F9  1  0.65274851  0.46374605  0.76264893  1
  F  F10  1  0.10990042  0.46374605  0.76264893  1
  F  F11  1  0.34725149  0.53625395  0.23735107  1
  F  F12  1  0.34725149  0.96374605  0.23735107  1
  F  F13  1  0.65274851  0.03625395  0.76264893  1
  F  F14  1  0.76878830  0.25000000  0.53757661  1
  F  F15  1  0.23121170  0.75000000  0.46242339  1
