# generated using pymatgen
data_Tl2Fe2(SO4)3
_symmetry_space_group_name_H-M   'P 1'
_cell_length_a   10.25802505
_cell_length_b   10.25802505
_cell_length_c   10.25802505
_cell_angle_alpha   90.00000000
_cell_angle_beta   90.00000000
_cell_angle_gamma   90.00000000
_symmetry_Int_Tables_number   1
_chemical_formula_structural   Tl2Fe2(SO4)3
_chemical_formula_sum   'Tl8 Fe8 S12 O48'
_cell_volume   1079.42200131
_cell_formula_units_Z   4
loop_
 _symmetry_equiv_pos_site_id
 _symmetry_equiv_pos_as_xyz
  1  'x, y, z'
loop_
 _atom_site_type_symbol
 _atom_site_label
 _atom_site_symmetry_multiplicity
 _atom_site_fract_x
 _atom_site_fract_y
 _atom_site_fract_z
 _atom_site_occupancy
  Tl  Tl0  1  0.04823737  0.04823737  0.04823737  1
  Tl  Tl1  1  0.45176263  0.95176263  0.54823737  1
  Tl  Tl2  1  0.95176263  0.54823737  0.45176263  1
  Tl  Tl3  1  0.54823737  0.45176263  0.95176263  1
  Tl  Tl4  1  0.81682940  0.81682940  0.81682940  1
  Tl  Tl5  1  0.68317060  0.18317060  0.31682940  1
  Tl  Tl6  1  0.18317060  0.31682940  0.68317060  1
  Tl  Tl7  1  0.31682940  0.68317060  0.18317060  1
  Fe  Fe8  1  0.33522076  0.33522076  0.33522076  1
  Fe  Fe9  1  0.16477924  0.66477924  0.83522076  1
  Fe  Fe10  1  0.66477924  0.83522076  0.16477924  1
  Fe  Fe11  1  0.83522076  0.16477924  0.66477924  1
  Fe  Fe12  1  0.59830722  0.59830722  0.59830722  1
  Fe  Fe13  1  0.90169278  0.40169278  0.09830722  1
  Fe  Fe14  1  0.40169278  0.09830722  0.90169278  1
  Fe  Fe15  1  0.09830722  0.90169278  0.40169278  1
  S  S16  1  0.01812050  0.21610320  0.37589792  1
  S  S17  1  0.48187950  0.78389680  0.87589792  1
  S  S18  1  0.98187950  0.71610320  0.12410208  1
  S  S19  1  0.37589792  0.01812050  0.21610320  1
  S  S20  1  0.51812050  0.28389680  0.62410208  1
  S  S21  1  0.87589792  0.48187950  0.78389680  1
  S  S22  1  0.12410208  0.98187950  0.71610320  1
  S  S23  1  0.62410208  0.51812050  0.28389680  1
  S  S24  1  0.21610320  0.37589792  0.01812050  1
  S  S25  1  0.71610320  0.12410208  0.98187950  1
  S  S26  1  0.28389680  0.62410208  0.51812050  1
  S  S27  1  0.78389680  0.87589792  0.48187950  1
  O  O28  1  0.00947771  0.07815815  0.32963793  1
  O  O29  1  0.49052229  0.92184185  0.82963793  1
  O  O30  1  0.99052229  0.57815815  0.17036207  1
  O  O31  1  0.32963793  0.00947771  0.07815815  1
  O  O32  1  0.50947771  0.42184185  0.67036207  1
  O  O33  1  0.82963793  0.49052229  0.92184185  1
  O  O34  1  0.17036207  0.99052229  0.57815815  1
  O  O35  1  0.67036207  0.50947771  0.42184185  1
  O  O36  1  0.07815815  0.32963793  0.00947771  1
  O  O37  1  0.57815815  0.17036207  0.99052229  1
  O  O38  1  0.42184185  0.67036207  0.50947771  1
  O  O39  1  0.92184185  0.82963793  0.49052229  1
  O  O40  1  0.26545411  0.50155826  0.44211380  1
  O  O41  1  0.23454589  0.49844174  0.94211380  1
  O  O42  1  0.73454589  0.00155826  0.05788620  1
  O  O43  1  0.44211380  0.26545411  0.50155826  1
  O  O44  1  0.76545411  0.99844174  0.55788620  1
  O  O45  1  0.94211380  0.23454589  0.49844174  1
  O  O46  1  0.05788620  0.73454589  0.00155826  1
  O  O47  1  0.55788620  0.76545411  0.99844174  1
  O  O48  1  0.50155826  0.44211380  0.26545411  1
  O  O49  1  0.00155826  0.05788620  0.73454589  1
  O  O50  1  0.99844174  0.55788620  0.76545411  1
  O  O51  1  0.49844174  0.94211380  0.23454589  1
  O  O52  1  0.04062950  0.80230798  0.22466099  1
  O  O53  1  0.45937050  0.19769202  0.72466099  1
  O  O54  1  0.95937050  0.30230798  0.27533901  1
  O  O55  1  0.22466099  0.04062950  0.80230798  1
  O  O56  1  0.54062950  0.69769202  0.77533901  1
  O  O57  1  0.72466099  0.45937050  0.19769202  1
  O  O58  1  0.27533901  0.95937050  0.30230798  1
  O  O59  1  0.77533901  0.54062950  0.69769202  1
  O  O60  1  0.80230798  0.22466099  0.04062950  1
  O  O61  1  0.30230798  0.27533901  0.95937050  1
  O  O62  1  0.69769202  0.77533901  0.54062950  1
  O  O63  1  0.19769202  0.72466099  0.45937050  1
  O  O64  1  0.15571833  0.25260168  0.40215256  1
  O  O65  1  0.34428167  0.74739832  0.90215256  1
  O  O66  1  0.84428167  0.75260168  0.09784744  1
  O  O67  1  0.40215256  0.15571833  0.25260168  1
  O  O68  1  0.65571833  0.24739832  0.59784744  1
  O  O69  1  0.90215256  0.34428167  0.74739832  1
  O  O70  1  0.09784744  0.84428167  0.75260168  1
  O  O71  1  0.59784744  0.65571833  0.24739832  1
  O  O72  1  0.25260168  0.40215256  0.15571833  1
  O  O73  1  0.75260168  0.09784744  0.84428167  1
  O  O74  1  0.24739832  0.59784744  0.65571833  1
  O  O75  1  0.74739832  0.90215256  0.34428167  1
