# generated using pymatgen
data_Li7Mn4CoO12
_symmetry_space_group_name_H-M   'P 1'
_cell_length_a   2.88491299
_cell_length_b   14.61422721
_cell_length_c   5.34876698
_cell_angle_alpha   97.19695660
_cell_angle_beta   90.00000000
_cell_angle_gamma   84.33555723
_symmetry_Int_Tables_number   1
_chemical_formula_structural   Li7Mn4CoO12
_chemical_formula_sum   'Li7 Mn4 Co1 O12'
_cell_volume   222.62151651
_cell_formula_units_Z   1
loop_
 _symmetry_equiv_pos_site_id
 _symmetry_equiv_pos_as_xyz
  1  'x, y, z'
loop_
 _atom_site_type_symbol
 _atom_site_label
 _atom_site_symmetry_multiplicity
 _atom_site_fract_x
 _atom_site_fract_y
 _atom_site_fract_z
 _atom_site_occupancy
  Li  Li0  1  0.41684211  0.16631677  0.24845089  1
  Li  Li1  1  0.24771304  0.50457393  0.75404562  1
  Li  Li2  1  0.08561996  0.82875907  0.24595438  1
  Li  Li3  1  0.91649189  0.16701723  0.75154911  1
  Li  Li4  1  0.74538930  0.50922140  0.26818274  1
  Li  Li5  1  0.58794370  0.82411160  0.73181726  1
  Li  Li6  1  0.66666700  0.66666700  0.00000000  1
  Mn  Mn7  1  0.00227276  0.99545448  0.99623280  1
  Mn  Mn8  1  0.33106024  0.33787852  0.00376720  1
  Mn  Mn9  1  0.83245312  0.33509276  0.50264019  1
  Mn  Mn10  1  0.50087988  0.99824024  0.49735981  1
  Co  Co11  1  0.16666700  0.66666700  0.50000000  1
  O  O12  1  0.46223733  0.07552634  0.89669738  1
  O  O13  1  0.29320486  0.41359028  0.40212752  1
  O  O14  1  0.13290430  0.73419040  0.80743503  1
  O  O15  1  0.96160000  0.07680100  0.39289934  1
  O  O16  1  0.79120188  0.41759625  0.90232105  1
  O  O17  1  0.62943020  0.74113861  0.38891299  1
  O  O18  1  0.37173400  0.25653300  0.60710066  1
  O  O19  1  0.20042870  0.59914260  0.19256497  1
  O  O20  1  0.04012814  0.91974272  0.59787248  1
  O  O21  1  0.87109667  0.25780766  0.10330262  1
  O  O22  1  0.70390280  0.59219439  0.61108701  1
  O  O23  1  0.54213112  0.91573675  0.09767895  1
