# generated using pymatgen
data_Ti2Cr4Si5
_symmetry_space_group_name_H-M   'P 1'
_cell_length_a   4.79727938
_cell_length_b   7.44256981
_cell_length_c   9.03906891
_cell_angle_alpha   114.31097381
_cell_angle_beta   105.38855493
_cell_angle_gamma   90.00000000
_symmetry_Int_Tables_number   1
_chemical_formula_structural   Ti2Cr4Si5
_chemical_formula_sum   'Ti4 Cr8 Si10'
_cell_volume   281.36845300
_cell_formula_units_Z   2
loop_
 _symmetry_equiv_pos_site_id
 _symmetry_equiv_pos_as_xyz
  1  'x, y, z'
loop_
 _atom_site_type_symbol
 _atom_site_label
 _atom_site_symmetry_multiplicity
 _atom_site_fract_x
 _atom_site_fract_y
 _atom_site_fract_z
 _atom_site_occupancy
  Ti  Ti0  1  0.35828274  0.74187304  0.71656547  1
  Ti  Ti1  1  0.64171726  0.25812696  0.28343453  1
  Ti  Ti2  1  0.85828274  0.97469243  0.71656547  1
  Ti  Ti3  1  0.14171726  0.02530757  0.28343453  1
  Cr  Cr4  1  0.55740261  0.30740261  0.61480522  1
  Cr  Cr5  1  0.44259739  0.69259739  0.38519478  1
  Cr  Cr6  1  0.94259739  0.69259739  0.38519478  1
  Cr  Cr7  1  0.05740261  0.30740261  0.61480522  1
  Cr  Cr8  1  0.06318621  0.31471320  0.12637242  1
  Cr  Cr9  1  0.93681379  0.68528680  0.87362758  1
  Cr  Cr10  1  0.56318621  0.81165922  0.12637242  1
  Cr  Cr11  1  0.43681379  0.18834078  0.87362758  1
  Si  Si12  1  0.21176459  0.41827476  0.42352918  1
  Si  Si13  1  0.78823541  0.58172524  0.57647082  1
  Si  Si14  1  0.71176459  0.00525443  0.42352918  1
  Si  Si15  1  0.28823541  0.99474557  0.57647082  1
  Si  Si16  1  0.25000000  -0.00000000  0.00000000  1
  Si  Si17  1  0.75000000  -0.00000000  0.00000000  1
  Si  Si18  1  0.43536519  0.51635079  0.87073038  1
  Si  Si19  1  0.56463481  0.48364921  0.12926962  1
  Si  Si20  1  0.93536519  0.35437959  0.87073038  1
  Si  Si21  1  0.06463481  0.64562041  0.12926962  1
