# generated using pymatgen
data_Ti4CrBi2
_symmetry_space_group_name_H-M   'P 1'
_cell_length_a   5.08486538
_cell_length_b   7.89047304
_cell_length_c   7.89047304
_cell_angle_alpha   84.04065121
_cell_angle_beta   71.20303823
_cell_angle_gamma   71.20303823
_symmetry_Int_Tables_number   1
_chemical_formula_structural   Ti4CrBi2
_chemical_formula_sum   'Ti8 Cr2 Bi4'
_cell_volume   283.71311891
_cell_formula_units_Z   2
loop_
 _symmetry_equiv_pos_site_id
 _symmetry_equiv_pos_as_xyz
  1  'x, y, z'
loop_
 _atom_site_type_symbol
 _atom_site_label
 _atom_site_symmetry_multiplicity
 _atom_site_fract_x
 _atom_site_fract_y
 _atom_site_fract_z
 _atom_site_occupancy
  Ti  Ti0  1  0.08005172  0.11229874  0.72759783  1
  Ti  Ti1  1  0.91994828  0.88770126  0.27240217  1
  Ti  Ti2  1  0.80764955  0.27240217  0.11229874  1
  Ti  Ti3  1  0.41994828  0.27240217  0.88770126  1
  Ti  Ti4  1  0.19235045  0.72759783  0.88770126  1
  Ti  Ti5  1  0.58005172  0.72759783  0.11229874  1
  Ti  Ti6  1  0.69235045  0.88770126  0.72759783  1
  Ti  Ti7  1  0.30764955  0.11229874  0.27240217  1
  Cr  Cr8  1  0.25000000  -0.00000000  0.00000000  1
  Cr  Cr9  1  0.75000000  -0.00000000  0.00000000  1
  Bi  Bi10  1  0.13908171  0.50000000  0.22183658  1
  Bi  Bi11  1  0.86091829  0.50000000  0.77816342  1
  Bi  Bi12  1  0.36091829  0.77816342  0.50000000  1
  Bi  Bi13  1  0.63908171  0.22183658  0.50000000  1
