# generated using pymatgen
data_TbGa2Ag
_symmetry_space_group_name_H-M   'P 1'
_cell_length_a   4.37881258
_cell_length_b   6.96438160
_cell_length_c   10.25596337
_cell_angle_alpha   90.00000000
_cell_angle_beta   90.00000000
_cell_angle_gamma   90.00000000
_symmetry_Int_Tables_number   1
_chemical_formula_structural   TbGa2Ag
_chemical_formula_sum   'Tb4 Ga8 Ag4'
_cell_volume   312.76300533
_cell_formula_units_Z   4
loop_
 _symmetry_equiv_pos_site_id
 _symmetry_equiv_pos_as_xyz
  1  'x, y, z'
loop_
 _atom_site_type_symbol
 _atom_site_label
 _atom_site_symmetry_multiplicity
 _atom_site_fract_x
 _atom_site_fract_y
 _atom_site_fract_z
 _atom_site_occupancy
  Tb  Tb0  1  0.75000000  0.72013981  0.67247177  1
  Tb  Tb1  1  0.25000000  0.27986019  0.32752823  1
  Tb  Tb2  1  0.25000000  0.77986019  0.17247177  1
  Tb  Tb3  1  0.75000000  0.22013981  0.82752823  1
  Ga  Ga4  1  0.75000000  0.57188362  0.34711198  1
  Ga  Ga5  1  0.25000000  0.42811638  0.65288802  1
  Ga  Ga6  1  0.25000000  0.92811638  0.84711198  1
  Ga  Ga7  1  0.75000000  0.07188362  0.15288802  1
  Ga  Ga8  1  0.75000000  0.79597894  0.96265415  1
  Ga  Ga9  1  0.25000000  0.20402106  0.03734585  1
  Ga  Ga10  1  0.25000000  0.70402106  0.46265415  1
  Ga  Ga11  1  0.75000000  0.29597894  0.53734585  1
  Ag  Ag12  1  0.75000000  0.95656131  0.40232009  1
  Ag  Ag13  1  0.25000000  0.04343869  0.59767991  1
  Ag  Ag14  1  0.25000000  0.54343869  0.90232009  1
  Ag  Ag15  1  0.75000000  0.45656131  0.09767991  1
