# generated using pymatgen
data_Tm6Ti4Al43
_symmetry_space_group_name_H-M   'P 1'
_cell_length_a   11.04570909
_cell_length_b   11.04570909
_cell_length_c   17.69112648
_cell_angle_alpha   90.00000000
_cell_angle_beta   90.00000000
_cell_angle_gamma   120.00000114
_symmetry_Int_Tables_number   1
_chemical_formula_structural   Tm6Ti4Al43
_chemical_formula_sum   'Tm12 Ti8 Al86'
_cell_volume   1869.27551045
_cell_formula_units_Z   2
loop_
 _symmetry_equiv_pos_site_id
 _symmetry_equiv_pos_as_xyz
  1  'x, y, z'
loop_
 _atom_site_type_symbol
 _atom_site_label
 _atom_site_symmetry_multiplicity
 _atom_site_fract_x
 _atom_site_fract_y
 _atom_site_fract_z
 _atom_site_occupancy
  Tm  Tm0  1  0.46872739  0.46872739  0.90337824  1
  Tm  Tm1  1  0.53127261  0.53127261  0.09662176  1
  Tm  Tm2  1  1.00000000  0.53127261  0.90337824  1
  Tm  Tm3  1  0.53127261  0.53127261  0.40337824  1
  Tm  Tm4  1  1.00000000  0.53127261  0.59662176  1
  Tm  Tm5  1  0.00000000  0.46872739  0.09662176  1
  Tm  Tm6  1  0.46872739  0.46872739  0.59662176  1
  Tm  Tm7  1  0.00000000  0.46872739  0.40337824  1
  Tm  Tm8  1  0.53127261  1.00000000  0.90337824  1
  Tm  Tm9  1  0.46872739  0.00000000  0.09662176  1
  Tm  Tm10  1  0.46872739  0.00000000  0.40337824  1
  Tm  Tm11  1  0.53127261  1.00000000  0.59662176  1
  Ti  Ti12  1  0.00000000  0.00000000  -0.00000000  1
  Ti  Ti13  1  0.00000000  0.00000000  0.50000000  1
  Ti  Ti14  1  0.27238079  0.27238079  0.75000000  1
  Ti  Ti15  1  0.72761921  0.72761921  0.25000000  1
  Ti  Ti16  1  1.00000000  0.72761921  0.75000000  1
  Ti  Ti17  1  0.00000000  0.27238079  0.25000000  1
  Ti  Ti18  1  0.72761921  1.00000000  0.75000000  1
  Ti  Ti19  1  0.27238079  0.00000000  0.25000000  1
  Al  Al20  1  0.85024204  0.44742989  0.75000000  1
  Al  Al21  1  0.14975796  0.55257011  0.25000000  1
  Al  Al22  1  0.59718785  0.14975796  0.75000000  1
  Al  Al23  1  0.40281215  0.55257011  0.75000000  1
  Al  Al24  1  0.40281215  0.85024204  0.25000000  1
  Al  Al25  1  0.59718785  0.44742989  0.25000000  1
  Al  Al26  1  0.55257011  0.40281215  0.75000000  1
  Al  Al27  1  0.44742989  0.85024204  0.75000000  1
  Al  Al28  1  0.44742989  0.59718785  0.25000000  1
  Al  Al29  1  0.55257011  0.14975796  0.25000000  1
  Al  Al30  1  0.14975796  0.59718785  0.75000000  1
  Al  Al31  1  0.85024204  0.40281215  0.25000000  1
  Al  Al32  1  0.84288903  0.84288903  0.38412342  1
  Al  Al33  1  0.15711097  0.15711097  0.61587658  1
  Al  Al34  1  1.00000000  0.15711097  0.38412342  1
  Al  Al35  1  0.15711097  0.15711097  0.88412342  1
  Al  Al36  1  1.00000000  0.15711097  0.11587658  1
  Al  Al37  1  0.00000000  0.84288903  0.61587658  1
  Al  Al38  1  0.84288903  0.84288903  0.11587658  1
  Al  Al39  1  0.00000000  0.84288903  0.88412342  1
  Al  Al40  1  0.15711097  1.00000000  0.38412342  1
  Al  Al41  1  0.84288903  0.00000000  0.61587658  1
  Al  Al42  1  0.84288903  0.00000000  0.88412342  1
  Al  Al43  1  0.15711097  1.00000000  0.11587658  1
  Al  Al44  1  0.75257101  0.24742899  -0.00000000  1
  Al  Al45  1  0.24742899  0.75257101  -0.00000000  1
  Al  Al46  1  0.49485798  0.24742899  -0.00000000  1
  Al  Al47  1  0.24742899  0.75257101  0.50000000  1
  Al  Al48  1  0.50514202  0.75257101  0.50000000  1
  Al  Al49  1  0.50514202  0.75257101  -0.00000000  1
  Al  Al50  1  0.75257101  0.24742899  0.50000000  1
  Al  Al51  1  0.49485798  0.24742899  0.50000000  1
  Al  Al52  1  0.75257101  0.50514202  -0.00000000  1
  Al  Al53  1  0.24742899  0.49485798  -0.00000000  1
  Al  Al54  1  0.24742899  0.49485798  0.50000000  1
  Al  Al55  1  0.75257101  0.50514202  0.50000000  1
  Al  Al56  1  0.85334668  0.85334668  0.75000000  1
  Al  Al57  1  0.14665332  0.14665332  0.25000000  1
  Al  Al58  1  1.00000000  0.14665332  0.75000000  1
  Al  Al59  1  0.00000000  0.85334668  0.25000000  1
  Al  Al60  1  0.14665332  1.00000000  0.75000000  1
  Al  Al61  1  0.85334668  0.00000000  0.25000000  1
  Al  Al62  1  0.66666700  0.33333300  0.87405233  1
  Al  Al63  1  0.33333300  0.66666700  0.12594767  1
  Al  Al64  1  0.33333300  0.66666700  0.37405233  1
  Al  Al65  1  0.33333300  0.66666700  0.62594767  1
  Al  Al66  1  0.66666700  0.33333300  0.62594767  1
  Al  Al67  1  0.66666700  0.33333300  0.37405233  1
  Al  Al68  1  0.66666700  0.33333300  0.12594767  1
  Al  Al69  1  0.33333300  0.66666700  0.87405233  1
  Al  Al70  1  0.74535292  0.74535292  0.97090377  1
  Al  Al71  1  0.25464708  0.25464708  0.02909623  1
  Al  Al72  1  1.00000000  0.25464708  0.97090377  1
  Al  Al73  1  0.25464708  0.25464708  0.47090377  1
  Al  Al74  1  1.00000000  0.25464708  0.52909623  1
  Al  Al75  1  0.00000000  0.74535292  0.02909623  1
  Al  Al76  1  0.74535292  0.74535292  0.52909623  1
  Al  Al77  1  0.00000000  0.74535292  0.47090377  1
  Al  Al78  1  0.25464708  1.00000000  0.97090377  1
  Al  Al79  1  0.74535292  0.00000000  0.02909623  1
  Al  Al80  1  0.74535292  0.00000000  0.47090377  1
  Al  Al81  1  0.25464708  1.00000000  0.52909623  1
  Al  Al82  1  0.84169947  0.23544668  0.83575537  1
  Al  Al83  1  0.15830053  0.76455332  0.16424463  1
  Al  Al84  1  0.39374721  0.15830053  0.83575537  1
  Al  Al85  1  0.15830053  0.76455332  0.33575537  1
  Al  Al86  1  0.60625279  0.76455332  0.66424463  1
  Al  Al87  1  0.60625279  0.84169947  0.16424463  1
  Al  Al88  1  0.84169947  0.23544668  0.66424463  1
  Al  Al89  1  0.39374721  0.23544668  0.33575537  1
  Al  Al90  1  0.76455332  0.60625279  0.83575537  1
  Al  Al91  1  0.60625279  0.84169947  0.33575537  1
  Al  Al92  1  0.23544668  0.84169947  0.66424463  1
  Al  Al93  1  0.23544668  0.39374721  0.16424463  1
  Al  Al94  1  0.39374721  0.15830053  0.66424463  1
  Al  Al95  1  0.76455332  0.15830053  0.33575537  1
  Al  Al96  1  0.39374721  0.23544668  0.16424463  1
  Al  Al97  1  0.60625279  0.76455332  0.83575537  1
  Al  Al98  1  0.23544668  0.39374721  0.33575537  1
  Al  Al99  1  0.76455332  0.15830053  0.16424463  1
  Al  Al100  1  0.76455332  0.60625279  0.66424463  1
  Al  Al101  1  0.23544668  0.84169947  0.83575537  1
  Al  Al102  1  0.15830053  0.39374721  0.66424463  1
  Al  Al103  1  0.84169947  0.60625279  0.33575537  1
  Al  Al104  1  0.84169947  0.60625279  0.16424463  1
  Al  Al105  1  0.15830053  0.39374721  0.83575537  1
