# generated using pymatgen
data_Tb3TlF10
_symmetry_space_group_name_H-M   'P 1'
_cell_length_a   8.33954507
_cell_length_b   8.33954507
_cell_length_c   13.59956554
_cell_angle_alpha   90.00000000
_cell_angle_beta   90.00000000
_cell_angle_gamma   119.99999737
_symmetry_Int_Tables_number   1
_chemical_formula_structural   Tb3TlF10
_chemical_formula_sum   'Tb12 Tl4 F40'
_cell_volume   819.10654785
_cell_formula_units_Z   4
loop_
 _symmetry_equiv_pos_site_id
 _symmetry_equiv_pos_as_xyz
  1  'x, y, z'
loop_
 _atom_site_type_symbol
 _atom_site_label
 _atom_site_symmetry_multiplicity
 _atom_site_fract_x
 _atom_site_fract_y
 _atom_site_fract_z
 _atom_site_occupancy
  Tb  Tb0  1  0.17398908  0.34797817  0.72671218  1
  Tb  Tb1  1  0.17398908  0.82601092  0.72671218  1
  Tb  Tb2  1  0.82601092  0.65202183  0.22671218  1
  Tb  Tb3  1  0.65202183  0.82601092  0.72671218  1
  Tb  Tb4  1  0.82601092  0.17398908  0.22671218  1
  Tb  Tb5  1  0.34797817  0.17398908  0.22671218  1
  Tb  Tb6  1  0.50589099  0.01178198  0.98510390  1
  Tb  Tb7  1  0.50589099  0.49410901  0.98510390  1
  Tb  Tb8  1  0.49410901  0.98821802  0.48510390  1
  Tb  Tb9  1  0.98821802  0.49410901  0.98510390  1
  Tb  Tb10  1  0.49410901  0.50589099  0.48510390  1
  Tb  Tb11  1  0.01178198  0.50589099  0.48510390  1
  Tl  Tl12  1  0.66666700  0.33333300  0.73148224  1
  Tl  Tl13  1  0.33333300  0.66666700  0.23148224  1
  Tl  Tl14  1  0.00000000  -0.00000000  0.99361846  1
  Tl  Tl15  1  0.00000000  -0.00000000  0.49361846  1
  F  F16  1  0.18550370  0.37100741  0.54949371  1
  F  F17  1  0.18550370  0.81449630  0.54949371  1
  F  F18  1  0.81449630  0.62899259  0.04949371  1
  F  F19  1  0.62899259  0.81449630  0.54949371  1
  F  F20  1  0.81449630  0.18550370  0.04949371  1
  F  F21  1  0.37100741  0.18550370  0.04949371  1
  F  F22  1  0.66666700  0.33333300  0.94076079  1
  F  F23  1  0.33333300  0.66666700  0.44076079  1
  F  F24  1  0.66666700  0.33333300  0.27454806  1
  F  F25  1  0.33333300  0.66666700  0.77454806  1
  F  F26  1  0.77681697  0.55363395  0.52018266  1
  F  F27  1  0.77681697  0.22318303  0.52018266  1
  F  F28  1  0.22318303  0.44636605  0.02018266  1
  F  F29  1  0.44636605  0.22318303  0.52018266  1
  F  F30  1  0.22318303  0.77681697  0.02018266  1
  F  F31  1  0.55363395  0.77681697  0.02018266  1
  F  F32  1  0.89119452  0.78238905  0.69139728  1
  F  F33  1  0.89119452  0.10880548  0.69139728  1
  F  F34  1  0.10880548  0.21761095  0.19139728  1
  F  F35  1  0.21761095  0.10880548  0.69139728  1
  F  F36  1  0.10880548  0.89119452  0.19139728  1
  F  F37  1  0.78238905  0.89119452  0.19139728  1
  F  F38  1  0.66019997  0.66344720  0.85437687  1
  F  F39  1  0.00324724  0.33980003  0.85437687  1
  F  F40  1  0.33980003  0.33655280  0.35437687  1
  F  F41  1  0.00324724  0.66344720  0.85437687  1
  F  F42  1  0.33655280  0.99675276  0.85437687  1
  F  F43  1  0.99675276  0.66019997  0.35437687  1
  F  F44  1  0.33655280  0.33980003  0.85437687  1
  F  F45  1  0.99675276  0.33655280  0.35437687  1
  F  F46  1  0.66344720  0.00324724  0.35437687  1
  F  F47  1  0.66344720  0.66019997  0.35437687  1
  F  F48  1  0.66019997  0.99675276  0.85437687  1
  F  F49  1  0.33980003  0.00324724  0.35437687  1
  F  F50  1  0.47798855  0.95597711  0.65985333  1
  F  F51  1  0.47798855  0.52201145  0.65985333  1
  F  F52  1  0.52201145  0.04402289  0.15985333  1
  F  F53  1  0.04402289  0.52201145  0.65985333  1
  F  F54  1  0.52201145  0.47798855  0.15985333  1
  F  F55  1  0.95597711  0.47798855  0.15985333  1
