# generated using pymatgen
data_Tb2(Al3Rh)3
_symmetry_space_group_name_H-M   'P 1'
_cell_length_a   7.56040004
_cell_length_b   7.63148719
_cell_length_c   9.49742496
_cell_angle_alpha   90.00000000
_cell_angle_beta   90.00000000
_cell_angle_gamma   120.31152054
_symmetry_Int_Tables_number   1
_chemical_formula_structural   Tb2(Al3Rh)3
_chemical_formula_sum   'Tb4 Al18 Rh6'
_cell_volume   473.06257645
_cell_formula_units_Z   2
loop_
 _symmetry_equiv_pos_site_id
 _symmetry_equiv_pos_as_xyz
  1  'x, y, z'
loop_
 _atom_site_type_symbol
 _atom_site_label
 _atom_site_symmetry_multiplicity
 _atom_site_fract_x
 _atom_site_fract_y
 _atom_site_fract_z
 _atom_site_occupancy
  Tb  Tb0  1  0.67554041  0.67021212  0.25000000  1
  Tb  Tb1  1  0.32445959  0.32978788  0.75000000  1
  Tb  Tb2  1  0.32445959  0.99467171  0.25000000  1
  Tb  Tb3  1  0.67554041  0.00532829  0.75000000  1
  Al  Al4  1  0.00000000  0.12775547  0.25000000  1
  Al  Al5  1  1.00000000  0.87224453  0.75000000  1
  Al  Al6  1  0.33357363  0.33508471  0.07389214  1
  Al  Al7  1  0.66642637  0.66491529  0.92610786  1
  Al  Al8  1  0.66642637  0.66491529  0.57389214  1
  Al  Al9  1  0.66642637  0.00151108  0.42610786  1
  Al  Al10  1  0.33357363  0.33508471  0.42610786  1
  Al  Al11  1  0.33357363  0.99848892  0.57389214  1
  Al  Al12  1  0.33357363  0.99848892  0.92610786  1
  Al  Al13  1  0.66642637  0.00151108  0.07389214  1
  Al  Al14  1  1.00000000  0.33332102  0.55018793  1
  Al  Al15  1  0.00000000  0.66667898  0.44981207  1
  Al  Al16  1  0.00000000  0.66667898  0.05018793  1
  Al  Al17  1  1.00000000  0.33332102  0.94981207  1
  Al  Al18  1  0.20930609  0.54807371  0.25000000  1
  Al  Al19  1  0.79069391  0.45192629  0.75000000  1
  Al  Al20  1  0.79069391  0.33876763  0.25000000  1
  Al  Al21  1  0.20930609  0.66123237  0.75000000  1
  Rh  Rh22  1  0.65617989  0.32808995  0.00000000  1
  Rh  Rh23  1  0.34382011  0.67191005  -0.00000000  1
  Rh  Rh24  1  0.34382011  0.67191005  0.50000000  1
  Rh  Rh25  1  0.65617989  0.32808995  0.50000000  1
  Rh  Rh26  1  0.00000000  0.00000000  0.00000000  1
  Rh  Rh27  1  0.00000000  0.00000000  0.50000000  1
