# generated using pymatgen
data_Tb2SiO5
_symmetry_space_group_name_H-M   'P 1'
_cell_length_a   6.71380482
_cell_length_b   7.05760925
_cell_length_c   9.13567903
_cell_angle_alpha   90.00000000
_cell_angle_beta   107.40856828
_cell_angle_gamma   90.00000000
_symmetry_Int_Tables_number   1
_chemical_formula_structural   Tb2SiO5
_chemical_formula_sum   'Tb8 Si4 O20'
_cell_volume   413.05184118
_cell_formula_units_Z   4
loop_
 _symmetry_equiv_pos_site_id
 _symmetry_equiv_pos_as_xyz
  1  'x, y, z'
loop_
 _atom_site_type_symbol
 _atom_site_label
 _atom_site_symmetry_multiplicity
 _atom_site_fract_x
 _atom_site_fract_y
 _atom_site_fract_z
 _atom_site_occupancy
  Tb  Tb0  1  0.91771239  0.85265814  0.61511391  1
  Tb  Tb1  1  0.08228761  0.14734186  0.38488609  1
  Tb  Tb2  1  0.58228761  0.35265814  0.38488609  1
  Tb  Tb3  1  0.41771239  0.64734186  0.61511391  1
  Tb  Tb4  1  0.76647100  0.87581553  0.97353383  1
  Tb  Tb5  1  0.23352900  0.12418447  0.02646617  1
  Tb  Tb6  1  0.73352900  0.37581553  0.02646617  1
  Tb  Tb7  1  0.26647100  0.62418447  0.97353383  1
  Si  Si8  1  0.96077931  0.41343381  0.70169550  1
  Si  Si9  1  0.03922069  0.58656619  0.29830450  1
  Si  Si10  1  0.53922069  0.91343381  0.29830450  1
  Si  Si11  1  0.46077931  0.08656619  0.70169550  1
  O  O12  1  0.64515841  0.92840914  0.70516957  1
  O  O13  1  0.35484159  0.07159086  0.29483043  1
  O  O14  1  0.85484159  0.42840914  0.29483043  1
  O  O15  1  0.14515841  0.57159086  0.70516957  1
  O  O16  1  0.54898047  0.73092002  0.40613752  1
  O  O17  1  0.45101953  0.26907998  0.59386248  1
  O  O18  1  0.95101953  0.23092002  0.59386248  1
  O  O19  1  0.04898047  0.76907998  0.40613752  1
  O  O20  1  0.55172367  0.62126075  0.88444963  1
  O  O21  1  0.44827633  0.37873925  0.11555037  1
  O  O22  1  0.94827633  0.12126075  0.11555037  1
  O  O23  1  0.05172367  0.87873925  0.88444963  1
  O  O24  1  0.99157747  0.63693360  0.11440314  1
  O  O25  1  0.00842253  0.36306640  0.88559686  1
  O  O26  1  0.50842253  0.13693360  0.88559686  1
  O  O27  1  0.49157747  0.86306640  0.11440314  1
  O  O28  1  0.75187126  0.54295671  0.63168635  1
  O  O29  1  0.24812874  0.45704329  0.36831365  1
  O  O30  1  0.74812874  0.04295671  0.36831365  1
  O  O31  1  0.25187126  0.95704329  0.63168635  1
