# generated using pymatgen
data_TbTiClO3
_symmetry_space_group_name_H-M   'P 1'
_cell_length_a   3.93530781
_cell_length_b   5.30458055
_cell_length_c   9.97157800
_cell_angle_alpha   74.69997864
_cell_angle_beta   78.61934942
_cell_angle_gamma   68.22670944
_symmetry_Int_Tables_number   1
_chemical_formula_structural   TbTiClO3
_chemical_formula_sum   'Tb2 Ti2 Cl2 O6'
_cell_volume   185.30399225
_cell_formula_units_Z   2
loop_
 _symmetry_equiv_pos_site_id
 _symmetry_equiv_pos_as_xyz
  1  'x, y, z'
loop_
 _atom_site_type_symbol
 _atom_site_label
 _atom_site_symmetry_multiplicity
 _atom_site_fract_x
 _atom_site_fract_y
 _atom_site_fract_z
 _atom_site_occupancy
  Tb  Tb0  1  0.27843495  0.23756548  0.20556461  1
  Tb  Tb1  1  0.72156505  0.76243452  0.79443539  1
  Ti  Ti2  1  0.88086585  0.80758364  0.43068467  1
  Ti  Ti3  1  0.11913415  0.19241636  0.56931533  1
  Cl  Cl4  1  0.61498101  0.67574094  0.09429704  1
  Cl  Cl5  1  0.38501899  0.32425906  0.90570296  1
  O  O6  1  0.84924335  0.04746711  0.25404620  1
  O  O7  1  0.15075665  0.95253289  0.74595380  1
  O  O8  1  0.66759384  0.10029394  0.56451838  1
  O  O9  1  0.33240616  0.89970606  0.43548162  1
  O  O10  1  0.92259580  0.53106203  0.62374637  1
  O  O11  1  0.07740420  0.46893797  0.37625363  1
