# generated using pymatgen
data_Sr5Sb2As
_symmetry_space_group_name_H-M   'P 1'
_cell_length_a   8.68458619
_cell_length_b   9.92068191
_cell_length_c   13.29807783
_cell_angle_alpha   90.00000000
_cell_angle_beta   90.00000000
_cell_angle_gamma   90.00000000
_symmetry_Int_Tables_number   1
_chemical_formula_structural   Sr5Sb2As
_chemical_formula_sum   'Sr20 Sb8 As4'
_cell_volume   1145.72271914
_cell_formula_units_Z   4
loop_
 _symmetry_equiv_pos_site_id
 _symmetry_equiv_pos_as_xyz
  1  'x, y, z'
loop_
 _atom_site_type_symbol
 _atom_site_label
 _atom_site_symmetry_multiplicity
 _atom_site_fract_x
 _atom_site_fract_y
 _atom_site_fract_z
 _atom_site_occupancy
  Sr  Sr0  1  0.45628180  0.75000000  0.99788850  1
  Sr  Sr1  1  0.54371820  0.25000000  0.00211150  1
  Sr  Sr2  1  0.95628180  0.25000000  0.50211150  1
  Sr  Sr3  1  0.04371820  0.75000000  0.49788850  1
  Sr  Sr4  1  0.63986880  0.75000000  0.70170966  1
  Sr  Sr5  1  0.36013120  0.25000000  0.29829034  1
  Sr  Sr6  1  0.13986880  0.25000000  0.79829034  1
  Sr  Sr7  1  0.86013120  0.75000000  0.20170966  1
  Sr  Sr8  1  0.81365918  0.96362736  0.92446626  1
  Sr  Sr9  1  0.18634082  0.03637264  0.07553374  1
  Sr  Sr10  1  0.31365918  0.03637264  0.57553374  1
  Sr  Sr11  1  0.18634082  0.46362736  0.07553374  1
  Sr  Sr12  1  0.68634082  0.96362736  0.42446626  1
  Sr  Sr13  1  0.81365918  0.53637264  0.92446626  1
  Sr  Sr14  1  0.68634082  0.53637264  0.42446626  1
  Sr  Sr15  1  0.31365918  0.46362736  0.57553374  1
  Sr  Sr16  1  0.16479202  0.75000000  0.78488971  1
  Sr  Sr17  1  0.83520798  0.25000000  0.21511029  1
  Sr  Sr18  1  0.66479202  0.25000000  0.71511029  1
  Sr  Sr19  1  0.33520798  0.75000000  0.28488971  1
  Sb  Sb20  1  0.93394185  0.99035443  0.67085182  1
  Sb  Sb21  1  0.06605815  0.00964557  0.32914818  1
  Sb  Sb22  1  0.43394185  0.00964557  0.82914818  1
  Sb  Sb23  1  0.06605815  0.49035443  0.32914818  1
  Sb  Sb24  1  0.56605815  0.99035443  0.17085182  1
  Sb  Sb25  1  0.93394185  0.50964557  0.67085182  1
  Sb  Sb26  1  0.56605815  0.50964557  0.17085182  1
  Sb  Sb27  1  0.43394185  0.49035443  0.82914818  1
  As  As28  1  0.42648333  0.75000000  0.51379402  1
  As  As29  1  0.57351667  0.25000000  0.48620598  1
  As  As30  1  0.92648333  0.25000000  0.98620598  1
  As  As31  1  0.07351667  0.75000000  0.01379402  1
