# generated using pymatgen
data_Li7Mn4CoO12
_symmetry_space_group_name_H-M   'P 1'
_cell_length_a   2.87554098
_cell_length_b   5.35999739
_cell_length_c   14.56966535
_cell_angle_alpha   87.05615900
_cell_angle_beta   90.00000000
_cell_angle_gamma   90.00000000
_symmetry_Int_Tables_number   1
_chemical_formula_structural   Li7Mn4CoO12
_chemical_formula_sum   'Li7 Mn4 Co1 O12'
_cell_volume   224.26433988
_cell_formula_units_Z   1
loop_
 _symmetry_equiv_pos_site_id
 _symmetry_equiv_pos_as_xyz
  1  'x, y, z'
loop_
 _atom_site_type_symbol
 _atom_site_label
 _atom_site_symmetry_multiplicity
 _atom_site_fract_x
 _atom_site_fract_y
 _atom_site_fract_z
 _atom_site_occupancy
  Li  Li0  1  0.50000000  0.16666700  0.16666700  1
  Li  Li1  1  0.50000000  0.51813961  0.51085687  1
  Li  Li2  1  0.50000000  0.81519339  0.82247613  1
  Li  Li3  1  0.00000000  0.66666700  0.16666700  1
  Li  Li4  1  0.00000000  0.00264954  0.51006438  1
  Li  Li5  1  0.00000000  0.33068346  0.82326862  1
  Li  Li6  1  0.50000000  0.16666700  0.66666700  1
  Mn  Mn7  1  -0.00000000  0.99609669  0.99627142  1
  Mn  Mn8  1  0.00000000  0.33723631  0.33706158  1
  Mn  Mn9  1  0.50000000  0.49656907  0.99834546  1
  Mn  Mn10  1  0.50000000  0.83676393  0.33498754  1
  Co  Co11  1  -0.00000000  0.66666700  0.66666700  1
  O  O12  1  0.50000000  0.85609364  0.07544660  1
  O  O13  1  0.50000000  0.18940786  0.41441475  1
  O  O14  1  0.50000000  0.51729658  0.74055629  1
  O  O15  1  0.00000000  0.35259967  0.07669985  1
  O  O16  1  -0.00000000  0.69196138  0.41095725  1
  O  O17  1  0.00000000  0.94431829  0.73638905  1
  O  O18  1  0.50000000  0.47724036  0.25788740  1
  O  O19  1  0.50000000  0.81603642  0.59277671  1
  O  O20  1  0.50000000  0.14392514  0.91891825  1
  O  O21  1  -0.00000000  0.98073433  0.25663415  1
  O  O22  1  0.00000000  0.38901471  0.59694395  1
  O  O23  1  0.00000000  0.64137162  0.92237575  1
