# generated using pymatgen
data_Sm(Al5Ru)2
_symmetry_space_group_name_H-M   'P 1'
_cell_length_a   6.87273390
_cell_length_b   6.87273390
_cell_length_c   9.18286155
_cell_angle_alpha   90.00000000
_cell_angle_beta   90.00000000
_cell_angle_gamma   96.84074419
_symmetry_Int_Tables_number   1
_chemical_formula_structural   Sm(Al5Ru)2
_chemical_formula_sum   'Sm2 Al20 Ru4'
_cell_volume   430.65978596
_cell_formula_units_Z   2
loop_
 _symmetry_equiv_pos_site_id
 _symmetry_equiv_pos_as_xyz
  1  'x, y, z'
loop_
 _atom_site_type_symbol
 _atom_site_label
 _atom_site_symmetry_multiplicity
 _atom_site_fract_x
 _atom_site_fract_y
 _atom_site_fract_z
 _atom_site_occupancy
  Sm  Sm0  1  0.87455875  0.12544125  0.75000000  1
  Sm  Sm1  1  0.12544125  0.87455875  0.25000000  1
  Al  Al2  1  0.62318636  0.37681364  0.95092302  1
  Al  Al3  1  0.37681364  0.62318636  0.04907698  1
  Al  Al4  1  0.37681364  0.62318636  0.45092302  1
  Al  Al5  1  0.62318636  0.37681364  0.54907698  1
  Al  Al6  1  0.77178622  0.77178622  0.00000000  1
  Al  Al7  1  0.22821378  0.22821378  0.00000000  1
  Al  Al8  1  0.22821378  0.22821378  0.50000000  1
  Al  Al9  1  0.77178622  0.77178622  0.50000000  1
  Al  Al10  1  0.84188090  0.15811910  0.39965753  1
  Al  Al11  1  0.15811910  0.84188090  0.60034247  1
  Al  Al12  1  0.15811910  0.84188090  0.89965753  1
  Al  Al13  1  0.84188090  0.15811910  0.10034247  1
  Al  Al14  1  0.41310772  0.13897846  0.75000000  1
  Al  Al15  1  0.58689228  0.86102154  0.25000000  1
  Al  Al16  1  0.86102154  0.58689228  0.75000000  1
  Al  Al17  1  0.13897846  0.41310772  0.25000000  1
  Al  Al18  1  0.51859905  0.77757254  0.75000000  1
  Al  Al19  1  0.48140095  0.22242746  0.25000000  1
  Al  Al20  1  0.22242746  0.48140095  0.75000000  1
  Al  Al21  1  0.77757254  0.51859905  0.25000000  1
  Ru  Ru22  1  0.50000000  -0.00000000  0.00000000  1
  Ru  Ru23  1  0.50000000  -0.00000000  0.50000000  1
  Ru  Ru24  1  0.00000000  0.50000000  0.50000000  1
  Ru  Ru25  1  0.00000000  0.50000000  0.00000000  1
