# generated using pymatgen
data_Li9Co7O16
_symmetry_space_group_name_H-M   'P 1'
_cell_length_a   2.96559442
_cell_length_b   19.43963343
_cell_length_c   5.05037690
_cell_angle_alpha   102.59428219
_cell_angle_beta   90.00000000
_cell_angle_gamma   90.00000000
_symmetry_Int_Tables_number   1
_chemical_formula_structural   Li9Co7O16
_chemical_formula_sum   'Li9 Co7 O16'
_cell_volume   284.14896601
_cell_formula_units_Z   1
loop_
 _symmetry_equiv_pos_site_id
 _symmetry_equiv_pos_as_xyz
  1  'x, y, z'
loop_
 _atom_site_type_symbol
 _atom_site_label
 _atom_site_symmetry_multiplicity
 _atom_site_fract_x
 _atom_site_fract_y
 _atom_site_fract_z
 _atom_site_occupancy
  Li  Li0  1  0.50000000  0.00048195  0.50450508  1
  Li  Li1  1  0.00000000  0.12436459  0.74998423  1
  Li  Li2  1  0.50000000  0.24854378  -0.00023484  1
  Li  Li3  1  0.00000000  0.37500000  0.25000000  1
  Li  Li4  1  0.50000000  0.50145622  0.50023484  1
  Li  Li5  1  0.00000000  0.87500000  0.25000000  1
  Li  Li6  1  0.50000000  0.74951805  0.99549492  1
  Li  Li7  1  0.00000000  0.62563541  0.75001577  1
  Li  Li8  1  0.50000000  0.87500000  0.75000000  1
  Co  Co9  1  0.00000000  0.99506388  0.99652610  1
  Co  Co10  1  -0.00000000  0.75493612  0.50347390  1
  Co  Co11  1  0.50000000  0.12386532  0.24212412  1
  Co  Co12  1  0.00000000  0.24956256  0.49339450  1
  Co  Co13  1  0.50000000  0.37500000  0.75000000  1
  Co  Co14  1  0.00000000  0.50043744  0.00660550  1
  Co  Co15  1  0.50000000  0.62613468  0.25787588  1
  O  O16  1  0.50000000  0.94194444  0.12074091  1
  O  O17  1  0.00000000  0.06026549  0.34098051  1
  O  O18  1  0.50000000  0.18797219  0.60275847  1
  O  O19  1  -0.00000000  0.31215907  0.84330292  1
  O  O20  1  0.50000000  0.44119342  0.11677834  1
  O  O21  1  0.00000000  0.80454096  0.83131175  1
  O  O22  1  0.50000000  0.68560426  0.60650207  1
  O  O23  1  0.00000000  0.56229077  0.35243785  1
  O  O24  1  0.50000000  0.06439574  0.89349793  1
  O  O25  1  0.00000000  0.18770923  0.14756215  1
  O  O26  1  0.50000000  0.30880658  0.38322166  1
  O  O27  1  0.00000000  0.43784093  0.65669708  1
  O  O28  1  0.50000000  0.56202781  0.89724153  1
  O  O29  1  0.00000000  0.94545904  0.66868825  1
  O  O30  1  0.50000000  0.80805556  0.37925909  1
  O  O31  1  -0.00000000  0.68973451  0.15901949  1
