# generated using pymatgen
data_Sm6Ni20P13
_symmetry_space_group_name_H-M   'P 1'
_cell_length_a   3.81561451
_cell_length_b   12.78060799
_cell_length_c   12.78060798
_cell_angle_alpha   120.00000096
_cell_angle_beta   90.00000000
_cell_angle_gamma   90.00000000
_symmetry_Int_Tables_number   1
_chemical_formula_structural   Sm6Ni20P13
_chemical_formula_sum   'Sm6 Ni20 P13'
_cell_volume   539.75683104
_cell_formula_units_Z   1
loop_
 _symmetry_equiv_pos_site_id
 _symmetry_equiv_pos_as_xyz
  1  'x, y, z'
loop_
 _atom_site_type_symbol
 _atom_site_label
 _atom_site_symmetry_multiplicity
 _atom_site_fract_x
 _atom_site_fract_y
 _atom_site_fract_z
 _atom_site_occupancy
  Sm  Sm0  1  -0.00000000  0.53107413  0.81285857  1
  Sm  Sm1  1  0.00000000  0.28178444  0.46892587  1
  Sm  Sm2  1  0.00000000  0.18714143  0.71821556  1
  Sm  Sm3  1  0.50000000  0.81298322  0.28133782  1
  Sm  Sm4  1  0.50000000  0.46835460  0.18701678  1
  Sm  Sm5  1  0.50000000  0.71866218  0.53164540  1
  Ni  Ni6  1  -0.00000000  0.80622939  0.91006345  1
  Ni  Ni7  1  0.00000000  0.10383406  0.19377061  1
  Ni  Ni8  1  -0.00000000  0.08993655  0.89616594  1
  Ni  Ni9  1  0.50000000  0.33333300  0.66666700  1
  Ni  Ni10  1  0.50000000  0.92856661  0.08048636  1
  Ni  Ni11  1  0.50000000  0.15191975  0.07143339  1
  Ni  Ni12  1  0.50000000  0.91951364  0.84808025  1
  Ni  Ni13  1  0.00000000  0.66666700  0.33333300  1
  Ni  Ni14  1  -0.00000000  0.56277235  0.58466201  1
  Ni  Ni15  1  -0.00000000  0.02188966  0.43722765  1
  Ni  Ni16  1  0.00000000  0.41533799  0.97811034  1
  Ni  Ni17  1  0.50000000  0.68532628  0.75554425  1
  Ni  Ni18  1  0.50000000  0.07021797  0.31467372  1
  Ni  Ni19  1  0.50000000  0.24445575  0.92978203  1
  Ni  Ni20  1  0.50000000  0.97692225  0.56579544  1
  Ni  Ni21  1  0.50000000  0.58887319  0.02307775  1
  Ni  Ni22  1  0.50000000  0.43420456  0.41112681  1
  Ni  Ni23  1  -0.00000000  0.75912964  0.07702309  1
  Ni  Ni24  1  -0.00000000  0.31789345  0.24087036  1
  Ni  Ni25  1  0.00000000  0.92297691  0.68210655  1
  P  P26  1  0.50000000  0.47860076  0.61308246  1
  P  P27  1  0.50000000  0.13448170  0.52139924  1
  P  P28  1  0.50000000  0.38691754  0.86551830  1
  P  P29  1  0.50000000  0.72440995  0.95549158  1
  P  P30  1  0.50000000  0.23108163  0.27559005  1
  P  P31  1  0.50000000  0.04450842  0.76891837  1
  P  P32  1  -0.00000000  0.86473746  0.47898075  1
  P  P33  1  0.00000000  0.61424329  0.13526254  1
  P  P34  1  -0.00000000  0.52101925  0.38575671  1
  P  P35  1  0.00000000  0.95356061  0.23398993  1
  P  P36  1  0.00000000  0.28042932  0.04643939  1
  P  P37  1  -0.00000000  0.76601007  0.71957068  1
  P  P38  1  0.00000000  -0.00000000  -0.00000000  1
