# generated using pymatgen
data_Tb2(Ga3Ru)3
_symmetry_space_group_name_H-M   'P 1'
_cell_length_a   7.48281127
_cell_length_b   7.48281127
_cell_length_c   9.74311796
_cell_angle_alpha   90.00000000
_cell_angle_beta   90.00000000
_cell_angle_gamma   119.47046535
_symmetry_Int_Tables_number   1
_chemical_formula_structural   Tb2(Ga3Ru)3
_chemical_formula_sum   'Tb4 Ga18 Ru6'
_cell_volume   474.95329282
_cell_formula_units_Z   2
loop_
 _symmetry_equiv_pos_site_id
 _symmetry_equiv_pos_as_xyz
  1  'x, y, z'
loop_
 _atom_site_type_symbol
 _atom_site_label
 _atom_site_symmetry_multiplicity
 _atom_site_fract_x
 _atom_site_fract_y
 _atom_site_fract_z
 _atom_site_occupancy
  Tb  Tb0  1  0.66982417  0.99692430  0.25000000  1
  Tb  Tb1  1  0.33017583  0.00307570  0.75000000  1
  Tb  Tb2  1  0.99692430  0.66982417  0.25000000  1
  Tb  Tb3  1  0.00307570  0.33017583  0.75000000  1
  Ga  Ga4  1  0.12645889  0.12645889  0.25000000  1
  Ga  Ga5  1  0.87354111  0.87354111  0.75000000  1
  Ga  Ga6  1  0.33553357  0.00672994  0.07624674  1
  Ga  Ga7  1  0.66446643  0.99327006  0.92375326  1
  Ga  Ga8  1  0.66446643  0.99327006  0.57624674  1
  Ga  Ga9  1  0.00672994  0.33553357  0.42375326  1
  Ga  Ga10  1  0.33553357  0.00672994  0.42375326  1
  Ga  Ga11  1  0.99327006  0.66446643  0.57624674  1
  Ga  Ga12  1  0.99327006  0.66446643  0.92375326  1
  Ga  Ga13  1  0.00672994  0.33553357  0.07624674  1
  Ga  Ga14  1  0.33792902  0.33792902  0.55988930  1
  Ga  Ga15  1  0.66207098  0.66207098  0.44011070  1
  Ga  Ga16  1  0.66207098  0.66207098  0.05988930  1
  Ga  Ga17  1  0.33792902  0.33792902  0.94011070  1
  Ga  Ga18  1  0.54843401  0.33700427  0.25000000  1
  Ga  Ga19  1  0.45156599  0.66299573  0.75000000  1
  Ga  Ga20  1  0.33700427  0.54843401  0.25000000  1
  Ga  Ga21  1  0.66299573  0.45156599  0.75000000  1
  Ru  Ru22  1  0.32546589  0.67453411  -0.00000000  1
  Ru  Ru23  1  0.67453411  0.32546589  -0.00000000  1
  Ru  Ru24  1  0.67453411  0.32546589  0.50000000  1
  Ru  Ru25  1  0.32546589  0.67453411  0.50000000  1
  Ru  Ru26  1  -0.00000000  -0.00000000  -0.00000000  1
  Ru  Ru27  1  -0.00000000  -0.00000000  0.50000000  1
