# generated using pymatgen
data_Sm3W(ClO2)3
_symmetry_space_group_name_H-M   'P 1'
_cell_length_a   5.36696702
_cell_length_b   9.27214252
_cell_length_c   9.27214252
_cell_angle_alpha   120.00000282
_cell_angle_beta   90.00000000
_cell_angle_gamma   90.00000000
_symmetry_Int_Tables_number   1
_chemical_formula_structural   Sm3W(ClO2)3
_chemical_formula_sum   'Sm6 W2 Cl6 O12'
_cell_volume   399.59472118
_cell_formula_units_Z   2
loop_
 _symmetry_equiv_pos_site_id
 _symmetry_equiv_pos_as_xyz
  1  'x, y, z'
loop_
 _atom_site_type_symbol
 _atom_site_label
 _atom_site_symmetry_multiplicity
 _atom_site_fract_x
 _atom_site_fract_y
 _atom_site_fract_z
 _atom_site_occupancy
  Sm  Sm0  1  0.75000000  0.59535072  0.68607542  1
  Sm  Sm1  1  0.25000000  0.40464928  0.31392458  1
  Sm  Sm2  1  0.75000000  0.09072470  0.40464928  1
  Sm  Sm3  1  0.25000000  0.90927530  0.59535072  1
  Sm  Sm4  1  0.75000000  0.31392458  0.90927530  1
  Sm  Sm5  1  0.25000000  0.68607542  0.09072470  1
  W  W6  1  0.75000000  0.66666700  0.33333300  1
  W  W7  1  0.25000000  0.33333300  0.66666700  1
  Cl  Cl8  1  0.75000000  0.80918839  0.04905482  1
  Cl  Cl9  1  0.25000000  0.19081161  0.95094518  1
  Cl  Cl10  1  0.75000000  0.23986643  0.19081161  1
  Cl  Cl11  1  0.25000000  0.76013357  0.80918839  1
  Cl  Cl12  1  0.75000000  0.95094518  0.76013357  1
  Cl  Cl13  1  0.25000000  0.04905482  0.23986643  1
  O  O14  1  0.98494788  0.84252545  0.36439951  1
  O  O15  1  0.01505212  0.15747455  0.63560049  1
  O  O16  1  0.98494788  0.52187406  0.15747455  1
  O  O17  1  0.48494788  0.15747455  0.63560049  1
  O  O18  1  0.01505212  0.47812594  0.84252545  1
  O  O19  1  0.51505212  0.84252545  0.36439951  1
  O  O20  1  0.98494788  0.63560049  0.47812594  1
  O  O21  1  0.48494788  0.47812594  0.84252545  1
  O  O22  1  0.01505212  0.36439951  0.52187406  1
  O  O23  1  0.51505212  0.52187406  0.15747455  1
  O  O24  1  0.48494788  0.36439951  0.52187406  1
  O  O25  1  0.51505212  0.63560049  0.47812594  1
