# generated using pymatgen
data_Sr2CoSi2O7
_symmetry_space_group_name_H-M   'P 1'
_cell_length_a   5.24636801
_cell_length_b   8.09359649
_cell_length_c   8.09359649
_cell_angle_alpha   90.00000000
_cell_angle_beta   90.00000000
_cell_angle_gamma   90.00000000
_symmetry_Int_Tables_number   1
_chemical_formula_structural   Sr2CoSi2O7
_chemical_formula_sum   'Sr4 Co2 Si4 O14'
_cell_volume   343.67017851
_cell_formula_units_Z   2
loop_
 _symmetry_equiv_pos_site_id
 _symmetry_equiv_pos_as_xyz
  1  'x, y, z'
loop_
 _atom_site_type_symbol
 _atom_site_label
 _atom_site_symmetry_multiplicity
 _atom_site_fract_x
 _atom_site_fract_y
 _atom_site_fract_z
 _atom_site_occupancy
  Sr  Sr0  1  0.50636290  0.16678203  0.66678203  1
  Sr  Sr1  1  0.50636290  0.83321797  0.33321797  1
  Sr  Sr2  1  0.49363710  0.66678203  0.83321797  1
  Sr  Sr3  1  0.49363710  0.33321797  0.16678203  1
  Co  Co4  1  -0.00000000  -0.00000000  0.00000000  1
  Co  Co5  1  -0.00000000  0.50000000  0.50000000  1
  Si  Si6  1  0.94346157  0.63825284  0.13825284  1
  Si  Si7  1  0.94346157  0.36174716  0.86174716  1
  Si  Si8  1  0.05653843  0.13825284  0.36174716  1
  Si  Si9  1  0.05653843  0.86174716  0.63825284  1
  O  O10  1  0.25072379  0.64001121  0.14001121  1
  O  O11  1  0.25072379  0.35998879  0.85998879  1
  O  O12  1  0.74927621  0.14001121  0.35998879  1
  O  O13  1  0.74927621  0.85998879  0.64001121  1
  O  O14  1  0.16579104  -0.00000000  0.50000000  1
  O  O15  1  0.83420896  0.50000000  0.00000000  1
  O  O16  1  0.20191627  0.07935329  0.19067092  1
  O  O17  1  0.20191627  0.92064671  0.80932908  1
  O  O18  1  0.79808373  0.19067092  0.92064671  1
  O  O19  1  0.79808373  0.42064671  0.69067092  1
  O  O20  1  0.79808373  0.80932908  0.07935329  1
  O  O21  1  0.79808373  0.57935329  0.30932908  1
  O  O22  1  0.20191627  0.30932908  0.42064671  1
  O  O23  1  0.20191627  0.69067092  0.57935329  1
