# generated using pymatgen
data_Sm2SiO5
_symmetry_space_group_name_H-M   'P 1'
_cell_length_a   6.85176025
_cell_length_b   7.18539994
_cell_length_c   9.26863574
_cell_angle_alpha   90.00000000
_cell_angle_beta   107.76194858
_cell_angle_gamma   90.00000000
_symmetry_Int_Tables_number   1
_chemical_formula_structural   Sm2SiO5
_chemical_formula_sum   'Sm8 Si4 O20'
_cell_volume   434.56764442
_cell_formula_units_Z   4
loop_
 _symmetry_equiv_pos_site_id
 _symmetry_equiv_pos_as_xyz
  1  'x, y, z'
loop_
 _atom_site_type_symbol
 _atom_site_label
 _atom_site_symmetry_multiplicity
 _atom_site_fract_x
 _atom_site_fract_y
 _atom_site_fract_z
 _atom_site_occupancy
  Sm  Sm0  1  0.91600538  0.85294571  0.61411251  1
  Sm  Sm1  1  0.08399462  0.14705429  0.38588749  1
  Sm  Sm2  1  0.58399462  0.35294571  0.38588749  1
  Sm  Sm3  1  0.41600538  0.64705429  0.61411251  1
  Sm  Sm4  1  0.76584145  0.87576215  0.97475476  1
  Sm  Sm5  1  0.23415855  0.12423785  0.02524524  1
  Sm  Sm6  1  0.73415855  0.37576215  0.02524524  1
  Sm  Sm7  1  0.26584145  0.62423785  0.97475476  1
  Si  Si8  1  0.96034168  0.41352860  0.70082249  1
  Si  Si9  1  0.03965832  0.58647140  0.29917751  1
  Si  Si10  1  0.53965832  0.91352860  0.29917751  1
  Si  Si11  1  0.46034168  0.08647140  0.70082249  1
  O  O12  1  0.64260944  0.93114229  0.70455994  1
  O  O13  1  0.35739056  0.06885771  0.29544006  1
  O  O14  1  0.85739056  0.43114229  0.29544006  1
  O  O15  1  0.14260944  0.56885771  0.70455994  1
  O  O16  1  0.54970214  0.73382439  0.40490137  1
  O  O17  1  0.45029786  0.26617561  0.59509863  1
  O  O18  1  0.95029786  0.23382439  0.59509863  1
  O  O19  1  0.04970214  0.76617561  0.40490137  1
  O  O20  1  0.54986077  0.62177362  0.88413694  1
  O  O21  1  0.45013923  0.37822638  0.11586306  1
  O  O22  1  0.95013923  0.12177362  0.11586306  1
  O  O23  1  0.04986077  0.87822638  0.88413694  1
  O  O24  1  0.99302968  0.63585040  0.11657210  1
  O  O25  1  0.00697032  0.36414960  0.88342790  1
  O  O26  1  0.50697032  0.13585040  0.88342790  1
  O  O27  1  0.49302968  0.86414960  0.11657210  1
  O  O28  1  0.75363168  0.54090875  0.63220086  1
  O  O29  1  0.24636832  0.45909125  0.36779914  1
  O  O30  1  0.74636832  0.04090875  0.36779914  1
  O  O31  1  0.25363168  0.95909125  0.63220086  1
