# generated using pymatgen
data_RbTmBeF6
_symmetry_space_group_name_H-M   'P 1'
_cell_length_a   5.82803887
_cell_length_b   6.51286841
_cell_length_c   7.13314964
_cell_angle_alpha   113.73879991
_cell_angle_beta   90.00000000
_cell_angle_gamma   90.00000000
_symmetry_Int_Tables_number   1
_chemical_formula_structural   RbTmBeF6
_chemical_formula_sum   'Rb2 Tm2 Be2 F12'
_cell_volume   247.84623824
_cell_formula_units_Z   2
loop_
 _symmetry_equiv_pos_site_id
 _symmetry_equiv_pos_as_xyz
  1  'x, y, z'
loop_
 _atom_site_type_symbol
 _atom_site_label
 _atom_site_symmetry_multiplicity
 _atom_site_fract_x
 _atom_site_fract_y
 _atom_site_fract_z
 _atom_site_occupancy
  Rb  Rb0  1  0.75000000  0.07702934  0.20991353  1
  Rb  Rb1  1  0.25000000  0.92297066  0.79008647  1
  Tm  Tm2  1  0.75000000  0.39132104  0.82125249  1
  Tm  Tm3  1  0.25000000  0.60867896  0.17874751  1
  Be  Be4  1  0.75000000  0.76563519  0.53506061  1
  Be  Be5  1  0.25000000  0.23436481  0.46493939  1
  F  F6  1  0.96731631  0.75947649  0.40230806  1
  F  F7  1  0.03268369  0.24052351  0.59769194  1
  F  F8  1  0.46731631  0.24052351  0.59769194  1
  F  F9  1  0.53268369  0.75947649  0.40230806  1
  F  F10  1  0.75000000  0.56603515  0.60067135  1
  F  F11  1  0.25000000  0.43396485  0.39932865  1
  F  F12  1  0.99926981  0.67173199  0.96748783  1
  F  F13  1  0.00073019  0.32826801  0.03251217  1
  F  F14  1  0.49926981  0.32826801  0.03251217  1
  F  F15  1  0.50073019  0.67173199  0.96748783  1
  F  F16  1  0.75000000  0.99409790  0.73138255  1
  F  F17  1  0.25000000  0.00590210  0.26861745  1
