# generated using pymatgen
data_Sc2(Al3Co)3
_symmetry_space_group_name_H-M   'P 1'
_cell_length_a   7.28988169
_cell_length_b   7.28988169
_cell_length_c   9.08975609
_cell_angle_alpha   90.00000000
_cell_angle_beta   90.00000000
_cell_angle_gamma   119.23451716
_symmetry_Int_Tables_number   1
_chemical_formula_structural   Sc2(Al3Co)3
_chemical_formula_sum   'Sc4 Al18 Co6'
_cell_volume   421.52403238
_cell_formula_units_Z   2
loop_
 _symmetry_equiv_pos_site_id
 _symmetry_equiv_pos_as_xyz
  1  'x, y, z'
loop_
 _atom_site_type_symbol
 _atom_site_label
 _atom_site_symmetry_multiplicity
 _atom_site_fract_x
 _atom_site_fract_y
 _atom_site_fract_z
 _atom_site_occupancy
  Sc  Sc0  1  0.67818851  0.99418277  0.25000000  1
  Sc  Sc1  1  0.32181149  0.00581723  0.75000000  1
  Sc  Sc2  1  0.99418277  0.67818851  0.25000000  1
  Sc  Sc3  1  0.00581723  0.32181149  0.75000000  1
  Al  Al4  1  0.33684290  0.99548126  0.07420503  1
  Al  Al5  1  0.66315710  0.00451874  0.92579497  1
  Al  Al6  1  0.66315710  0.00451874  0.57420503  1
  Al  Al7  1  0.99548126  0.33684290  0.42579497  1
  Al  Al8  1  0.33684290  0.99548126  0.42579497  1
  Al  Al9  1  0.00451874  0.66315710  0.57420503  1
  Al  Al10  1  0.00451874  0.66315710  0.92579497  1
  Al  Al11  1  0.99548126  0.33684290  0.07420503  1
  Al  Al12  1  0.56555604  0.34118633  0.25000000  1
  Al  Al13  1  0.43444396  0.65881367  0.75000000  1
  Al  Al14  1  0.34118633  0.56555604  0.25000000  1
  Al  Al15  1  0.65881367  0.43444396  0.75000000  1
  Al  Al16  1  0.32986081  0.32986081  0.54722337  1
  Al  Al17  1  0.67013919  0.67013919  0.45277663  1
  Al  Al18  1  0.67013919  0.67013919  0.04722337  1
  Al  Al19  1  0.32986081  0.32986081  0.95277663  1
  Al  Al20  1  0.12361420  0.12361420  0.25000000  1
  Al  Al21  1  0.87638580  0.87638580  0.75000000  1
  Co  Co22  1  0.32844811  0.67155189  0.00000000  1
  Co  Co23  1  0.67155189  0.32844811  0.00000000  1
  Co  Co24  1  0.67155189  0.32844811  0.50000000  1
  Co  Co25  1  0.32844811  0.67155189  0.50000000  1
  Co  Co26  1  -0.00000000  -0.00000000  0.00000000  1
  Co  Co27  1  -0.00000000  -0.00000000  0.50000000  1
