# generated using pymatgen
data_Li9Mn2Co5O16
_symmetry_space_group_name_H-M   'P 1'
_cell_length_a   5.02265495
_cell_length_b   9.77003819
_cell_length_c   5.86882429
_cell_angle_alpha   87.13364227
_cell_angle_beta   93.03268305
_cell_angle_gamma   100.81331599
_symmetry_Int_Tables_number   1
_chemical_formula_structural   Li9Mn2Co5O16
_chemical_formula_sum   'Li9 Mn2 Co5 O16'
_cell_volume   282.24640499
_cell_formula_units_Z   1
loop_
 _symmetry_equiv_pos_site_id
 _symmetry_equiv_pos_as_xyz
  1  'x, y, z'
loop_
 _atom_site_type_symbol
 _atom_site_label
 _atom_site_symmetry_multiplicity
 _atom_site_fract_x
 _atom_site_fract_y
 _atom_site_fract_z
 _atom_site_occupancy
  Li  Li0  1  0.75242235  0.25185440  0.00239073  1
  Li  Li1  1  0.75721688  0.74081774  0.24957950  1
  Li  Li2  1  0.75547836  0.25350490  0.49605365  1
  Li  Li3  1  0.24278312  0.25918226  0.25042050  1
  Li  Li4  1  0.24757765  0.74814560  0.49760927  1
  Li  Li5  1  0.25388686  0.25665527  0.75297162  1
  Li  Li6  1  0.74611314  0.74334473  0.74702838  1
  Li  Li7  1  0.24452164  0.74649510  0.00394635  1
  Li  Li8  1  -0.00000000  0.50000000  0.25000000  1
  Mn  Mn9  1  0.99962749  0.99967899  0.00005485  1
  Mn  Mn10  1  0.00037251  0.00032101  0.49994515  1
  Co  Co11  1  -0.00000000  0.50000000  0.75000000  1
  Co  Co12  1  0.49352985  0.49844539  0.49553488  1
  Co  Co13  1  0.50000000  -0.00000000  0.75000000  1
  Co  Co14  1  0.50647015  0.50155461  0.00446512  1
  Co  Co15  1  0.50000000  -0.00000000  0.25000000  1
  O  O16  1  0.85766416  0.11878736  0.76682374  1
  O  O17  1  0.84594674  0.61220556  0.99583758  1
  O  O18  1  0.85776638  0.11959689  0.26670766  1
  O  O19  1  0.36544998  0.11475130  0.01720565  1
  O  O20  1  0.40003507  0.60724248  0.24612531  1
  O  O21  1  0.36722778  0.11430860  0.51631875  1
  O  O22  1  0.85661027  0.60985864  0.51219007  1
  O  O23  1  0.38808861  0.60738483  0.74022859  1
  O  O24  1  0.59996493  0.39275752  0.25387469  1
  O  O25  1  0.63455002  0.88524870  0.48279435  1
  O  O26  1  0.61191139  0.39261517  0.75977141  1
  O  O27  1  0.15405326  0.38779444  0.50416242  1
  O  O28  1  0.14233584  0.88121264  0.73317626  1
  O  O29  1  0.14338973  0.39014136  0.98780993  1
  O  O30  1  0.63277222  0.88569140  0.98368125  1
  O  O31  1  0.14223362  0.88040311  0.23329234  1
