# generated using pymatgen
data_SmSiPd
_symmetry_space_group_name_H-M   'P 1'
_cell_length_a   4.40758370
_cell_length_b   21.52870130
_cell_length_c   7.50324891
_cell_angle_alpha   90.00000000
_cell_angle_beta   90.00000000
_cell_angle_gamma   90.00000000
_symmetry_Int_Tables_number   1
_chemical_formula_structural   SmSiPd
_chemical_formula_sum   'Sm12 Si12 Pd12'
_cell_volume   711.97993461
_cell_formula_units_Z   12
loop_
 _symmetry_equiv_pos_site_id
 _symmetry_equiv_pos_as_xyz
  1  'x, y, z'
loop_
 _atom_site_type_symbol
 _atom_site_label
 _atom_site_symmetry_multiplicity
 _atom_site_fract_x
 _atom_site_fract_y
 _atom_site_fract_z
 _atom_site_occupancy
  Sm  Sm0  1  0.75000000  0.66714419  0.29389937  1
  Sm  Sm1  1  0.25000000  0.33285581  0.70610063  1
  Sm  Sm2  1  0.25000000  0.83285581  0.79389937  1
  Sm  Sm3  1  0.75000000  0.16714419  0.20610063  1
  Sm  Sm4  1  0.75000000  0.83366519  0.20706701  1
  Sm  Sm5  1  0.25000000  0.16633481  0.79293299  1
  Sm  Sm6  1  0.25000000  0.66633481  0.70706701  1
  Sm  Sm7  1  0.75000000  0.33366519  0.29293299  1
  Sm  Sm8  1  0.75000000  0.99813002  0.28683823  1
  Sm  Sm9  1  0.25000000  0.00186998  0.71316177  1
  Sm  Sm10  1  0.25000000  0.50186998  0.78683823  1
  Sm  Sm11  1  0.75000000  0.49813002  0.21316177  1
  Si  Si12  1  0.75000000  0.92906846  0.91118245  1
  Si  Si13  1  0.25000000  0.07093154  0.08881755  1
  Si  Si14  1  0.25000000  0.57093154  0.41118245  1
  Si  Si15  1  0.75000000  0.42906846  0.58881755  1
  Si  Si16  1  0.75000000  0.72790360  0.91637530  1
  Si  Si17  1  0.25000000  0.27209640  0.08362470  1
  Si  Si18  1  0.25000000  0.77209640  0.41637530  1
  Si  Si19  1  0.75000000  0.22790360  0.58362470  1
  Si  Si20  1  0.75000000  0.60546236  0.91583438  1
  Si  Si21  1  0.25000000  0.39453764  0.08416562  1
  Si  Si22  1  0.25000000  0.89453764  0.41583438  1
  Si  Si23  1  0.75000000  0.10546236  0.58416562  1
  Pd  Pd24  1  0.75000000  0.76276013  0.58330305  1
  Pd  Pd25  1  0.25000000  0.23723987  0.41669695  1
  Pd  Pd26  1  0.25000000  0.73723987  0.08330305  1
  Pd  Pd27  1  0.75000000  0.26276013  0.91669695  1
  Pd  Pd28  1  0.75000000  0.56391919  0.58306958  1
  Pd  Pd29  1  0.25000000  0.43608081  0.41693042  1
  Pd  Pd30  1  0.25000000  0.93608081  0.08306958  1
  Pd  Pd31  1  0.75000000  0.06391919  0.91693042  1
  Pd  Pd32  1  0.75000000  0.90640551  0.58000938  1
  Pd  Pd33  1  0.25000000  0.09359449  0.41999062  1
  Pd  Pd34  1  0.25000000  0.59359449  0.08000938  1
  Pd  Pd35  1  0.75000000  0.40640551  0.91999062  1
