# generated using pymatgen
data_RbTlS2
_symmetry_space_group_name_H-M   'P 1'
_cell_length_a   8.18814194
_cell_length_b   8.18814194
_cell_length_c   16.00564175
_cell_angle_alpha   82.54409243
_cell_angle_beta   82.54409243
_cell_angle_gamma   90.05895099
_symmetry_Int_Tables_number   1
_chemical_formula_structural   RbTlS2
_chemical_formula_sum   'Rb8 Tl8 S16'
_cell_volume   1054.86518328
_cell_formula_units_Z   8
loop_
 _symmetry_equiv_pos_site_id
 _symmetry_equiv_pos_as_xyz
  1  'x, y, z'
loop_
 _atom_site_type_symbol
 _atom_site_label
 _atom_site_symmetry_multiplicity
 _atom_site_fract_x
 _atom_site_fract_y
 _atom_site_fract_z
 _atom_site_occupancy
  Rb  Rb0  1  0.34555285  0.22287036  0.61456329  1
  Rb  Rb1  1  0.65444715  0.77712964  0.38543671  1
  Rb  Rb2  1  0.77712964  0.65444715  0.88543671  1
  Rb  Rb3  1  0.22287036  0.34555285  0.11456329  1
  Rb  Rb4  1  0.77486286  0.15217588  0.89069863  1
  Rb  Rb5  1  0.22513714  0.84782412  0.10930137  1
  Rb  Rb6  1  0.84782412  0.22513714  0.60930137  1
  Rb  Rb7  1  0.15217588  0.77486286  0.39069863  1
  Tl  Tl8  1  0.28929629  0.91466395  0.83952661  1
  Tl  Tl9  1  0.71070371  0.08533605  0.16047339  1
  Tl  Tl10  1  0.08533605  0.71070371  0.66047339  1
  Tl  Tl11  1  0.91466395  0.28929629  0.33952661  1
  Tl  Tl12  1  0.58438414  0.71013128  0.65995778  1
  Tl  Tl13  1  0.41561586  0.28986872  0.34004222  1
  Tl  Tl14  1  0.28986872  0.41561586  0.84004222  1
  Tl  Tl15  1  0.71013128  0.58438414  0.15995778  1
  S  S16  1  0.57339657  0.94986129  0.74926740  1
  S  S17  1  0.42660343  0.05013871  0.25073260  1
  S  S18  1  0.05013871  0.42660343  0.75073260  1
  S  S19  1  0.94986129  0.57339657  0.24926740  1
  S  S20  1  0.35974311  0.73487774  0.56140465  1
  S  S21  1  0.64025689  0.26512226  0.43859535  1
  S  S22  1  0.26512226  0.64025689  0.93859535  1
  S  S23  1  0.73487774  0.35974311  0.06140465  1
  S  S24  1  0.57397507  0.42602493  0.75000000  1
  S  S25  1  0.42602493  0.57397507  0.25000000  1
  S  S26  1  0.26620192  0.13996625  0.93888650  1
  S  S27  1  0.73379808  0.86003375  0.06111350  1
  S  S28  1  0.86003375  0.73379808  0.56111350  1
  S  S29  1  0.13996625  0.26620192  0.43888650  1
  S  S30  1  0.04974968  0.95025032  0.75000000  1
  S  S31  1  0.95025032  0.04974968  0.25000000  1
