# generated using pymatgen
data_RbCaHfF7
_symmetry_space_group_name_H-M   'P 1'
_cell_length_a   6.63360183
_cell_length_b   6.63360183
_cell_length_c   8.61232792
_cell_angle_alpha   90.00000000
_cell_angle_beta   90.00000000
_cell_angle_gamma   116.91493022
_symmetry_Int_Tables_number   1
_chemical_formula_structural   RbCaHfF7
_chemical_formula_sum   'Rb2 Ca2 Hf2 F14'
_cell_volume   337.93112171
_cell_formula_units_Z   2
loop_
 _symmetry_equiv_pos_site_id
 _symmetry_equiv_pos_as_xyz
  1  'x, y, z'
loop_
 _atom_site_type_symbol
 _atom_site_label
 _atom_site_symmetry_multiplicity
 _atom_site_fract_x
 _atom_site_fract_y
 _atom_site_fract_z
 _atom_site_occupancy
  Rb  Rb0  1  0.00000000  -0.00000000  0.00000000  1
  Rb  Rb1  1  0.00000000  -0.00000000  0.50000000  1
  Ca  Ca2  1  0.30930578  0.69069422  0.75000000  1
  Ca  Ca3  1  0.69069422  0.30930578  0.25000000  1
  Hf  Hf4  1  0.69333454  0.30666546  0.75000000  1
  Hf  Hf5  1  0.30666546  0.69333454  0.25000000  1
  F  F6  1  0.35113893  0.06628458  0.75000000  1
  F  F7  1  0.64886107  0.93371542  0.25000000  1
  F  F8  1  0.93371542  0.64886107  0.75000000  1
  F  F9  1  0.06628458  0.35113893  0.25000000  1
  F  F10  1  0.51228903  0.48771097  0.75000000  1
  F  F11  1  0.48771097  0.51228903  0.25000000  1
  F  F12  1  0.70292680  0.29707320  0.98416736  1
  F  F13  1  0.29707320  0.70292680  0.01583264  1
  F  F14  1  0.29707320  0.70292680  0.48416736  1
  F  F15  1  0.70292680  0.29707320  0.51583264  1
  F  F16  1  0.67120494  0.97952412  0.75000000  1
  F  F17  1  0.32879506  0.02047588  0.25000000  1
  F  F18  1  0.02047588  0.32879506  0.75000000  1
  F  F19  1  0.97952412  0.67120494  0.25000000  1
