# generated using pymatgen
data_Sm2(SO4)3
_symmetry_space_group_name_H-M   'P 1'
_cell_length_a   6.70803560
_cell_length_b   6.94132698
_cell_length_c   11.24271364
_cell_angle_alpha   106.38463503
_cell_angle_beta   107.35721696
_cell_angle_gamma   90.00000000
_symmetry_Int_Tables_number   1
_chemical_formula_structural   Sm2(SO4)3
_chemical_formula_sum   'Sm4 S6 O24'
_cell_volume   477.33309433
_cell_formula_units_Z   2
loop_
 _symmetry_equiv_pos_site_id
 _symmetry_equiv_pos_as_xyz
  1  'x, y, z'
loop_
 _atom_site_type_symbol
 _atom_site_label
 _atom_site_symmetry_multiplicity
 _atom_site_fract_x
 _atom_site_fract_y
 _atom_site_fract_z
 _atom_site_occupancy
  Sm  Sm0  1  0.27812804  0.13088027  0.26416084  1
  Sm  Sm1  1  0.72187196  0.86911973  0.73583916  1
  Sm  Sm2  1  0.01396720  0.36911973  0.73583916  1
  Sm  Sm3  1  0.98603280  0.63088027  0.26416084  1
  S  S4  1  0.49930980  0.32243476  0.63359458  1
  S  S5  1  0.50069020  0.67756524  0.36640542  1
  S  S6  1  0.86571522  0.17756524  0.36640542  1
  S  S7  1  0.13428478  0.82243476  0.63359458  1
  S  S8  1  0.16405817  0.25000000  0.00000000  1
  S  S9  1  0.83594183  0.75000000  1.00000000  1
  O  O10  1  0.66002322  0.19844983  0.69687657  1
  O  O11  1  0.33997678  0.80155017  0.30312343  1
  O  O12  1  0.96314665  0.30155017  0.30312343  1
  O  O13  1  0.03685335  0.69844983  0.69687657  1
  O  O14  1  0.37209342  0.49370124  0.35439819  1
  O  O15  1  0.62790658  0.50629876  0.64560181  1
  O  O16  1  0.01769524  0.00629876  0.64560181  1
  O  O17  1  0.98230476  0.99370124  0.35439819  1
  O  O18  1  0.64117261  0.12467309  0.29378818  1
  O  O19  1  0.35882739  0.87532691  0.70621182  1
  O  O20  1  0.34738442  0.37532691  0.70621182  1
  O  O21  1  0.65261558  0.62467309  0.29378818  1
  O  O22  1  0.39483459  0.20918682  0.49723110  1
  O  O23  1  0.60516541  0.79081318  0.50276890  1
  O  O24  1  0.89760350  0.29081318  0.50276890  1
  O  O25  1  0.10239650  0.70918682  0.49723110  1
  O  O26  1  0.08907404  0.35823118  0.11251197  1
  O  O27  1  0.91092596  0.64176882  0.88748803  1
  O  O28  1  0.97656207  0.14176882  0.88748803  1
  O  O29  1  0.02343793  0.85823118  0.11251197  1
  O  O30  1  0.30899137  0.10995047  0.04899467  1
  O  O31  1  0.69100863  0.89004953  0.95100533  1
  O  O32  1  0.25999669  0.39004953  0.95100533  1
  O  O33  1  0.74000331  0.60995047  0.04899467  1
