# generated using pymatgen
data_Li9Mn2Co5O16
_symmetry_space_group_name_H-M   'P 1'
_cell_length_a   5.20988234
_cell_length_b   7.75265177
_cell_length_c   7.75265169
_cell_angle_alpha   95.53975332
_cell_angle_beta   75.22533552
_cell_angle_gamma   75.22533826
_symmetry_Int_Tables_number   1
_chemical_formula_structural   Li9Mn2Co5O16
_chemical_formula_sum   'Li9 Mn2 Co5 O16'
_cell_volume   288.36376468
_cell_formula_units_Z   1
loop_
 _symmetry_equiv_pos_site_id
 _symmetry_equiv_pos_as_xyz
  1  'x, y, z'
loop_
 _atom_site_type_symbol
 _atom_site_label
 _atom_site_symmetry_multiplicity
 _atom_site_fract_x
 _atom_site_fract_y
 _atom_site_fract_z
 _atom_site_occupancy
  Li  Li0  1  0.00369961  0.12505887  0.37869191  1
  Li  Li1  1  -0.00369961  0.62130809  0.87494113  1
  Li  Li2  1  0.50563444  0.99400760  0.49378917  1
  Li  Li3  1  0.49436556  0.50621083  0.00599240  1
  Li  Li4  1  0.00415547  0.87309885  0.61930124  1
  Li  Li5  1  0.99584453  0.38069876  0.12690115  1
  Li  Li6  1  0.50231541  0.74795235  0.75025537  1
  Li  Li7  1  0.49768459  0.24974463  0.25204765  1
  Li  Li8  1  0.00000000  0.75021947  0.24978053  1
  Mn  Mn9  1  0.00000000  0.99774530  0.00225470  1
  Mn  Mn10  1  0.50000000  0.87535189  0.12464811  1
  Co  Co11  1  1.00000000  0.50456647  0.49543353  1
  Co  Co12  1  0.50000000  0.37433403  0.62566597  1
  Co  Co13  1  1.00000000  0.24812289  0.75187711  1
  Co  Co14  1  0.50000000  0.62553353  0.37446647  1
  Co  Co15  1  0.50000000  0.12509606  0.87490394  1
  O  O16  1  0.73738713  0.98865997  0.22881048  1
  O  O17  1  0.77830432  0.49067969  0.73236457  1
  O  O18  1  0.27789500  0.87133798  0.36318706  1
  O  O19  1  0.27139077  0.36040558  0.86124996  1
  O  O20  1  0.76194033  0.72605324  0.49755114  1
  O  O21  1  0.76799729  0.24305840  0.99142307  1
  O  O22  1  0.26629798  0.60827615  0.61814295  1
  O  O23  1  0.27470655  0.11780356  0.11259498  1
  O  O24  1  0.22169568  0.26763543  0.50932031  1
  O  O25  1  0.26261287  0.77118952  0.01134003  1
  O  O26  1  0.72860923  0.13875004  0.63959442  1
  O  O27  1  0.72210500  0.63681294  0.12866202  1
  O  O28  1  0.23200271  0.00857693  0.75694160  1
  O  O29  1  0.23805967  0.50244886  0.27394676  1
  O  O30  1  0.72529345  0.88740502  0.88219644  1
  O  O31  1  0.73370202  0.38185705  0.39172385  1
