# generated using pymatgen
data_RbLu(WO4)2
_symmetry_space_group_name_H-M   'P 1'
_cell_length_a   7.56248402
_cell_length_b   7.56248402
_cell_length_c   7.46308448
_cell_angle_alpha   62.26890977
_cell_angle_beta   62.26890977
_cell_angle_gamma   87.79410158
_symmetry_Int_Tables_number   1
_chemical_formula_structural   RbLu(WO4)2
_chemical_formula_sum   'Rb2 Lu2 W4 O16'
_cell_volume   325.65659728
_cell_formula_units_Z   2
loop_
 _symmetry_equiv_pos_site_id
 _symmetry_equiv_pos_as_xyz
  1  'x, y, z'
loop_
 _atom_site_type_symbol
 _atom_site_label
 _atom_site_symmetry_multiplicity
 _atom_site_fract_x
 _atom_site_fract_y
 _atom_site_fract_z
 _atom_site_occupancy
  Rb  Rb0  1  0.79951055  0.20048945  0.75000000  1
  Rb  Rb1  1  0.20048945  0.79951055  0.25000000  1
  Lu  Lu2  1  0.22292710  0.77707290  0.75000000  1
  Lu  Lu3  1  0.77707290  0.22292710  0.25000000  1
  W  W4  1  0.29885902  0.30925563  0.71616959  1
  W  W5  1  0.70114098  0.69074437  0.28383041  1
  W  W6  1  0.69074437  0.70114098  0.78383041  1
  W  W7  1  0.30925563  0.29885902  0.21616959  1
  O  O8  1  0.37933904  0.24445522  0.94053309  1
  O  O9  1  0.62066096  0.75554478  0.05946691  1
  O  O10  1  0.75554478  0.62066096  0.55946691  1
  O  O11  1  0.24445522  0.37933904  0.44053309  1
  O  O12  1  0.63602680  0.94667855  0.61649783  1
  O  O13  1  0.36397320  0.05332145  0.38350217  1
  O  O14  1  0.05332145  0.36397320  0.88350217  1
  O  O15  1  0.94667855  0.63602680  0.11649783  1
  O  O16  1  0.40518279  0.62942532  0.53878196  1
  O  O17  1  0.59481721  0.37057468  0.46121804  1
  O  O18  1  0.37057468  0.59481721  0.96121804  1
  O  O19  1  0.62942532  0.40518279  0.03878196  1
  O  O20  1  0.22229686  0.04048759  0.80470766  1
  O  O21  1  0.77770314  0.95951241  0.19529234  1
  O  O22  1  0.95951241  0.77770314  0.69529234  1
  O  O23  1  0.04048759  0.22229686  0.30470766  1
