# generated using pymatgen
data_Rb3Yb(PO4)2
_symmetry_space_group_name_H-M   'P 1'
_cell_length_a   5.85037322
_cell_length_b   5.85037322
_cell_length_c   7.78545345
_cell_angle_alpha   90.00000000
_cell_angle_beta   90.00000000
_cell_angle_gamma   119.99999842
_symmetry_Int_Tables_number   1
_chemical_formula_structural   Rb3Yb(PO4)2
_chemical_formula_sum   'Rb3 Yb1 P2 O8'
_cell_volume   230.77124650
_cell_formula_units_Z   1
loop_
 _symmetry_equiv_pos_site_id
 _symmetry_equiv_pos_as_xyz
  1  'x, y, z'
loop_
 _atom_site_type_symbol
 _atom_site_label
 _atom_site_symmetry_multiplicity
 _atom_site_fract_x
 _atom_site_fract_y
 _atom_site_fract_z
 _atom_site_occupancy
  Rb  Rb0  1  0.66666700  0.33333300  0.29865809  1
  Rb  Rb1  1  0.33333300  0.66666700  0.70134191  1
  Rb  Rb2  1  -0.00000000  0.00000000  0.00000000  1
  Yb  Yb3  1  -0.00000000  0.00000000  0.50000000  1
  P  P4  1  0.66666700  0.33333300  0.73891862  1
  P  P5  1  0.33333300  0.66666700  0.26108138  1
  O  O6  1  0.66666700  0.33333300  0.93771523  1
  O  O7  1  0.33333300  0.66666700  0.06228477  1
  O  O8  1  0.81183345  0.62366690  0.67178612  1
  O  O9  1  0.18816655  0.37633310  0.32821388  1
  O  O10  1  0.81183345  0.18816655  0.67178612  1
  O  O11  1  0.18816655  0.81183345  0.32821388  1
  O  O12  1  0.37633310  0.18816655  0.67178612  1
  O  O13  1  0.62366690  0.81183345  0.32821388  1
