# generated using pymatgen
data_Rb2GdCl5
_symmetry_space_group_name_H-M   'P 1'
_cell_length_a   8.33295836
_cell_length_b   8.84902168
_cell_length_c   13.50579201
_cell_angle_alpha   90.00000000
_cell_angle_beta   90.00000000
_cell_angle_gamma   90.00000000
_symmetry_Int_Tables_number   1
_chemical_formula_structural   Rb2GdCl5
_chemical_formula_sum   'Rb8 Gd4 Cl20'
_cell_volume   995.89723831
_cell_formula_units_Z   4
loop_
 _symmetry_equiv_pos_site_id
 _symmetry_equiv_pos_as_xyz
  1  'x, y, z'
loop_
 _atom_site_type_symbol
 _atom_site_label
 _atom_site_symmetry_multiplicity
 _atom_site_fract_x
 _atom_site_fract_y
 _atom_site_fract_z
 _atom_site_occupancy
  Rb  Rb0  1  0.55270492  0.49448515  0.67193128  1
  Rb  Rb1  1  0.44729508  0.50551485  0.32806872  1
  Rb  Rb2  1  0.05270492  0.50551485  0.82806872  1
  Rb  Rb3  1  0.44729508  0.99448515  0.32806872  1
  Rb  Rb4  1  0.94729508  0.49448515  0.17193128  1
  Rb  Rb5  1  0.55270492  0.00551485  0.67193128  1
  Rb  Rb6  1  0.94729508  0.00551485  0.17193128  1
  Rb  Rb7  1  0.05270492  0.99448515  0.82806872  1
  Gd  Gd8  1  0.56980556  0.75000000  0.99731616  1
  Gd  Gd9  1  0.43019444  0.25000000  0.00268384  1
  Gd  Gd10  1  0.06980556  0.25000000  0.50268384  1
  Gd  Gd11  1  0.93019444  0.75000000  0.49731616  1
  Cl  Cl12  1  0.38639886  0.75000000  0.83112229  1
  Cl  Cl13  1  0.61360114  0.25000000  0.16887771  1
  Cl  Cl14  1  0.88639886  0.25000000  0.66887771  1
  Cl  Cl15  1  0.11360114  0.75000000  0.33112229  1
  Cl  Cl16  1  0.65660802  0.45889806  0.92918566  1
  Cl  Cl17  1  0.34339198  0.54110194  0.07081434  1
  Cl  Cl18  1  0.15660802  0.54110194  0.57081434  1
  Cl  Cl19  1  0.34339198  0.95889806  0.07081434  1
  Cl  Cl20  1  0.84339198  0.45889806  0.42918566  1
  Cl  Cl21  1  0.65660802  0.04110194  0.92918566  1
  Cl  Cl22  1  0.84339198  0.04110194  0.42918566  1
  Cl  Cl23  1  0.15660802  0.95889806  0.57081434  1
  Cl  Cl24  1  0.89990433  0.75000000  0.98804004  1
  Cl  Cl25  1  0.10009567  0.25000000  0.01195996  1
  Cl  Cl26  1  0.39990433  0.25000000  0.51195996  1
  Cl  Cl27  1  0.60009567  0.75000000  0.48804004  1
  Cl  Cl28  1  0.84630517  0.75000000  0.69224257  1
  Cl  Cl29  1  0.15369483  0.25000000  0.30775743  1
  Cl  Cl30  1  0.34630517  0.25000000  0.80775743  1
  Cl  Cl31  1  0.65369483  0.75000000  0.19224257  1
