# generated using pymatgen
data_PrSiOs2C
_symmetry_space_group_name_H-M   'P 1'
_cell_length_a   3.99733220
_cell_length_b   5.90842896
_cell_length_c   7.21921835
_cell_angle_alpha   90.00000000
_cell_angle_beta   90.00000000
_cell_angle_gamma   109.77173314
_symmetry_Int_Tables_number   1
_chemical_formula_structural   PrSiOs2C
_chemical_formula_sum   'Pr2 Si2 Os4 C2'
_cell_volume   160.45162055
_cell_formula_units_Z   2
loop_
 _symmetry_equiv_pos_site_id
 _symmetry_equiv_pos_as_xyz
  1  'x, y, z'
loop_
 _atom_site_type_symbol
 _atom_site_label
 _atom_site_symmetry_multiplicity
 _atom_site_fract_x
 _atom_site_fract_y
 _atom_site_fract_z
 _atom_site_occupancy
  Pr  Pr0  1  0.45102957  0.90205913  0.25000000  1
  Pr  Pr1  1  0.54897043  0.09794087  0.75000000  1
  Si  Si2  1  0.72988552  0.45977103  0.25000000  1
  Si  Si3  1  0.27011448  0.54022897  0.75000000  1
  Os  Os4  1  0.16627165  0.33254329  0.06017963  1
  Os  Os5  1  0.83372835  0.66745671  0.93982037  1
  Os  Os6  1  0.83372835  0.66745671  0.56017963  1
  Os  Os7  1  0.16627165  0.33254329  0.43982037  1
  C  C8  1  0.00000000  0.00000000  0.00000000  1
  C  C9  1  0.00000000  0.00000000  0.50000000  1
