# generated using pymatgen
data_RbPr(SeO4)2
_symmetry_space_group_name_H-M   'P 1'
_cell_length_a   7.59118428
_cell_length_b   9.11031158
_cell_length_c   11.29442639
_cell_angle_alpha   91.59757462
_cell_angle_beta   90.00000000
_cell_angle_gamma   90.00000000
_symmetry_Int_Tables_number   1
_chemical_formula_structural   RbPr(SeO4)2
_chemical_formula_sum   'Rb4 Pr4 Se8 O32'
_cell_volume   780.79693440
_cell_formula_units_Z   4
loop_
 _symmetry_equiv_pos_site_id
 _symmetry_equiv_pos_as_xyz
  1  'x, y, z'
loop_
 _atom_site_type_symbol
 _atom_site_label
 _atom_site_symmetry_multiplicity
 _atom_site_fract_x
 _atom_site_fract_y
 _atom_site_fract_z
 _atom_site_occupancy
  Rb  Rb0  1  0.84980090  0.43327521  0.66159107  1
  Rb  Rb1  1  0.15019910  0.56672479  0.33840893  1
  Rb  Rb2  1  0.34980090  0.56672479  0.83840893  1
  Rb  Rb3  1  0.65019910  0.43327521  0.16159107  1
  Pr  Pr4  1  0.66501229  0.94483563  0.65208991  1
  Pr  Pr5  1  0.33498771  0.05516437  0.34791009  1
  Pr  Pr6  1  0.16501229  0.05516437  0.84791009  1
  Pr  Pr7  1  0.83498771  0.94483563  0.15208991  1
  Se  Se8  1  0.66481253  0.18593628  0.89317102  1
  Se  Se9  1  0.33518747  0.81406372  0.10682898  1
  Se  Se10  1  0.16481253  0.81406372  0.60682898  1
  Se  Se11  1  0.83518747  0.18593628  0.39317102  1
  Se  Se12  1  0.83942541  0.72551906  0.91161776  1
  Se  Se13  1  0.16057459  0.27448094  0.08838224  1
  Se  Se14  1  0.33942541  0.27448094  0.58838224  1
  Se  Se15  1  0.66057459  0.72551906  0.41161776  1
  O  O16  1  0.31975680  0.87223184  0.96890637  1
  O  O17  1  0.68024320  0.12776816  0.03109363  1
  O  O18  1  0.81975680  0.12776816  0.53109363  1
  O  O19  1  0.18024320  0.87223184  0.46890637  1
  O  O20  1  0.00334963  0.90988346  0.68047965  1
  O  O21  1  0.99665037  0.09011654  0.31952035  1
  O  O22  1  0.50334963  0.09011654  0.81952035  1
  O  O23  1  0.49665037  0.90988346  0.18047965  1
  O  O24  1  0.63946258  0.36482493  0.89397239  1
  O  O25  1  0.36053742  0.63517507  0.10602761  1
  O  O26  1  0.13946258  0.63517507  0.60602761  1
  O  O27  1  0.86053742  0.36482493  0.39397239  1
  O  O28  1  0.75382695  0.70589828  0.54512140  1
  O  O29  1  0.24617305  0.29410172  0.45487860  1
  O  O30  1  0.25382695  0.29410172  0.95487860  1
  O  O31  1  0.74617305  0.70589828  0.04512140  1
  O  O32  1  0.94278585  0.88882649  0.94103166  1
  O  O33  1  0.05721415  0.11117351  0.05896834  1
  O  O34  1  0.44278585  0.11117351  0.55896834  1
  O  O35  1  0.55721415  0.88882649  0.44103166  1
  O  O36  1  0.97653736  0.59381130  0.87253044  1
  O  O37  1  0.02346264  0.40618870  0.12746956  1
  O  O38  1  0.47653736  0.40618870  0.62746956  1
  O  O39  1  0.52346264  0.59381130  0.37253044  1
  O  O40  1  0.33871342  0.86367062  0.69517581  1
  O  O41  1  0.66128658  0.13632938  0.30482419  1
  O  O42  1  0.83871342  0.13632938  0.80482419  1
  O  O43  1  0.16128658  0.86367062  0.19517581  1
  O  O44  1  0.68617621  0.75038857  0.80661209  1
  O  O45  1  0.31382379  0.24961143  0.19338791  1
  O  O46  1  0.18617621  0.24961143  0.69338791  1
  O  O47  1  0.81382379  0.75038857  0.30661209  1
