# generated using pymatgen
data_Sr2In4Au3
_symmetry_space_group_name_H-M   'P 1'
_cell_length_a   4.61110984
_cell_length_b   15.36904473
_cell_length_c   15.36904473
_cell_angle_alpha   119.99999944
_cell_angle_beta   90.00000000
_cell_angle_gamma   90.00000000
_symmetry_Int_Tables_number   1
_chemical_formula_structural   Sr2In4Au3
_chemical_formula_sum   'Sr8 In16 Au12'
_cell_volume   943.25659600
_cell_formula_units_Z   4
loop_
 _symmetry_equiv_pos_site_id
 _symmetry_equiv_pos_as_xyz
  1  'x, y, z'
loop_
 _atom_site_type_symbol
 _atom_site_label
 _atom_site_symmetry_multiplicity
 _atom_site_fract_x
 _atom_site_fract_y
 _atom_site_fract_z
 _atom_site_occupancy
  Sr  Sr0  1  -0.00000000  0.54868375  0.54868375  1
  Sr  Sr1  1  -0.00000000  -0.00000000  0.45131625  1
  Sr  Sr2  1  0.00000000  0.45131625  -0.00000000  1
  Sr  Sr3  1  -0.00000000  0.66666700  0.33333300  1
  Sr  Sr4  1  0.00000000  0.33333300  0.66666700  1
  Sr  Sr5  1  0.50000000  0.18113131  0.18113131  1
  Sr  Sr6  1  0.50000000  1.00000000  0.81886869  1
  Sr  Sr7  1  0.50000000  0.81886869  1.00000000  1
  In  In8  1  0.00000000  0.81632762  0.19684541  1
  In  In9  1  -0.00000000  0.38051779  0.18367238  1
  In  In10  1  0.00000000  0.61948221  0.80315459  1
  In  In11  1  0.00000000  0.80315459  0.61948221  1
  In  In12  1  -0.00000000  0.19684541  0.81632762  1
  In  In13  1  0.00000000  0.18367238  0.38051779  1
  In  In14  1  0.50000000  0.72017392  0.72017392  1
  In  In15  1  0.50000000  0.00000000  0.27982608  1
  In  In16  1  0.50000000  0.27982608  0.00000000  1
  In  In17  1  0.50000000  0.64943897  0.12276540  1
  In  In18  1  0.50000000  0.47332642  0.35056103  1
  In  In19  1  0.50000000  0.52667358  0.87723460  1
  In  In20  1  0.50000000  0.87723460  0.52667358  1
  In  In21  1  0.50000000  0.12276540  0.64943897  1
  In  In22  1  0.50000000  0.35056103  0.47332642  1
  In  In23  1  0.00000000  0.00000000  -0.00000000  1
  Au  Au24  1  0.50000000  0.82719100  0.31866665  1
  Au  Au25  1  0.50000000  0.49147565  0.17280900  1
  Au  Au26  1  0.50000000  0.50852435  0.68133335  1
  Au  Au27  1  0.50000000  0.68133335  0.50852435  1
  Au  Au28  1  0.50000000  0.31866665  0.82719100  1
  Au  Au29  1  0.50000000  0.17280900  0.49147565  1
  Au  Au30  1  0.00000000  0.82251257  0.82251257  1
  Au  Au31  1  0.00000000  0.00000000  0.17748743  1
  Au  Au32  1  -0.00000000  0.17748743  0.00000000  1
  Au  Au33  1  -0.00000000  0.34179346  0.34179346  1
  Au  Au34  1  -0.00000000  -0.00000000  0.65820654  1
  Au  Au35  1  0.00000000  0.65820654  -0.00000000  1
