# generated using pymatgen
data_Rb3DyCl6
_symmetry_space_group_name_H-M   'P 1'
_cell_length_a   8.00862393
_cell_length_b   12.96614056
_cell_length_c   13.67638619
_cell_angle_alpha   99.16656743
_cell_angle_beta   107.02507399
_cell_angle_gamma   90.00000000
_symmetry_Int_Tables_number   1
_chemical_formula_structural   Rb3DyCl6
_chemical_formula_sum   'Rb12 Dy4 Cl24'
_cell_volume   1338.95321795
_cell_formula_units_Z   4
loop_
 _symmetry_equiv_pos_site_id
 _symmetry_equiv_pos_as_xyz
  1  'x, y, z'
loop_
 _atom_site_type_symbol
 _atom_site_label
 _atom_site_symmetry_multiplicity
 _atom_site_fract_x
 _atom_site_fract_y
 _atom_site_fract_z
 _atom_site_occupancy
  Rb  Rb0  1  0.69753845  0.06679162  0.90087840  1
  Rb  Rb1  1  0.30246155  0.93320838  0.09912160  1
  Rb  Rb2  1  0.79666004  0.43320838  0.09912160  1
  Rb  Rb3  1  0.20333996  0.56679162  0.90087840  1
  Rb  Rb4  1  0.53417656  0.35592345  0.69248774  1
  Rb  Rb5  1  0.46582344  0.64407655  0.30751226  1
  Rb  Rb6  1  0.84168882  0.14407655  0.30751226  1
  Rb  Rb7  1  0.15831118  0.85592345  0.69248774  1
  Rb  Rb8  1  0.34916371  0.29972340  0.32376053  1
  Rb  Rb9  1  0.65083629  0.70027660  0.67623947  1
  Rb  Rb10  1  0.02540318  0.20027660  0.67623947  1
  Rb  Rb11  1  0.97459682  0.79972340  0.32376053  1
  Dy  Dy12  1  0.21630538  0.25000000  0.00000000  1
  Dy  Dy13  1  0.78369462  0.75000000  1.00000000  1
  Dy  Dy14  1  0.50000000  -0.00000000  0.50000000  1
  Dy  Dy15  1  -0.00000000  0.50000000  0.50000000  1
  Cl  Cl16  1  0.37737765  0.08122401  0.65468171  1
  Cl  Cl17  1  0.62262235  0.91877599  0.34531829  1
  Cl  Cl18  1  0.72269594  0.41877599  0.34531829  1
  Cl  Cl19  1  0.27730406  0.58122401  0.65468171  1
  Cl  Cl20  1  0.50428041  0.17902911  0.11781410  1
  Cl  Cl21  1  0.49571959  0.82097089  0.88218590  1
  Cl  Cl22  1  0.38646631  0.32097089  0.88218590  1
  Cl  Cl23  1  0.61353369  0.67902911  0.11781410  1
  Cl  Cl24  1  0.21668883  0.03460496  0.35405539  1
  Cl  Cl25  1  0.78331117  0.96539504  0.64594461  1
  Cl  Cl26  1  0.86263343  0.46539504  0.64594461  1
  Cl  Cl27  1  0.13736657  0.53460496  0.35405539  1
  Cl  Cl28  1  0.08638816  0.69614249  0.11791308  1
  Cl  Cl29  1  0.91361184  0.30385751  0.88208692  1
  Cl  Cl30  1  0.96847508  0.80385751  0.88208692  1
  Cl  Cl31  1  0.03152492  0.19614249  0.11791308  1
  Cl  Cl32  1  0.28285328  0.43443586  0.11584028  1
  Cl  Cl33  1  0.71714672  0.56556414  0.88415972  1
  Cl  Cl34  1  0.16701300  0.06556414  0.88415972  1
  Cl  Cl35  1  0.83298700  0.93443586  0.11584028  1
  Cl  Cl36  1  0.63995562  0.18582225  0.49916673  1
  Cl  Cl37  1  0.36004438  0.81417775  0.50083327  1
  Cl  Cl38  1  0.14078888  0.31417775  0.50083327  1
  Cl  Cl39  1  0.85921112  0.68582225  0.49916673  1
