# generated using pymatgen
data_RbBa2I5
_symmetry_space_group_name_H-M   'P 1'
_cell_length_a   9.49235176
_cell_length_b   10.58610679
_cell_length_c   15.08571499
_cell_angle_alpha   90.04005598
_cell_angle_beta   90.00000000
_cell_angle_gamma   90.00000000
_symmetry_Int_Tables_number   1
_chemical_formula_structural   RbBa2I5
_chemical_formula_sum   'Rb4 Ba8 I20'
_cell_volume   1515.91861742
_cell_formula_units_Z   4
loop_
 _symmetry_equiv_pos_site_id
 _symmetry_equiv_pos_as_xyz
  1  'x, y, z'
loop_
 _atom_site_type_symbol
 _atom_site_label
 _atom_site_symmetry_multiplicity
 _atom_site_fract_x
 _atom_site_fract_y
 _atom_site_fract_z
 _atom_site_occupancy
  Rb  Rb0  1  0.97918323  0.50701827  0.67877391  1
  Rb  Rb1  1  0.02081677  0.49298173  0.32122609  1
  Rb  Rb2  1  0.47918323  0.49298173  0.82122609  1
  Rb  Rb3  1  0.52081677  0.50701827  0.17877391  1
  Ba  Ba4  1  0.97527464  0.99968066  0.67970037  1
  Ba  Ba5  1  0.02472536  0.00031934  0.32029963  1
  Ba  Ba6  1  0.47527464  0.00031934  0.82029963  1
  Ba  Ba7  1  0.52472536  0.99968066  0.17970037  1
  Ba  Ba8  1  0.92152870  0.75056514  0.99210284  1
  Ba  Ba9  1  0.07847130  0.24943486  0.00789716  1
  Ba  Ba10  1  0.42152870  0.24943486  0.50789716  1
  Ba  Ba11  1  0.57847130  0.75056514  0.49210284  1
  I  I12  1  0.83546728  0.45848836  0.90904692  1
  I  I13  1  0.16453272  0.54151164  0.09095308  1
  I  I14  1  0.33546728  0.54151164  0.59095308  1
  I  I15  1  0.66453272  0.45848836  0.40904692  1
  I  I16  1  0.16656813  0.78043114  0.81578824  1
  I  I17  1  0.83343187  0.21956886  0.18421176  1
  I  I18  1  0.66656813  0.21956886  0.68421176  1
  I  I19  1  0.33343187  0.78043114  0.31578824  1
  I  I20  1  0.69740724  0.76904043  0.71873791  1
  I  I21  1  0.30259276  0.23095957  0.28126209  1
  I  I22  1  0.19740724  0.23095957  0.78126209  1
  I  I23  1  0.80259276  0.76904043  0.21873791  1
  I  I24  1  0.54197624  0.77856213  0.99720703  1
  I  I25  1  0.45802376  0.22143787  0.00279297  1
  I  I26  1  0.04197624  0.22143787  0.50279297  1
  I  I27  1  0.95802376  0.77856213  0.49720703  1
  I  I28  1  0.33598937  0.95548150  0.59794774  1
  I  I29  1  0.66401063  0.04451850  0.40205226  1
  I  I30  1  0.83598937  0.04451850  0.90205226  1
  I  I31  1  0.16401063  0.95548150  0.09794774  1
