# generated using pymatgen
data_Pr3PBr3
_symmetry_space_group_name_H-M   'P 1'
_cell_length_a   10.35717794
_cell_length_b   10.35717794
_cell_length_c   10.35717794
_cell_angle_alpha   109.47122063
_cell_angle_beta   109.47122063
_cell_angle_gamma   109.47122063
_symmetry_Int_Tables_number   1
_chemical_formula_structural   Pr3PBr3
_chemical_formula_sum   'Pr12 P4 Br12'
_cell_volume   855.26839127
_cell_formula_units_Z   4
loop_
 _symmetry_equiv_pos_site_id
 _symmetry_equiv_pos_as_xyz
  1  'x, y, z'
loop_
 _atom_site_type_symbol
 _atom_site_label
 _atom_site_symmetry_multiplicity
 _atom_site_fract_x
 _atom_site_fract_y
 _atom_site_fract_z
 _atom_site_occupancy
  Pr  Pr0  1  0.76301915  0.51301915  0.52603829  1
  Pr  Pr1  1  0.73698085  0.76301915  0.25000000  1
  Pr  Pr2  1  0.51301915  0.98698085  0.25000000  1
  Pr  Pr3  1  0.51301915  0.52603829  0.76301915  1
  Pr  Pr4  1  0.76301915  0.25000000  0.73698085  1
  Pr  Pr5  1  0.98698085  0.73698085  0.97396171  1
  Pr  Pr6  1  0.73698085  0.97396171  0.98698085  1
  Pr  Pr7  1  0.98698085  0.25000000  0.51301915  1
  Pr  Pr8  1  0.52603829  0.76301915  0.51301915  1
  Pr  Pr9  1  0.25000000  0.51301915  0.98698085  1
  Pr  Pr10  1  0.97396171  0.98698085  0.73698085  1
  Pr  Pr11  1  0.25000000  0.73698085  0.76301915  1
  P  P12  1  0.75000000  0.75000000  0.75000000  1
  P  P13  1  0.75000000  -0.00000000  0.50000000  1
  P  P14  1  0.50000000  0.75000000  -0.00000000  1
  P  P15  1  -0.00000000  0.50000000  0.75000000  1
  Br  Br16  1  0.25726158  0.24273842  0.75000000  1
  Br  Br17  1  0.24273842  0.49273842  0.48547683  1
  Br  Br18  1  0.00726158  0.25726158  0.01452317  1
  Br  Br19  1  0.24273842  0.75000000  0.25726158  1
  Br  Br20  1  0.25726158  0.01452317  0.00726158  1
  Br  Br21  1  0.49273842  0.00726158  0.75000000  1
  Br  Br22  1  0.49273842  0.48547683  0.24273842  1
  Br  Br23  1  0.00726158  0.75000000  0.49273842  1
  Br  Br24  1  0.75000000  0.25726158  0.24273842  1
  Br  Br25  1  0.01452317  0.00726158  0.25726158  1
  Br  Br26  1  0.75000000  0.49273842  0.00726158  1
  Br  Br27  1  0.48547683  0.24273842  0.49273842  1
