# generated using pymatgen
data_Rb4WO5
_symmetry_space_group_name_H-M   'P 1'
_cell_length_a   6.65043164
_cell_length_b   10.84924272
_cell_length_c   17.94813188
_cell_angle_alpha   94.28468352
_cell_angle_beta   92.38099695
_cell_angle_gamma   96.46215560
_symmetry_Int_Tables_number   1
_chemical_formula_structural   Rb4WO5
_chemical_formula_sum   'Rb24 W6 O30'
_cell_volume   1281.54041804
_cell_formula_units_Z   6
loop_
 _symmetry_equiv_pos_site_id
 _symmetry_equiv_pos_as_xyz
  1  'x, y, z'
loop_
 _atom_site_type_symbol
 _atom_site_label
 _atom_site_symmetry_multiplicity
 _atom_site_fract_x
 _atom_site_fract_y
 _atom_site_fract_z
 _atom_site_occupancy
  Rb  Rb0  1  0.00885993  0.51170044  0.18019557  1
  Rb  Rb1  1  0.99114007  0.48829956  0.81980443  1
  Rb  Rb2  1  0.54139444  0.20251714  0.50451578  1
  Rb  Rb3  1  0.45860556  0.79748286  0.49548422  1
  Rb  Rb4  1  0.07530082  0.69204893  0.00399240  1
  Rb  Rb5  1  0.92469918  0.30795107  0.99600760  1
  Rb  Rb6  1  0.07538065  0.85125539  0.21869994  1
  Rb  Rb7  1  0.92461935  0.14874461  0.78130006  1
  Rb  Rb8  1  0.55339846  0.00078943  0.31975384  1
  Rb  Rb9  1  0.44660154  0.99921057  0.68024616  1
  Rb  Rb10  1  0.23149339  0.03792241  0.05831142  1
  Rb  Rb11  1  0.76850661  0.96207759  0.94168858  1
  Rb  Rb12  1  0.43486062  0.41032366  0.09443489  1
  Rb  Rb13  1  0.56513938  0.58967634  0.90556511  1
  Rb  Rb14  1  0.72213686  0.38562392  0.34585744  1
  Rb  Rb15  1  0.27786314  0.61437608  0.65414256  1
  Rb  Rb16  1  0.24408360  0.45439266  0.42854408  1
  Rb  Rb17  1  0.75591640  0.54560734  0.57145592  1
  Rb  Rb18  1  0.73269442  0.09584038  0.14732262  1
  Rb  Rb19  1  0.26730558  0.90415962  0.85267738  1
  Rb  Rb20  1  0.05704688  0.07986336  0.41633092  1
  Rb  Rb21  1  0.94295312  0.92013664  0.58366908  1
  Rb  Rb22  1  0.45035771  0.66212076  0.28948403  1
  Rb  Rb23  1  0.54964229  0.33787924  0.71051597  1
  W  W24  1  0.06366157  0.27435448  0.59273026  1
  W  W25  1  0.93633843  0.72564552  0.40726974  1
  W  W26  1  0.59973047  0.75726291  0.09689363  1
  W  W27  1  0.40026953  0.24273709  0.90310637  1
  W  W28  1  0.21830752  0.23450104  0.24908968  1
  W  W29  1  0.78169248  0.76549896  0.75091032  1
  O  O30  1  0.06512929  0.68473170  0.49556043  1
  O  O31  1  0.93487071  0.31526830  0.50443957  1
  O  O32  1  0.15010826  0.13975349  0.92391759  1
  O  O33  1  0.84989174  0.86024651  0.07608241  1
  O  O34  1  0.35417263  0.21820896  0.34596295  1
  O  O35  1  0.64582737  0.78179104  0.65403705  1
  O  O36  1  0.20972214  0.13461214  0.58378607  1
  O  O37  1  0.79027786  0.86538786  0.41621393  1
  O  O38  1  0.09238146  0.25853907  0.15102641  1
  O  O39  1  0.90761854  0.74146093  0.84897359  1
  O  O40  1  0.33978585  0.09994165  0.20694877  1
  O  O41  1  0.66021415  0.90005835  0.79305123  1
  O  O42  1  0.35020812  0.66165178  0.12277724  1
  O  O43  1  0.64979188  0.33834822  0.87722276  1
  O  O44  1  0.37516539  0.16251950  0.80556803  1
  O  O45  1  0.62483461  0.83748050  0.19443197  1
  O  O46  1  0.46391719  0.81818464  0.01535405  1
  O  O47  1  0.53608281  0.18181536  0.98464595  1
  O  O48  1  0.17443932  0.83418374  0.38224811  1
  O  O49  1  0.82556068  0.16581626  0.61775189  1
  O  O50  1  0.31334508  0.37893121  0.57343072  1
  O  O51  1  0.68665492  0.62106879  0.42656928  1
  O  O52  1  0.72211793  0.61115509  0.07462840  1
  O  O53  1  0.27788207  0.38884491  0.92537160  1
  O  O54  1  0.96129820  0.19491029  0.28685244  1
  O  O55  1  0.03870180  0.80508971  0.71314756  1
  O  O56  1  0.03909214  0.37674347  0.68089538  1
  O  O57  1  0.96090786  0.62325653  0.31910462  1
  O  O58  1  0.34697766  0.39965005  0.25257810  1
  O  O59  1  0.65302234  0.60034995  0.74742190  1
