# generated using pymatgen
data_Pr3(GeRh)2
_symmetry_space_group_name_H-M   'P 1'
_cell_length_a   5.77082305
_cell_length_b   8.20660587
_cell_length_c   13.48303733
_cell_angle_alpha   90.00000000
_cell_angle_beta   90.00000000
_cell_angle_gamma   90.00000000
_symmetry_Int_Tables_number   1
_chemical_formula_structural   Pr3(GeRh)2
_chemical_formula_sum   'Pr12 Ge8 Rh8'
_cell_volume   638.54141639
_cell_formula_units_Z   4
loop_
 _symmetry_equiv_pos_site_id
 _symmetry_equiv_pos_as_xyz
  1  'x, y, z'
loop_
 _atom_site_type_symbol
 _atom_site_label
 _atom_site_symmetry_multiplicity
 _atom_site_fract_x
 _atom_site_fract_y
 _atom_site_fract_z
 _atom_site_occupancy
  Pr  Pr0  1  0.64542986  0.24893795  0.25000000  1
  Pr  Pr1  1  0.35457014  0.75106205  0.75000000  1
  Pr  Pr2  1  0.35457014  0.74893795  0.25000000  1
  Pr  Pr3  1  0.64542986  0.25106205  0.75000000  1
  Pr  Pr4  1  0.14899953  0.39111134  0.10013340  1
  Pr  Pr5  1  0.85100047  0.60888866  0.89986660  1
  Pr  Pr6  1  0.85100047  0.60888866  0.60013340  1
  Pr  Pr7  1  0.85100047  0.89111134  0.39986660  1
  Pr  Pr8  1  0.14899953  0.39111134  0.39986660  1
  Pr  Pr9  1  0.14899953  0.10888866  0.60013340  1
  Pr  Pr10  1  0.14899953  0.10888866  0.89986660  1
  Pr  Pr11  1  0.85100047  0.89111134  0.10013340  1
  Ge  Ge12  1  0.15189587  0.10514265  0.25000000  1
  Ge  Ge13  1  0.84810413  0.89485735  0.75000000  1
  Ge  Ge14  1  0.84810413  0.60514265  0.25000000  1
  Ge  Ge15  1  0.15189587  0.39485735  0.75000000  1
  Ge  Ge16  1  0.64156429  0.25000000  0.00000000  1
  Ge  Ge17  1  0.35843571  0.75000000  0.00000000  1
  Ge  Ge18  1  0.35843571  0.75000000  0.50000000  1
  Ge  Ge19  1  0.64156429  0.25000000  0.50000000  1
  Rh  Rh20  1  0.37984963  0.03529798  0.09141127  1
  Rh  Rh21  1  0.62015037  0.96470202  0.90858873  1
  Rh  Rh22  1  0.62015037  0.96470202  0.59141127  1
  Rh  Rh23  1  0.62015037  0.53529798  0.40858873  1
  Rh  Rh24  1  0.37984963  0.03529798  0.40858873  1
  Rh  Rh25  1  0.37984963  0.46470202  0.59141127  1
  Rh  Rh26  1  0.37984963  0.46470202  0.90858873  1
  Rh  Rh27  1  0.62015037  0.53529798  0.09141127  1
