# generated using pymatgen
data_Li9Mn2Co5O16
_symmetry_space_group_name_H-M   'P 1'
_cell_length_a   5.06825557
_cell_length_b   10.06700499
_cell_length_c   5.94637891
_cell_angle_alpha   74.87587102
_cell_angle_beta   91.00178216
_cell_angle_gamma   78.85462858
_symmetry_Int_Tables_number   1
_chemical_formula_structural   Li9Mn2Co5O16
_chemical_formula_sum   'Li9 Mn2 Co5 O16'
_cell_volume   286.62460491
_cell_formula_units_Z   1
loop_
 _symmetry_equiv_pos_site_id
 _symmetry_equiv_pos_as_xyz
  1  'x, y, z'
loop_
 _atom_site_type_symbol
 _atom_site_label
 _atom_site_symmetry_multiplicity
 _atom_site_fract_x
 _atom_site_fract_y
 _atom_site_fract_z
 _atom_site_occupancy
  Li  Li0  1  0.50000000  0.00000000  0.75000000  1
  Li  Li1  1  0.25805265  0.25287255  0.37010662  1
  Li  Li2  1  0.50000000  0.00000000  0.25000000  1
  Li  Li3  1  0.25302807  0.25804257  0.86767092  1
  Li  Li4  1  0.74194735  0.74712745  0.12989338  1
  Li  Li5  1  0.74697193  0.74195743  0.63232908  1
  Li  Li6  1  0.00199727  0.50215140  0.49858479  1
  Li  Li7  1  0.99800273  0.49784860  0.00141521  1
  Li  Li8  1  0.50000000  0.50000000  0.25000000  1
  Mn  Mn9  1  0.00622578  0.00031871  0.99727799  1
  Mn  Mn10  1  0.99377422  0.99968129  0.50272201  1
  Co  Co11  1  0.74500986  0.26088440  0.61232107  1
  Co  Co12  1  0.25499014  0.73911560  0.88767893  1
  Co  Co13  1  0.75364793  0.25503962  0.12194007  1
  Co  Co14  1  0.50000000  0.50000000  0.75000000  1
  Co  Co15  1  0.24635207  0.74496038  0.37805993  1
  O  O16  1  0.35757677  0.88158907  0.04909691  1
  O  O17  1  0.10588883  0.12059184  0.69217591  1
  O  O18  1  0.34125346  0.86910780  0.55481362  1
  O  O19  1  0.10261375  0.11923195  0.19638068  1
  O  O20  1  0.58569050  0.62045188  0.46589534  1
  O  O21  1  0.60203648  0.62238098  0.92156136  1
  O  O22  1  0.85677917  0.38444713  0.79427623  1
  O  O23  1  0.87108964  0.36021643  0.30697511  1
  O  O24  1  0.64242323  0.11841093  0.45090409  1
  O  O25  1  0.41430950  0.37954812  0.03410466  1
  O  O26  1  0.65874654  0.13089220  0.94518638  1
  O  O27  1  0.39796352  0.37761902  0.57843764  1
  O  O28  1  0.89411117  0.87940816  0.80782509  1
  O  O29  1  0.89738625  0.88076805  0.30361932  1
  O  O30  1  0.12891036  0.63978357  0.19302589  1
  O  O31  1  0.14322083  0.61555287  0.70572477  1
