# generated using pymatgen
data_Rb2Mg2Be3F12
_symmetry_space_group_name_H-M   'P 1'
_cell_length_a   10.10441533
_cell_length_b   10.10441533
_cell_length_c   10.10441533
_cell_angle_alpha   90.00000000
_cell_angle_beta   90.00000000
_cell_angle_gamma   90.00000000
_symmetry_Int_Tables_number   1
_chemical_formula_structural   Rb2Mg2Be3F12
_chemical_formula_sum   'Rb8 Mg8 Be12 F48'
_cell_volume   1031.65281423
_cell_formula_units_Z   4
loop_
 _symmetry_equiv_pos_site_id
 _symmetry_equiv_pos_as_xyz
  1  'x, y, z'
loop_
 _atom_site_type_symbol
 _atom_site_label
 _atom_site_symmetry_multiplicity
 _atom_site_fract_x
 _atom_site_fract_y
 _atom_site_fract_z
 _atom_site_occupancy
  Rb  Rb0  1  0.04859237  0.04859237  0.04859237  1
  Rb  Rb1  1  0.45140763  0.95140763  0.54859237  1
  Rb  Rb2  1  0.95140763  0.54859237  0.45140763  1
  Rb  Rb3  1  0.54859237  0.45140763  0.95140763  1
  Rb  Rb4  1  0.81618907  0.81618907  0.81618907  1
  Rb  Rb5  1  0.68381093  0.18381093  0.31618907  1
  Rb  Rb6  1  0.18381093  0.31618907  0.68381093  1
  Rb  Rb7  1  0.31618907  0.68381093  0.18381093  1
  Mg  Mg8  1  0.33469455  0.33469455  0.33469455  1
  Mg  Mg9  1  0.16530545  0.66530545  0.83469455  1
  Mg  Mg10  1  0.66530545  0.83469455  0.16530545  1
  Mg  Mg11  1  0.83469455  0.16530545  0.66530545  1
  Mg  Mg12  1  0.59874832  0.59874832  0.59874832  1
  Mg  Mg13  1  0.90125168  0.40125168  0.09874832  1
  Mg  Mg14  1  0.40125168  0.09874832  0.90125168  1
  Mg  Mg15  1  0.09874832  0.90125168  0.40125168  1
  Be  Be16  1  0.01959906  0.21521123  0.37573944  1
  Be  Be17  1  0.48040094  0.78478877  0.87573944  1
  Be  Be18  1  0.98040094  0.71521123  0.12426056  1
  Be  Be19  1  0.37573944  0.01959906  0.21521123  1
  Be  Be20  1  0.51959906  0.28478877  0.62426056  1
  Be  Be21  1  0.87573944  0.48040094  0.78478877  1
  Be  Be22  1  0.12426056  0.98040094  0.71521123  1
  Be  Be23  1  0.62426056  0.51959906  0.28478877  1
  Be  Be24  1  0.21521123  0.37573944  0.01959906  1
  Be  Be25  1  0.71521123  0.12426056  0.98040094  1
  Be  Be26  1  0.28478877  0.62426056  0.51959906  1
  Be  Be27  1  0.78478877  0.87573944  0.48040094  1
  F  F28  1  0.01344957  0.06751994  0.33161984  1
  F  F29  1  0.48655043  0.93248006  0.83161984  1
  F  F30  1  0.98655043  0.56751994  0.16838016  1
  F  F31  1  0.33161984  0.01344957  0.06751994  1
  F  F32  1  0.51344957  0.43248006  0.66838016  1
  F  F33  1  0.83161984  0.48655043  0.93248006  1
  F  F34  1  0.16838016  0.98655043  0.56751994  1
  F  F35  1  0.66838016  0.51344957  0.43248006  1
  F  F36  1  0.06751994  0.33161984  0.01344957  1
  F  F37  1  0.56751994  0.16838016  0.98655043  1
  F  F38  1  0.43248006  0.66838016  0.51344957  1
  F  F39  1  0.93248006  0.83161984  0.48655043  1
  F  F40  1  0.26774779  0.49440368  0.43658958  1
  F  F41  1  0.23225221  0.50559632  0.93658958  1
  F  F42  1  0.73225221  0.99440368  0.06341042  1
  F  F43  1  0.43658958  0.26774779  0.49440368  1
  F  F44  1  0.76774779  0.00559632  0.56341042  1
  F  F45  1  0.93658958  0.23225221  0.50559632  1
  F  F46  1  0.06341042  0.73225221  0.99440368  1
  F  F47  1  0.56341042  0.76774779  0.00559632  1
  F  F48  1  0.49440368  0.43658958  0.26774779  1
  F  F49  1  0.99440368  0.06341042  0.73225221  1
  F  F50  1  0.00559632  0.56341042  0.76774779  1
  F  F51  1  0.50559632  0.93658958  0.23225221  1
  F  F52  1  0.04567599  0.80676516  0.23189192  1
  F  F53  1  0.45432401  0.19323484  0.73189192  1
  F  F54  1  0.95432401  0.30676516  0.26810808  1
  F  F55  1  0.23189192  0.04567599  0.80676516  1
  F  F56  1  0.54567599  0.69323484  0.76810808  1
  F  F57  1  0.73189192  0.45432401  0.19323484  1
  F  F58  1  0.26810808  0.95432401  0.30676516  1
  F  F59  1  0.76810808  0.54567599  0.69323484  1
  F  F60  1  0.80676516  0.23189192  0.04567599  1
  F  F61  1  0.30676516  0.26810808  0.95432401  1
  F  F62  1  0.69323484  0.76810808  0.54567599  1
  F  F63  1  0.19323484  0.73189192  0.45432401  1
  F  F64  1  0.16483633  0.25746788  0.40001289  1
  F  F65  1  0.33516367  0.74253212  0.90001289  1
  F  F66  1  0.83516367  0.75746788  0.09998711  1
  F  F67  1  0.40001289  0.16483633  0.25746788  1
  F  F68  1  0.66483633  0.24253212  0.59998711  1
  F  F69  1  0.90001289  0.33516367  0.74253212  1
  F  F70  1  0.09998711  0.83516367  0.75746788  1
  F  F71  1  0.59998711  0.66483633  0.24253212  1
  F  F72  1  0.25746788  0.40001289  0.16483633  1
  F  F73  1  0.75746788  0.09998711  0.83516367  1
  F  F74  1  0.24253212  0.59998711  0.66483633  1
  F  F75  1  0.74253212  0.90001289  0.33516367  1
