# generated using pymatgen
data_Rb2CeBr5
_symmetry_space_group_name_H-M   'P 1'
_cell_length_a   8.79279621
_cell_length_b   9.47326111
_cell_length_c   14.11578612
_cell_angle_alpha   90.00000000
_cell_angle_beta   90.00000000
_cell_angle_gamma   90.00000000
_symmetry_Int_Tables_number   1
_chemical_formula_structural   Rb2CeBr5
_chemical_formula_sum   'Rb8 Ce4 Br20'
_cell_volume   1175.79493464
_cell_formula_units_Z   4
loop_
 _symmetry_equiv_pos_site_id
 _symmetry_equiv_pos_as_xyz
  1  'x, y, z'
loop_
 _atom_site_type_symbol
 _atom_site_label
 _atom_site_symmetry_multiplicity
 _atom_site_fract_x
 _atom_site_fract_y
 _atom_site_fract_z
 _atom_site_occupancy
  Rb  Rb0  1  0.55295973  0.49495596  0.67194647  1
  Rb  Rb1  1  0.44704027  0.50504404  0.32805353  1
  Rb  Rb2  1  0.05295973  0.50504404  0.82805353  1
  Rb  Rb3  1  0.44704027  0.99495596  0.32805353  1
  Rb  Rb4  1  0.94704027  0.49495596  0.17194647  1
  Rb  Rb5  1  0.55295973  0.00504404  0.67194647  1
  Rb  Rb6  1  0.94704027  0.00504404  0.17194647  1
  Rb  Rb7  1  0.05295973  0.99495596  0.82805353  1
  Ce  Ce8  1  0.57382188  0.75000000  0.99597409  1
  Ce  Ce9  1  0.42617812  0.25000000  0.00402591  1
  Ce  Ce10  1  0.07382188  0.25000000  0.50402591  1
  Ce  Ce11  1  0.92617812  0.75000000  0.49597409  1
  Br  Br12  1  0.37924166  0.75000000  0.82493649  1
  Br  Br13  1  0.62075834  0.25000000  0.17506351  1
  Br  Br14  1  0.87924166  0.25000000  0.67506351  1
  Br  Br15  1  0.12075834  0.75000000  0.32493649  1
  Br  Br16  1  0.66144706  0.45738112  0.92579382  1
  Br  Br17  1  0.33855294  0.54261888  0.07420618  1
  Br  Br18  1  0.16144706  0.54261888  0.57420618  1
  Br  Br19  1  0.33855294  0.95738112  0.07420618  1
  Br  Br20  1  0.83855294  0.45738112  0.42579382  1
  Br  Br21  1  0.66144706  0.04261888  0.92579382  1
  Br  Br22  1  0.83855294  0.04261888  0.42579382  1
  Br  Br23  1  0.16144706  0.95738112  0.57420618  1
  Br  Br24  1  0.91421106  0.75000000  0.99048372  1
  Br  Br25  1  0.08578894  0.25000000  0.00951628  1
  Br  Br26  1  0.41421106  0.25000000  0.50951628  1
  Br  Br27  1  0.58578894  0.75000000  0.49048372  1
  Br  Br28  1  0.84004313  0.75000000  0.69854689  1
  Br  Br29  1  0.15995687  0.25000000  0.30145311  1
  Br  Br30  1  0.34004313  0.25000000  0.80145311  1
  Br  Br31  1  0.65995687  0.75000000  0.19854689  1
