# generated using pymatgen
data_PrMg(BO2)5
_symmetry_space_group_name_H-M   'P 1'
_cell_length_a   7.69537808
_cell_length_b   8.77201402
_cell_length_c   9.54762987
_cell_angle_alpha   92.63737926
_cell_angle_beta   90.00000000
_cell_angle_gamma   90.00000000
_symmetry_Int_Tables_number   1
_chemical_formula_structural   PrMg(BO2)5
_chemical_formula_sum   'Pr4 Mg4 B20 O40'
_cell_volume   643.82018526
_cell_formula_units_Z   4
loop_
 _symmetry_equiv_pos_site_id
 _symmetry_equiv_pos_as_xyz
  1  'x, y, z'
loop_
 _atom_site_type_symbol
 _atom_site_label
 _atom_site_symmetry_multiplicity
 _atom_site_fract_x
 _atom_site_fract_y
 _atom_site_fract_z
 _atom_site_occupancy
  Pr  Pr0  1  0.81698485  0.81621919  0.76484414  1
  Pr  Pr1  1  0.18301515  0.18378081  0.23515586  1
  Pr  Pr2  1  0.31698485  0.68378081  0.73515586  1
  Pr  Pr3  1  0.68301515  0.31621919  0.26484414  1
  Mg  Mg4  1  0.09032966  0.10570356  0.62419004  1
  Mg  Mg5  1  0.90967034  0.89429644  0.37580996  1
  Mg  Mg6  1  0.59032966  0.39429644  0.87580996  1
  Mg  Mg7  1  0.40967034  0.60570356  0.12419004  1
  B  B8  1  0.17387833  0.98517533  0.89326744  1
  B  B9  1  0.82612167  0.01482467  0.10673256  1
  B  B10  1  0.67387833  0.51482467  0.60673256  1
  B  B11  1  0.32612167  0.48517533  0.39326744  1
  B  B12  1  0.42077037  0.08659337  0.73852407  1
  B  B13  1  0.57922963  0.91340663  0.26147593  1
  B  B14  1  0.92077037  0.41340663  0.76147593  1
  B  B15  1  0.07922963  0.58659337  0.23852407  1
  B  B16  1  0.18455145  0.43029334  0.91304951  1
  B  B17  1  0.81544855  0.56970666  0.08695049  1
  B  B18  1  0.68455145  0.06970666  0.58695049  1
  B  B19  1  0.31544855  0.93029334  0.41304951  1
  B  B20  1  0.53375427  0.71890320  0.44413686  1
  B  B21  1  0.46624573  0.28109680  0.55586314  1
  B  B22  1  0.03375427  0.78109680  0.05586314  1
  B  B23  1  0.96624573  0.21890320  0.94413686  1
  B  B24  1  0.40208244  0.15540243  0.99779314  1
  B  B25  1  0.59791756  0.84459757  0.00220686  1
  B  B26  1  0.90208244  0.34459757  0.50220686  1
  B  B27  1  0.09791756  0.65540243  0.49779314  1
  O  O28  1  0.08358818  0.48869676  0.80822795  1
  O  O29  1  0.91641182  0.51130324  0.19177205  1
  O  O30  1  0.58358818  0.01130324  0.69177205  1
  O  O31  1  0.41641182  0.98869676  0.30822795  1
  O  O32  1  0.12252705  0.31326471  0.98990661  1
  O  O33  1  0.87747295  0.68673529  0.01009339  1
  O  O34  1  0.62252705  0.18673529  0.51009339  1
  O  O35  1  0.37747295  0.81326471  0.48990661  1
  O  O36  1  0.60817346  0.67011140  0.58086733  1
  O  O37  1  0.39182654  0.32988860  0.41913267  1
  O  O38  1  0.10817346  0.82988860  0.91913267  1
  O  O39  1  0.89182654  0.17011140  0.08086733  1
  O  O40  1  0.28575836  0.97085235  0.76595288  1
  O  O41  1  0.71424164  0.02914765  0.23404712  1
  O  O42  1  0.78575836  0.52914765  0.73404712  1
  O  O43  1  0.21424164  0.47085235  0.26595288  1
  O  O44  1  0.34589820  0.49686181  0.93071065  1
  O  O45  1  0.65410180  0.50313819  0.06928935  1
  O  O46  1  0.84589820  0.00313819  0.56928935  1
  O  O47  1  0.15410180  0.99686181  0.43071065  1
  O  O48  1  0.22499786  0.54413194  0.51377939  1
  O  O49  1  0.77500214  0.45586806  0.48622061  1
  O  O50  1  0.72499786  0.95586806  0.98622061  1
  O  O51  1  0.27500214  0.04413194  0.01377939  1
  O  O52  1  0.34736502  0.18573367  0.63300765  1
  O  O53  1  0.65263498  0.81426633  0.36699235  1
  O  O54  1  0.84736502  0.31426633  0.86699235  1
  O  O55  1  0.15263498  0.68573367  0.13300765  1
  O  O56  1  0.46651294  0.18310741  0.86692984  1
  O  O57  1  0.53348706  0.81689259  0.13307016  1
  O  O58  1  0.96651294  0.31689259  0.63307016  1
  O  O59  1  0.03348706  0.68310741  0.36692984  1
  O  O60  1  0.04644259  0.73775882  0.61325314  1
  O  O61  1  0.95355741  0.26224118  0.38674686  1
  O  O62  1  0.54644259  0.76224118  0.88674686  1
  O  O63  1  0.45355741  0.23775882  0.11325314  1
  O  O64  1  0.02691411  0.08615539  0.85219714  1
  O  O65  1  0.97308589  0.91384461  0.14780286  1
  O  O66  1  0.52691411  0.41384461  0.64780286  1
  O  O67  1  0.47308589  0.58615539  0.35219714  1
