# generated using pymatgen
data_PrBiRh
_symmetry_space_group_name_H-M   'P 1'
_cell_length_a   4.88781886
_cell_length_b   7.55835764
_cell_length_c   7.99099932
_cell_angle_alpha   90.00000000
_cell_angle_beta   90.00000000
_cell_angle_gamma   90.00000000
_symmetry_Int_Tables_number   1
_chemical_formula_structural   PrBiRh
_chemical_formula_sum   'Pr4 Bi4 Rh4'
_cell_volume   295.21854412
_cell_formula_units_Z   4
loop_
 _symmetry_equiv_pos_site_id
 _symmetry_equiv_pos_as_xyz
  1  'x, y, z'
loop_
 _atom_site_type_symbol
 _atom_site_label
 _atom_site_symmetry_multiplicity
 _atom_site_fract_x
 _atom_site_fract_y
 _atom_site_fract_z
 _atom_site_occupancy
  Pr  Pr0  1  0.75000000  0.01540265  0.29698637  1
  Pr  Pr1  1  0.25000000  0.98459735  0.70301363  1
  Pr  Pr2  1  0.25000000  0.48459735  0.79698637  1
  Pr  Pr3  1  0.75000000  0.51540265  0.20301363  1
  Bi  Bi4  1  0.75000000  0.68861878  0.59232757  1
  Bi  Bi5  1  0.25000000  0.31138122  0.40767243  1
  Bi  Bi6  1  0.25000000  0.81138122  0.09232757  1
  Bi  Bi7  1  0.75000000  0.18861878  0.90767243  1
  Rh  Rh8  1  0.75000000  0.79594478  0.92834399  1
  Rh  Rh9  1  0.25000000  0.20405522  0.07165601  1
  Rh  Rh10  1  0.25000000  0.70405522  0.42834399  1
  Rh  Rh11  1  0.75000000  0.29594478  0.57165601  1
