# generated using pymatgen
data_Pr6OsBr10
_symmetry_space_group_name_H-M   'P 1'
_cell_length_a   7.73519828
_cell_length_b   9.47479438
_cell_length_c   9.78181026
_cell_angle_alpha   108.33459721
_cell_angle_beta   97.22153473
_cell_angle_gamma   105.41641483
_symmetry_Int_Tables_number   1
_chemical_formula_structural   Pr6OsBr10
_chemical_formula_sum   'Pr6 Os1 Br10'
_cell_volume   638.62995207
_cell_formula_units_Z   1
loop_
 _symmetry_equiv_pos_site_id
 _symmetry_equiv_pos_as_xyz
  1  'x, y, z'
loop_
 _atom_site_type_symbol
 _atom_site_label
 _atom_site_symmetry_multiplicity
 _atom_site_fract_x
 _atom_site_fract_y
 _atom_site_fract_z
 _atom_site_occupancy
  Pr  Pr0  1  0.53226862  0.21219201  0.41376359  1
  Pr  Pr1  1  0.46773138  0.78780799  0.58623641  1
  Pr  Pr2  1  0.12799342  0.35598414  0.31379001  1
  Pr  Pr3  1  0.87200658  0.64401586  0.68620999  1
  Pr  Pr4  1  0.62831827  0.54997072  0.24855702  1
  Pr  Pr5  1  0.37168173  0.45002928  0.75144298  1
  Os  Os6  1  0.50000000  0.50000000  0.50000000  1
  Br  Br7  1  0.15080009  0.04387625  0.22827660  1
  Br  Br8  1  0.84919991  0.95612375  0.77172340  1
  Br  Br9  1  0.24647958  0.41416377  0.04812719  1
  Br  Br10  1  0.75352042  0.58583623  0.95187281  1
  Br  Br11  1  0.70272751  0.24311485  0.15455419  1
  Br  Br12  1  0.29727249  0.75688515  0.84544581  1
  Br  Br13  1  0.04603746  0.67538059  0.41786987  1
  Br  Br14  1  0.95396254  0.32461941  0.58213013  1
  Br  Br15  1  0.41478718  0.13218059  0.67295975  1
  Br  Br16  1  0.58521282  0.86781941  0.32704025  1
