# generated using pymatgen
data_Rb2Mn3Te4
_symmetry_space_group_name_H-M   'P 1'
_cell_length_a   6.61788041
_cell_length_b   10.50557629
_cell_length_c   10.50557629
_cell_angle_alpha   75.09444858
_cell_angle_beta   71.64100671
_cell_angle_gamma   71.64100671
_symmetry_Int_Tables_number   1
_chemical_formula_structural   Rb2Mn3Te4
_chemical_formula_sum   'Rb4 Mn6 Te8'
_cell_volume   647.73419231
_cell_formula_units_Z   2
loop_
 _symmetry_equiv_pos_site_id
 _symmetry_equiv_pos_as_xyz
  1  'x, y, z'
loop_
 _atom_site_type_symbol
 _atom_site_label
 _atom_site_symmetry_multiplicity
 _atom_site_fract_x
 _atom_site_fract_y
 _atom_site_fract_z
 _atom_site_occupancy
  Rb  Rb0  1  0.73503968  0.87760341  0.12239659  1
  Rb  Rb1  1  0.26496032  0.12239659  0.87760341  1
  Rb  Rb2  1  0.76496032  0.37760341  0.62239659  1
  Rb  Rb3  1  0.23503968  0.62239659  0.37760341  1
  Mn  Mn4  1  0.75000000  0.25000000  0.25000000  1
  Mn  Mn5  1  0.25000000  0.75000000  0.75000000  1
  Mn  Mn6  1  0.75000000  0.98294081  0.51705919  1
  Mn  Mn7  1  0.25000000  0.01705919  0.48294081  1
  Mn  Mn8  1  0.75000000  0.51705919  0.98294081  1
  Mn  Mn9  1  0.25000000  0.48294081  0.01705919  1
  Te  Te10  1  0.41864288  0.22430570  0.48679417  1
  Te  Te11  1  0.58135712  0.77569430  0.51320583  1
  Te  Te12  1  0.87025726  0.48679417  0.22430570  1
  Te  Te13  1  0.08135712  0.01320583  0.27569430  1
  Te  Te14  1  0.12974274  0.51320583  0.77569430  1
  Te  Te15  1  0.91864288  0.98679417  0.72430570  1
  Te  Te16  1  0.62974274  0.27569430  0.01320583  1
  Te  Te17  1  0.37025726  0.72430570  0.98679417  1
