# generated using pymatgen
data_Rb2UF7
_symmetry_space_group_name_H-M   'P 1'
_cell_length_a   6.56489437
_cell_length_b   9.73033593
_cell_length_c   13.80904365
_cell_angle_alpha   90.00000000
_cell_angle_beta   90.00000000
_cell_angle_gamma   91.10150371
_symmetry_Int_Tables_number   1
_chemical_formula_structural   Rb2UF7
_chemical_formula_sum   'Rb8 U4 F28'
_cell_volume   881.93975026
_cell_formula_units_Z   4
loop_
 _symmetry_equiv_pos_site_id
 _symmetry_equiv_pos_as_xyz
  1  'x, y, z'
loop_
 _atom_site_type_symbol
 _atom_site_label
 _atom_site_symmetry_multiplicity
 _atom_site_fract_x
 _atom_site_fract_y
 _atom_site_fract_z
 _atom_site_occupancy
  Rb  Rb0  1  0.27971902  0.94060246  0.71648694  1
  Rb  Rb1  1  0.72028098  0.05939754  0.28351306  1
  Rb  Rb2  1  0.72028098  0.55939754  0.21648694  1
  Rb  Rb3  1  0.27971902  0.44060246  0.78351306  1
  Rb  Rb4  1  0.70539920  0.63818627  0.54990701  1
  Rb  Rb5  1  0.29460080  0.36181373  0.45009299  1
  Rb  Rb6  1  0.29460080  0.86181373  0.04990701  1
  Rb  Rb7  1  0.70539920  0.13818627  0.95009299  1
  U  U8  1  0.80181085  0.68511467  0.86829269  1
  U  U9  1  0.19818915  0.31488533  0.13170731  1
  U  U10  1  0.19818915  0.81488533  0.36829269  1
  U  U11  1  0.80181085  0.18511467  0.63170731  1
  F  F12  1  0.02013725  0.80744717  0.24135811  1
  F  F13  1  0.97986275  0.19255283  0.75864189  1
  F  F14  1  0.97986275  0.69255283  0.74135811  1
  F  F15  1  0.02013725  0.30744717  0.25864189  1
  F  F16  1  0.73457979  0.97737907  0.65902537  1
  F  F17  1  0.26542021  0.02262093  0.34097463  1
  F  F18  1  0.26542021  0.52262093  0.15902537  1
  F  F19  1  0.73457979  0.47737907  0.84097463  1
  F  F20  1  0.54445422  0.72284630  0.78391170  1
  F  F21  1  0.45554578  0.27715370  0.21608830  1
  F  F22  1  0.45554578  0.77715370  0.28391170  1
  F  F23  1  0.54445422  0.22284630  0.71608830  1
  F  F24  1  0.40082767  0.98396334  0.88869747  1
  F  F25  1  0.59917233  0.01603666  0.11130253  1
  F  F26  1  0.59917233  0.51603666  0.38869747  1
  F  F27  1  0.40082767  0.48396334  0.61130253  1
  F  F28  1  0.93203304  0.87250430  0.44016988  1
  F  F29  1  0.06796696  0.12749570  0.55983012  1
  F  F30  1  0.06796696  0.62749570  0.94016988  1
  F  F31  1  0.93203304  0.37250430  0.05983012  1
  F  F32  1  0.36470808  0.82639099  0.49728311  1
  F  F33  1  0.63529192  0.17360901  0.50271689  1
  F  F34  1  0.63529192  0.67360901  0.99728311  1
  F  F35  1  0.36470808  0.32639099  0.00271689  1
  F  F36  1  0.89890210  0.88730958  0.89273340  1
  F  F37  1  0.10109790  0.11269042  0.10726660  1
  F  F38  1  0.10109790  0.61269042  0.39273340  1
  F  F39  1  0.89890210  0.38730958  0.60726660  1
