# generated using pymatgen
data_UH6C3SeN2O7
_symmetry_space_group_name_H-M   'P 1'
_cell_length_a   9.14188035
_cell_length_b   10.24227780
_cell_length_c   10.88135377
_cell_angle_alpha   90.00000000
_cell_angle_beta   90.00000000
_cell_angle_gamma   90.94410444
_symmetry_Int_Tables_number   1
_chemical_formula_structural   UH6C3SeN2O7
_chemical_formula_sum   'U4 H24 C12 Se4 N8 O28'
_cell_volume   1018.72286165
_cell_formula_units_Z   4
loop_
 _symmetry_equiv_pos_site_id
 _symmetry_equiv_pos_as_xyz
  1  'x, y, z'
loop_
 _atom_site_type_symbol
 _atom_site_label
 _atom_site_symmetry_multiplicity
 _atom_site_fract_x
 _atom_site_fract_y
 _atom_site_fract_z
 _atom_site_occupancy
  U  U0  1  0.61799549  0.68886506  0.29604740  1
  U  U1  1  0.11799549  0.18886506  0.20395260  1
  U  U2  1  0.38200451  0.31113494  0.70395260  1
  U  U3  1  0.88200451  0.81113494  0.79604740  1
  H  H4  1  0.24312565  0.97226261  0.48581159  1
  H  H5  1  0.74312565  0.47226261  0.01418841  1
  H  H6  1  0.75687435  0.02773739  0.51418841  1
  H  H7  1  0.25687435  0.52773739  0.98581159  1
  H  H8  1  0.17802228  0.97606947  0.63921409  1
  H  H9  1  0.67802228  0.47606947  0.86078591  1
  H  H10  1  0.82197772  0.02393053  0.36078591  1
  H  H11  1  0.32197772  0.52393053  0.13921409  1
  H  H12  1  0.89819922  0.50806985  0.32490743  1
  H  H13  1  0.39819922  0.00806985  0.17509257  1
  H  H14  1  0.10180078  0.49193015  0.67509257  1
  H  H15  1  0.60180078  0.99193015  0.82490743  1
  H  H16  1  0.08447140  0.50215433  0.35858894  1
  H  H17  1  0.58447140  0.00215433  0.14141106  1
  H  H18  1  0.91552860  0.49784567  0.64141106  1
  H  H19  1  0.41552860  0.99784567  0.85858894  1
  H  H20  1  0.15476465  0.82634020  0.34671380  1
  H  H21  1  0.65476465  0.32634020  0.15328620  1
  H  H22  1  0.84523535  0.17365980  0.65328620  1
  H  H23  1  0.34523535  0.67365980  0.84671380  1
  H  H24  1  0.22077232  0.68371155  0.41713626  1
  H  H25  1  0.72077232  0.18371155  0.08286374  1
  H  H26  1  0.77922768  0.31628845  0.58286374  1
  H  H27  1  0.27922768  0.81628845  0.91713626  1
  C  C28  1  0.98637182  0.68218270  0.37835899  1
  C  C29  1  0.48637182  0.18218270  0.12164101  1
  C  C30  1  0.01362818  0.31781730  0.62164101  1
  C  C31  1  0.51362818  0.81781730  0.87835899  1
  C  C32  1  0.12815957  0.75120731  0.41594784  1
  C  C33  1  0.62815957  0.25120731  0.08405216  1
  C  C34  1  0.87184043  0.24879269  0.58405216  1
  C  C35  1  0.37184043  0.74879269  0.91594784  1
  C  C36  1  0.11631699  0.81654120  0.54076467  1
  C  C37  1  0.61631699  0.31654120  0.95923533  1
  C  C38  1  0.88368301  0.18345880  0.45923533  1
  C  C39  1  0.38368301  0.68345880  0.04076467  1
  Se  Se40  1  0.88868746  0.89785700  0.11892126  1
  Se  Se41  1  0.38868746  0.39785700  0.38107874  1
  Se  Se42  1  0.11131254  0.10214300  0.88107874  1
  Se  Se43  1  0.61131254  0.60214300  0.61892126  1
  N  N44  1  0.18586500  0.92985989  0.55609186  1
  N  N45  1  0.68586500  0.42985989  0.94390814  1
  N  N46  1  0.81413500  0.07014011  0.44390814  1
  N  N47  1  0.31413500  0.57014011  0.05609186  1
  N  N48  1  0.99053296  0.55557047  0.35499007  1
  N  N49  1  0.49053296  0.05557047  0.14500993  1
  N  N50  1  0.00946704  0.44442953  0.64500993  1
  N  N51  1  0.50946704  0.94442953  0.85499007  1
  O  O52  1  0.70530225  0.56294185  0.20308778  1
  O  O53  1  0.20530225  0.06294185  0.29691222  1
  O  O54  1  0.29469775  0.43705815  0.79691222  1
  O  O55  1  0.79469775  0.93705815  0.70308778  1
  O  O56  1  0.53511680  0.81158157  0.39320672  1
  O  O57  1  0.03511680  0.31158157  0.10679328  1
  O  O58  1  0.46488320  0.18841843  0.60679328  1
  O  O59  1  0.96488320  0.68841843  0.89320672  1
  O  O60  1  0.90842806  0.05129052  0.18350959  1
  O  O61  1  0.40842806  0.55129052  0.31649041  1
  O  O62  1  0.09157194  0.94870948  0.81649041  1
  O  O63  1  0.59157194  0.44870948  0.68350959  1
  O  O64  1  0.83957023  0.93579332  0.96883973  1
  O  O65  1  0.33957023  0.43579332  0.53116027  1
  O  O66  1  0.16042977  0.06420668  0.03116027  1
  O  O67  1  0.66042977  0.56420668  0.46883973  1
  O  O68  1  0.71860366  0.86081898  0.17909267  1
  O  O69  1  0.21860366  0.36081898  0.32090733  1
  O  O70  1  0.28139634  0.13918102  0.82090733  1
  O  O71  1  0.78139634  0.63918102  0.67909267  1
  O  O72  1  0.87107655  0.74865181  0.36775411  1
  O  O73  1  0.37107655  0.24865181  0.13224589  1
  O  O74  1  0.12892345  0.25134819  0.63224589  1
  O  O75  1  0.62892345  0.75134819  0.86775411  1
  O  O76  1  0.04454837  0.76091717  0.62611197  1
  O  O77  1  0.54454837  0.26091717  0.87388803  1
  O  O78  1  0.95545163  0.23908283  0.37388803  1
  O  O79  1  0.45545163  0.73908283  0.12611197  1
