# generated using pymatgen
data_NdSO
_symmetry_space_group_name_H-M   'P 1'
_cell_length_a   5.87137680
_cell_length_b   5.86550779
_cell_length_c   13.03807542
_cell_angle_alpha   90.00000000
_cell_angle_beta   90.00000000
_cell_angle_gamma   90.00000000
_symmetry_Int_Tables_number   1
_chemical_formula_structural   NdSO
_chemical_formula_sum   'Nd8 S8 O8'
_cell_volume   449.01314706
_cell_formula_units_Z   8
loop_
 _symmetry_equiv_pos_site_id
 _symmetry_equiv_pos_as_xyz
  1  'x, y, z'
loop_
 _atom_site_type_symbol
 _atom_site_label
 _atom_site_symmetry_multiplicity
 _atom_site_fract_x
 _atom_site_fract_y
 _atom_site_fract_z
 _atom_site_occupancy
  Nd  Nd0  1  0.25006744  0.99843077  0.08829703  1
  Nd  Nd1  1  0.74993256  0.00156923  0.91170297  1
  Nd  Nd2  1  0.74993256  0.00156923  0.58829703  1
  Nd  Nd3  1  0.74993256  0.49843077  0.41170297  1
  Nd  Nd4  1  0.25006744  0.99843077  0.41170297  1
  Nd  Nd5  1  0.25006744  0.50156923  0.58829703  1
  Nd  Nd6  1  0.25006744  0.50156923  0.91170297  1
  Nd  Nd7  1  0.74993256  0.49843077  0.08829703  1
  S  S8  1  0.12096535  0.36436705  0.25000000  1
  S  S9  1  0.87903465  0.63563295  0.75000000  1
  S  S10  1  0.87903465  0.86436705  0.25000000  1
  S  S11  1  0.12096535  0.13563295  0.75000000  1
  S  S12  1  0.62467961  0.11890435  0.25000000  1
  S  S13  1  0.37532039  0.88109565  0.75000000  1
  S  S14  1  0.37532039  0.61890435  0.25000000  1
  S  S15  1  0.62467961  0.38109565  0.75000000  1
  O  O16  1  0.99439350  0.25000000  0.00000000  1
  O  O17  1  0.00560650  0.75000000  0.00000000  1
  O  O18  1  0.00560650  0.75000000  0.50000000  1
  O  O19  1  0.99439350  0.25000000  0.50000000  1
  O  O20  1  0.49377811  0.25000000  -0.00000000  1
  O  O21  1  0.50622189  0.75000000  -0.00000000  1
  O  O22  1  0.50622189  0.75000000  0.50000000  1
  O  O23  1  0.49377811  0.25000000  0.50000000  1
