# generated using pymatgen
data_Nb5SiB2
_symmetry_space_group_name_H-M   'P 1'
_cell_length_a   6.28160646
_cell_length_b   6.28160646
_cell_length_c   7.34283246
_cell_angle_alpha   115.32405276
_cell_angle_beta   115.32405276
_cell_angle_gamma   90.00000000
_symmetry_Int_Tables_number   1
_chemical_formula_structural   Nb5SiB2
_chemical_formula_sum   'Nb10 Si2 B4'
_cell_volume   230.71594525
_cell_formula_units_Z   2
loop_
 _symmetry_equiv_pos_site_id
 _symmetry_equiv_pos_as_xyz
  1  'x, y, z'
loop_
 _atom_site_type_symbol
 _atom_site_label
 _atom_site_symmetry_multiplicity
 _atom_site_fract_x
 _atom_site_fract_y
 _atom_site_fract_z
 _atom_site_occupancy
  Nb  Nb0  1  -0.00000000  -0.00000000  -0.00000000  1
  Nb  Nb1  1  0.50000000  0.50000000  -0.00000000  1
  Nb  Nb2  1  0.30704409  0.80704409  0.27544306  1
  Nb  Nb3  1  0.69295591  0.19295591  0.72455694  1
  Nb  Nb4  1  0.96839897  0.46839897  0.27544306  1
  Nb  Nb5  1  0.46839897  0.30704409  0.27544306  1
  Nb  Nb6  1  0.19295591  0.03160103  0.72455694  1
  Nb  Nb7  1  0.03160103  0.53160103  0.72455694  1
  Nb  Nb8  1  0.53160103  0.69295591  0.72455694  1
  Nb  Nb9  1  0.80704409  0.96839897  0.27544306  1
  Si  Si10  1  0.25000000  0.25000000  0.50000000  1
  Si  Si11  1  0.75000000  0.75000000  0.50000000  1
  B  B12  1  0.61333956  0.11333956  0.00000000  1
  B  B13  1  0.38666044  0.88666044  1.00000000  1
  B  B14  1  0.88666044  0.61333956  -0.00000000  1
  B  B15  1  0.11333956  0.38666044  -0.00000000  1
