# generated using pymatgen
data_Pr2(MoO4)3
_symmetry_space_group_name_H-M   'P 1'
_cell_length_a   7.66621168
_cell_length_b   7.66621168
_cell_length_c   11.04382257
_cell_angle_alpha   90.00000000
_cell_angle_beta   90.00000000
_cell_angle_gamma   90.00000000
_symmetry_Int_Tables_number   1
_chemical_formula_structural   Pr2(MoO4)3
_chemical_formula_sum   'Pr4 Mo6 O24'
_cell_volume   649.05430431
_cell_formula_units_Z   2
loop_
 _symmetry_equiv_pos_site_id
 _symmetry_equiv_pos_as_xyz
  1  'x, y, z'
loop_
 _atom_site_type_symbol
 _atom_site_label
 _atom_site_symmetry_multiplicity
 _atom_site_fract_x
 _atom_site_fract_y
 _atom_site_fract_z
 _atom_site_occupancy
  Pr  Pr0  1  0.18849355  0.68849355  0.73838951  1
  Pr  Pr1  1  0.81150645  0.31150645  0.73838951  1
  Pr  Pr2  1  0.68849355  0.81150645  0.26161049  1
  Pr  Pr3  1  0.31150645  0.18849355  0.26161049  1
  Mo  Mo4  1  0.20808272  0.70808272  0.35687801  1
  Mo  Mo5  1  0.79191728  0.29191728  0.35687801  1
  Mo  Mo6  1  0.70808272  0.79191728  0.64312199  1
  Mo  Mo7  1  0.29191728  0.20808272  0.64312199  1
  Mo  Mo8  1  0.00000000  0.00000000  -0.00000000  1
  Mo  Mo9  1  0.50000000  0.50000000  -0.00000000  1
  O  O10  1  0.99946785  0.22623233  0.29942661  1
  O  O11  1  0.00053215  0.77376767  0.29942661  1
  O  O12  1  0.22623233  0.00053215  0.70057339  1
  O  O13  1  0.50053215  0.72623233  0.70057339  1
  O  O14  1  0.77376767  0.99946785  0.70057339  1
  O  O15  1  0.49946785  0.27376767  0.70057339  1
  O  O16  1  0.27376767  0.50053215  0.29942661  1
  O  O17  1  0.72623233  0.49946785  0.29942661  1
  O  O18  1  0.18600055  0.04020342  0.09462761  1
  O  O19  1  0.81399945  0.95979658  0.09462761  1
  O  O20  1  0.04020342  0.81399945  0.90537239  1
  O  O21  1  0.31399945  0.54020342  0.90537239  1
  O  O22  1  0.95979658  0.18600055  0.90537239  1
  O  O23  1  0.68600055  0.45979658  0.90537239  1
  O  O24  1  0.45979658  0.31399945  0.09462761  1
  O  O25  1  0.54020342  0.68600055  0.09462761  1
  O  O26  1  0.62922255  0.12922255  0.31163031  1
  O  O27  1  0.37077745  0.87077745  0.31163031  1
  O  O28  1  0.12922255  0.37077745  0.68836969  1
  O  O29  1  0.87077745  0.62922255  0.68836969  1
  O  O30  1  0.19549327  0.69549327  0.51771059  1
  O  O31  1  0.80450673  0.30450673  0.51771059  1
  O  O32  1  0.69549327  0.80450673  0.48228941  1
  O  O33  1  0.30450673  0.19549327  0.48228941  1
