# generated using pymatgen
data_Li9Mn2Co5O16
_symmetry_space_group_name_H-M   'P 1'
_cell_length_a   5.03502653
_cell_length_b   9.76687829
_cell_length_c   5.88698875
_cell_angle_alpha   79.42706659
_cell_angle_beta   87.24100315
_cell_angle_gamma   93.35469032
_symmetry_Int_Tables_number   1
_chemical_formula_structural   Li9Mn2Co5O16
_chemical_formula_sum   'Li9 Mn2 Co5 O16'
_cell_volume   283.58697690
_cell_formula_units_Z   1
loop_
 _symmetry_equiv_pos_site_id
 _symmetry_equiv_pos_as_xyz
  1  'x, y, z'
loop_
 _atom_site_type_symbol
 _atom_site_label
 _atom_site_symmetry_multiplicity
 _atom_site_fract_x
 _atom_site_fract_y
 _atom_site_fract_z
 _atom_site_occupancy
  Li  Li0  1  0.88082296  0.25470674  0.19075930  1
  Li  Li1  1  0.12587529  0.74382426  0.32247693  1
  Li  Li2  1  0.37380600  0.25312920  0.44281047  1
  Li  Li3  1  0.88705392  0.25678708  0.68883326  1
  Li  Li4  1  0.12619400  0.74687080  0.80718953  1
  Li  Li5  1  0.37412471  0.25617574  0.92752307  1
  Li  Li6  1  0.61917704  0.74529326  0.05924070  1
  Li  Li7  1  0.61294608  0.74321292  0.56116674  1
  Li  Li8  1  0.25000000  0.50000000  0.62500000  1
  Mn  Mn9  1  0.00046993  -0.00004399  0.99680259  1
  Mn  Mn10  1  0.49953007  0.00004399  0.25319741  1
  Co  Co11  1  0.25000000  0.50000000  0.12500000  1
  Co  Co12  1  0.74369971  0.50129416  0.37952663  1
  Co  Co13  1  0.99940598  0.00058408  0.50123214  1
  Co  Co14  1  0.50059402  0.99941592  0.74876786  1
  Co  Co15  1  0.75630029  0.49870584  0.87047337  1
  O  O16  1  0.69392421  0.11754872  0.98448522  1
  O  O17  1  0.91603462  0.60761752  0.08902244  1
  O  O18  1  0.19713735  0.11967525  0.23982334  1
  O  O19  1  0.70042908  0.11576777  0.49244705  1
  O  O20  1  0.90421487  0.60827078  0.59452833  1
  O  O21  1  0.20372603  0.11892706  0.73174378  1
  O  O22  1  0.44693399  0.60844319  0.85911981  1
  O  O23  1  0.45702475  0.61169729  0.34201996  1
  O  O24  1  0.05306601  0.39155681  0.39088019  1
  O  O25  1  0.29627397  0.88107294  0.51825622  1
  O  O26  1  0.59578513  0.39172922  0.65547167  1
  O  O27  1  0.04297525  0.38830271  0.90798004  1
  O  O28  1  0.30286265  0.88032475  0.01017666  1
  O  O29  1  0.58396538  0.39238248  0.16097756  1
  O  O30  1  0.80607579  0.88245128  0.26551478  1
  O  O31  1  0.79957092  0.88423223  0.75755295  1
