# generated using pymatgen
data_Np(FeP3)4
_symmetry_space_group_name_H-M   'P 1'
_cell_length_a   6.72338633
_cell_length_b   6.72338633
_cell_length_c   6.72338633
_cell_angle_alpha   109.47122063
_cell_angle_beta   109.47122063
_cell_angle_gamma   109.47122063
_symmetry_Int_Tables_number   1
_chemical_formula_structural   Np(FeP3)4
_chemical_formula_sum   'Np1 Fe4 P12'
_cell_volume   233.96037592
_cell_formula_units_Z   1
loop_
 _symmetry_equiv_pos_site_id
 _symmetry_equiv_pos_as_xyz
  1  'x, y, z'
loop_
 _atom_site_type_symbol
 _atom_site_label
 _atom_site_symmetry_multiplicity
 _atom_site_fract_x
 _atom_site_fract_y
 _atom_site_fract_z
 _atom_site_occupancy
  Np  Np0  1  0.00000000  -0.00000000  0.00000000  1
  Fe  Fe1  1  0.50000000  0.50000000  0.50000000  1
  Fe  Fe2  1  0.50000000  -0.00000000  0.00000000  1
  Fe  Fe3  1  0.00000000  0.50000000  0.00000000  1
  Fe  Fe4  1  0.00000000  -0.00000000  0.50000000  1
  P  P5  1  0.84865171  0.65083064  0.49948236  1
  P  P6  1  0.15134829  0.34916936  0.50051764  1
  P  P7  1  0.15134829  0.65083064  0.80217893  1
  P  P8  1  0.84865171  0.34916936  0.19782107  1
  P  P9  1  0.65083064  0.49948236  0.84865171  1
  P  P10  1  0.34916936  0.50051764  0.15134829  1
  P  P11  1  0.65083064  0.80217893  0.15134829  1
  P  P12  1  0.34916936  0.19782107  0.84865171  1
  P  P13  1  0.49948236  0.84865171  0.65083064  1
  P  P14  1  0.50051764  0.15134829  0.34916936  1
  P  P15  1  0.19782107  0.84865171  0.34916936  1
  P  P16  1  0.80217893  0.15134829  0.65083064  1
