# generated using pymatgen
data_Nd2MgPtO6
_symmetry_space_group_name_H-M   'P 1'
_cell_length_a   5.51087652
_cell_length_b   5.76395746
_cell_length_c   7.89509950
_cell_angle_alpha   90.00000000
_cell_angle_beta   90.26751822
_cell_angle_gamma   90.00000000
_symmetry_Int_Tables_number   1
_chemical_formula_structural   Nd2MgPtO6
_chemical_formula_sum   'Nd4 Mg2 Pt2 O12'
_cell_volume   250.78082187
_cell_formula_units_Z   2
loop_
 _symmetry_equiv_pos_site_id
 _symmetry_equiv_pos_as_xyz
  1  'x, y, z'
loop_
 _atom_site_type_symbol
 _atom_site_label
 _atom_site_symmetry_multiplicity
 _atom_site_fract_x
 _atom_site_fract_y
 _atom_site_fract_z
 _atom_site_occupancy
  Nd  Nd0  1  0.01681109  0.43774348  0.25046477  1
  Nd  Nd1  1  0.98318891  0.56225652  0.74953523  1
  Nd  Nd2  1  0.48318891  0.93774348  0.24953523  1
  Nd  Nd3  1  0.51681109  0.06225652  0.75046477  1
  Mg  Mg4  1  -0.00000000  -0.00000000  0.50000000  1
  Mg  Mg5  1  0.50000000  0.50000000  0.00000000  1
  Pt  Pt6  1  -0.00000000  -0.00000000  0.00000000  1
  Pt  Pt7  1  0.50000000  0.50000000  0.50000000  1
  O  O8  1  0.89975445  0.03225461  0.24827196  1
  O  O9  1  0.10024555  0.96774539  0.75172804  1
  O  O10  1  0.60024555  0.53225461  0.25172804  1
  O  O11  1  0.39975445  0.46774539  0.74827196  1
  O  O12  1  0.19543216  0.70451339  0.05336630  1
  O  O13  1  0.80456784  0.29548661  0.94663370  1
  O  O14  1  0.30456784  0.20451339  0.44663370  1
  O  O15  1  0.69543216  0.79548661  0.55336630  1
  O  O16  1  0.29949695  0.20055642  0.05168337  1
  O  O17  1  0.70050305  0.79944358  0.94831663  1
  O  O18  1  0.20050305  0.70055642  0.44831663  1
  O  O19  1  0.79949695  0.29944358  0.55168337  1
