# generated using pymatgen
data_NaAlBr4
_symmetry_space_group_name_H-M   'P 1'
_cell_length_a   7.66203372
_cell_length_b   7.69671683
_cell_length_c   14.33015254
_cell_angle_alpha   90.00000000
_cell_angle_beta   90.00000000
_cell_angle_gamma   90.00000000
_symmetry_Int_Tables_number   1
_chemical_formula_structural   NaAlBr4
_chemical_formula_sum   'Na4 Al4 Br16'
_cell_volume   845.08497633
_cell_formula_units_Z   4
loop_
 _symmetry_equiv_pos_site_id
 _symmetry_equiv_pos_as_xyz
  1  'x, y, z'
loop_
 _atom_site_type_symbol
 _atom_site_label
 _atom_site_symmetry_multiplicity
 _atom_site_fract_x
 _atom_site_fract_y
 _atom_site_fract_z
 _atom_site_occupancy
  Na  Na0  1  0.94853430  0.75000000  0.65085308  1
  Na  Na1  1  0.05146570  0.25000000  0.34914692  1
  Na  Na2  1  0.44853430  0.25000000  0.84914692  1
  Na  Na3  1  0.55146570  0.75000000  0.15085308  1
  Al  Al4  1  0.70301989  0.75000000  0.89861153  1
  Al  Al5  1  0.29698011  0.25000000  0.10138847  1
  Al  Al6  1  0.20301989  0.25000000  0.60138847  1
  Al  Al7  1  0.79698011  0.75000000  0.39861153  1
  Br  Br8  1  0.41148421  0.75000000  0.94293155  1
  Br  Br9  1  0.58851579  0.25000000  0.05706845  1
  Br  Br10  1  0.91148421  0.25000000  0.55706845  1
  Br  Br11  1  0.08851579  0.75000000  0.44293155  1
  Br  Br12  1  0.76377549  0.99273867  0.80455051  1
  Br  Br13  1  0.23622451  0.00726133  0.19544949  1
  Br  Br14  1  0.26377549  0.00726133  0.69544949  1
  Br  Br15  1  0.23622451  0.49273867  0.19544949  1
  Br  Br16  1  0.73622451  0.99273867  0.30455051  1
  Br  Br17  1  0.76377549  0.50726133  0.80455051  1
  Br  Br18  1  0.73622451  0.50726133  0.30455051  1
  Br  Br19  1  0.26377549  0.49273867  0.69544949  1
  Br  Br20  1  0.62673815  0.75000000  0.53115118  1
  Br  Br21  1  0.37326185  0.25000000  0.46884882  1
  Br  Br22  1  0.12673815  0.25000000  0.96884882  1
  Br  Br23  1  0.87326185  0.75000000  0.03115118  1
