# generated using pymatgen
data_Nb2Fe4O9
_symmetry_space_group_name_H-M   'P 1'
_cell_length_a   5.34490912
_cell_length_b   5.34490912
_cell_length_c   14.26238375
_cell_angle_alpha   90.00000000
_cell_angle_beta   90.00000000
_cell_angle_gamma   119.99999387
_symmetry_Int_Tables_number   1
_chemical_formula_structural   Nb2Fe4O9
_chemical_formula_sum   'Nb4 Fe8 O18'
_cell_volume   352.86081055
_cell_formula_units_Z   2
loop_
 _symmetry_equiv_pos_site_id
 _symmetry_equiv_pos_as_xyz
  1  'x, y, z'
loop_
 _atom_site_type_symbol
 _atom_site_label
 _atom_site_symmetry_multiplicity
 _atom_site_fract_x
 _atom_site_fract_y
 _atom_site_fract_z
 _atom_site_occupancy
  Nb  Nb0  1  -0.00000000  0.00000000  0.85876279  1
  Nb  Nb1  1  -0.00000000  0.00000000  0.14123721  1
  Nb  Nb2  1  -0.00000000  0.00000000  0.64123721  1
  Nb  Nb3  1  -0.00000000  0.00000000  0.35876279  1
  Fe  Fe4  1  0.66666700  0.33333300  0.98421672  1
  Fe  Fe5  1  0.33333300  0.66666700  0.01578328  1
  Fe  Fe6  1  0.33333300  0.66666700  0.51578328  1
  Fe  Fe7  1  0.66666700  0.33333300  0.48421672  1
  Fe  Fe8  1  0.66666700  0.33333300  0.69337595  1
  Fe  Fe9  1  0.33333300  0.66666700  0.30662405  1
  Fe  Fe10  1  0.33333300  0.66666700  0.80662405  1
  Fe  Fe11  1  0.66666700  0.33333300  0.19337595  1
  O  O12  1  0.66233295  0.97654665  0.91605022  1
  O  O13  1  0.33766705  0.02345335  0.08394978  1
  O  O14  1  0.31421370  0.33766705  0.91605022  1
  O  O15  1  0.68578630  0.02345335  0.58394978  1
  O  O16  1  0.68578630  0.66233295  0.08394978  1
  O  O17  1  0.31421370  0.97654665  0.41605022  1
  O  O18  1  0.02345335  0.68578630  0.91605022  1
  O  O19  1  0.97654665  0.66233295  0.58394978  1
  O  O20  1  0.97654665  0.31421370  0.08394978  1
  O  O21  1  0.02345335  0.33766705  0.41605022  1
  O  O22  1  0.33766705  0.31421370  0.58394978  1
  O  O23  1  0.66233295  0.68578630  0.41605022  1
  O  O24  1  0.71684486  0.71684486  0.75000000  1
  O  O25  1  0.28315514  0.28315514  0.25000000  1
  O  O26  1  0.00000000  0.28315514  0.75000000  1
  O  O27  1  1.00000000  0.71684486  0.25000000  1
  O  O28  1  0.28315514  0.00000000  0.75000000  1
  O  O29  1  0.71684486  1.00000000  0.25000000  1
