# generated using pymatgen
data_NaRh(SO4)2
_symmetry_space_group_name_H-M   'P 1'
_cell_length_a   4.76859161
_cell_length_b   4.76859161
_cell_length_c   7.21793391
_cell_angle_alpha   87.62960763
_cell_angle_beta   87.62960763
_cell_angle_gamma   66.56946965
_symmetry_Int_Tables_number   1
_chemical_formula_structural   NaRh(SO4)2
_chemical_formula_sum   'Na1 Rh1 S2 O8'
_cell_volume   150.41367926
_cell_formula_units_Z   1
loop_
 _symmetry_equiv_pos_site_id
 _symmetry_equiv_pos_as_xyz
  1  'x, y, z'
loop_
 _atom_site_type_symbol
 _atom_site_label
 _atom_site_symmetry_multiplicity
 _atom_site_fract_x
 _atom_site_fract_y
 _atom_site_fract_z
 _atom_site_occupancy
  Na  Na0  1  0.00000000  0.00000000  0.50000000  1
  Rh  Rh1  1  0.00000000  0.00000000  -0.00000000  1
  S  S2  1  0.36627413  0.36627413  0.78464590  1
  S  S3  1  0.63372587  0.63372587  0.21535410  1
  O  O4  1  0.28348926  0.28348926  0.61072884  1
  O  O5  1  0.71651074  0.71651074  0.38927116  1
  O  O6  1  0.71357573  0.24487256  0.78901982  1
  O  O7  1  0.28642427  0.75512744  0.21098018  1
  O  O8  1  0.75512744  0.28642427  0.21098018  1
  O  O9  1  0.24487256  0.71357573  0.78901982  1
  O  O10  1  0.25626344  0.25626344  0.95780623  1
  O  O11  1  0.74373656  0.74373656  0.04219377  1
