# generated using pymatgen
data_NaNb7V2O14
_symmetry_space_group_name_H-M   'P 1'
_cell_length_a   6.08469145
_cell_length_b   6.08469145
_cell_length_c   18.52480446
_cell_angle_alpha   90.00000000
_cell_angle_beta   90.00000000
_cell_angle_gamma   120.00000384
_symmetry_Int_Tables_number   1
_chemical_formula_structural   NaNb7V2O14
_chemical_formula_sum   'Na2 Nb14 V4 O28'
_cell_volume   593.96570313
_cell_formula_units_Z   2
loop_
 _symmetry_equiv_pos_site_id
 _symmetry_equiv_pos_as_xyz
  1  'x, y, z'
loop_
 _atom_site_type_symbol
 _atom_site_label
 _atom_site_symmetry_multiplicity
 _atom_site_fract_x
 _atom_site_fract_y
 _atom_site_fract_z
 _atom_site_occupancy
  Na  Na0  1  -0.00000000  0.00000000  0.75000000  1
  Na  Na1  1  -0.00000000  0.00000000  0.25000000  1
  Nb  Nb2  1  0.33333300  0.66666700  0.75000000  1
  Nb  Nb3  1  0.66666700  0.33333300  0.25000000  1
  Nb  Nb4  1  0.69144308  0.84568340  0.93648038  1
  Nb  Nb5  1  0.30855692  0.15431660  0.06351962  1
  Nb  Nb6  1  0.15424033  0.30855692  0.93648038  1
  Nb  Nb7  1  0.30855692  0.15431660  0.43648038  1
  Nb  Nb8  1  0.84575967  0.69144308  0.06351962  1
  Nb  Nb9  1  0.69144308  0.84568340  0.56351962  1
  Nb  Nb10  1  0.15431660  0.84575967  0.93648038  1
  Nb  Nb11  1  0.84575967  0.69144308  0.43648038  1
  Nb  Nb12  1  0.84568340  0.15424033  0.06351962  1
  Nb  Nb13  1  0.15424033  0.30855692  0.56351962  1
  Nb  Nb14  1  0.84568340  0.15424033  0.43648038  1
  Nb  Nb15  1  0.15431660  0.84575967  0.56351962  1
  V  V16  1  0.66666700  0.33333300  0.82586578  1
  V  V17  1  0.33333300  0.66666700  0.17413422  1
  V  V18  1  0.33333300  0.66666700  0.32586578  1
  V  V19  1  0.66666700  0.33333300  0.67413422  1
  O  O20  1  0.83668063  0.16313661  0.87243484  1
  O  O21  1  0.16331937  0.83686339  0.12756516  1
  O  O22  1  0.32645598  0.16331937  0.87243484  1
  O  O23  1  0.16331937  0.83686339  0.37243484  1
  O  O24  1  0.67354402  0.83668063  0.12756516  1
  O  O25  1  0.83668063  0.16313661  0.62756516  1
  O  O26  1  0.83686339  0.67354402  0.87243484  1
  O  O27  1  0.67354402  0.83668063  0.37243484  1
  O  O28  1  0.16313661  0.32645598  0.12756516  1
  O  O29  1  0.32645598  0.16331937  0.62756516  1
  O  O30  1  0.16313661  0.32645598  0.37243484  1
  O  O31  1  0.83686339  0.67354402  0.62756516  1
  O  O32  1  0.66666700  0.33333300  0.36249397  1
  O  O33  1  0.33333300  0.66666700  0.63750603  1
  O  O34  1  0.33333300  0.66666700  0.86249397  1
  O  O35  1  0.66666700  0.33333300  0.13750603  1
  O  O36  1  0.96843309  0.48342837  0.75000000  1
  O  O37  1  0.03156691  0.51657163  0.25000000  1
  O  O38  1  0.51499528  0.03156691  0.75000000  1
  O  O39  1  0.48500472  0.96843309  0.25000000  1
  O  O40  1  0.51657163  0.48500472  0.75000000  1
  O  O41  1  0.48342837  0.51499528  0.25000000  1
  O  O42  1  0.50000000  0.50000000  -0.00000000  1
  O  O43  1  -0.00000000  0.50000000  -0.00000000  1
  O  O44  1  0.50000000  0.50000000  0.50000000  1
  O  O45  1  0.50000000  0.00000000  -0.00000000  1
  O  O46  1  -0.00000000  0.50000000  0.50000000  1
  O  O47  1  0.50000000  0.00000000  0.50000000  1
