# generated using pymatgen
data_NaLiLu2F8
_symmetry_space_group_name_H-M   'P 1'
_cell_length_a   6.63257906
_cell_length_b   6.63257906
_cell_length_c   6.98972509
_cell_angle_alpha   89.97457026
_cell_angle_beta   90.02542974
_cell_angle_gamma   103.20499155
_symmetry_Int_Tables_number   1
_chemical_formula_structural   NaLiLu2F8
_chemical_formula_sum   'Na2 Li2 Lu4 F16'
_cell_volume   299.35545398
_cell_formula_units_Z   2
loop_
 _symmetry_equiv_pos_site_id
 _symmetry_equiv_pos_as_xyz
  1  'x, y, z'
loop_
 _atom_site_type_symbol
 _atom_site_label
 _atom_site_symmetry_multiplicity
 _atom_site_fract_x
 _atom_site_fract_y
 _atom_site_fract_z
 _atom_site_occupancy
  Na  Na0  1  0.65512485  0.65512485  0.25000000  1
  Na  Na1  1  0.34487515  0.34487515  0.75000000  1
  Li  Li2  1  0.00000000  -0.00000000  0.00000000  1
  Li  Li3  1  0.00000000  -0.00000000  0.50000000  1
  Lu  Lu4  1  0.45010489  0.07528265  0.24998962  1
  Lu  Lu5  1  0.54989511  0.92471735  0.75001038  1
  Lu  Lu6  1  0.07528265  0.45010489  0.25001038  1
  Lu  Lu7  1  0.92471735  0.54989511  0.74998962  1
  F  F8  1  0.08954196  0.08954196  0.25000000  1
  F  F9  1  0.91045804  0.91045804  0.75000000  1
  F  F10  1  0.65575777  0.93536142  0.04934213  1
  F  F11  1  0.34424223  0.06463858  0.95065787  1
  F  F12  1  0.93536142  0.65575777  0.45065787  1
  F  F13  1  0.06463858  0.34424223  0.54934213  1
  F  F14  1  0.38653821  0.38653821  0.25000000  1
  F  F15  1  0.61346179  0.61346179  0.75000000  1
  F  F16  1  0.30545312  0.74592758  0.25101717  1
  F  F17  1  0.69454688  0.25407242  0.74898283  1
  F  F18  1  0.74592758  0.30545312  0.24898283  1
  F  F19  1  0.25407242  0.69454688  0.75101717  1
  F  F20  1  0.34429691  0.06416610  0.54921140  1
  F  F21  1  0.65570309  0.93583390  0.45078860  1
  F  F22  1  0.06416610  0.34429691  0.95078860  1
  F  F23  1  0.93583390  0.65570309  0.04921140  1
