# generated using pymatgen
data_NaSm(CO3)2
_symmetry_space_group_name_H-M   'P 1'
_cell_length_a   5.14467683
_cell_length_b   6.36894550
_cell_length_c   7.08160949
_cell_angle_alpha   90.00000000
_cell_angle_beta   90.00000000
_cell_angle_gamma   90.00000000
_symmetry_Int_Tables_number   1
_chemical_formula_structural   NaSm(CO3)2
_chemical_formula_sum   'Na2 Sm2 C4 O12'
_cell_volume   232.03719454
_cell_formula_units_Z   2
loop_
 _symmetry_equiv_pos_site_id
 _symmetry_equiv_pos_as_xyz
  1  'x, y, z'
loop_
 _atom_site_type_symbol
 _atom_site_label
 _atom_site_symmetry_multiplicity
 _atom_site_fract_x
 _atom_site_fract_y
 _atom_site_fract_z
 _atom_site_occupancy
  Na  Na0  1  -0.00000000  0.48234145  0.02784057  1
  Na  Na1  1  0.00000000  0.51765855  0.52784057  1
  Sm  Sm2  1  0.50000000  0.13062975  0.32838343  1
  Sm  Sm3  1  0.50000000  0.86937025  0.82838343  1
  C  C4  1  0.50000000  0.58020224  0.24295045  1
  C  C5  1  0.50000000  0.41979776  0.74295045  1
  C  C6  1  0.00000000  0.03576803  0.99885739  1
  C  C7  1  -0.00000000  0.96423197  0.49885739  1
  O  O8  1  0.00000000  0.14274135  0.41308148  1
  O  O9  1  -0.00000000  0.85725865  0.91308148  1
  O  O10  1  0.28709660  0.48246761  0.28029229  1
  O  O11  1  0.71290340  0.51753239  0.78029229  1
  O  O12  1  0.28709660  0.51753239  0.78029229  1
  O  O13  1  0.71290340  0.48246761  0.28029229  1
  O  O14  1  0.22237476  0.12457092  0.03509852  1
  O  O15  1  0.77762524  0.87542908  0.53509852  1
  O  O16  1  0.22237476  0.87542908  0.53509852  1
  O  O17  1  0.77762524  0.12457092  0.03509852  1
  O  O18  1  0.50000000  0.23322608  0.66410506  1
  O  O19  1  0.50000000  0.76677392  0.16410506  1
