# generated using pymatgen
data_Li9Mn2Co5O16
_symmetry_space_group_name_H-M   'P 1'
_cell_length_a   2.97327790
_cell_length_b   5.95917168
_cell_length_c   16.16393311
_cell_angle_alpha   89.34259421
_cell_angle_beta   89.03722387
_cell_angle_gamma   94.17701364
_symmetry_Int_Tables_number   1
_chemical_formula_structural   Li9Mn2Co5O16
_chemical_formula_sum   'Li9 Mn2 Co5 O16'
_cell_volume   285.57277463
_cell_formula_units_Z   1
loop_
 _symmetry_equiv_pos_site_id
 _symmetry_equiv_pos_as_xyz
  1  'x, y, z'
loop_
 _atom_site_type_symbol
 _atom_site_label
 _atom_site_symmetry_multiplicity
 _atom_site_fract_x
 _atom_site_fract_y
 _atom_site_fract_z
 _atom_site_occupancy
  Li  Li0  1  0.00358098  0.50480012  0.00460254  1
  Li  Li1  1  0.50353671  0.24046307  0.12926435  1
  Li  Li2  1  0.99856488  0.99396204  0.24513964  1
  Li  Li3  1  0.49801197  0.75090626  0.87312284  1
  Li  Li4  1  0.00091907  0.00145973  0.75106008  1
  Li  Li5  1  0.49958617  0.24987499  0.62413483  1
  Li  Li6  1  0.99983654  0.49792023  0.49775290  1
  Li  Li7  1  0.49898410  0.75009378  0.37415946  1
  Li  Li8  1  0.49266797  0.75904700  0.12841832  1
  Mn  Mn9  1  0.00294688  0.99415255  0.00413360  1
  Mn  Mn10  1  0.49981169  0.75008645  0.62462142  1
  Co  Co11  1  0.99674437  0.50872654  0.24493810  1
  Co  Co12  1  0.50168557  0.24977521  0.37347964  1
  Co  Co13  1  0.99778100  0.00375460  0.49856546  1
  Co  Co14  1  0.00250412  0.49780226  0.75086615  1
  Co  Co15  1  0.50911571  0.24754258  0.87448315  1
  O  O16  1  0.52540646  0.22313147  0.99500757  1
  O  O17  1  0.99432446  0.00363333  0.11593242  1
  O  O18  1  0.47122129  0.72966591  0.25115304  1
  O  O19  1  0.97384995  0.48572660  0.87080052  1
  O  O20  1  0.47286975  0.73748557  0.74655308  1
  O  O21  1  0.97148112  0.99601536  0.61891355  1
  O  O22  1  0.47274239  0.24077762  0.49288346  1
  O  O23  1  0.97424838  0.48556465  0.36533656  1
  O  O24  1  0.47692355  0.78015120  0.99955493  1
  O  O25  1  0.00184764  0.49580223  0.13720769  1
  O  O26  1  0.52361287  0.26320550  0.25623964  1
  O  O27  1  0.03069639  0.01546333  0.87995467  1
  O  O28  1  0.52479129  0.26303453  0.75638354  1
  O  O29  1  0.02822911  0.50435656  0.63127888  1
  O  O30  1  0.52665739  0.76150397  0.50308610  1
  O  O31  1  0.02482021  0.01411479  0.38097088  1
