# generated using pymatgen
data_NaMoO3F
_symmetry_space_group_name_H-M   'P 1'
_cell_length_a   3.76076186
_cell_length_b   6.65778108
_cell_length_c   7.31294889
_cell_angle_alpha   109.90963225
_cell_angle_beta   90.00000000
_cell_angle_gamma   90.00000000
_symmetry_Int_Tables_number   1
_chemical_formula_structural   NaMoO3F
_chemical_formula_sum   'Na2 Mo2 O6 F2'
_cell_volume   172.16005716
_cell_formula_units_Z   2
loop_
 _symmetry_equiv_pos_site_id
 _symmetry_equiv_pos_as_xyz
  1  'x, y, z'
loop_
 _atom_site_type_symbol
 _atom_site_label
 _atom_site_symmetry_multiplicity
 _atom_site_fract_x
 _atom_site_fract_y
 _atom_site_fract_z
 _atom_site_occupancy
  Na  Na0  1  0.75000000  0.91127487  0.29509743  1
  Na  Na1  1  0.25000000  0.08872513  0.70490257  1
  Mo  Mo2  1  0.75000000  0.60310716  0.71397853  1
  Mo  Mo3  1  0.25000000  0.39689284  0.28602147  1
  O  O4  1  0.75000000  0.36213092  0.76026119  1
  O  O5  1  0.25000000  0.63786908  0.23973881  1
  O  O6  1  0.75000000  0.79068343  0.94521660  1
  O  O7  1  0.25000000  0.20931657  0.05478340  1
  O  O8  1  0.75000000  0.41067839  0.37249888  1
  O  O9  1  0.25000000  0.58932161  0.62750112  1
  F  F10  1  0.75000000  0.86409775  0.59965669  1
  F  F11  1  0.25000000  0.13590225  0.40034331  1
