# generated using pymatgen
data_NaNbS6
_symmetry_space_group_name_H-M   'P 1'
_cell_length_a   7.29053690
_cell_length_b   7.51872943
_cell_length_c   7.51872943
_cell_angle_alpha   119.54032048
_cell_angle_beta   93.49716644
_cell_angle_gamma   93.49716644
_symmetry_Int_Tables_number   1
_chemical_formula_structural   NaNbS6
_chemical_formula_sum   'Na2 Nb2 S12'
_cell_volume   355.92704047
_cell_formula_units_Z   2
loop_
 _symmetry_equiv_pos_site_id
 _symmetry_equiv_pos_as_xyz
  1  'x, y, z'
loop_
 _atom_site_type_symbol
 _atom_site_label
 _atom_site_symmetry_multiplicity
 _atom_site_fract_x
 _atom_site_fract_y
 _atom_site_fract_z
 _atom_site_occupancy
  Na  Na0  1  0.99956264  0.66923780  0.33157895  1
  Na  Na1  1  0.49956264  0.33157895  0.66923780  1
  Nb  Nb2  1  0.74093436  0.98223279  0.00916337  1
  Nb  Nb3  1  0.24093436  0.00916337  0.98223279  1
  S  S4  1  0.47685381  0.76388279  0.03734447  1
  S  S5  1  0.97685381  0.03734447  0.76388279  1
  S  S6  1  0.79549627  0.64096537  0.69696057  1
  S  S7  1  0.29549627  0.69696057  0.64096537  1
  S  S8  1  0.98438974  0.73520258  0.95174723  1
  S  S9  1  0.48438974  0.95174723  0.73520258  1
  S  S10  1  0.66720542  0.91174628  0.29679052  1
  S  S11  1  0.16720542  0.29679052  0.91174628  1
  S  S12  1  0.70859587  0.33120033  0.05290133  1
  S  S13  1  0.20859587  0.05290133  0.33120033  1
  S  S14  1  0.52434188  0.27267404  0.21889158  1
  S  S15  1  0.02434188  0.21889158  0.27267404  1
