# generated using pymatgen
data_Mg3B2Rh5
_symmetry_space_group_name_H-M   'P 1'
_cell_length_a   2.95584685
_cell_length_b   9.53047361
_cell_length_c   9.53047361
_cell_angle_alpha   90.00000000
_cell_angle_beta   90.00000000
_cell_angle_gamma   90.00000000
_symmetry_Int_Tables_number   1
_chemical_formula_structural   Mg3B2Rh5
_chemical_formula_sum   'Mg6 B4 Rh10'
_cell_volume   268.47935429
_cell_formula_units_Z   2
loop_
 _symmetry_equiv_pos_site_id
 _symmetry_equiv_pos_as_xyz
  1  'x, y, z'
loop_
 _atom_site_type_symbol
 _atom_site_label
 _atom_site_symmetry_multiplicity
 _atom_site_fract_x
 _atom_site_fract_y
 _atom_site_fract_z
 _atom_site_occupancy
  Mg  Mg0  1  0.00000000  0.17719210  0.67719210  1
  Mg  Mg1  1  -0.00000000  0.82280790  0.32280790  1
  Mg  Mg2  1  -0.00000000  0.32280790  0.17719210  1
  Mg  Mg3  1  0.00000000  0.67719210  0.82280790  1
  Mg  Mg4  1  0.00000000  -0.00000000  -0.00000000  1
  Mg  Mg5  1  0.00000000  0.50000000  0.50000000  1
  B  B6  1  0.00000000  0.62575385  0.12575385  1
  B  B7  1  -0.00000000  0.37424615  0.87424615  1
  B  B8  1  -0.00000000  0.87424615  0.62575385  1
  B  B9  1  0.00000000  0.12575385  0.37424615  1
  Rh  Rh10  1  0.50000000  -0.00000000  0.50000000  1
  Rh  Rh11  1  0.50000000  0.50000000  -0.00000000  1
  Rh  Rh12  1  0.50000000  0.07065341  0.22072864  1
  Rh  Rh13  1  0.50000000  0.92934659  0.77927136  1
  Rh  Rh14  1  0.50000000  0.77927136  0.07065341  1
  Rh  Rh15  1  0.50000000  0.42934659  0.72072864  1
  Rh  Rh16  1  0.50000000  0.22072864  0.92934659  1
  Rh  Rh17  1  0.50000000  0.57065341  0.27927136  1
  Rh  Rh18  1  0.50000000  0.72072864  0.57065341  1
  Rh  Rh19  1  0.50000000  0.27927136  0.42934659  1
