# generated using pymatgen
data_Li2MgGeO4
_symmetry_space_group_name_H-M   'P 1'
_cell_length_a   5.09165818
_cell_length_b   5.55182833
_cell_length_c   6.35494260
_cell_angle_alpha   90.00000000
_cell_angle_beta   90.00000000
_cell_angle_gamma   90.00000000
_symmetry_Int_Tables_number   1
_chemical_formula_structural   Li2MgGeO4
_chemical_formula_sum   'Li4 Mg2 Ge2 O8'
_cell_volume   179.64159450
_cell_formula_units_Z   2
loop_
 _symmetry_equiv_pos_site_id
 _symmetry_equiv_pos_as_xyz
  1  'x, y, z'
loop_
 _atom_site_type_symbol
 _atom_site_label
 _atom_site_symmetry_multiplicity
 _atom_site_fract_x
 _atom_site_fract_y
 _atom_site_fract_z
 _atom_site_occupancy
  Li  Li0  1  0.50233580  0.83300895  0.74947834  1
  Li  Li1  1  0.00233580  0.16699105  0.75052166  1
  Li  Li2  1  0.00233580  0.16699105  0.24947834  1
  Li  Li3  1  0.50233580  0.83300895  0.25052166  1
  Mg  Mg4  1  0.50052419  0.33625125  -0.00000000  1
  Mg  Mg5  1  0.00052419  0.66374875  0.50000000  1
  Ge  Ge6  1  0.00678962  0.67423280  -0.00000000  1
  Ge  Ge7  1  0.50678962  0.32576720  0.50000000  1
  O  O8  1  0.89186641  0.36904432  -0.00000000  1
  O  O9  1  0.39186641  0.63095568  0.50000000  1
  O  O10  1  0.89577431  0.82382258  0.76825058  1
  O  O11  1  0.39577431  0.17617742  0.73174942  1
  O  O12  1  0.39577431  0.17617742  0.26825058  1
  O  O13  1  0.89577431  0.82382258  0.23174942  1
  O  O14  1  0.35709956  0.66977483  -0.00000000  1
  O  O15  1  0.85709956  0.33022517  0.50000000  1
