# generated using pymatgen
data_Pr2(Ga3Ru)3
_symmetry_space_group_name_H-M   'P 1'
_cell_length_a   7.56957254
_cell_length_b   7.56957254
_cell_length_c   9.89822073
_cell_angle_alpha   90.00000000
_cell_angle_beta   90.00000000
_cell_angle_gamma   119.44015514
_symmetry_Int_Tables_number   1
_chemical_formula_structural   Pr2(Ga3Ru)3
_chemical_formula_sum   'Pr4 Ga18 Ru6'
_cell_volume   493.91583654
_cell_formula_units_Z   2
loop_
 _symmetry_equiv_pos_site_id
 _symmetry_equiv_pos_as_xyz
  1  'x, y, z'
loop_
 _atom_site_type_symbol
 _atom_site_label
 _atom_site_symmetry_multiplicity
 _atom_site_fract_x
 _atom_site_fract_y
 _atom_site_fract_z
 _atom_site_occupancy
  Pr  Pr0  1  0.66886587  0.99692274  0.25000000  1
  Pr  Pr1  1  0.33113413  0.00307726  0.75000000  1
  Pr  Pr2  1  0.99692274  0.66886587  0.25000000  1
  Pr  Pr3  1  0.00307726  0.33113413  0.75000000  1
  Ga  Ga4  1  0.12708263  0.12708263  0.25000000  1
  Ga  Ga5  1  0.87291737  0.87291737  0.75000000  1
  Ga  Ga6  1  0.33516140  0.00576930  0.07220498  1
  Ga  Ga7  1  0.66483860  0.99423070  0.92779502  1
  Ga  Ga8  1  0.66483860  0.99423070  0.57220498  1
  Ga  Ga9  1  0.00576930  0.33516140  0.42779502  1
  Ga  Ga10  1  0.33516140  0.00576930  0.42779502  1
  Ga  Ga11  1  0.99423070  0.66483860  0.57220498  1
  Ga  Ga12  1  0.99423070  0.66483860  0.92779502  1
  Ga  Ga13  1  0.00576930  0.33516140  0.07220498  1
  Ga  Ga14  1  0.33747140  0.33747140  0.55582955  1
  Ga  Ga15  1  0.66252860  0.66252860  0.44417045  1
  Ga  Ga16  1  0.66252860  0.66252860  0.05582955  1
  Ga  Ga17  1  0.33747140  0.33747140  0.94417045  1
  Ga  Ga18  1  0.54494680  0.33587328  0.25000000  1
  Ga  Ga19  1  0.45505320  0.66412672  0.75000000  1
  Ga  Ga20  1  0.33587328  0.54494680  0.25000000  1
  Ga  Ga21  1  0.66412672  0.45505320  0.75000000  1
  Ru  Ru22  1  0.32787337  0.67212663  0.00000000  1
  Ru  Ru23  1  0.67212663  0.32787337  0.00000000  1
  Ru  Ru24  1  0.67212663  0.32787337  0.50000000  1
  Ru  Ru25  1  0.32787337  0.67212663  0.50000000  1
  Ru  Ru26  1  0.00000000  0.00000000  0.00000000  1
  Ru  Ru27  1  0.00000000  0.00000000  0.50000000  1
