# generated using pymatgen
data_Nb3In2Cl9
_symmetry_space_group_name_H-M   'P 1'
_cell_length_a   9.81535558
_cell_length_b   9.81535558
_cell_length_c   9.71360325
_cell_angle_alpha   103.39037719
_cell_angle_beta   103.39037719
_cell_angle_gamma   115.52851957
_symmetry_Int_Tables_number   1
_chemical_formula_structural   Nb3In2Cl9
_chemical_formula_sum   'Nb6 In4 Cl18'
_cell_volume   760.71562043
_cell_formula_units_Z   2
loop_
 _symmetry_equiv_pos_site_id
 _symmetry_equiv_pos_as_xyz
  1  'x, y, z'
loop_
 _atom_site_type_symbol
 _atom_site_label
 _atom_site_symmetry_multiplicity
 _atom_site_fract_x
 _atom_site_fract_y
 _atom_site_fract_z
 _atom_site_occupancy
  Nb  Nb0  1  0.61545306  0.61545306  0.87018666  1
  Nb  Nb1  1  0.38454694  0.38454694  0.12981334  1
  Nb  Nb2  1  0.45495892  0.27787155  0.85823763  1
  Nb  Nb3  1  0.54504108  0.72212845  0.14176237  1
  Nb  Nb4  1  0.72212845  0.54504108  0.14176237  1
  Nb  Nb5  1  0.27787155  0.45495892  0.85823763  1
  In  In6  1  0.72756053  0.04934840  0.67115231  1
  In  In7  1  0.27243947  0.95065160  0.32884769  1
  In  In8  1  0.95065160  0.27243947  0.32884769  1
  In  In9  1  0.04934840  0.72756053  0.67115231  1
  Cl  Cl10  1  0.70925790  0.29074210  0.00000000  1
  Cl  Cl11  1  0.29074210  0.70925790  0.00000000  1
  Cl  Cl12  1  0.39509464  0.99219895  0.67575657  1
  Cl  Cl13  1  0.60490536  0.00780105  0.32424343  1
  Cl  Cl14  1  0.00780105  0.60490536  0.32424343  1
  Cl  Cl15  1  0.99219895  0.39509464  0.67575657  1
  Cl  Cl16  1  0.31208391  0.10226396  0.98537250  1
  Cl  Cl17  1  0.68791609  0.89773604  0.01462750  1
  Cl  Cl18  1  0.89773604  0.68791609  0.01462750  1
  Cl  Cl19  1  0.10226396  0.31208391  0.98537250  1
  Cl  Cl20  1  0.76183421  0.76183421  0.70984512  1
  Cl  Cl21  1  0.23816579  0.23816579  0.29015488  1
  Cl  Cl22  1  0.81522148  0.81522148  0.33490597  1
  Cl  Cl23  1  0.18477852  0.18477852  0.66509403  1
  Cl  Cl24  1  0.58412189  0.37338425  0.68236801  1
  Cl  Cl25  1  0.41587811  0.62661575  0.31763199  1
  Cl  Cl26  1  0.62661575  0.41587811  0.31763199  1
  Cl  Cl27  1  0.37338425  0.58412189  0.68236801  1
