# generated using pymatgen
data_Li9Mn2Co5O16
_symmetry_space_group_name_H-M   'P 1'
_cell_length_a   2.92044288
_cell_length_b   20.22266184
_cell_length_c   5.12273922
_cell_angle_alpha   93.26071231
_cell_angle_beta   74.53231547
_cell_angle_gamma   86.50131946
_symmetry_Int_Tables_number   1
_chemical_formula_structural   Li9Mn2Co5O16
_chemical_formula_sum   'Li9 Mn2 Co5 O16'
_cell_volume   290.20044495
_cell_formula_units_Z   1
loop_
 _symmetry_equiv_pos_site_id
 _symmetry_equiv_pos_as_xyz
  1  'x, y, z'
loop_
 _atom_site_type_symbol
 _atom_site_label
 _atom_site_symmetry_multiplicity
 _atom_site_fract_x
 _atom_site_fract_y
 _atom_site_fract_z
 _atom_site_occupancy
  Li  Li0  1  0.67394342  0.06611114  0.56920548  1
  Li  Li1  1  0.05887406  0.18963491  0.69227450  1
  Li  Li2  1  0.44112594  0.31036509  0.80772550  1
  Li  Li3  1  0.82605658  0.43388886  0.93079452  1
  Li  Li4  1  0.16278203  0.56977624  0.07234311  1
  Li  Li5  1  0.55795979  0.69477681  0.17014619  1
  Li  Li6  1  0.94204021  0.80522319  0.32985381  1
  Li  Li7  1  0.33721797  0.93022376  0.42765689  1
  Li  Li8  1  0.25000000  0.75000000  0.75000000  1
  Mn  Mn9  1  0.01147076  0.00100700  0.99674652  1
  Mn  Mn10  1  0.48852924  0.49899300  0.50325348  1
  Co  Co11  1  0.37088031  0.12710192  0.12405492  1
  Co  Co12  1  0.75000000  0.25000000  0.25000000  1
  Co  Co13  1  0.12911969  0.37289808  0.37594508  1
  Co  Co14  1  0.87144349  0.63556528  0.61550867  1
  Co  Co15  1  0.62855651  0.86443472  0.88449133  1
  O  O16  1  0.37835067  0.03264464  0.24702058  1
  O  O17  1  0.69195497  0.15924589  0.38785346  1
  O  O18  1  0.10666074  0.28308823  0.51544422  1
  O  O19  1  0.45418555  0.40867677  0.63440399  1
  O  O20  1  0.86246198  0.52455383  0.74679546  1
  O  O21  1  0.24029397  0.65077132  0.87843192  1
  O  O22  1  0.59123346  0.78760823  0.03700329  1
  O  O23  1  0.98682556  0.91545325  0.13180541  1
  O  O24  1  0.04581545  0.09132323  0.86559601  1
  O  O25  1  0.39334026  0.21691277  0.98455578  1
  O  O26  1  0.80804403  0.34075411  0.11214654  1
  O  O27  1  0.12164833  0.46735536  0.25297942  1
  O  O28  1  0.51317444  0.58454775  0.36819459  1
  O  O29  1  0.90876754  0.71239177  0.46299671  1
  O  O30  1  0.25970603  0.84922868  0.62156808  1
  O  O31  1  0.63753902  0.97544717  0.75320454  1
