# generated using pymatgen
data_Lu3Fe2Si3
_symmetry_space_group_name_H-M   'P 1'
_cell_length_a   4.03020404
_cell_length_b   5.51782099
_cell_length_c   13.32083796
_cell_angle_alpha   90.00000000
_cell_angle_beta   90.00000000
_cell_angle_gamma   111.41982829
_symmetry_Int_Tables_number   1
_chemical_formula_structural   Lu3Fe2Si3
_chemical_formula_sum   'Lu6 Fe4 Si6'
_cell_volume   275.76743091
_cell_formula_units_Z   2
loop_
 _symmetry_equiv_pos_site_id
 _symmetry_equiv_pos_as_xyz
  1  'x, y, z'
loop_
 _atom_site_type_symbol
 _atom_site_label
 _atom_site_symmetry_multiplicity
 _atom_site_fract_x
 _atom_site_fract_y
 _atom_site_fract_z
 _atom_site_occupancy
  Lu  Lu0  1  0.36149158  0.72298316  0.25000000  1
  Lu  Lu1  1  0.63850842  0.27701684  0.75000000  1
  Lu  Lu2  1  0.07793513  0.15587027  0.11322111  1
  Lu  Lu3  1  0.92206487  0.84412973  0.88677889  1
  Lu  Lu4  1  0.92206487  0.84412973  0.61322111  1
  Lu  Lu5  1  0.07793513  0.15587027  0.38677889  1
  Fe  Fe6  1  0.21407218  0.42814435  0.58142283  1
  Fe  Fe7  1  0.78592782  0.57185565  0.41857717  1
  Fe  Fe8  1  0.78592782  0.57185565  0.08142283  1
  Fe  Fe9  1  0.21407218  0.42814435  0.91857717  1
  Si  Si10  1  0.67079333  0.34158667  0.25000000  1
  Si  Si11  1  0.32920667  0.65841333  0.75000000  1
  Si  Si12  1  0.37886955  0.75773911  0.03891704  1
  Si  Si13  1  0.62113045  0.24226089  0.96108296  1
  Si  Si14  1  0.62113045  0.24226089  0.53891704  1
  Si  Si15  1  0.37886955  0.75773911  0.46108296  1
