# generated using pymatgen
data_Nb3Tl2Cl9
_symmetry_space_group_name_H-M   'P 1'
_cell_length_a   9.92010855
_cell_length_b   9.92010855
_cell_length_c   9.79211251
_cell_angle_alpha   103.28085158
_cell_angle_beta   103.28085158
_cell_angle_gamma   116.08547303
_symmetry_Int_Tables_number   1
_chemical_formula_structural   Nb3Tl2Cl9
_chemical_formula_sum   'Nb6 Tl4 Cl18'
_cell_volume   779.70342139
_cell_formula_units_Z   2
loop_
 _symmetry_equiv_pos_site_id
 _symmetry_equiv_pos_as_xyz
  1  'x, y, z'
loop_
 _atom_site_type_symbol
 _atom_site_label
 _atom_site_symmetry_multiplicity
 _atom_site_fract_x
 _atom_site_fract_y
 _atom_site_fract_z
 _atom_site_occupancy
  Nb  Nb0  1  0.61530493  0.61530493  0.87101185  1
  Nb  Nb1  1  0.38469507  0.38469507  0.12898815  1
  Nb  Nb2  1  0.45456319  0.27975564  0.85947969  1
  Nb  Nb3  1  0.54543681  0.72024436  0.14052031  1
  Nb  Nb4  1  0.72024436  0.54543681  0.14052031  1
  Nb  Nb5  1  0.27975564  0.45456319  0.85947969  1
  Tl  Tl6  1  0.72895133  0.04970629  0.67104995  1
  Tl  Tl7  1  0.27104867  0.95029371  0.32895005  1
  Tl  Tl8  1  0.95029371  0.27104867  0.32895005  1
  Tl  Tl9  1  0.04970629  0.72895133  0.67104995  1
  Cl  Cl10  1  0.70679559  0.29320441  0.00000000  1
  Cl  Cl11  1  0.29320441  0.70679559  -0.00000000  1
  Cl  Cl12  1  0.39473337  0.99846836  0.67857478  1
  Cl  Cl13  1  0.60526663  0.00153164  0.32142522  1
  Cl  Cl14  1  0.00153164  0.60526663  0.32142522  1
  Cl  Cl15  1  0.99846836  0.39473337  0.67857478  1
  Cl  Cl16  1  0.31228646  0.10455673  0.98601431  1
  Cl  Cl17  1  0.68771354  0.89544327  0.01398569  1
  Cl  Cl18  1  0.89544327  0.68771354  0.01398569  1
  Cl  Cl19  1  0.10455673  0.31228646  0.98601431  1
  Cl  Cl20  1  0.76011173  0.76011173  0.71153900  1
  Cl  Cl21  1  0.23988827  0.23988827  0.28846100  1
  Cl  Cl22  1  0.81419454  0.81419454  0.33187145  1
  Cl  Cl23  1  0.18580546  0.18580546  0.66812855  1
  Cl  Cl24  1  0.58269918  0.37523889  0.68435668  1
  Cl  Cl25  1  0.41730082  0.62476111  0.31564332  1
  Cl  Cl26  1  0.62476111  0.41730082  0.31564332  1
  Cl  Cl27  1  0.37523889  0.58269918  0.68435668  1
