# generated using pymatgen
data_NaMn3Ag(PO4)3
_symmetry_space_group_name_H-M   'P 1'
_cell_length_a   6.67831194
_cell_length_b   8.86081859
_cell_length_c   8.86081859
_cell_angle_alpha   93.34297788
_cell_angle_beta   106.93012203
_cell_angle_gamma   106.93012203
_symmetry_Int_Tables_number   1
_chemical_formula_structural   NaMn3Ag(PO4)3
_chemical_formula_sum   'Na2 Mn6 Ag2 P6 O24'
_cell_volume   473.97379450
_cell_formula_units_Z   2
loop_
 _symmetry_equiv_pos_site_id
 _symmetry_equiv_pos_as_xyz
  1  'x, y, z'
loop_
 _atom_site_type_symbol
 _atom_site_label
 _atom_site_symmetry_multiplicity
 _atom_site_fract_x
 _atom_site_fract_y
 _atom_site_fract_z
 _atom_site_occupancy
  Na  Na0  1  -0.00000000  0.50000000  0.50000000  1
  Na  Na1  1  0.50000000  0.50000000  0.50000000  1
  Mn  Mn2  1  0.75000000  0.26792040  0.73207960  1
  Mn  Mn3  1  0.25000000  0.73207960  0.26792040  1
  Mn  Mn4  1  0.63486438  0.38071176  0.06255094  1
  Mn  Mn5  1  0.36513562  0.61928824  0.93744906  1
  Mn  Mn6  1  0.86513562  0.93744906  0.61928824  1
  Mn  Mn7  1  0.13486438  0.06255094  0.38071176  1
  Ag  Ag8  1  0.75000000  0.98886270  0.01113730  1
  Ag  Ag9  1  0.25000000  0.01113730  0.98886270  1
  P  P10  1  0.87194440  0.65298428  0.87406081  1
  P  P11  1  0.12805560  0.34701572  0.12593919  1
  P  P12  1  0.62805560  0.12593919  0.34701572  1
  P  P13  1  0.37194440  0.87406081  0.65298428  1
  P  P14  1  0.75000000  0.71489595  0.28510405  1
  P  P15  1  0.25000000  0.28510405  0.71489595  1
  O  O16  1  0.68661758  0.59799454  0.95258074  1
  O  O17  1  0.31338242  0.40200546  0.04741926  1
  O  O18  1  0.81338242  0.04741926  0.40200546  1
  O  O19  1  0.18661758  0.95258074  0.59799454  1
  O  O20  1  0.90018081  0.32775522  0.99846659  1
  O  O21  1  0.09981919  0.67224478  0.00153341  1
  O  O22  1  0.59981919  0.00153341  0.67224478  1
  O  O23  1  0.40018081  0.99846659  0.32775522  1
  O  O24  1  0.82281530  0.52836748  0.72761818  1
  O  O25  1  0.17718470  0.47163252  0.27238182  1
  O  O26  1  0.67718470  0.27238182  0.47163252  1
  O  O27  1  0.32281530  0.72761818  0.52836748  1
  O  O28  1  0.75556444  0.54092555  0.26344037  1
  O  O29  1  0.24443556  0.45907445  0.73655963  1
  O  O30  1  0.74443556  0.73655963  0.45907445  1
  O  O31  1  0.25556444  0.26344037  0.54092555  1
  O  O32  1  0.53749710  0.73971798  0.17279455  1
  O  O33  1  0.46250290  0.26028202  0.82720545  1
  O  O34  1  0.96250290  0.82720545  0.26028202  1
  O  O35  1  0.03749710  0.17279455  0.73971798  1
  O  O36  1  0.87949944  0.82181539  0.82641236  1
  O  O37  1  0.12050056  0.17818461  0.17358764  1
  O  O38  1  0.62050056  0.17358764  0.17818461  1
  O  O39  1  0.37949944  0.82641236  0.82181539  1
