# generated using pymatgen
data_Sc25InIr7
_symmetry_space_group_name_H-M   'P 1'
_cell_length_a   12.51977187
_cell_length_b   12.51977187
_cell_length_c   12.51977187
_cell_angle_alpha   60.00000000
_cell_angle_beta   60.00000000
_cell_angle_gamma   60.00000000
_symmetry_Int_Tables_number   1
_chemical_formula_structural   Sc25InIr7
_chemical_formula_sum   'Sc50 In2 Ir14'
_cell_volume   1387.63181528
_cell_formula_units_Z   2
loop_
 _symmetry_equiv_pos_site_id
 _symmetry_equiv_pos_as_xyz
  1  'x, y, z'
loop_
 _atom_site_type_symbol
 _atom_site_label
 _atom_site_symmetry_multiplicity
 _atom_site_fract_x
 _atom_site_fract_y
 _atom_site_fract_z
 _atom_site_occupancy
  Sc  Sc0  1  0.78753936  0.78753936  0.21246064  1
  Sc  Sc1  1  0.21246064  0.21246064  0.78753936  1
  Sc  Sc2  1  0.78753936  0.21246064  0.78753936  1
  Sc  Sc3  1  0.21246064  0.78753936  0.21246064  1
  Sc  Sc4  1  0.21246064  0.78753936  0.78753936  1
  Sc  Sc5  1  0.78753936  0.21246064  0.21246064  1
  Sc  Sc6  1  0.26757622  0.73242378  0.55160278  1
  Sc  Sc7  1  0.73242378  0.26757622  0.44839722  1
  Sc  Sc8  1  0.44839722  0.55160278  0.73242378  1
  Sc  Sc9  1  0.55160278  0.44839722  0.26757622  1
  Sc  Sc10  1  0.73242378  0.55160278  0.26757622  1
  Sc  Sc11  1  0.26757622  0.44839722  0.73242378  1
  Sc  Sc12  1  0.55160278  0.73242378  0.44839722  1
  Sc  Sc13  1  0.44839722  0.26757622  0.55160278  1
  Sc  Sc14  1  0.55160278  0.26757622  0.73242378  1
  Sc  Sc15  1  0.44839722  0.73242378  0.26757622  1
  Sc  Sc16  1  0.26757622  0.55160278  0.44839722  1
  Sc  Sc17  1  0.73242378  0.44839722  0.55160278  1
  Sc  Sc18  1  0.80594942  0.00930363  0.67734332  1
  Sc  Sc19  1  0.19405058  0.99069637  0.32265668  1
  Sc  Sc20  1  0.50740363  0.67734332  0.00930363  1
  Sc  Sc21  1  0.67734332  0.50740363  0.80594942  1
  Sc  Sc22  1  0.00930363  0.67734332  0.80594942  1
  Sc  Sc23  1  0.49259637  0.32265668  0.99069637  1
  Sc  Sc24  1  0.32265668  0.49259637  0.19405058  1
  Sc  Sc25  1  0.99069637  0.32265668  0.19405058  1
  Sc  Sc26  1  0.00930363  0.80594942  0.50740363  1
  Sc  Sc27  1  0.67734332  0.00930363  0.50740363  1
  Sc  Sc28  1  0.99069637  0.19405058  0.49259637  1
  Sc  Sc29  1  0.32265668  0.99069637  0.49259637  1
  Sc  Sc30  1  0.50740363  0.80594942  0.67734332  1
  Sc  Sc31  1  0.49259637  0.19405058  0.32265668  1
  Sc  Sc32  1  0.80594942  0.50740363  0.00930363  1
  Sc  Sc33  1  0.19405058  0.49259637  0.99069637  1
  Sc  Sc34  1  0.67734332  0.80594942  0.00930363  1
  Sc  Sc35  1  0.32265668  0.19405058  0.99069637  1
  Sc  Sc36  1  0.80594942  0.67734332  0.50740363  1
  Sc  Sc37  1  0.19405058  0.32265668  0.49259637  1
  Sc  Sc38  1  0.50740363  0.00930363  0.80594942  1
  Sc  Sc39  1  0.49259637  0.99069637  0.19405058  1
  Sc  Sc40  1  0.00930363  0.50740363  0.67734332  1
  Sc  Sc41  1  0.99069637  0.49259637  0.32265668  1
  Sc  Sc42  1  0.90951723  0.90951723  0.90951723  1
  Sc  Sc43  1  0.09048277  0.09048277  0.09048277  1
  Sc  Sc44  1  0.27144830  0.90951723  0.90951723  1
  Sc  Sc45  1  0.90951723  0.27144830  0.90951723  1
  Sc  Sc46  1  0.72855170  0.09048277  0.09048277  1
  Sc  Sc47  1  0.09048277  0.72855170  0.09048277  1
  Sc  Sc48  1  0.90951723  0.90951723  0.27144830  1
  Sc  Sc49  1  0.09048277  0.09048277  0.72855170  1
  In  In50  1  0.75000000  0.75000000  0.75000000  1
  In  In51  1  0.25000000  0.25000000  0.25000000  1
  Ir  Ir52  1  0.06248433  0.93751567  0.63199565  1
  Ir  Ir53  1  0.93751567  0.06248433  0.36800435  1
  Ir  Ir54  1  0.36800435  0.63199565  0.93751567  1
  Ir  Ir55  1  0.63199565  0.36800435  0.06248433  1
  Ir  Ir56  1  0.93751567  0.63199565  0.06248433  1
  Ir  Ir57  1  0.06248433  0.36800435  0.93751567  1
  Ir  Ir58  1  0.63199565  0.93751567  0.36800435  1
  Ir  Ir59  1  0.36800435  0.06248433  0.63199565  1
  Ir  Ir60  1  0.63199565  0.06248433  0.93751567  1
  Ir  Ir61  1  0.36800435  0.93751567  0.06248433  1
  Ir  Ir62  1  0.06248433  0.63199565  0.36800435  1
  Ir  Ir63  1  0.93751567  0.36800435  0.63199565  1
  Ir  Ir64  1  -0.00000000  0.00000000  0.00000000  1
  Ir  Ir65  1  0.50000000  0.50000000  0.50000000  1
