# generated using pymatgen
data_Li(YGe)4
_symmetry_space_group_name_H-M   'P 1'
_cell_length_a   7.17636190
_cell_length_b   7.75276303
_cell_length_c   14.74935417
_cell_angle_alpha   90.00000000
_cell_angle_beta   90.00000000
_cell_angle_gamma   90.00000000
_symmetry_Int_Tables_number   1
_chemical_formula_structural   Li(YGe)4
_chemical_formula_sum   'Li4 Y16 Ge16'
_cell_volume   820.60440831
_cell_formula_units_Z   4
loop_
 _symmetry_equiv_pos_site_id
 _symmetry_equiv_pos_as_xyz
  1  'x, y, z'
loop_
 _atom_site_type_symbol
 _atom_site_label
 _atom_site_symmetry_multiplicity
 _atom_site_fract_x
 _atom_site_fract_y
 _atom_site_fract_z
 _atom_site_occupancy
  Li  Li0  1  0.84103020  0.47787147  0.75000000  1
  Li  Li1  1  0.15896980  0.52212853  0.25000000  1
  Li  Li2  1  0.65896980  0.97787147  0.25000000  1
  Li  Li3  1  0.34103020  0.02212853  0.75000000  1
  Y  Y4  1  0.67180175  0.82388193  0.87200199  1
  Y  Y5  1  0.32819825  0.17611807  0.12799801  1
  Y  Y6  1  0.82819825  0.32388193  0.12799801  1
  Y  Y7  1  0.32819825  0.17611807  0.37200199  1
  Y  Y8  1  0.17180175  0.67611807  0.87200199  1
  Y  Y9  1  0.67180175  0.82388193  0.62799801  1
  Y  Y10  1  0.17180175  0.67611807  0.62799801  1
  Y  Y11  1  0.82819825  0.32388193  0.37200199  1
  Y  Y12  1  0.98522986  0.81358706  0.40257630  1
  Y  Y13  1  0.01477014  0.18641294  0.59742370  1
  Y  Y14  1  0.51477014  0.31358706  0.59742370  1
  Y  Y15  1  0.01477014  0.18641294  0.90257630  1
  Y  Y16  1  0.48522986  0.68641294  0.40257630  1
  Y  Y17  1  0.98522986  0.81358706  0.09742370  1
  Y  Y18  1  0.48522986  0.68641294  0.09742370  1
  Y  Y19  1  0.51477014  0.31358706  0.90257630  1
  Ge  Ge20  1  0.98177178  0.91339848  0.75000000  1
  Ge  Ge21  1  0.01822822  0.08660152  0.25000000  1
  Ge  Ge22  1  0.51822822  0.41339848  0.25000000  1
  Ge  Ge23  1  0.48177178  0.58660152  0.75000000  1
  Ge  Ge24  1  0.71673923  0.13637769  0.75000000  1
  Ge  Ge25  1  0.28326077  0.86362231  0.25000000  1
  Ge  Ge26  1  0.78326077  0.63637769  0.25000000  1
  Ge  Ge27  1  0.21673923  0.36362231  0.75000000  1
  Ge  Ge28  1  0.83373613  0.53388833  0.96309032  1
  Ge  Ge29  1  0.16626387  0.46611167  0.03690968  1
  Ge  Ge30  1  0.66626387  0.03388833  0.03690968  1
  Ge  Ge31  1  0.16626387  0.46611167  0.46309032  1
  Ge  Ge32  1  0.33373613  0.96611167  0.96309032  1
  Ge  Ge33  1  0.83373613  0.53388833  0.53690968  1
  Ge  Ge34  1  0.33373613  0.96611167  0.53690968  1
  Ge  Ge35  1  0.66626387  0.03388833  0.46309032  1
