# generated using pymatgen
data_Li2La(NO3)5
_symmetry_space_group_name_H-M   'P 1'
_cell_length_a   9.05679606
_cell_length_b   10.72426604
_cell_length_c   11.92698431
_cell_angle_alpha   90.00000000
_cell_angle_beta   90.00000000
_cell_angle_gamma   90.00000000
_symmetry_Int_Tables_number   1
_chemical_formula_structural   Li2La(NO3)5
_chemical_formula_sum   'Li8 La4 N20 O60'
_cell_volume   1158.43805428
_cell_formula_units_Z   4
loop_
 _symmetry_equiv_pos_site_id
 _symmetry_equiv_pos_as_xyz
  1  'x, y, z'
loop_
 _atom_site_type_symbol
 _atom_site_label
 _atom_site_symmetry_multiplicity
 _atom_site_fract_x
 _atom_site_fract_y
 _atom_site_fract_z
 _atom_site_occupancy
  Li  Li0  1  0.11665966  0.22794180  0.32122573  1
  Li  Li1  1  0.88334034  0.77205820  0.67877427  1
  Li  Li2  1  0.88334034  0.77205820  0.32122573  1
  Li  Li3  1  0.38334034  0.72794180  0.17877427  1
  Li  Li4  1  0.11665966  0.22794180  0.67877427  1
  Li  Li5  1  0.61665966  0.27205820  0.82122573  1
  Li  Li6  1  0.61665966  0.27205820  0.17877427  1
  Li  Li7  1  0.38334034  0.72794180  0.82122573  1
  La  La8  1  -0.00000000  0.00000000  0.00000000  1
  La  La9  1  0.50000000  0.50000000  0.50000000  1
  La  La10  1  -0.00000000  0.50000000  0.00000000  1
  La  La11  1  0.50000000  0.00000000  0.50000000  1
  N  N12  1  -0.00000000  0.00000000  0.26143409  1
  N  N13  1  -0.00000000  0.00000000  0.73856591  1
  N  N14  1  0.50000000  0.50000000  0.23856591  1
  N  N15  1  0.50000000  0.50000000  0.76143409  1
  N  N16  1  0.17698687  0.24907917  0.00000000  1
  N  N17  1  0.82301313  0.75092083  0.00000000  1
  N  N18  1  0.32301313  0.74907917  0.50000000  1
  N  N19  1  0.67698687  0.25092083  0.50000000  1
  N  N20  1  0.39938321  0.15571745  0.29027196  1
  N  N21  1  0.60061679  0.84428255  0.70972804  1
  N  N22  1  0.60061679  0.84428255  0.29027196  1
  N  N23  1  0.10061679  0.65571745  0.20972804  1
  N  N24  1  0.39938321  0.15571745  0.70972804  1
  N  N25  1  0.89938321  0.34428255  0.79027196  1
  N  N26  1  0.89938321  0.34428255  0.20972804  1
  N  N27  1  0.10061679  0.65571745  0.79027196  1
  N  N28  1  0.70452502  0.14790301  0.00000000  1
  N  N29  1  0.29547498  0.85209699  0.00000000  1
  N  N30  1  0.79547498  0.64790301  0.50000000  1
  N  N31  1  0.20452502  0.35209699  0.50000000  1
  O  O32  1  0.31075702  0.11395525  0.36604599  1
  O  O33  1  0.68924298  0.88604475  0.63395401  1
  O  O34  1  0.68924298  0.88604475  0.36604599  1
  O  O35  1  0.18924298  0.61395525  0.13395401  1
  O  O36  1  0.31075702  0.11395525  0.63395401  1
  O  O37  1  0.81075702  0.38604475  0.86604599  1
  O  O38  1  0.81075702  0.38604475  0.13395401  1
  O  O39  1  0.18924298  0.61395525  0.86604599  1
  O  O40  1  0.03278527  0.24772654  0.00000000  1
  O  O41  1  0.96721473  0.75227346  0.00000000  1
  O  O42  1  0.46721473  0.74772654  0.50000000  1
  O  O43  1  0.53278527  0.25227346  0.50000000  1
  O  O44  1  0.03566233  0.37337399  0.20261249  1
  O  O45  1  0.96433767  0.62662601  0.79738751  1
  O  O46  1  0.96433767  0.62662601  0.20261249  1
  O  O47  1  0.46433767  0.87337399  0.29738751  1
  O  O48  1  0.03566233  0.37337399  0.79738751  1
  O  O49  1  0.53566233  0.12662601  0.70261249  1
  O  O50  1  0.53566233  0.12662601  0.29738751  1
  O  O51  1  0.46433767  0.87337399  0.70261249  1
  O  O52  1  0.24284393  0.14688073  0.00000000  1
  O  O53  1  0.75715607  0.85311927  0.00000000  1
  O  O54  1  0.25715607  0.64688073  0.50000000  1
  O  O55  1  0.74284393  0.35311927  0.50000000  1
  O  O56  1  0.59631948  0.22126979  0.00000000  1
  O  O57  1  0.40368052  0.77873021  0.00000000  1
  O  O58  1  0.90368052  0.72126979  0.50000000  1
  O  O59  1  0.09631948  0.27873021  0.50000000  1
  O  O60  1  -0.00000000  -0.00000000  0.36440236  1
  O  O61  1  -0.00000000  0.00000000  0.63559764  1
  O  O62  1  0.50000000  0.50000000  0.13559764  1
  O  O63  1  0.50000000  0.50000000  0.86440236  1
  O  O64  1  0.24041746  0.35278685  0.00000000  1
  O  O65  1  0.75958254  0.64721315  0.00000000  1
  O  O66  1  0.25958254  0.85278685  0.50000000  1
  O  O67  1  0.74041746  0.14721315  0.50000000  1
  O  O68  1  0.26145527  0.38843491  0.40805040  1
  O  O69  1  0.73854473  0.61156509  0.59194960  1
  O  O70  1  0.73854473  0.61156509  0.40805040  1
  O  O71  1  0.23854473  0.88843491  0.09194960  1
  O  O72  1  0.26145527  0.38843491  0.59194960  1
  O  O73  1  0.76145527  0.11156509  0.90805040  1
  O  O74  1  0.76145527  0.11156509  0.09194960  1
  O  O75  1  0.23854473  0.88843491  0.90805040  1
  O  O76  1  0.05734068  0.08964851  0.20412552  1
  O  O77  1  0.94265932  0.91035149  0.79587448  1
  O  O78  1  0.94265932  0.91035149  0.20412552  1
  O  O79  1  0.44265932  0.58964851  0.29587448  1
  O  O80  1  0.05734068  0.08964851  0.79587448  1
  O  O81  1  0.55734068  0.41035149  0.70412552  1
  O  O82  1  0.55734068  0.41035149  0.29587448  1
  O  O83  1  0.44265932  0.58964851  0.70412552  1
  O  O84  1  0.35336297  0.22481577  0.21465000  1
  O  O85  1  0.64663703  0.77518423  0.78535000  1
  O  O86  1  0.64663703  0.77518423  0.21465000  1
  O  O87  1  0.14663703  0.72481577  0.28535000  1
  O  O88  1  0.35336297  0.22481577  0.78535000  1
  O  O89  1  0.85336297  0.27518423  0.71465000  1
  O  O90  1  0.85336297  0.27518423  0.28535000  1
  O  O91  1  0.14663703  0.72481577  0.71465000  1
