# generated using pymatgen
data_Lu2(Al3Rh)3
_symmetry_space_group_name_H-M   'P 1'
_cell_length_a   7.52308612
_cell_length_b   7.52308612
_cell_length_c   9.41241196
_cell_angle_alpha   90.00000000
_cell_angle_beta   90.00000000
_cell_angle_gamma   119.56470329
_symmetry_Int_Tables_number   1
_chemical_formula_structural   Lu2(Al3Rh)3
_chemical_formula_sum   'Lu4 Al18 Rh6'
_cell_volume   463.35294174
_cell_formula_units_Z   2
loop_
 _symmetry_equiv_pos_site_id
 _symmetry_equiv_pos_as_xyz
  1  'x, y, z'
loop_
 _atom_site_type_symbol
 _atom_site_label
 _atom_site_symmetry_multiplicity
 _atom_site_fract_x
 _atom_site_fract_y
 _atom_site_fract_z
 _atom_site_occupancy
  Lu  Lu0  1  0.66940467  0.99551893  0.25000000  1
  Lu  Lu1  1  0.33059533  0.00448107  0.75000000  1
  Lu  Lu2  1  0.99551893  0.66940467  0.25000000  1
  Lu  Lu3  1  0.00448107  0.33059533  0.75000000  1
  Al  Al4  1  0.12506658  0.12506658  0.25000000  1
  Al  Al5  1  0.87493342  0.87493342  0.75000000  1
  Al  Al6  1  0.33457104  0.00042330  0.07437655  1
  Al  Al7  1  0.66542896  0.99957670  0.92562345  1
  Al  Al8  1  0.66542896  0.99957670  0.57437655  1
  Al  Al9  1  0.00042330  0.33457104  0.42562345  1
  Al  Al10  1  0.33457104  0.00042330  0.42562345  1
  Al  Al11  1  0.99957670  0.66542896  0.57437655  1
  Al  Al12  1  0.99957670  0.66542896  0.92562345  1
  Al  Al13  1  0.00042330  0.33457104  0.07437655  1
  Al  Al14  1  0.33299730  0.33299730  0.55493861  1
  Al  Al15  1  0.66700270  0.66700270  0.44506139  1
  Al  Al16  1  0.66700270  0.66700270  0.05493861  1
  Al  Al17  1  0.33299730  0.33299730  0.94506139  1
  Al  Al18  1  0.54854258  0.33755071  0.25000000  1
  Al  Al19  1  0.45145742  0.66244929  0.75000000  1
  Al  Al20  1  0.33755071  0.54854258  0.25000000  1
  Al  Al21  1  0.66244929  0.45145742  0.75000000  1
  Rh  Rh22  1  0.32767957  0.67232043  0.00000000  1
  Rh  Rh23  1  0.67232043  0.32767957  0.00000000  1
  Rh  Rh24  1  0.67232043  0.32767957  0.50000000  1
  Rh  Rh25  1  0.32767957  0.67232043  0.50000000  1
  Rh  Rh26  1  -0.00000000  -0.00000000  0.00000000  1
  Rh  Rh27  1  -0.00000000  -0.00000000  0.50000000  1
