# generated using pymatgen
data_Mg2Be3Tl2F12
_symmetry_space_group_name_H-M   'P 1'
_cell_length_a   10.10416649
_cell_length_b   10.10416649
_cell_length_c   10.10416649
_cell_angle_alpha   90.00000000
_cell_angle_beta   90.00000000
_cell_angle_gamma   90.00000000
_symmetry_Int_Tables_number   1
_chemical_formula_structural   Mg2Be3Tl2F12
_chemical_formula_sum   'Mg8 Be12 Tl8 F48'
_cell_volume   1031.57659700
_cell_formula_units_Z   4
loop_
 _symmetry_equiv_pos_site_id
 _symmetry_equiv_pos_as_xyz
  1  'x, y, z'
loop_
 _atom_site_type_symbol
 _atom_site_label
 _atom_site_symmetry_multiplicity
 _atom_site_fract_x
 _atom_site_fract_y
 _atom_site_fract_z
 _atom_site_occupancy
  Mg  Mg0  1  0.33524454  0.33524454  0.33524454  1
  Mg  Mg1  1  0.16475546  0.66475546  0.83524454  1
  Mg  Mg2  1  0.66475546  0.83524454  0.16475546  1
  Mg  Mg3  1  0.83524454  0.16475546  0.66475546  1
  Mg  Mg4  1  0.59943563  0.59943563  0.59943563  1
  Mg  Mg5  1  0.90056437  0.40056437  0.09943563  1
  Mg  Mg6  1  0.40056437  0.09943563  0.90056437  1
  Mg  Mg7  1  0.09943563  0.90056437  0.40056437  1
  Be  Be8  1  0.01981867  0.21411925  0.37562593  1
  Be  Be9  1  0.48018133  0.78588075  0.87562593  1
  Be  Be10  1  0.98018133  0.71411925  0.12437407  1
  Be  Be11  1  0.37562593  0.01981867  0.21411925  1
  Be  Be12  1  0.51981867  0.28588075  0.62437407  1
  Be  Be13  1  0.87562593  0.48018133  0.78588075  1
  Be  Be14  1  0.12437407  0.98018133  0.71411925  1
  Be  Be15  1  0.62437407  0.51981867  0.28588075  1
  Be  Be16  1  0.21411925  0.37562593  0.01981867  1
  Be  Be17  1  0.71411925  0.12437407  0.98018133  1
  Be  Be18  1  0.28588075  0.62437407  0.51981867  1
  Be  Be19  1  0.78588075  0.87562593  0.48018133  1
  Tl  Tl20  1  0.04899099  0.04899099  0.04899099  1
  Tl  Tl21  1  0.45100901  0.95100901  0.54899099  1
  Tl  Tl22  1  0.95100901  0.54899099  0.45100901  1
  Tl  Tl23  1  0.54899099  0.45100901  0.95100901  1
  Tl  Tl24  1  0.81684199  0.81684199  0.81684199  1
  Tl  Tl25  1  0.68315801  0.18315801  0.31684199  1
  Tl  Tl26  1  0.18315801  0.31684199  0.68315801  1
  Tl  Tl27  1  0.31684199  0.68315801  0.18315801  1
  F  F28  1  0.01392967  0.06590091  0.33063511  1
  F  F29  1  0.48607033  0.93409909  0.83063511  1
  F  F30  1  0.98607033  0.56590091  0.16936489  1
  F  F31  1  0.33063511  0.01392967  0.06590091  1
  F  F32  1  0.51392967  0.43409909  0.66936489  1
  F  F33  1  0.83063511  0.48607033  0.93409909  1
  F  F34  1  0.16936489  0.98607033  0.56590091  1
  F  F35  1  0.66936489  0.51392967  0.43409909  1
  F  F36  1  0.06590091  0.33063511  0.01392967  1
  F  F37  1  0.56590091  0.16936489  0.98607033  1
  F  F38  1  0.43409909  0.66936489  0.51392967  1
  F  F39  1  0.93409909  0.83063511  0.48607033  1
  F  F40  1  0.26855275  0.49498706  0.43610425  1
  F  F41  1  0.23144725  0.50501294  0.93610425  1
  F  F42  1  0.73144725  0.99498706  0.06389575  1
  F  F43  1  0.43610425  0.26855275  0.49498706  1
  F  F44  1  0.76855275  0.00501294  0.56389575  1
  F  F45  1  0.93610425  0.23144725  0.50501294  1
  F  F46  1  0.06389575  0.73144725  0.99498706  1
  F  F47  1  0.56389575  0.76855275  0.00501294  1
  F  F48  1  0.49498706  0.43610425  0.26855275  1
  F  F49  1  0.99498706  0.06389575  0.73144725  1
  F  F50  1  0.00501294  0.56389575  0.76855275  1
  F  F51  1  0.50501294  0.93610425  0.23144725  1
  F  F52  1  0.04628201  0.80626327  0.23170810  1
  F  F53  1  0.45371799  0.19373673  0.73170810  1
  F  F54  1  0.95371799  0.30626327  0.26829190  1
  F  F55  1  0.23170810  0.04628201  0.80626327  1
  F  F56  1  0.54628201  0.69373673  0.76829190  1
  F  F57  1  0.73170810  0.45371799  0.19373673  1
  F  F58  1  0.26829190  0.95371799  0.30626327  1
  F  F59  1  0.76829190  0.54628201  0.69373673  1
  F  F60  1  0.80626327  0.23170810  0.04628201  1
  F  F61  1  0.30626327  0.26829190  0.95371799  1
  F  F62  1  0.69373673  0.76829190  0.54628201  1
  F  F63  1  0.19373673  0.73170810  0.45371799  1
  F  F64  1  0.16590908  0.25681878  0.39997800  1
  F  F65  1  0.33409092  0.74318122  0.89997800  1
  F  F66  1  0.83409092  0.75681878  0.10002200  1
  F  F67  1  0.39997800  0.16590908  0.25681878  1
  F  F68  1  0.66590908  0.24318122  0.60002200  1
  F  F69  1  0.89997800  0.33409092  0.74318122  1
  F  F70  1  0.10002200  0.83409092  0.75681878  1
  F  F71  1  0.60002200  0.66590908  0.24318122  1
  F  F72  1  0.25681878  0.39997800  0.16590908  1
  F  F73  1  0.75681878  0.10002200  0.83409092  1
  F  F74  1  0.24318122  0.60002200  0.66590908  1
  F  F75  1  0.74318122  0.89997800  0.33409092  1
