# generated using pymatgen
data_Nd12InCo6
_symmetry_space_group_name_H-M   'P 1'
_cell_length_a   8.69515616
_cell_length_b   8.69515616
_cell_length_c   8.69515616
_cell_angle_alpha   109.47122063
_cell_angle_beta   109.47122063
_cell_angle_gamma   109.47122063
_symmetry_Int_Tables_number   1
_chemical_formula_structural   Nd12InCo6
_chemical_formula_sum   'Nd12 In1 Co6'
_cell_volume   506.06962089
_cell_formula_units_Z   1
loop_
 _symmetry_equiv_pos_site_id
 _symmetry_equiv_pos_as_xyz
  1  'x, y, z'
loop_
 _atom_site_type_symbol
 _atom_site_label
 _atom_site_symmetry_multiplicity
 _atom_site_fract_x
 _atom_site_fract_y
 _atom_site_fract_z
 _atom_site_occupancy
  Nd  Nd0  1  0.80813771  0.69389922  0.50203693  1
  Nd  Nd1  1  0.19186229  0.30610078  0.49796307  1
  Nd  Nd2  1  0.19186229  0.69389922  0.88576151  1
  Nd  Nd3  1  0.80813771  0.30610078  0.11423849  1
  Nd  Nd4  1  0.69389922  0.50203693  0.80813771  1
  Nd  Nd5  1  0.30610078  0.49796307  0.19186229  1
  Nd  Nd6  1  0.69389922  0.88576151  0.19186229  1
  Nd  Nd7  1  0.30610078  0.11423849  0.80813771  1
  Nd  Nd8  1  0.50203693  0.80813771  0.69389922  1
  Nd  Nd9  1  0.49796307  0.19186229  0.30610078  1
  Nd  Nd10  1  0.11423849  0.80813771  0.30610078  1
  Nd  Nd11  1  0.88576151  0.19186229  0.69389922  1
  In  In12  1  -0.00000000  -0.00000000  -0.00000000  1
  Co  Co13  1  0.88931803  0.38931803  0.50000000  1
  Co  Co14  1  0.11068197  0.61068197  0.50000000  1
  Co  Co15  1  0.38931803  0.50000000  0.88931803  1
  Co  Co16  1  0.61068197  0.50000000  0.11068197  1
  Co  Co17  1  0.50000000  0.88931803  0.38931803  1
  Co  Co18  1  0.50000000  0.11068197  0.61068197  1
