# generated using pymatgen
data_LiSm6B3O14
_symmetry_space_group_name_H-M   'P 1'
_cell_length_a   8.61300446
_cell_length_b   9.11678465
_cell_length_c   15.91133266
_cell_angle_alpha   90.00000000
_cell_angle_beta   90.00000000
_cell_angle_gamma   92.34684951
_symmetry_Int_Tables_number   1
_chemical_formula_structural   LiSm6B3O14
_chemical_formula_sum   'Li4 Sm24 B12 O56'
_cell_volume   1248.35615089
_cell_formula_units_Z   4
loop_
 _symmetry_equiv_pos_site_id
 _symmetry_equiv_pos_as_xyz
  1  'x, y, z'
loop_
 _atom_site_type_symbol
 _atom_site_label
 _atom_site_symmetry_multiplicity
 _atom_site_fract_x
 _atom_site_fract_y
 _atom_site_fract_z
 _atom_site_occupancy
  Li  Li0  1  0.67966065  0.56006771  0.39630179  1
  Li  Li1  1  0.32033935  0.43993229  0.60369821  1
  Li  Li2  1  0.82033935  0.93993229  0.89630179  1
  Li  Li3  1  0.17966065  0.06006771  0.10369821  1
  Sm  Sm4  1  0.14161370  0.69375989  0.17798643  1
  Sm  Sm5  1  0.85838630  0.30624011  0.82201357  1
  Sm  Sm6  1  0.35838630  0.80624011  0.67798643  1
  Sm  Sm7  1  0.64161370  0.19375989  0.32201357  1
  Sm  Sm8  1  0.95989084  0.94566538  0.67479752  1
  Sm  Sm9  1  0.04010916  0.05433462  0.32520248  1
  Sm  Sm10  1  0.54010916  0.55433462  0.17479752  1
  Sm  Sm11  1  0.45989084  0.44566538  0.82520248  1
  Sm  Sm12  1  0.72763907  0.57592680  0.64366543  1
  Sm  Sm13  1  0.27236093  0.42407320  0.35633457  1
  Sm  Sm14  1  0.77236093  0.92407320  0.14366543  1
  Sm  Sm15  1  0.22763907  0.07592680  0.85633457  1
  Sm  Sm16  1  0.05193571  0.71678747  0.48622748  1
  Sm  Sm17  1  0.94806429  0.28321253  0.51377252  1
  Sm  Sm18  1  0.44806429  0.78321253  0.98622748  1
  Sm  Sm19  1  0.55193571  0.21678747  0.01377252  1
  Sm  Sm20  1  0.70035217  0.93785350  0.49570548  1
  Sm  Sm21  1  0.29964783  0.06214650  0.50429452  1
  Sm  Sm22  1  0.79964783  0.56214650  0.99570548  1
  Sm  Sm23  1  0.20035217  0.43785350  0.00429452  1
  Sm  Sm24  1  0.42201887  0.83342204  0.33425735  1
  Sm  Sm25  1  0.57798113  0.16657796  0.66574265  1
  Sm  Sm26  1  0.07798113  0.66657796  0.83425735  1
  Sm  Sm27  1  0.92201887  0.33342204  0.16574265  1
  B  B28  1  0.42885484  0.97306996  0.17309669  1
  B  B29  1  0.57114516  0.02693004  0.82690331  1
  B  B30  1  0.07114516  0.52693004  0.67309669  1
  B  B31  1  0.92885484  0.47306996  0.32690331  1
  B  B32  1  0.06352408  0.85551740  0.00071942  1
  B  B33  1  0.93647592  0.14448260  0.99928058  1
  B  B34  1  0.43647592  0.64448260  0.50071942  1
  B  B35  1  0.56352408  0.35551740  0.49928058  1
  B  B36  1  0.82034328  0.77871701  0.30693284  1
  B  B37  1  0.17965672  0.22128299  0.69306716  1
  B  B38  1  0.67965672  0.72128299  0.80693284  1
  B  B39  1  0.32034328  0.27871701  0.19306716  1
  O  O40  1  0.93757974  0.82172463  0.24951733  1
  O  O41  1  0.06242026  0.17827537  0.75048267  1
  O  O42  1  0.56242026  0.67827537  0.74951733  1
  O  O43  1  0.43757974  0.32172463  0.25048267  1
  O  O44  1  0.70712342  0.40472828  0.53263794  1
  O  O45  1  0.29287658  0.59527172  0.46736206  1
  O  O46  1  0.79287658  0.09527172  0.03263794  1
  O  O47  1  0.20712342  0.90472828  0.96736206  1
  O  O48  1  0.84524877  0.77952901  0.57903685  1
  O  O49  1  0.15475123  0.22047099  0.42096315  1
  O  O50  1  0.65475123  0.72047099  0.07903685  1
  O  O51  1  0.34524877  0.27952901  0.92096315  1
  O  O52  1  0.02988030  0.88221887  0.08423351  1
  O  O53  1  0.97011970  0.11778113  0.91576649  1
  O  O54  1  0.47011970  0.61778113  0.58423351  1
  O  O55  1  0.52988030  0.38221887  0.41576649  1
  O  O56  1  0.46535580  0.99018469  0.08908145  1
  O  O57  1  0.53464420  0.00981531  0.91091855  1
  O  O58  1  0.03464420  0.50981531  0.58908145  1
  O  O59  1  0.96535580  0.49018469  0.41091855  1
  O  O60  1  0.28480929  0.92557632  0.20360257  1
  O  O61  1  0.71519071  0.07442368  0.79639743  1
  O  O62  1  0.21519071  0.57442368  0.70360257  1
  O  O63  1  0.78480929  0.42557632  0.29639743  1
  O  O64  1  0.45758670  0.28131947  0.55041316  1
  O  O65  1  0.54241330  0.71868053  0.44958684  1
  O  O66  1  0.04241330  0.21868053  0.05041316  1
  O  O67  1  0.95758670  0.78131947  0.94958684  1
  O  O68  1  0.19237168  0.89454070  0.40184564  1
  O  O69  1  0.80762832  0.10545930  0.59815436  1
  O  O70  1  0.30762832  0.60545930  0.90184564  1
  O  O71  1  0.69237168  0.39454070  0.09815436  1
  O  O72  1  0.00882369  0.53590386  0.08935022  1
  O  O73  1  0.99117631  0.46409614  0.91064978  1
  O  O74  1  0.49117631  0.96409614  0.58935022  1
  O  O75  1  0.50882369  0.03590386  0.41064978  1
  O  O76  1  0.16222549  0.87646131  0.58570663  1
  O  O77  1  0.83777451  0.12353869  0.41429337  1
  O  O78  1  0.33777451  0.62353869  0.08570663  1
  O  O79  1  0.66222549  0.37646131  0.91429337  1
  O  O80  1  0.15484326  0.87859761  0.76784547  1
  O  O81  1  0.84515674  0.12140239  0.23215453  1
  O  O82  1  0.34515674  0.62140239  0.26784547  1
  O  O83  1  0.65484326  0.37859761  0.73215453  1
  O  O84  1  0.82286418  0.77028000  0.77539938  1
  O  O85  1  0.17713582  0.22972000  0.22460062  1
  O  O86  1  0.67713582  0.72972000  0.27539938  1
  O  O87  1  0.32286418  0.27028000  0.72460062  1
  O  O88  1  0.85075999  0.79879518  0.39157577  1
  O  O89  1  0.14924001  0.20120482  0.60842423  1
  O  O90  1  0.64924001  0.70120482  0.89157577  1
  O  O91  1  0.35075999  0.29879518  0.10842423  1
  O  O92  1  0.54760003  0.99610016  0.23140886  1
  O  O93  1  0.45239997  0.00389984  0.76859114  1
  O  O94  1  0.95239997  0.50389984  0.73140886  1
  O  O95  1  0.04760003  0.49610016  0.26859114  1
