# generated using pymatgen
data_Lu2(MoO4)3
_symmetry_space_group_name_H-M   'P 1'
_cell_length_a   9.95537106
_cell_length_b   13.81864064
_cell_length_c   10.04984928
_cell_angle_alpha   90.00000000
_cell_angle_beta   90.00000000
_cell_angle_gamma   90.00000000
_symmetry_Int_Tables_number   1
_chemical_formula_structural   Lu2(MoO4)3
_chemical_formula_sum   'Lu8 Mo12 O48'
_cell_volume   1382.55470141
_cell_formula_units_Z   4
loop_
 _symmetry_equiv_pos_site_id
 _symmetry_equiv_pos_as_xyz
  1  'x, y, z'
loop_
 _atom_site_type_symbol
 _atom_site_label
 _atom_site_symmetry_multiplicity
 _atom_site_fract_x
 _atom_site_fract_y
 _atom_site_fract_z
 _atom_site_occupancy
  Lu  Lu0  1  0.74903336  0.88087224  0.53340012  1
  Lu  Lu1  1  0.25096664  0.11912776  0.46659988  1
  Lu  Lu2  1  0.75096664  0.61912776  0.03340012  1
  Lu  Lu3  1  0.74903336  0.11912776  0.96659988  1
  Lu  Lu4  1  0.24903336  0.38087224  0.96659988  1
  Lu  Lu5  1  0.25096664  0.88087224  0.03340012  1
  Lu  Lu6  1  0.75096664  0.38087224  0.46659988  1
  Lu  Lu7  1  0.24903336  0.61912776  0.53340012  1
  Mo  Mo8  1  0.47421469  0.00000000  0.75000000  1
  Mo  Mo9  1  0.52578531  -0.00000000  0.25000000  1
  Mo  Mo10  1  0.02578531  0.50000000  0.25000000  1
  Mo  Mo11  1  0.97421469  0.50000000  0.75000000  1
  Mo  Mo12  1  0.89533976  0.85590801  0.88229668  1
  Mo  Mo13  1  0.10466024  0.14409199  0.11770332  1
  Mo  Mo14  1  0.60466024  0.64409199  0.38229668  1
  Mo  Mo15  1  0.89533976  0.14409199  0.61770332  1
  Mo  Mo16  1  0.39533976  0.35590801  0.61770332  1
  Mo  Mo17  1  0.10466024  0.85590801  0.38229668  1
  Mo  Mo18  1  0.60466024  0.35590801  0.11770332  1
  Mo  Mo19  1  0.39533976  0.64409199  0.88229668  1
  O  O20  1  0.82388744  0.97083638  0.92603287  1
  O  O21  1  0.17611256  0.02916362  0.07396713  1
  O  O22  1  0.67611256  0.52916362  0.42603287  1
  O  O23  1  0.82388744  0.02916362  0.57396713  1
  O  O24  1  0.32388744  0.47083638  0.57396713  1
  O  O25  1  0.17611256  0.97083638  0.42603287  1
  O  O26  1  0.67611256  0.47083638  0.07396713  1
  O  O27  1  0.32388744  0.52916362  0.92603287  1
  O  O28  1  0.82218450  0.76449296  0.98677028  1
  O  O29  1  0.17781550  0.23550704  0.01322972  1
  O  O30  1  0.67781550  0.73550704  0.48677028  1
  O  O31  1  0.82218450  0.23550704  0.51322972  1
  O  O32  1  0.32218450  0.26449296  0.51322972  1
  O  O33  1  0.17781550  0.76449296  0.48677028  1
  O  O34  1  0.67781550  0.26449296  0.01322972  1
  O  O35  1  0.32218450  0.73550704  0.98677028  1
  O  O36  1  0.87037248  0.56205667  0.86829045  1
  O  O37  1  0.12962752  0.43794333  0.13170955  1
  O  O38  1  0.62962752  0.93794333  0.36829045  1
  O  O39  1  0.87037248  0.43794333  0.63170955  1
  O  O40  1  0.37037248  0.06205667  0.63170955  1
  O  O41  1  0.12962752  0.56205667  0.36829045  1
  O  O42  1  0.62962752  0.06205667  0.13170955  1
  O  O43  1  0.37037248  0.93794333  0.86829045  1
  O  O44  1  0.86147471  0.83134690  0.70988685  1
  O  O45  1  0.13852529  0.16865310  0.29011315  1
  O  O46  1  0.63852529  0.66865310  0.20988685  1
  O  O47  1  0.86147471  0.16865310  0.79011315  1
  O  O48  1  0.36147471  0.33134690  0.79011315  1
  O  O49  1  0.13852529  0.83134690  0.20988685  1
  O  O50  1  0.63852529  0.33134690  0.29011315  1
  O  O51  1  0.36147471  0.66865310  0.70988685  1
  O  O52  1  0.57731780  0.91229479  0.66610276  1
  O  O53  1  0.42268220  0.08770521  0.33389724  1
  O  O54  1  0.92268220  0.58770521  0.16610276  1
  O  O55  1  0.57731780  0.08770521  0.83389724  1
  O  O56  1  0.07731780  0.41229479  0.83389724  1
  O  O57  1  0.42268220  0.91229479  0.16610276  1
  O  O58  1  0.92268220  0.41229479  0.33389724  1
  O  O59  1  0.07731780  0.58770521  0.66610276  1
  O  O60  1  0.57408585  0.64188965  0.90705860  1
  O  O61  1  0.42591415  0.35811035  0.09294140  1
  O  O62  1  0.92591415  0.85811035  0.40705860  1
  O  O63  1  0.57408585  0.35811035  0.59294140  1
  O  O64  1  0.07408585  0.14188965  0.59294140  1
  O  O65  1  0.42591415  0.64188965  0.40705860  1
  O  O66  1  0.92591415  0.14188965  0.09294140  1
  O  O67  1  0.07408585  0.85811035  0.90705860  1
