# generated using pymatgen
data_La3Cu4(As2O)2
_symmetry_space_group_name_H-M   'P 1'
_cell_length_a   4.12622381
_cell_length_b   4.12622381
_cell_length_c   14.31548271
_cell_angle_alpha   98.28618025
_cell_angle_beta   98.28618025
_cell_angle_gamma   90.00000000
_symmetry_Int_Tables_number   1
_chemical_formula_structural   La3Cu4(As2O)2
_chemical_formula_sum   'La3 Cu4 As4 O2'
_cell_volume   238.61548184
_cell_formula_units_Z   1
loop_
 _symmetry_equiv_pos_site_id
 _symmetry_equiv_pos_as_xyz
  1  'x, y, z'
loop_
 _atom_site_type_symbol
 _atom_site_label
 _atom_site_symmetry_multiplicity
 _atom_site_fract_x
 _atom_site_fract_y
 _atom_site_fract_z
 _atom_site_occupancy
  La  La0  1  0.29329120  0.29329120  0.58658240  1
  La  La1  1  0.70670880  0.70670880  0.41341760  1
  La  La2  1  0.00000000  0.00000000  0.00000000  1
  Cu  Cu3  1  0.09454794  0.59454794  0.18909588  1
  Cu  Cu4  1  0.90545206  0.40545206  0.81090412  1
  Cu  Cu5  1  0.59454794  0.09454794  0.18909588  1
  Cu  Cu6  1  0.40545206  0.90545206  0.81090412  1
  As  As7  1  0.45506903  0.45506903  0.91013806  1
  As  As8  1  0.54493097  0.54493097  0.08986194  1
  As  As9  1  0.14173277  0.14173277  0.28346554  1
  As  As10  1  0.85826723  0.85826723  0.71653446  1
  O  O11  1  0.25000000  0.75000000  0.50000000  1
  O  O12  1  0.75000000  0.25000000  0.50000000  1
