# generated using pymatgen
data_Li9Mn2Co5O16
_symmetry_space_group_name_H-M   'P 1'
_cell_length_a   2.97262962
_cell_length_b   8.09042227
_cell_length_c   12.07310069
_cell_angle_alpha   90.87401446
_cell_angle_beta   100.01226251
_cell_angle_gamma   88.96122571
_symmetry_Int_Tables_number   1
_chemical_formula_structural   Li9Mn2Co5O16
_chemical_formula_sum   'Li9 Mn2 Co5 O16'
_cell_volume   285.86546046
_cell_formula_units_Z   1
loop_
 _symmetry_equiv_pos_site_id
 _symmetry_equiv_pos_as_xyz
  1  'x, y, z'
loop_
 _atom_site_type_symbol
 _atom_site_label
 _atom_site_symmetry_multiplicity
 _atom_site_fract_x
 _atom_site_fract_y
 _atom_site_fract_z
 _atom_site_occupancy
  Li  Li0  1  0.74779845  0.99965822  0.74859571  1
  Li  Li1  1  0.88452623  0.25632486  0.37704690  1
  Li  Li2  1  0.01301378  0.50414199  0.00611864  1
  Li  Li3  1  0.12298171  0.74944854  0.62393908  1
  Li  Li4  1  0.24796086  0.99660294  0.25015449  1
  Li  Li5  1  0.36416225  0.25379766  0.86932217  1
  Li  Li6  1  0.49399002  0.50234689  0.50006456  1
  Li  Li7  1  0.63053605  0.73687536  0.13013651  1
  Li  Li8  1  0.23591086  0.50607045  0.24539066  1
  Mn  Mn9  1  0.00793168  0.99627505  0.00060506  1
  Mn  Mn10  1  0.63200387  0.25937961  0.12953622  1
  Co  Co11  1  0.12440297  0.24947707  0.62420778  1
  Co  Co12  1  0.37463689  0.74737607  0.87321731  1
  Co  Co13  1  0.49871220  0.99922593  0.49999080  1
  Co  Co14  1  0.75085129  0.49913941  0.74908375  1
  Co  Co15  1  0.86585964  0.74067659  0.37152748  1
  O  O16  1  0.35197744  0.98946367  0.87700343  1
  O  O17  1  0.47667857  0.23824498  0.50340265  1
  O  O18  1  0.61682853  0.48478848  0.12385922  1
  O  O19  1  0.72882114  0.73785995  0.75442889  1
  O  O20  1  0.85520528  0.98243577  0.38247756  1
  O  O21  1  0.04272037  0.24321833  0.01444616  1
  O  O22  1  0.10585576  0.48663105  0.63065340  1
  O  O23  1  0.23198987  0.75171910  0.26112646  1
  O  O24  1  0.14398756  0.01258356  0.61885600  1
  O  O25  1  0.21230770  0.25156194  0.23631444  1
  O  O26  1  0.39409505  0.50989834  0.86642199  1
  O  O27  1  0.51792626  0.76341286  0.49500950  1
  O  O28  1  0.65385542  0.01071452  0.12093626  1
  O  O29  1  0.76975819  0.26022989  0.74440230  1
  O  O30  1  0.88288284  0.52566124  0.37939830  1
  O  O31  1  0.01983826  0.75475969  0.99233032  1
