# generated using pymatgen
data_Li6Er(BO3)3
_symmetry_space_group_name_H-M   'P 1'
_cell_length_a   6.68086766
_cell_length_b   7.24827892
_cell_length_c   16.51879911
_cell_angle_alpha   90.00000000
_cell_angle_beta   90.00000000
_cell_angle_gamma   105.58327595
_symmetry_Int_Tables_number   1
_chemical_formula_structural   Li6Er(BO3)3
_chemical_formula_sum   'Li24 Er4 B12 O36'
_cell_volume   770.51519277
_cell_formula_units_Z   4
loop_
 _symmetry_equiv_pos_site_id
 _symmetry_equiv_pos_as_xyz
  1  'x, y, z'
loop_
 _atom_site_type_symbol
 _atom_site_label
 _atom_site_symmetry_multiplicity
 _atom_site_fract_x
 _atom_site_fract_y
 _atom_site_fract_z
 _atom_site_occupancy
  Li  Li0  1  0.05410730  0.19315576  0.03295032  1
  Li  Li1  1  0.94589270  0.80684424  0.96704968  1
  Li  Li2  1  0.44589270  0.80684424  0.53295032  1
  Li  Li3  1  0.55410730  0.19315576  0.46704968  1
  Li  Li4  1  0.09784710  0.63492224  0.44447327  1
  Li  Li5  1  0.90215290  0.36507776  0.55552673  1
  Li  Li6  1  0.40215290  0.36507776  0.94447327  1
  Li  Li7  1  0.59784710  0.63492224  0.05552673  1
  Li  Li8  1  0.17307941  0.04370704  0.52652088  1
  Li  Li9  1  0.82692059  0.95629296  0.47347912  1
  Li  Li10  1  0.32692059  0.95629296  0.02652088  1
  Li  Li11  1  0.67307941  0.04370704  0.97347912  1
  Li  Li12  1  0.13579140  0.78777905  0.29249933  1
  Li  Li13  1  0.86420860  0.21222095  0.70750067  1
  Li  Li14  1  0.36420860  0.21222095  0.79249933  1
  Li  Li15  1  0.63579140  0.78777905  0.20750067  1
  Li  Li16  1  0.04102128  0.07140710  0.20365719  1
  Li  Li17  1  0.95897872  0.92859290  0.79634281  1
  Li  Li18  1  0.45897872  0.92859290  0.70365719  1
  Li  Li19  1  0.54102128  0.07140710  0.29634281  1
  Li  Li20  1  0.17850390  0.57423846  0.00572584  1
  Li  Li21  1  0.82149610  0.42576154  0.99427416  1
  Li  Li22  1  0.32149610  0.42576154  0.50572584  1
  Li  Li23  1  0.67850390  0.57423846  0.49427416  1
  Er  Er24  1  0.34640034  0.42298717  0.30953851  1
  Er  Er25  1  0.65359966  0.57701283  0.69046149  1
  Er  Er26  1  0.15359966  0.57701283  0.80953851  1
  Er  Er27  1  0.84640034  0.42298717  0.19046149  1
  B  B28  1  0.99861889  0.78714371  0.12066405  1
  B  B29  1  0.00138111  0.21285629  0.87933595  1
  B  B30  1  0.50138111  0.21285629  0.62066405  1
  B  B31  1  0.49861889  0.78714371  0.37933595  1
  B  B32  1  0.18763713  0.06227135  0.38218875  1
  B  B33  1  0.81236287  0.93772865  0.61781125  1
  B  B34  1  0.31236287  0.93772865  0.88218875  1
  B  B35  1  0.68763713  0.06227135  0.11781125  1
  B  B36  1  0.33802588  0.41693412  0.13569043  1
  B  B37  1  0.66197412  0.58306588  0.86430957  1
  B  B38  1  0.16197412  0.58306588  0.63569043  1
  B  B39  1  0.83802588  0.41693412  0.36430957  1
  O  O40  1  0.32388259  0.40999304  0.05336202  1
  O  O41  1  0.67611741  0.59000696  0.94663798  1
  O  O42  1  0.17611741  0.59000696  0.55336202  1
  O  O43  1  0.82388259  0.40999304  0.44663798  1
  O  O44  1  0.22785881  0.08342001  0.29936825  1
  O  O45  1  0.77214119  0.91657999  0.70063175  1
  O  O46  1  0.27214119  0.91657999  0.79936825  1
  O  O47  1  0.72785881  0.08342001  0.20063175  1
  O  O48  1  0.16449010  0.36216277  0.18592650  1
  O  O49  1  0.83550990  0.63783723  0.81407350  1
  O  O50  1  0.33550990  0.63783723  0.68592650  1
  O  O51  1  0.66449010  0.36216277  0.31407350  1
  O  O52  1  0.27170101  0.22502202  0.42922257  1
  O  O53  1  0.72829899  0.77497798  0.57077743  1
  O  O54  1  0.22829899  0.77497798  0.92922257  1
  O  O55  1  0.77170101  0.22502202  0.07077743  1
  O  O56  1  0.41482174  0.03676567  0.58674976  1
  O  O57  1  0.58517826  0.96323433  0.41325024  1
  O  O58  1  0.08517826  0.96323433  0.08674976  1
  O  O59  1  0.91482174  0.03676567  0.91325024  1
  O  O60  1  0.07566067  0.89435452  0.41860934  1
  O  O61  1  0.92433933  0.10564548  0.58139066  1
  O  O62  1  0.42433933  0.10564548  0.91860934  1
  O  O63  1  0.57566067  0.89435452  0.08139066  1
  O  O64  1  0.54629949  0.38048556  0.57431096  1
  O  O65  1  0.45370051  0.61951444  0.42568904  1
  O  O66  1  0.95370051  0.61951444  0.07431096  1
  O  O67  1  0.04629949  0.38048556  0.92568904  1
  O  O68  1  0.02949006  0.48949094  0.32570681  1
  O  O69  1  0.97050994  0.51050906  0.67429319  1
  O  O70  1  0.47050994  0.51050906  0.82570681  1
  O  O71  1  0.52949006  0.48949094  0.17429319  1
  O  O72  1  0.05758868  0.23823027  0.79784305  1
  O  O73  1  0.94241132  0.76176973  0.20215695  1
  O  O74  1  0.44241132  0.76176973  0.29784305  1
  O  O75  1  0.55758868  0.23823027  0.70215695  1
