# generated using pymatgen
data_K2ZnI4
_symmetry_space_group_name_H-M   'P 1'
_cell_length_a   7.98391351
_cell_length_b   8.34436558
_cell_length_c   9.87366071
_cell_angle_alpha   90.00000000
_cell_angle_beta   108.06380565
_cell_angle_gamma   90.00000000
_symmetry_Int_Tables_number   1
_chemical_formula_structural   K2ZnI4
_chemical_formula_sum   'K4 Zn2 I8'
_cell_volume   625.36882865
_cell_formula_units_Z   2
loop_
 _symmetry_equiv_pos_site_id
 _symmetry_equiv_pos_as_xyz
  1  'x, y, z'
loop_
 _atom_site_type_symbol
 _atom_site_label
 _atom_site_symmetry_multiplicity
 _atom_site_fract_x
 _atom_site_fract_y
 _atom_site_fract_z
 _atom_site_occupancy
  K  K0  1  0.21841433  0.25000000  0.55126012  1
  K  K1  1  0.78158567  0.75000000  0.44873988  1
  K  K2  1  0.26553521  0.25000000  0.06792424  1
  K  K3  1  0.73446479  0.75000000  0.93207576  1
  Zn  Zn4  1  0.77749545  0.25000000  0.70072646  1
  Zn  Zn5  1  0.22250455  0.75000000  0.29927354  1
  I  I6  1  0.59988236  0.25000000  0.42725924  1
  I  I7  1  0.40011764  0.75000000  0.57274076  1
  I  I8  1  0.00757594  0.99969278  0.24012274  1
  I  I9  1  0.99242406  0.00030722  0.75987726  1
  I  I10  1  0.99242406  0.49969278  0.75987726  1
  I  I11  1  0.00757594  0.50030722  0.24012274  1
  I  I12  1  0.57935135  0.25000000  0.87046136  1
  I  I13  1  0.42064865  0.75000000  0.12953864  1
