# generated using pymatgen
data_KLiTbF5
_symmetry_space_group_name_H-M   'P 1'
_cell_length_a   6.53172866
_cell_length_b   6.40606511
_cell_length_c   11.91114795
_cell_angle_alpha   90.00000000
_cell_angle_beta   90.00000000
_cell_angle_gamma   113.76905806
_symmetry_Int_Tables_number   1
_chemical_formula_structural   KLiTbF5
_chemical_formula_sum   'K4 Li4 Tb4 F20'
_cell_volume   456.11926945
_cell_formula_units_Z   4
loop_
 _symmetry_equiv_pos_site_id
 _symmetry_equiv_pos_as_xyz
  1  'x, y, z'
loop_
 _atom_site_type_symbol
 _atom_site_label
 _atom_site_symmetry_multiplicity
 _atom_site_fract_x
 _atom_site_fract_y
 _atom_site_fract_z
 _atom_site_occupancy
  K  K0  1  0.94735739  0.96322029  0.34976055  1
  K  K1  1  0.05264261  0.03677971  0.65023945  1
  K  K2  1  0.05264261  0.53677971  0.84976055  1
  K  K3  1  0.94735739  0.46322029  0.15023945  1
  Li  Li4  1  0.55790514  0.96218977  0.74569299  1
  Li  Li5  1  0.44209486  0.03781023  0.25430701  1
  Li  Li6  1  0.44209486  0.53781023  0.24569299  1
  Li  Li7  1  0.55790514  0.46218977  0.75430701  1
  Tb  Tb8  1  0.68151632  0.81931827  0.99783957  1
  Tb  Tb9  1  0.31848368  0.18068173  0.00216043  1
  Tb  Tb10  1  0.31848368  0.68068173  0.49783957  1
  Tb  Tb11  1  0.68151632  0.31931827  0.50216043  1
  F  F12  1  0.72011056  0.77670242  0.80506672  1
  F  F13  1  0.27988944  0.22329758  0.19493328  1
  F  F14  1  0.27988944  0.72329758  0.30506672  1
  F  F15  1  0.72011056  0.27670242  0.69493328  1
  F  F16  1  0.66641674  0.95401108  0.53205362  1
  F  F17  1  0.33358326  0.04598892  0.46794638  1
  F  F18  1  0.33358326  0.54598892  0.03205362  1
  F  F19  1  0.66641674  0.45401108  0.96794638  1
  F  F20  1  0.95590525  0.67229165  0.50673369  1
  F  F21  1  0.04409475  0.32770835  0.49326631  1
  F  F22  1  0.04409475  0.82770835  0.00673369  1
  F  F23  1  0.95590525  0.17229165  0.99326631  1
  F  F24  1  0.46375949  0.96582333  0.89528564  1
  F  F25  1  0.53624051  0.03417667  0.10471436  1
  F  F26  1  0.53624051  0.53417667  0.39528564  1
  F  F27  1  0.46375949  0.46582333  0.60471436  1
  F  F28  1  0.28750622  0.77945040  0.67473684  1
  F  F29  1  0.71249378  0.22054960  0.32526316  1
  F  F30  1  0.71249378  0.72054960  0.17473684  1
  F  F31  1  0.28750622  0.27945040  0.82526316  1
