# generated using pymatgen
data_Li9Mn2Co5O16
_symmetry_space_group_name_H-M   'P 1'
_cell_length_a   2.97465708
_cell_length_b   8.08020749
_cell_length_c   12.08381553
_cell_angle_alpha   90.89908517
_cell_angle_beta   100.02901734
_cell_angle_gamma   88.97961363
_symmetry_Int_Tables_number   1
_chemical_formula_structural   Li9Mn2Co5O16
_chemical_formula_sum   'Li9 Mn2 Co5 O16'
_cell_volume   285.93791110
_cell_formula_units_Z   1
loop_
 _symmetry_equiv_pos_site_id
 _symmetry_equiv_pos_as_xyz
  1  'x, y, z'
loop_
 _atom_site_type_symbol
 _atom_site_label
 _atom_site_symmetry_multiplicity
 _atom_site_fract_x
 _atom_site_fract_y
 _atom_site_fract_z
 _atom_site_occupancy
  Li  Li0  1  0.74270836  0.99084967  0.75008916  1
  Li  Li1  1  0.87363771  0.25078287  0.37437386  1
  Li  Li2  1  0.99661898  0.50976676  0.99722100  1
  Li  Li3  1  0.12909428  0.74727850  0.62498016  1
  Li  Li4  1  0.25771346  0.99869611  0.25347715  1
  Li  Li5  1  0.38026055  0.25414395  0.87591805  1
  Li  Li6  1  0.50110001  0.50326517  0.49911895  1
  Li  Li7  1  0.61296972  0.74575766  0.11938658  1
  Li  Li8  1  0.38834762  0.74539162  0.88103943  1
  Mn  Mn9  1  0.99503093  0.99277211  0.99730211  1
  Mn  Mn10  1  0.12845077  0.25072061  0.62530897  1
  Co  Co11  1  0.24801073  0.50027893  0.24983641  1
  Co  Co12  1  0.49671598  0.99847927  0.49886825  1
  Co  Co13  1  0.61266893  0.25252612  0.12372268  1
  Co  Co14  1  0.76318723  0.51188106  0.75564169  1
  Co  Co15  1  0.87382017  0.74936600  0.37434124  1
  O  O16  1  0.41289166  0.00076803  0.89032286  1
  O  O17  1  0.47600801  0.23684385  0.50187627  1
  O  O18  1  0.60851966  0.48894126  0.13280708  1
  O  O19  1  0.74184349  0.72613735  0.74707665  1
  O  O20  1  0.85515213  0.98818458  0.37987489  1
  O  O21  1  0.97765092  0.24061432  0.00864642  1
  O  O22  1  0.10686198  0.49112847  0.62984506  1
  O  O23  1  0.23072255  0.73867354  0.25732389  1
  O  O24  1  0.14795939  0.00729440  0.62108786  1
  O  O25  1  0.26858250  0.26020972  0.24323171  1
  O  O26  1  0.39152511  0.49971979  0.86494597  1
  O  O27  1  0.51904619  0.76240779  0.49262169  1
  O  O28  1  0.58428706  0.01081862  0.11100329  1
  O  O29  1  0.77324665  0.26776486  0.74667539  1
  O  O30  1  0.89601967  0.51099195  0.36913152  1
  O  O31  1  0.00935461  0.76754507  0.00290776  1
