# generated using pymatgen
data_Mn3Al2(GeO4)3
_symmetry_space_group_name_H-M   'P 1'
_cell_length_a   10.42918445
_cell_length_b   10.42918445
_cell_length_c   10.42918445
_cell_angle_alpha   109.47122063
_cell_angle_beta   109.47122063
_cell_angle_gamma   109.47122063
_symmetry_Int_Tables_number   1
_chemical_formula_structural   Mn3Al2(GeO4)3
_chemical_formula_sum   'Mn12 Al8 Ge12 O48'
_cell_volume   873.23101954
_cell_formula_units_Z   4
loop_
 _symmetry_equiv_pos_site_id
 _symmetry_equiv_pos_as_xyz
  1  'x, y, z'
loop_
 _atom_site_type_symbol
 _atom_site_label
 _atom_site_symmetry_multiplicity
 _atom_site_fract_x
 _atom_site_fract_y
 _atom_site_fract_z
 _atom_site_occupancy
  Mn  Mn0  1  0.87500000  0.62500000  0.75000000  1
  Mn  Mn1  1  0.12500000  0.37500000  0.25000000  1
  Mn  Mn2  1  0.62500000  0.87500000  0.25000000  1
  Mn  Mn3  1  0.62500000  0.75000000  0.87500000  1
  Mn  Mn4  1  0.87500000  0.25000000  0.62500000  1
  Mn  Mn5  1  0.37500000  0.12500000  0.75000000  1
  Mn  Mn6  1  0.37500000  0.25000000  0.12500000  1
  Mn  Mn7  1  0.12500000  0.75000000  0.37500000  1
  Mn  Mn8  1  0.75000000  0.87500000  0.62500000  1
  Mn  Mn9  1  0.25000000  0.12500000  0.37500000  1
  Mn  Mn10  1  0.25000000  0.62500000  0.87500000  1
  Mn  Mn11  1  0.75000000  0.37500000  0.12500000  1
  Al  Al12  1  0.00000000  0.00000000  0.00000000  1
  Al  Al13  1  0.50000000  0.00000000  0.50000000  1
  Al  Al14  1  0.50000000  0.50000000  0.00000000  1
  Al  Al15  1  0.00000000  0.00000000  0.50000000  1
  Al  Al16  1  0.00000000  0.50000000  0.50000000  1
  Al  Al17  1  0.50000000  0.50000000  0.50000000  1
  Al  Al18  1  0.50000000  0.00000000  0.00000000  1
  Al  Al19  1  0.00000000  0.50000000  0.00000000  1
  Ge  Ge20  1  0.62500000  0.37500000  0.75000000  1
  Ge  Ge21  1  0.37500000  0.62500000  0.25000000  1
  Ge  Ge22  1  0.87500000  0.12500000  0.25000000  1
  Ge  Ge23  1  0.37500000  0.75000000  0.62500000  1
  Ge  Ge24  1  0.62500000  0.25000000  0.37500000  1
  Ge  Ge25  1  0.12500000  0.87500000  0.75000000  1
  Ge  Ge26  1  0.12500000  0.25000000  0.87500000  1
  Ge  Ge27  1  0.87500000  0.75000000  0.12500000  1
  Ge  Ge28  1  0.75000000  0.62500000  0.37500000  1
  Ge  Ge29  1  0.25000000  0.37500000  0.62500000  1
  Ge  Ge30  1  0.25000000  0.87500000  0.12500000  1
  Ge  Ge31  1  0.75000000  0.12500000  0.87500000  1
  O  O32  1  0.69787271  0.62045235  0.51977462  1
  O  O33  1  0.30212729  0.37954765  0.48022538  1
  O  O34  1  0.80212729  0.82190191  0.42257963  1
  O  O35  1  0.39932228  0.87954765  0.07742037  1
  O  O36  1  0.62045235  0.51977462  0.69787271  1
  O  O37  1  0.69787271  0.07742037  0.67809809  1
  O  O38  1  0.19787271  0.17809809  0.57742037  1
  O  O39  1  0.60067772  0.12045235  0.92257963  1
  O  O40  1  0.37954765  0.48022538  0.30212729  1
  O  O41  1  0.30212729  0.92257963  0.32190191  1
  O  O42  1  0.10067772  0.67809809  0.98022538  1
  O  O43  1  0.82190191  0.42257963  0.80212729  1
  O  O44  1  0.80212729  0.98022538  0.87954765  1
  O  O45  1  0.89932228  0.32190191  0.01977462  1
  O  O46  1  0.17809809  0.57742037  0.19787271  1
  O  O47  1  0.19787271  0.01977462  0.12045235  1
  O  O48  1  0.87954765  0.07742037  0.39932228  1
  O  O49  1  0.39932228  0.51977462  0.82190191  1
  O  O50  1  0.12045235  0.92257963  0.60067772  1
  O  O51  1  0.60067772  0.48022538  0.17809809  1
  O  O52  1  0.67809809  0.98022538  0.10067772  1
  O  O53  1  0.10067772  0.42257963  0.62045235  1
  O  O54  1  0.32190191  0.01977462  0.89932228  1
  O  O55  1  0.89932228  0.57742037  0.37954765  1
  O  O56  1  0.51977462  0.69787271  0.62045235  1
  O  O57  1  0.62045235  0.10067772  0.42257963  1
  O  O58  1  0.48022538  0.30212729  0.37954765  1
  O  O59  1  0.37954765  0.89932228  0.57742037  1
  O  O60  1  0.07742037  0.39932228  0.87954765  1
  O  O61  1  0.87954765  0.80212729  0.98022538  1
  O  O62  1  0.92257963  0.60067772  0.12045235  1
  O  O63  1  0.12045235  0.19787271  0.01977462  1
  O  O64  1  0.98022538  0.10067772  0.67809809  1
  O  O65  1  0.67809809  0.69787271  0.07742037  1
  O  O66  1  0.01977462  0.89932228  0.32190191  1
  O  O67  1  0.32190191  0.30212729  0.92257963  1
  O  O68  1  0.42257963  0.80212729  0.82190191  1
  O  O69  1  0.82190191  0.39932228  0.51977462  1
  O  O70  1  0.57742037  0.19787271  0.17809809  1
  O  O71  1  0.17809809  0.60067772  0.48022538  1
  O  O72  1  0.07742037  0.67809809  0.69787271  1
  O  O73  1  0.92257963  0.32190191  0.30212729  1
  O  O74  1  0.98022538  0.87954765  0.80212729  1
  O  O75  1  0.01977462  0.12045235  0.19787271  1
  O  O76  1  0.42257963  0.62045235  0.10067772  1
  O  O77  1  0.57742037  0.37954765  0.89932228  1
  O  O78  1  0.51977462  0.82190191  0.39932228  1
  O  O79  1  0.48022538  0.17809809  0.60067772  1
