# generated using pymatgen
data_KTaF6
_symmetry_space_group_name_H-M   'P 1'
_cell_length_a   5.28869379
_cell_length_b   5.28869379
_cell_length_c   9.97231753
_cell_angle_alpha   90.00000000
_cell_angle_beta   90.00000000
_cell_angle_gamma   90.00000000
_symmetry_Int_Tables_number   1
_chemical_formula_structural   KTaF6
_chemical_formula_sum   'K2 Ta2 F12'
_cell_volume   278.92853355
_cell_formula_units_Z   2
loop_
 _symmetry_equiv_pos_site_id
 _symmetry_equiv_pos_as_xyz
  1  'x, y, z'
loop_
 _atom_site_type_symbol
 _atom_site_label
 _atom_site_symmetry_multiplicity
 _atom_site_fract_x
 _atom_site_fract_y
 _atom_site_fract_z
 _atom_site_occupancy
  K  K0  1  -0.00000000  -0.00000000  -0.00000000  1
  K  K1  1  -0.00000000  -0.00000000  0.50000000  1
  Ta  Ta2  1  0.50000000  0.50000000  0.25000000  1
  Ta  Ta3  1  0.50000000  0.50000000  0.75000000  1
  F  F4  1  0.24181984  0.24181984  0.25000000  1
  F  F5  1  0.75818016  0.75818016  0.25000000  1
  F  F6  1  0.24181984  0.75818016  0.75000000  1
  F  F7  1  0.75818016  0.24181984  0.75000000  1
  F  F8  1  0.30715732  0.67236056  0.11408972  1
  F  F9  1  0.69284268  0.32763944  0.11408972  1
  F  F10  1  0.67236056  0.69284268  0.88591028  1
  F  F11  1  0.30715732  0.32763944  0.61408972  1
  F  F12  1  0.32763944  0.30715732  0.88591028  1
  F  F13  1  0.69284268  0.67236056  0.61408972  1
  F  F14  1  0.67236056  0.30715732  0.38591028  1
  F  F15  1  0.32763944  0.69284268  0.38591028  1
