# generated using pymatgen
data_K2PbCl6
_symmetry_space_group_name_H-M   'P 1'
_cell_length_a   7.34560595
_cell_length_b   7.35371726
_cell_length_c   10.43128474
_cell_angle_alpha   90.00000000
_cell_angle_beta   89.47470836
_cell_angle_gamma   90.00000000
_symmetry_Int_Tables_number   1
_chemical_formula_structural   K2PbCl6
_chemical_formula_sum   'K4 Pb2 Cl12'
_cell_volume   563.44833879
_cell_formula_units_Z   2
loop_
 _symmetry_equiv_pos_site_id
 _symmetry_equiv_pos_as_xyz
  1  'x, y, z'
loop_
 _atom_site_type_symbol
 _atom_site_label
 _atom_site_symmetry_multiplicity
 _atom_site_fract_x
 _atom_site_fract_y
 _atom_site_fract_z
 _atom_site_occupancy
  K  K0  1  0.00940933  0.45996407  0.25487292  1
  K  K1  1  0.99059067  0.54003593  0.74512708  1
  K  K2  1  0.49059067  0.95996407  0.24512708  1
  K  K3  1  0.50940933  0.04003593  0.75487292  1
  Pb  Pb4  1  0.00000000  0.00000000  -0.00000000  1
  Pb  Pb5  1  0.50000000  0.50000000  0.50000000  1
  Cl  Cl6  1  0.28146824  0.20690170  0.02481960  1
  Cl  Cl7  1  0.71853176  0.79309830  0.97518040  1
  Cl  Cl8  1  0.21853176  0.70690170  0.47518040  1
  Cl  Cl9  1  0.78146824  0.29309830  0.52481960  1
  Cl  Cl10  1  0.20423663  0.71682874  0.02205605  1
  Cl  Cl11  1  0.79576337  0.28317126  0.97794395  1
  Cl  Cl12  1  0.29576337  0.21682874  0.47794395  1
  Cl  Cl13  1  0.70423663  0.78317126  0.52205605  1
  Cl  Cl14  1  0.95198581  0.00342562  0.24420143  1
  Cl  Cl15  1  0.04801419  0.99657438  0.75579857  1
  Cl  Cl16  1  0.54801419  0.50342562  0.25579857  1
  Cl  Cl17  1  0.45198581  0.49657438  0.74420143  1
