# generated using pymatgen
data_La3Ta(Cl3O2)2
_symmetry_space_group_name_H-M   'P 1'
_cell_length_a   4.01542616
_cell_length_b   13.00567306
_cell_length_c   13.00567306
_cell_angle_alpha   120.00000255
_cell_angle_beta   90.00000000
_cell_angle_gamma   90.00000000
_symmetry_Int_Tables_number   1
_chemical_formula_structural   La3Ta(Cl3O2)2
_chemical_formula_sum   'La6 Ta2 Cl12 O8'
_cell_volume   588.20394035
_cell_formula_units_Z   2
loop_
 _symmetry_equiv_pos_site_id
 _symmetry_equiv_pos_as_xyz
  1  'x, y, z'
loop_
 _atom_site_type_symbol
 _atom_site_label
 _atom_site_symmetry_multiplicity
 _atom_site_fract_x
 _atom_site_fract_y
 _atom_site_fract_z
 _atom_site_occupancy
  La  La0  1  0.75000000  0.71870685  0.11603785  1
  La  La1  1  0.25000000  0.28129315  0.88396215  1
  La  La2  1  0.75000000  0.39733100  0.28129315  1
  La  La3  1  0.25000000  0.60266900  0.71870685  1
  La  La4  1  0.75000000  0.88396215  0.60266900  1
  La  La5  1  0.25000000  0.11603785  0.39733100  1
  Ta  Ta6  1  0.75000000  0.33333300  0.66666700  1
  Ta  Ta7  1  0.25000000  0.66666700  0.33333300  1
  Cl  Cl8  1  0.75000000  0.92965689  0.37303391  1
  Cl  Cl9  1  0.25000000  0.07034311  0.62696609  1
  Cl  Cl10  1  0.75000000  0.44337702  0.07034311  1
  Cl  Cl11  1  0.25000000  0.55662298  0.92965689  1
  Cl  Cl12  1  0.75000000  0.62696609  0.55662298  1
  Cl  Cl13  1  0.25000000  0.37303391  0.44337702  1
  Cl  Cl14  1  0.75000000  0.75144098  0.89431455  1
  Cl  Cl15  1  0.25000000  0.24855902  0.10568545  1
  Cl  Cl16  1  0.75000000  0.14287357  0.24855902  1
  Cl  Cl17  1  0.25000000  0.85712643  0.75144098  1
  Cl  Cl18  1  0.75000000  0.10568545  0.85712643  1
  Cl  Cl19  1  0.25000000  0.89431455  0.14287357  1
  O  O20  1  0.75000000  0.49097402  0.69219930  1
  O  O21  1  0.25000000  0.50902598  0.30780070  1
  O  O22  1  0.75000000  0.20122529  0.50902598  1
  O  O23  1  0.25000000  0.79877471  0.49097402  1
  O  O24  1  0.75000000  0.30780070  0.79877471  1
  O  O25  1  0.25000000  0.69219930  0.20122529  1
  O  O26  1  0.75000000  0.66666700  0.33333300  1
  O  O27  1  0.25000000  0.33333300  0.66666700  1
