# generated using pymatgen
data_KBeF3
_symmetry_space_group_name_H-M   'P 1'
_cell_length_a   4.50941381
_cell_length_b   5.54781714
_cell_length_c   12.21406725
_cell_angle_alpha   90.00000000
_cell_angle_beta   90.00000000
_cell_angle_gamma   90.00000000
_symmetry_Int_Tables_number   1
_chemical_formula_structural   KBeF3
_chemical_formula_sum   'K4 Be4 F12'
_cell_volume   305.56424543
_cell_formula_units_Z   4
loop_
 _symmetry_equiv_pos_site_id
 _symmetry_equiv_pos_as_xyz
  1  'x, y, z'
loop_
 _atom_site_type_symbol
 _atom_site_label
 _atom_site_symmetry_multiplicity
 _atom_site_fract_x
 _atom_site_fract_y
 _atom_site_fract_z
 _atom_site_occupancy
  K  K0  1  0.28159950  0.31626139  0.35929175  1
  K  K1  1  0.21840050  0.68373861  0.85929175  1
  K  K2  1  0.71840050  0.81626139  0.14070825  1
  K  K3  1  0.78159950  0.18373861  0.64070825  1
  Be  Be4  1  0.15531273  0.30231465  0.06979840  1
  Be  Be5  1  0.34468727  0.69768535  0.56979840  1
  Be  Be6  1  0.84468727  0.80231465  0.43020160  1
  Be  Be7  1  0.65531273  0.19768535  0.93020160  1
  F  F8  1  0.23000509  0.12785782  0.16190818  1
  F  F9  1  0.26999491  0.87214218  0.66190818  1
  F  F10  1  0.76999491  0.62785782  0.33809182  1
  F  F11  1  0.73000509  0.37214218  0.83809182  1
  F  F12  1  0.22169380  0.56848740  0.08939454  1
  F  F13  1  0.27830620  0.43151260  0.58939454  1
  F  F14  1  0.77830620  0.06848740  0.41060546  1
  F  F15  1  0.72169380  0.93151260  0.91060546  1
  F  F16  1  0.80721024  0.28035585  0.04300983  1
  F  F17  1  0.69278976  0.71964415  0.54300983  1
  F  F18  1  0.19278976  0.78035585  0.45699017  1
  F  F19  1  0.30721024  0.21964415  0.95699017  1
