# generated using pymatgen
data_Li9Mn2Co5O16
_symmetry_space_group_name_H-M   'P 1'
_cell_length_a   2.97873192
_cell_length_b   8.08419462
_cell_length_c   12.10383543
_cell_angle_alpha   90.98513727
_cell_angle_beta   99.85679421
_cell_angle_gamma   88.98120792
_symmetry_Int_Tables_number   1
_chemical_formula_structural   Li9Mn2Co5O16
_chemical_formula_sum   'Li9 Mn2 Co5 O16'
_cell_volume   287.09074042
_cell_formula_units_Z   1
loop_
 _symmetry_equiv_pos_site_id
 _symmetry_equiv_pos_as_xyz
  1  'x, y, z'
loop_
 _atom_site_type_symbol
 _atom_site_label
 _atom_site_symmetry_multiplicity
 _atom_site_fract_x
 _atom_site_fract_y
 _atom_site_fract_z
 _atom_site_occupancy
  Li  Li0  1  0.73727523  0.99607578  0.74386557  1
  Li  Li1  1  0.86634529  0.24458697  0.37400025  1
  Li  Li2  1  0.00033953  0.50052993  0.00041572  1
  Li  Li3  1  0.12105755  0.75985089  0.62122635  1
  Li  Li4  1  0.25592810  0.99759180  0.25066566  1
  Li  Li5  1  0.38144098  0.25149192  0.87749388  1
  Li  Li6  1  0.50289717  0.50404132  0.50005442  1
  Li  Li7  1  0.62771138  0.74772939  0.12695157  1
  Li  Li8  1  0.51241684  0.99456348  0.50523965  1
  Mn  Mn9  1  0.99923362  0.99966935  0.99997743  1
  Mn  Mn10  1  0.11927134  0.24264703  0.62174351  1
  Co  Co11  1  0.25089162  0.50186360  0.25093355  1
  Co  Co12  1  0.36958872  0.74854320  0.87348610  1
  Co  Co13  1  0.62896232  0.25223131  0.12696280  1
  Co  Co14  1  0.73773777  0.50170700  0.74782152  1
  Co  Co15  1  0.88373266  0.75937155  0.37938906  1
  O  O16  1  0.35075357  0.98850128  0.87893966  1
  O  O17  1  0.54162614  0.25129020  0.51540066  1
  O  O18  1  0.60660481  0.48768819  0.13234059  1
  O  O19  1  0.73352947  0.73750891  0.75739038  1
  O  O20  1  0.86812281  0.97427428  0.37140097  1
  O  O21  1  0.98005717  0.24372360  0.00578791  1
  O  O22  1  0.10420201  0.48989250  0.63338031  1
  O  O23  1  0.23227620  0.73631924  0.25638421  1
  O  O24  1  0.13330920  0.01756997  0.62705736  1
  O  O25  1  0.27237815  0.26343679  0.24655961  1
  O  O26  1  0.39288029  0.50996051  0.86715978  1
  O  O27  1  0.51552319  0.74774690  0.48870499  1
  O  O28  1  0.64976964  0.01370581  0.12247004  1
  O  O29  1  0.70828818  0.26091501  0.73498151  1
  O  O30  1  0.89419818  0.51852828  0.36767829  1
  O  O31  1  0.02165786  0.75644401  0.99414069  1
