# generated using pymatgen
data_KAlSe2
_symmetry_space_group_name_H-M   'P 1'
_cell_length_a   7.80513432
_cell_length_b   7.80513432
_cell_length_c   15.63509462
_cell_angle_alpha   82.82211359
_cell_angle_beta   82.82211359
_cell_angle_gamma   90.02167116
_symmetry_Int_Tables_number   1
_chemical_formula_structural   KAlSe2
_chemical_formula_sum   'K8 Al8 Se16'
_cell_volume   937.49729202
_cell_formula_units_Z   8
loop_
 _symmetry_equiv_pos_site_id
 _symmetry_equiv_pos_as_xyz
  1  'x, y, z'
loop_
 _atom_site_type_symbol
 _atom_site_label
 _atom_site_symmetry_multiplicity
 _atom_site_fract_x
 _atom_site_fract_y
 _atom_site_fract_z
 _atom_site_occupancy
  K  K0  1  0.34562705  0.22273046  0.61477430  1
  K  K1  1  0.65437295  0.77726954  0.38522570  1
  K  K2  1  0.77726954  0.65437295  0.88522570  1
  K  K3  1  0.22273046  0.34562705  0.11477430  1
  K  K4  1  0.77483801  0.15199068  0.89175323  1
  K  K5  1  0.22516199  0.84800932  0.10824677  1
  K  K6  1  0.84800932  0.22516199  0.60824677  1
  K  K7  1  0.15199068  0.77483801  0.39175323  1
  Al  Al8  1  0.29003557  0.91237189  0.83688438  1
  Al  Al9  1  0.70996443  0.08762811  0.16311562  1
  Al  Al10  1  0.08762811  0.70996443  0.66311562  1
  Al  Al11  1  0.91237189  0.29003557  0.33688438  1
  Al  Al12  1  0.58025062  0.71005402  0.66261790  1
  Al  Al13  1  0.41974938  0.28994598  0.33738210  1
  Al  Al14  1  0.28994598  0.41974938  0.83738210  1
  Al  Al15  1  0.71005402  0.58025062  0.16261790  1
  Se  Se16  1  0.56869048  0.94458938  0.74918070  1
  Se  Se17  1  0.43130952  0.05541062  0.25081930  1
  Se  Se18  1  0.05541062  0.43130952  0.75081930  1
  Se  Se19  1  0.94458938  0.56869048  0.24918070  1
  Se  Se20  1  0.35822221  0.73355308  0.56760351  1
  Se  Se21  1  0.64177779  0.26644692  0.43239649  1
  Se  Se22  1  0.26644692  0.64177779  0.93239649  1
  Se  Se23  1  0.73355308  0.35822221  0.06760351  1
  Se  Se24  1  0.56849302  0.43150698  0.75000000  1
  Se  Se25  1  0.43150698  0.56849302  0.25000000  1
  Se  Se26  1  0.26800693  0.14226747  0.92932852  1
  Se  Se27  1  0.73199307  0.85773253  0.07067148  1
  Se  Se28  1  0.85773253  0.73199307  0.57067148  1
  Se  Se29  1  0.14226747  0.26800693  0.42932852  1
  Se  Se30  1  0.05546417  0.94453583  0.75000000  1
  Se  Se31  1  0.94453583  0.05546417  0.25000000  1
