# generated using pymatgen
data_K3Gd(BO3)2
_symmetry_space_group_name_H-M   'P 1'
_cell_length_a   7.13030452
_cell_length_b   9.06389668
_cell_length_c   11.23600660
_cell_angle_alpha   90.00000000
_cell_angle_beta   90.00000000
_cell_angle_gamma   90.00000000
_symmetry_Int_Tables_number   1
_chemical_formula_structural   K3Gd(BO3)2
_chemical_formula_sum   'K12 Gd4 B8 O24'
_cell_volume   726.16449373
_cell_formula_units_Z   4
loop_
 _symmetry_equiv_pos_site_id
 _symmetry_equiv_pos_as_xyz
  1  'x, y, z'
loop_
 _atom_site_type_symbol
 _atom_site_label
 _atom_site_symmetry_multiplicity
 _atom_site_fract_x
 _atom_site_fract_y
 _atom_site_fract_z
 _atom_site_occupancy
  K  K0  1  0.75000000  0.56104987  0.36953019  1
  K  K1  1  0.25000000  0.43895013  0.63046981  1
  K  K2  1  0.25000000  0.93895013  0.86953019  1
  K  K3  1  0.75000000  0.06104987  0.13046981  1
  K  K4  1  0.49568420  0.80054162  0.59779195  1
  K  K5  1  0.50431580  0.19945838  0.40220805  1
  K  K6  1  0.50431580  0.69945838  0.09779195  1
  K  K7  1  0.99568420  0.19945838  0.40220805  1
  K  K8  1  0.49568420  0.30054162  0.90220805  1
  K  K9  1  0.00431580  0.80054162  0.59779195  1
  K  K10  1  0.00431580  0.30054162  0.90220805  1
  K  K11  1  0.99568420  0.69945838  0.09779195  1
  Gd  Gd12  1  0.75000000  0.62590738  0.83133523  1
  Gd  Gd13  1  0.25000000  0.37409262  0.16866477  1
  Gd  Gd14  1  0.25000000  0.87409262  0.33133523  1
  Gd  Gd15  1  0.75000000  0.12590738  0.66866477  1
  B  B16  1  0.75000000  0.93759448  0.87341234  1
  B  B17  1  0.25000000  0.06240552  0.12658766  1
  B  B18  1  0.25000000  0.56240552  0.37341234  1
  B  B19  1  0.75000000  0.43759448  0.62658766  1
  B  B20  1  0.75000000  0.91103930  0.38385504  1
  B  B21  1  0.25000000  0.08896070  0.61614496  1
  B  B22  1  0.25000000  0.58896070  0.88385504  1
  B  B23  1  0.75000000  0.41103930  0.11614496  1
  O  O24  1  0.91996619  0.87145949  0.33025137  1
  O  O25  1  0.08003381  0.12854051  0.66974863  1
  O  O26  1  0.08003381  0.62854051  0.83025137  1
  O  O27  1  0.41996619  0.12854051  0.66974863  1
  O  O28  1  0.91996619  0.37145949  0.16974863  1
  O  O29  1  0.58003381  0.87145949  0.33025137  1
  O  O30  1  0.58003381  0.37145949  0.16974863  1
  O  O31  1  0.41996619  0.62854051  0.83025137  1
  O  O32  1  0.75000000  0.99191327  0.48994377  1
  O  O33  1  0.25000000  0.00808673  0.51005623  1
  O  O34  1  0.25000000  0.50808673  0.98994377  1
  O  O35  1  0.75000000  0.49191327  0.01005623  1
  O  O36  1  0.75000000  0.87855775  0.75730737  1
  O  O37  1  0.25000000  0.12144225  0.24269263  1
  O  O38  1  0.25000000  0.62144225  0.25730737  1
  O  O39  1  0.75000000  0.37855775  0.74269263  1
  O  O40  1  0.75000000  0.83856592  0.96665359  1
  O  O41  1  0.25000000  0.16143408  0.03334641  1
  O  O42  1  0.25000000  0.66143408  0.46665359  1
  O  O43  1  0.75000000  0.33856592  0.53334641  1
  O  O44  1  0.75000000  0.58881663  0.61590319  1
  O  O45  1  0.25000000  0.41118337  0.38409681  1
  O  O46  1  0.25000000  0.91118337  0.11590319  1
  O  O47  1  0.75000000  0.08881663  0.88409681  1
