# generated using pymatgen
data_KLiHoF5
_symmetry_space_group_name_H-M   'P 1'
_cell_length_a   6.51509225
_cell_length_b   6.35924864
_cell_length_c   11.90250338
_cell_angle_alpha   90.00000000
_cell_angle_beta   90.00000000
_cell_angle_gamma   113.83431226
_symmetry_Int_Tables_number   1
_chemical_formula_structural   KLiHoF5
_chemical_formula_sum   'K4 Li4 Ho4 F20'
_cell_volume   451.07819671
_cell_formula_units_Z   4
loop_
 _symmetry_equiv_pos_site_id
 _symmetry_equiv_pos_as_xyz
  1  'x, y, z'
loop_
 _atom_site_type_symbol
 _atom_site_label
 _atom_site_symmetry_multiplicity
 _atom_site_fract_x
 _atom_site_fract_y
 _atom_site_fract_z
 _atom_site_occupancy
  K  K0  1  0.94717892  0.96320745  0.34984013  1
  K  K1  1  0.05282108  0.03679255  0.65015987  1
  K  K2  1  0.05282108  0.53679255  0.84984013  1
  K  K3  1  0.94717892  0.46320745  0.15015987  1
  Li  Li4  1  0.55808006  0.96181622  0.74582240  1
  Li  Li5  1  0.44191994  0.03818378  0.25417760  1
  Li  Li6  1  0.44191994  0.53818378  0.24582240  1
  Li  Li7  1  0.55808006  0.46181622  0.75417760  1
  Ho  Ho8  1  0.68244383  0.82100670  0.99760878  1
  Ho  Ho9  1  0.31755617  0.17899330  0.00239122  1
  Ho  Ho10  1  0.31755617  0.67899330  0.49760878  1
  Ho  Ho11  1  0.68244383  0.32100670  0.50239122  1
  F  F12  1  0.72101914  0.77810048  0.80580412  1
  F  F13  1  0.27898086  0.22189952  0.19419588  1
  F  F14  1  0.27898086  0.72189952  0.30580412  1
  F  F15  1  0.72101914  0.27810048  0.69419588  1
  F  F16  1  0.66432963  0.95241683  0.53145430  1
  F  F17  1  0.33567037  0.04758317  0.46854570  1
  F  F18  1  0.33567037  0.54758317  0.03145430  1
  F  F19  1  0.66432963  0.45241683  0.96854570  1
  F  F20  1  0.95566727  0.67280625  0.50682715  1
  F  F21  1  0.04433273  0.32719375  0.49317285  1
  F  F22  1  0.04433273  0.82719375  0.00682715  1
  F  F23  1  0.95566727  0.17280625  0.99317285  1
  F  F24  1  0.46444388  0.96606180  0.89594399  1
  F  F25  1  0.53555612  0.03393820  0.10405601  1
  F  F26  1  0.53555612  0.53393820  0.39594399  1
  F  F27  1  0.46444388  0.46606180  0.60405601  1
  F  F28  1  0.28721773  0.77772767  0.67396886  1
  F  F29  1  0.71278227  0.22227233  0.32603114  1
  F  F30  1  0.71278227  0.72227233  0.17396886  1
  F  F31  1  0.28721773  0.27772767  0.82603114  1
