# generated using pymatgen
data_K4CrO4
_symmetry_space_group_name_H-M   'P 1'
_cell_length_a   6.45285958
_cell_length_b   6.42381082
_cell_length_c   9.62953823
_cell_angle_alpha   79.91024738
_cell_angle_beta   72.02383102
_cell_angle_gamma   66.85071280
_symmetry_Int_Tables_number   1
_chemical_formula_structural   K4CrO4
_chemical_formula_sum   'K8 Cr2 O8'
_cell_volume   348.44500807
_cell_formula_units_Z   2
loop_
 _symmetry_equiv_pos_site_id
 _symmetry_equiv_pos_as_xyz
  1  'x, y, z'
loop_
 _atom_site_type_symbol
 _atom_site_label
 _atom_site_symmetry_multiplicity
 _atom_site_fract_x
 _atom_site_fract_y
 _atom_site_fract_z
 _atom_site_occupancy
  K  K0  1  0.96287360  0.22145199  0.61705318  1
  K  K1  1  0.03712640  0.77854801  0.38294682  1
  K  K2  1  0.41134061  0.25505212  0.83608598  1
  K  K3  1  0.58865939  0.74494788  0.16391402  1
  K  K4  1  0.23596691  0.75670085  0.97268382  1
  K  K5  1  0.76403309  0.24329915  0.02731618  1
  K  K6  1  0.48842811  0.72720733  0.56073586  1
  K  K7  1  0.51157189  0.27279267  0.43926414  1
  Cr  Cr8  1  0.84540614  0.72404203  0.75254289  1
  Cr  Cr9  1  0.15459386  0.27595797  0.24745711  1
  O  O10  1  0.70934601  0.95245209  0.62852655  1
  O  O11  1  0.29065399  0.04754791  0.37147345  1
  O  O12  1  0.86076990  0.44870032  0.34606693  1
  O  O13  1  0.13923010  0.55129968  0.65393307  1
  O  O14  1  0.66550607  0.54824982  0.80656319  1
  O  O15  1  0.33449393  0.45175018  0.19343681  1
  O  O16  1  0.83991568  0.86337161  0.90268964  1
  O  O17  1  0.16008432  0.13662839  0.09731036  1
