# generated using pymatgen
data_K2TbF5
_symmetry_space_group_name_H-M   'P 1'
_cell_length_a   6.69610109
_cell_length_b   7.32976535
_cell_length_c   11.02485912
_cell_angle_alpha   90.00000000
_cell_angle_beta   90.00000000
_cell_angle_gamma   90.00000000
_symmetry_Int_Tables_number   1
_chemical_formula_structural   K2TbF5
_chemical_formula_sum   'K8 Tb4 F20'
_cell_volume   541.10945398
_cell_formula_units_Z   4
loop_
 _symmetry_equiv_pos_site_id
 _symmetry_equiv_pos_as_xyz
  1  'x, y, z'
loop_
 _atom_site_type_symbol
 _atom_site_label
 _atom_site_symmetry_multiplicity
 _atom_site_fract_x
 _atom_site_fract_y
 _atom_site_fract_z
 _atom_site_occupancy
  K  K0  1  0.97177177  0.00255418  0.67225780  1
  K  K1  1  0.02822823  0.99744582  0.32774220  1
  K  K2  1  0.47177177  0.99744582  0.82774220  1
  K  K3  1  0.02822823  0.50255418  0.32774220  1
  K  K4  1  0.52822823  0.00255418  0.17225780  1
  K  K5  1  0.97177177  0.49744582  0.67225780  1
  K  K6  1  0.52822823  0.49744582  0.17225780  1
  K  K7  1  0.47177177  0.50255418  0.82774220  1
  Tb  Tb8  1  0.93513631  0.75000000  0.99849045  1
  Tb  Tb9  1  0.06486369  0.25000000  0.00150955  1
  Tb  Tb10  1  0.43513631  0.25000000  0.50150955  1
  Tb  Tb11  1  0.56486369  0.75000000  0.49849045  1
  F  F12  1  0.66534010  0.75000000  0.69159550  1
  F  F13  1  0.33465990  0.25000000  0.30840450  1
  F  F14  1  0.16534010  0.25000000  0.80840450  1
  F  F15  1  0.83465990  0.75000000  0.19159550  1
  F  F16  1  0.13330354  0.75000000  0.83763445  1
  F  F17  1  0.86669646  0.25000000  0.16236555  1
  F  F18  1  0.63330354  0.25000000  0.66236555  1
  F  F19  1  0.36669646  0.75000000  0.33763445  1
  F  F20  1  0.60528403  0.75000000  0.98731289  1
  F  F21  1  0.39471597  0.25000000  0.01268711  1
  F  F22  1  0.10528403  0.25000000  0.51268711  1
  F  F23  1  0.89471597  0.75000000  0.48731289  1
  F  F24  1  0.85605698  0.46652013  0.92102622  1
  F  F25  1  0.14394302  0.53347987  0.07897378  1
  F  F26  1  0.35605698  0.53347987  0.57897378  1
  F  F27  1  0.14394302  0.96652013  0.07897378  1
  F  F28  1  0.64394302  0.46652013  0.42102622  1
  F  F29  1  0.85605698  0.03347987  0.92102622  1
  F  F30  1  0.64394302  0.03347987  0.42102622  1
  F  F31  1  0.35605698  0.96652013  0.57897378  1
