# generated using pymatgen
data_K3In(IO3)6
_symmetry_space_group_name_H-M   'P 1'
_cell_length_a   7.08786657
_cell_length_b   7.23610023
_cell_length_c   10.80751603
_cell_angle_alpha   97.93201993
_cell_angle_beta   108.79965617
_cell_angle_gamma   103.21720875
_symmetry_Int_Tables_number   1
_chemical_formula_structural   K3In(IO3)6
_chemical_formula_sum   'K3 In1 I6 O18'
_cell_volume   497.17196660
_cell_formula_units_Z   1
loop_
 _symmetry_equiv_pos_site_id
 _symmetry_equiv_pos_as_xyz
  1  'x, y, z'
loop_
 _atom_site_type_symbol
 _atom_site_label
 _atom_site_symmetry_multiplicity
 _atom_site_fract_x
 _atom_site_fract_y
 _atom_site_fract_z
 _atom_site_occupancy
  K  K0  1  0.37686542  0.53775320  0.29288520  1
  K  K1  1  0.62313458  0.46224680  0.70711480  1
  K  K2  1  0.00000000  0.50000000  0.50000000  1
  In  In3  1  0.00000000  0.00000000  0.00000000  1
  I  I4  1  0.55521447  0.03561391  0.19352124  1
  I  I5  1  0.44478553  0.96438609  0.80647876  1
  I  I6  1  0.78320728  0.53860150  0.10166841  1
  I  I7  1  0.21679272  0.46139850  0.89833159  1
  I  I8  1  0.13312591  0.05988136  0.37769561  1
  I  I9  1  0.86687409  0.94011864  0.62230439  1
  O  O10  1  0.59133659  0.65717633  0.12443832  1
  O  O11  1  0.40866341  0.34282367  0.87556168  1
  O  O12  1  0.00300305  0.35695082  0.73611040  1
  O  O13  1  0.99699695  0.64304918  0.26388960  1
  O  O14  1  0.61016949  0.30139226  0.23470226  1
  O  O15  1  0.38983051  0.69860774  0.76529774  1
  O  O16  1  0.05354578  0.11431796  0.20847850  1
  O  O17  1  0.94645422  0.88568204  0.79152150  1
  O  O18  1  0.30939082  0.96509917  0.03937243  1
  O  O19  1  0.69060918  0.03490083  0.96062757  1
  O  O20  1  0.29457589  0.30538074  0.46852511  1
  O  O21  1  0.70542411  0.69461926  0.53147489  1
  O  O22  1  0.88770903  0.07933576  0.39870089  1
  O  O23  1  0.11229097  0.92066424  0.60129911  1
  O  O24  1  0.56146047  0.03659230  0.68584410  1
  O  O25  1  0.43853953  0.96340770  0.31415590  1
  O  O26  1  0.11325760  0.31725148  0.00510319  1
  O  O27  1  0.88674240  0.68274852  0.99489681  1
