# generated using pymatgen
data_K2TeH6SO10
_symmetry_space_group_name_H-M   'P 1'
_cell_length_a   6.36272224
_cell_length_b   6.69932753
_cell_length_c   13.41224411
_cell_angle_alpha   102.30741407
_cell_angle_beta   90.51126091
_cell_angle_gamma   117.11870958
_symmetry_Int_Tables_number   1
_chemical_formula_structural   K2TeH6SO10
_chemical_formula_sum   'K4 Te2 H12 S2 O20'
_cell_volume   493.45028585
_cell_formula_units_Z   2
loop_
 _symmetry_equiv_pos_site_id
 _symmetry_equiv_pos_as_xyz
  1  'x, y, z'
loop_
 _atom_site_type_symbol
 _atom_site_label
 _atom_site_symmetry_multiplicity
 _atom_site_fract_x
 _atom_site_fract_y
 _atom_site_fract_z
 _atom_site_occupancy
  K  K0  1  0.57716316  0.22716102  0.34850829  1
  K  K1  1  0.42283684  0.77283898  0.65149171  1
  K  K2  1  0.19594641  0.26093793  0.84957803  1
  K  K3  1  0.80405359  0.73906207  0.15042197  1
  Te  Te4  1  0.00000000  0.00000000  0.50000000  1
  Te  Te5  1  0.50000000  0.00000000  0.00000000  1
  H  H6  1  0.13551990  0.70569797  0.42911950  1
  H  H7  1  0.86448010  0.29430203  0.57088050  1
  H  H8  1  0.28788280  0.15441829  0.12273433  1
  H  H9  1  0.71211720  0.84558171  0.87726567  1
  H  H10  1  0.28580125  0.64702597  0.06718934  1
  H  H11  1  0.71419875  0.35297403  0.93281066  1
  H  H12  1  0.38612179  0.25619524  0.60735506  1
  H  H13  1  0.61387821  0.74380476  0.39264494  1
  H  H14  1  0.07345599  0.19046691  0.35571196  1
  H  H15  1  0.92654401  0.80953309  0.64428804  1
  H  H16  1  0.84696194  0.26298807  0.13424812  1
  H  H17  1  0.15303806  0.73701193  0.86575188  1
  S  S18  1  0.25178353  0.53123735  0.25131304  1
  S  S19  1  0.74821647  0.46876265  0.74868696  1
  O  O20  1  0.17621740  0.82526341  0.49479438  1
  O  O21  1  0.82378260  0.17473659  0.50520562  1
  O  O22  1  0.06190317  0.03866492  0.36016103  1
  O  O23  1  0.93809683  0.96133508  0.63983897  1
  O  O24  1  0.29137206  0.28691650  0.55801420  1
  O  O25  1  0.70862794  0.71308350  0.44198580  1
  O  O26  1  0.36121615  0.37570487  0.21839655  1
  O  O27  1  0.63878385  0.62429513  0.78160345  1
  O  O28  1  0.55275950  0.23169928  0.70433881  1
  O  O29  1  0.44724050  0.76830072  0.29566119  1
  O  O30  1  0.08881609  0.44876747  0.33026278  1
  O  O31  1  0.91118391  0.55123253  0.66973722  1
  O  O32  1  0.69901269  0.11640850  0.13328908  1
  O  O33  1  0.30098731  0.88359150  0.86671092  1
  O  O34  1  0.23515320  0.00377252  0.06983150  1
  O  O35  1  0.76484680  0.99622748  0.93016850  1
  O  O36  1  0.39220857  0.68191529  0.01171759  1
  O  O37  1  0.60779143  0.31808471  0.98828241  1
  O  O38  1  0.10971788  0.53005297  0.16096057  1
  O  O39  1  0.89028212  0.46994703  0.83903943  1
