# generated using pymatgen
data_Li9Mn2Co5O16
_symmetry_space_group_name_H-M   'P 1'
_cell_length_a   2.97061790
_cell_length_b   5.96116209
_cell_length_c   16.17324630
_cell_angle_alpha   89.31816011
_cell_angle_beta   89.01920779
_cell_angle_gamma   94.14028891
_symmetry_Int_Tables_number   1
_chemical_formula_structural   Li9Mn2Co5O16
_chemical_formula_sum   'Li9 Mn2 Co5 O16'
_cell_volume   285.58719757
_cell_formula_units_Z   1
loop_
 _symmetry_equiv_pos_site_id
 _symmetry_equiv_pos_as_xyz
  1  'x, y, z'
loop_
 _atom_site_type_symbol
 _atom_site_label
 _atom_site_symmetry_multiplicity
 _atom_site_fract_x
 _atom_site_fract_y
 _atom_site_fract_z
 _atom_site_occupancy
  Li  Li0  1  0.00335789  0.50482649  0.00448286  1
  Li  Li1  1  0.50527454  0.23968999  0.12937870  1
  Li  Li2  1  0.99788128  0.99266955  0.24329119  1
  Li  Li3  1  0.49793956  0.75079563  0.87310751  1
  Li  Li4  1  0.00105184  0.99964818  0.74983627  1
  Li  Li5  1  0.49931025  0.24993505  0.62421270  1
  Li  Li6  1  0.99968421  0.50194105  0.50124658  1
  Li  Li7  1  0.49815857  0.75021418  0.37361848  1
  Li  Li8  1  0.49162368  0.76068027  0.12771023  1
  Mn  Mn9  1  0.00455628  0.99429029  0.00346590  1
  Mn  Mn10  1  0.49820117  0.24979635  0.37423011  1
  Co  Co11  1  0.99254230  0.51146057  0.24378919  1
  Co  Co12  1  0.00260469  0.99805445  0.50095028  1
  Co  Co13  1  0.49974430  0.74976934  0.62552137  1
  Co  Co14  1  0.99968278  0.50019638  0.75006482  1
  Co  Co15  1  0.50992723  0.24786980  0.87375092  1
  O  O16  1  0.52763206  0.22302516  0.99437801  1
  O  O17  1  0.99531702  0.00352448  0.11553381  1
  O  O18  1  0.47360464  0.73134575  0.25023891  1
  O  O19  1  0.97422520  0.48683846  0.87028680  1
  O  O20  1  0.47330773  0.73774812  0.74474061  1
  O  O21  1  0.97411554  0.98718912  0.61985957  1
  O  O22  1  0.47309166  0.24033461  0.49647421  1
  O  O23  1  0.97567151  0.49239957  0.36597088  1
  O  O24  1  0.47683234  0.78024231  0.99912198  1
  O  O25  1  0.00317556  0.49724256  0.13599472  1
  O  O26  1  0.52230509  0.26134236  0.25412180  1
  O  O27  1  0.03178887  0.01515900  0.87913019  1
  O  O28  1  0.52389059  0.26387163  0.75530737  1
  O  O29  1  0.02428347  0.51215455  0.63138784  1
  O  O30  1  0.52613061  0.76074678  0.50673913  1
  O  O31  1  0.02308758  0.00499800  0.38205606  1
