# generated using pymatgen
data_K3Ti2P5S18
_symmetry_space_group_name_H-M   'P 1'
_cell_length_a   6.24933654
_cell_length_b   12.00360912
_cell_length_c   20.85942019
_cell_angle_alpha   105.36073236
_cell_angle_beta   90.00000000
_cell_angle_gamma   105.08850064
_symmetry_Int_Tables_number   1
_chemical_formula_structural   K3Ti2P5S18
_chemical_formula_sum   'K6 Ti4 P10 S36'
_cell_volume   1452.84389648
_cell_formula_units_Z   2
loop_
 _symmetry_equiv_pos_site_id
 _symmetry_equiv_pos_as_xyz
  1  'x, y, z'
loop_
 _atom_site_type_symbol
 _atom_site_label
 _atom_site_symmetry_multiplicity
 _atom_site_fract_x
 _atom_site_fract_y
 _atom_site_fract_z
 _atom_site_occupancy
  K  K0  1  0.73006923  0.68843690  0.82676830  1
  K  K1  1  0.26993077  0.31156310  0.17323170  1
  K  K2  1  0.04163233  0.31156310  0.67323170  1
  K  K3  1  0.95836767  0.68843690  0.32676830  1
  K  K4  1  0.00000000  0.00000000  -0.00000000  1
  K  K5  1  0.00000000  0.00000000  0.50000000  1
  Ti  Ti6  1  0.62363526  0.76543631  0.62884347  1
  Ti  Ti7  1  0.37636474  0.23456369  0.37115653  1
  Ti  Ti8  1  0.85819895  0.23456369  0.87115653  1
  Ti  Ti9  1  0.14180105  0.76543631  0.12884347  1
  P  P10  1  0.65186141  0.51249801  0.64129223  1
  P  P11  1  0.34813859  0.48750199  0.35870777  1
  P  P12  1  0.13936340  0.48750199  0.85870777  1
  P  P13  1  0.86063660  0.51249801  0.14129223  1
  P  P14  1  0.74608527  0.00000000  0.75000000  1
  P  P15  1  0.25391473  0.00000000  0.25000000  1
  P  P16  1  0.30305781  0.75449879  0.98382518  1
  P  P17  1  0.69694219  0.24550121  0.01617482  1
  P  P18  1  0.54855902  0.24550121  0.51617482  1
  P  P19  1  0.45144098  0.75449879  0.48382518  1
  S  S20  1  0.35729942  0.57907564  0.94728934  1
  S  S21  1  0.64270058  0.42092436  0.05271066  1
  S  S22  1  0.77822377  0.42092436  0.55271066  1
  S  S23  1  0.22177623  0.57907564  0.44728934  1
  S  S24  1  0.48760367  0.84783162  0.73645080  1
  S  S25  1  0.51239633  0.15216838  0.26354920  1
  S  S26  1  0.63977205  0.15216838  0.76354920  1
  S  S27  1  0.36022795  0.84783162  0.23645080  1
  S  S28  1  0.60064030  0.42173015  0.70841961  1
  S  S29  1  0.39935970  0.57826985  0.29158039  1
  S  S30  1  0.17891015  0.57826985  0.79158039  1
  S  S31  1  0.82108985  0.42173015  0.20841961  1
  S  S32  1  0.51412463  0.19027665  0.92587575  1
  S  S33  1  0.48587537  0.80972335  0.07412425  1
  S  S34  1  0.32384798  0.80972335  0.57412425  1
  S  S35  1  0.67615202  0.19027665  0.42587575  1
  S  S36  1  0.22138482  0.32656893  0.83627300  1
  S  S37  1  0.77861518  0.67343107  0.16372700  1
  S  S38  1  0.89481589  0.67343107  0.66372700  1
  S  S39  1  0.10518411  0.32656893  0.33627300  1
  S  S40  1  0.75075941  0.73487776  0.51365864  1
  S  S41  1  0.24924059  0.26512224  0.48634136  1
  S  S42  1  0.01588165  0.26512224  0.98634136  1
  S  S43  1  0.98411835  0.73487776  0.01365864  1
  S  S44  1  0.38436712  0.56631517  0.61592833  1
  S  S45  1  0.61563288  0.43368483  0.38407167  1
  S  S46  1  0.81805195  0.43368483  0.88407167  1
  S  S47  1  0.18194805  0.56631517  0.11592833  1
  S  S48  1  0.91097308  0.96138200  0.66513755  1
  S  S49  1  0.08902692  0.03861800  0.33486245  1
  S  S50  1  0.94959107  0.03861800  0.83486245  1
  S  S51  1  0.05040893  0.96138200  0.16513755  1
  S  S52  1  0.39082158  0.85675057  0.92291231  1
  S  S53  1  0.60917842  0.14324943  0.07708769  1
  S  S54  1  0.53407101  0.14324943  0.57708769  1
  S  S55  1  0.46592899  0.85675057  0.42291231  1
