# generated using pymatgen
data_LaHSe2O7
_symmetry_space_group_name_H-M   'P 1'
_cell_length_a   7.48898156
_cell_length_b   8.85775727
_cell_length_c   9.74816787
_cell_angle_alpha   103.82284121
_cell_angle_beta   90.00000000
_cell_angle_gamma   90.00000000
_symmetry_Int_Tables_number   1
_chemical_formula_structural   LaHSe2O7
_chemical_formula_sum   'La4 H4 Se8 O28'
_cell_volume   627.92280740
_cell_formula_units_Z   4
loop_
 _symmetry_equiv_pos_site_id
 _symmetry_equiv_pos_as_xyz
  1  'x, y, z'
loop_
 _atom_site_type_symbol
 _atom_site_label
 _atom_site_symmetry_multiplicity
 _atom_site_fract_x
 _atom_site_fract_y
 _atom_site_fract_z
 _atom_site_occupancy
  La  La0  1  0.60986714  0.72660612  0.70955237  1
  La  La1  1  0.10986714  0.27339388  0.29044763  1
  La  La2  1  0.78501198  0.26991281  0.72764361  1
  La  La3  1  0.28501198  0.73008719  0.27235639  1
  H  H4  1  0.64046595  0.94483669  0.21927393  1
  H  H5  1  0.14046595  0.05516331  0.78072607  1
  H  H6  1  0.44298209  0.24451644  0.98621575  1
  H  H7  1  0.94298209  0.75548356  0.01378425  1
  Se  Se8  1  0.61403289  0.43781309  0.39918753  1
  Se  Se9  1  0.11403289  0.56218691  0.60081247  1
  Se  Se10  1  0.17544670  0.48211207  0.97933911  1
  Se  Se11  1  0.67544670  0.51788793  0.02066089  1
  Se  Se12  1  0.94801662  0.98969082  0.95441031  1
  Se  Se13  1  0.44801662  0.01030918  0.04558969  1
  Se  Se14  1  0.81588651  0.94291155  0.40728113  1
  Se  Se15  1  0.31588651  0.05708845  0.59271887  1
  O  O16  1  0.75099284  0.92803122  0.56489459  1
  O  O17  1  0.25099284  0.07196878  0.43510541  1
  O  O18  1  0.96127823  0.81708305  0.32179270  1
  O  O19  1  0.46127823  0.18291695  0.67820730  1
  O  O20  1  0.78442049  0.02590685  0.84374392  1
  O  O21  1  0.28442049  0.97409315  0.15625608  1
  O  O22  1  0.65988552  0.54453453  0.84695788  1
  O  O23  1  0.15988552  0.45546547  0.15304212  1
  O  O24  1  0.95167466  0.68344028  0.67260640  1
  O  O25  1  0.45167466  0.31655972  0.32739360  1
  O  O26  1  0.61997363  0.32418441  0.96474372  1
  O  O27  1  0.11997363  0.67581559  0.03525628  1
  O  O28  1  0.42451801  0.87314038  0.89271897  1
  O  O29  1  0.92451801  0.12685962  0.10728103  1
  O  O30  1  0.65360114  0.42928149  0.56849371  1
  O  O31  1  0.15360114  0.57071851  0.43150629  1
  O  O32  1  0.98610714  0.39266607  0.89726762  1
  O  O33  1  0.48610714  0.60733393  0.10273238  1
  O  O34  1  0.29914994  0.59208883  0.69629628  1
  O  O35  1  0.79914994  0.40791117  0.30370372  1
  O  O36  1  0.61443775  0.90808794  0.30507772  1
  O  O37  1  0.11443775  0.09191206  0.69492228  1
  O  O38  1  0.54894745  0.62571421  0.42523970  1
  O  O39  1  0.04894745  0.37428579  0.57476030  1
  O  O40  1  0.36305071  0.87155868  0.58002128  1
  O  O41  1  0.86305071  0.12844132  0.41997872  1
  O  O42  1  0.83845261  0.82708377  0.99927020  1
  O  O43  1  0.33845261  0.17291623  0.00072980  1
