# generated using pymatgen
data_K2DyCl5
_symmetry_space_group_name_H-M   'P 1'
_cell_length_a   8.06875066
_cell_length_b   8.57504363
_cell_length_c   13.07134982
_cell_angle_alpha   90.00000000
_cell_angle_beta   90.00000000
_cell_angle_gamma   90.00000000
_symmetry_Int_Tables_number   1
_chemical_formula_structural   K2DyCl5
_chemical_formula_sum   'K8 Dy4 Cl20'
_cell_volume   904.40524246
_cell_formula_units_Z   4
loop_
 _symmetry_equiv_pos_site_id
 _symmetry_equiv_pos_as_xyz
  1  'x, y, z'
loop_
 _atom_site_type_symbol
 _atom_site_label
 _atom_site_symmetry_multiplicity
 _atom_site_fract_x
 _atom_site_fract_y
 _atom_site_fract_z
 _atom_site_occupancy
  K  K0  1  0.96615784  0.99942510  0.67422409  1
  K  K1  1  0.03384216  0.00057490  0.32577591  1
  K  K2  1  0.46615784  0.00057490  0.82577591  1
  K  K3  1  0.03384216  0.49942510  0.32577591  1
  K  K4  1  0.53384216  0.99942510  0.17422409  1
  K  K5  1  0.96615784  0.50057490  0.67422409  1
  K  K6  1  0.53384216  0.50057490  0.17422409  1
  K  K7  1  0.46615784  0.49942510  0.82577591  1
  Dy  Dy8  1  0.92634655  0.75000000  0.99721659  1
  Dy  Dy9  1  0.07365345  0.25000000  0.00278341  1
  Dy  Dy10  1  0.42634655  0.25000000  0.50278341  1
  Dy  Dy11  1  0.57365345  0.75000000  0.49721659  1
  Cl  Cl12  1  0.66879215  0.75000000  0.69568446  1
  Cl  Cl13  1  0.33120785  0.25000000  0.30431554  1
  Cl  Cl14  1  0.16879215  0.25000000  0.80431554  1
  Cl  Cl15  1  0.83120785  0.75000000  0.19568446  1
  Cl  Cl16  1  0.13421223  0.75000000  0.83518211  1
  Cl  Cl17  1  0.86578777  0.25000000  0.16481789  1
  Cl  Cl18  1  0.63421223  0.25000000  0.66481789  1
  Cl  Cl19  1  0.36578777  0.75000000  0.33518211  1
  Cl  Cl20  1  0.58904851  0.75000000  0.98728460  1
  Cl  Cl21  1  0.41095149  0.25000000  0.01271540  1
  Cl  Cl22  1  0.08904851  0.25000000  0.51271540  1
  Cl  Cl23  1  0.91095149  0.75000000  0.48728460  1
  Cl  Cl24  1  0.84632491  0.45947505  0.91980824  1
  Cl  Cl25  1  0.15367509  0.54052495  0.08019176  1
  Cl  Cl26  1  0.34632491  0.54052495  0.58019176  1
  Cl  Cl27  1  0.15367509  0.95947505  0.08019176  1
  Cl  Cl28  1  0.65367509  0.45947505  0.41980824  1
  Cl  Cl29  1  0.84632491  0.04052495  0.91980824  1
  Cl  Cl30  1  0.65367509  0.04052495  0.41980824  1
  Cl  Cl31  1  0.34632491  0.95947505  0.58019176  1
