# generated using pymatgen
data_K2PH3SeO8
_symmetry_space_group_name_H-M   'P 1'
_cell_length_a   7.46642528
_cell_length_b   7.59325275
_cell_length_c   7.71100298
_cell_angle_alpha   90.00000000
_cell_angle_beta   99.35170448
_cell_angle_gamma   90.00000000
_symmetry_Int_Tables_number   1
_chemical_formula_structural   K2PH3SeO8
_chemical_formula_sum   'K4 P2 H6 Se2 O16'
_cell_volume   431.36087478
_cell_formula_units_Z   2
loop_
 _symmetry_equiv_pos_site_id
 _symmetry_equiv_pos_as_xyz
  1  'x, y, z'
loop_
 _atom_site_type_symbol
 _atom_site_label
 _atom_site_symmetry_multiplicity
 _atom_site_fract_x
 _atom_site_fract_y
 _atom_site_fract_z
 _atom_site_occupancy
  K  K0  1  0.00019656  0.94401316  0.99611303  1
  K  K1  1  0.50019656  0.05598684  0.49611303  1
  K  K2  1  0.29540338  0.45147251  0.08503457  1
  K  K3  1  0.79540338  0.54852749  0.58503457  1
  P  P4  1  0.80775637  0.46138769  0.04137529  1
  P  P5  1  0.30775637  0.53861231  0.54137529  1
  H  H6  1  0.39940549  0.73736732  0.75453761  1
  H  H7  1  0.89940549  0.26263268  0.25453761  1
  H  H8  1  0.13164903  0.75277310  0.40029689  1
  H  H9  1  0.63164903  0.24722690  0.90029689  1
  H  H10  1  0.67926467  0.67703747  0.18018999  1
  H  H11  1  0.17926467  0.32296253  0.68018999  1
  Se  Se12  1  0.49498515  0.95163837  0.03145473  1
  Se  Se13  1  0.99498515  0.04836163  0.53145473  1
  O  O14  1  0.70597396  0.53952416  0.18857325  1
  O  O15  1  0.20597396  0.46047584  0.68857325  1
  O  O16  1  0.64970860  0.86306335  0.19203142  1
  O  O17  1  0.14970860  0.13693665  0.69203142  1
  O  O18  1  0.10600234  0.95152671  0.38417859  1
  O  O19  1  0.60600234  0.04847329  0.88417859  1
  O  O20  1  0.15899394  0.61970614  0.39181392  1
  O  O21  1  0.65899394  0.38029386  0.89181392  1
  O  O22  1  0.42110406  0.70048718  0.62918456  1
  O  O23  1  0.92110406  0.29951282  0.12918456  1
  O  O24  1  0.86400132  0.21237856  0.43272048  1
  O  O25  1  0.36400132  0.78762144  0.93272048  1
  O  O26  1  0.86922056  0.90725940  0.62297462  1
  O  O27  1  0.36922056  0.09274060  0.12297462  1
  O  O28  1  0.42099456  0.40913029  0.46154103  1
  O  O29  1  0.92099456  0.59086971  0.96154103  1
