# generated using pymatgen
data_K2Hg6S7
_symmetry_space_group_name_H-M   'P 1'
_cell_length_a   4.16871489
_cell_length_b   14.15092004
_cell_length_c   14.15109961
_cell_angle_alpha   89.99967536
_cell_angle_beta   90.00092864
_cell_angle_gamma   90.00112656
_symmetry_Int_Tables_number   1
_chemical_formula_structural   K2Hg6S7
_chemical_formula_sum   'K4 Hg12 S14'
_cell_volume   834.78965487
_cell_formula_units_Z   2
loop_
 _symmetry_equiv_pos_site_id
 _symmetry_equiv_pos_as_xyz
  1  'x, y, z'
loop_
 _atom_site_type_symbol
 _atom_site_label
 _atom_site_symmetry_multiplicity
 _atom_site_fract_x
 _atom_site_fract_y
 _atom_site_fract_z
 _atom_site_occupancy
  K  K0  1  0.23595803  0.17129810  0.67099983  1
  K  K1  1  0.23595286  0.82870814  0.32900434  1
  K  K2  1  0.76403800  0.67101223  0.82870962  1
  K  K3  1  0.76403588  0.32870278  0.17099550  1
  Hg  Hg4  1  0.27546067  0.59808713  0.09844332  1
  Hg  Hg5  1  0.27546479  0.40191720  0.90156244  1
  Hg  Hg6  1  0.72453897  0.09844203  0.40191868  1
  Hg  Hg7  1  0.72453737  0.90192478  0.59845159  1
  Hg  Hg8  1  0.23883909  0.06773818  0.15887068  1
  Hg  Hg9  1  0.23881559  0.93224545  0.84115469  1
  Hg  Hg10  1  0.76116399  0.15886094  0.93224266  1
  Hg  Hg11  1  0.76117690  0.43223934  0.65886410  1
  Hg  Hg12  1  0.76116562  0.84113725  0.06774642  1
  Hg  Hg13  1  0.76118041  0.56774993  0.34113641  1
  Hg  Hg14  1  0.23882068  0.34114253  0.43223439  1
  Hg  Hg15  1  0.23883963  0.65887955  0.56775059  1
  S  S16  1  0.25464372  0.19587722  0.03493820  1
  S  S17  1  0.25463808  0.80411598  0.96507109  1
  S  S18  1  0.74535507  0.03495994  0.80412163  1
  S  S19  1  0.74536102  0.30413285  0.53493663  1
  S  S20  1  0.74535767  0.96506070  0.19588277  1
  S  S21  1  0.74535409  0.69587250  0.46508422  1
  S  S22  1  0.25463961  0.46506094  0.30412571  1
  S  S23  1  0.25465027  0.53494509  0.69586966  1
  S  S24  1  0.66886301  0.68538053  0.18548574  1
  S  S25  1  0.66885817  0.31462578  0.81451696  1
  S  S26  1  0.33114635  0.18548360  0.31461803  1
  S  S27  1  0.33114378  0.81461555  0.68547848  1
  S  S28  1  0.05656304  0.00002576  0.50002521  1
  S  S29  1  0.94343765  0.49999801  0.00000041  1
