# generated using pymatgen
data_KBa2I5
_symmetry_space_group_name_H-M   'P 1'
_cell_length_a   9.45140446
_cell_length_b   10.54810383
_cell_length_c   14.95878053
_cell_angle_alpha   89.81574994
_cell_angle_beta   90.00000000
_cell_angle_gamma   90.00000000
_symmetry_Int_Tables_number   1
_chemical_formula_structural   KBa2I5
_chemical_formula_sum   'K4 Ba8 I20'
_cell_volume   1491.29887286
_cell_formula_units_Z   4
loop_
 _symmetry_equiv_pos_site_id
 _symmetry_equiv_pos_as_xyz
  1  'x, y, z'
loop_
 _atom_site_type_symbol
 _atom_site_label
 _atom_site_symmetry_multiplicity
 _atom_site_fract_x
 _atom_site_fract_y
 _atom_site_fract_z
 _atom_site_occupancy
  K  K0  1  0.98558427  0.51045302  0.68072902  1
  K  K1  1  0.01441573  0.48954698  0.31927098  1
  K  K2  1  0.48558427  0.48954698  0.81927098  1
  K  K3  1  0.51441573  0.51045302  0.18072902  1
  Ba  Ba4  1  0.97554215  0.99920286  0.68008562  1
  Ba  Ba5  1  0.02445785  0.00079714  0.31991438  1
  Ba  Ba6  1  0.47554215  0.00079714  0.81991438  1
  Ba  Ba7  1  0.52445785  0.99920286  0.18008562  1
  Ba  Ba8  1  0.91994895  0.74935661  0.99179332  1
  Ba  Ba9  1  0.08005105  0.25064339  0.00820668  1
  Ba  Ba10  1  0.41994895  0.25064339  0.50820668  1
  Ba  Ba11  1  0.58005105  0.74935661  0.49179332  1
  I  I12  1  0.83282286  0.45846310  0.90719699  1
  I  I13  1  0.16717714  0.54153690  0.09280301  1
  I  I14  1  0.33282286  0.54153690  0.59280301  1
  I  I15  1  0.66717714  0.45846310  0.40719699  1
  I  I16  1  0.16645461  0.77697661  0.81480934  1
  I  I17  1  0.83354539  0.22302339  0.18519066  1
  I  I18  1  0.66645461  0.22302339  0.68519066  1
  I  I19  1  0.33354539  0.77697661  0.31480934  1
  I  I20  1  0.69729654  0.76561185  0.71980596  1
  I  I21  1  0.30270346  0.23438815  0.28019404  1
  I  I22  1  0.19729654  0.23438815  0.78019404  1
  I  I23  1  0.80270346  0.76561185  0.21980596  1
  I  I24  1  0.54019453  0.77675198  0.99765187  1
  I  I25  1  0.45980547  0.22324802  0.00234813  1
  I  I26  1  0.04019453  0.22324802  0.50234813  1
  I  I27  1  0.95980547  0.77675198  0.49765187  1
  I  I28  1  0.33480549  0.95436029  0.59573348  1
  I  I29  1  0.66519451  0.04563971  0.40426652  1
  I  I30  1  0.83480549  0.04563971  0.90426652  1
  I  I31  1  0.16519451  0.95436029  0.09573348  1
