# generated using pymatgen
data_K2RbEuV2O8
_symmetry_space_group_name_H-M   'P 1'
_cell_length_a   6.11857310
_cell_length_b   6.11857310
_cell_length_c   7.91232660
_cell_angle_alpha   90.00000000
_cell_angle_beta   90.00000000
_cell_angle_gamma   120.00000537
_symmetry_Int_Tables_number   1
_chemical_formula_structural   K2RbEuV2O8
_chemical_formula_sum   'K2 Rb1 Eu1 V2 O8'
_cell_volume   256.52820321
_cell_formula_units_Z   1
loop_
 _symmetry_equiv_pos_site_id
 _symmetry_equiv_pos_as_xyz
  1  'x, y, z'
loop_
 _atom_site_type_symbol
 _atom_site_label
 _atom_site_symmetry_multiplicity
 _atom_site_fract_x
 _atom_site_fract_y
 _atom_site_fract_z
 _atom_site_occupancy
  K  K0  1  0.66666700  0.33333300  0.29730188  1
  K  K1  1  0.33333300  0.66666700  0.70269812  1
  Rb  Rb2  1  0.00000000  -0.00000000  -0.00000000  1
  Eu  Eu3  1  0.00000000  -0.00000000  0.50000000  1
  V  V4  1  0.66666700  0.33333300  0.75031365  1
  V  V5  1  0.33333300  0.66666700  0.24968635  1
  O  O6  1  0.66666700  0.33333300  0.96405920  1
  O  O7  1  0.33333300  0.66666700  0.03594080  1
  O  O8  1  0.82337024  0.64674049  0.67493688  1
  O  O9  1  0.17662976  0.35325951  0.32506312  1
  O  O10  1  0.82337024  0.17662976  0.67493688  1
  O  O11  1  0.17662976  0.82337024  0.32506312  1
  O  O12  1  0.35325951  0.17662976  0.67493688  1
  O  O13  1  0.64674049  0.82337024  0.32506312  1
