# generated using pymatgen
data_La12Ni6Pb
_symmetry_space_group_name_H-M   'P 1'
_cell_length_a   8.87779729
_cell_length_b   8.87803083
_cell_length_c   8.87776029
_cell_angle_alpha   109.56911807
_cell_angle_beta   109.36487640
_cell_angle_gamma   109.48039643
_symmetry_Int_Tables_number   1
_chemical_formula_structural   La12Ni6Pb
_chemical_formula_sum   'La12 Ni6 Pb1'
_cell_volume   538.63981144
_cell_formula_units_Z   1
loop_
 _symmetry_equiv_pos_site_id
 _symmetry_equiv_pos_as_xyz
  1  'x, y, z'
loop_
 _atom_site_type_symbol
 _atom_site_label
 _atom_site_symmetry_multiplicity
 _atom_site_fract_x
 _atom_site_fract_y
 _atom_site_fract_z
 _atom_site_occupancy
  La  La0  1  0.81465692  0.68926007  0.50393615  1
  La  La1  1  0.18536046  0.31079086  0.49616995  1
  La  La2  1  0.18536412  0.68925035  0.87464297  1
  La  La3  1  0.81466172  0.31077827  0.12545894  1
  La  La4  1  0.68927433  0.50394732  0.81464476  1
  La  La5  1  0.31057536  0.49590269  0.18525849  1
  La  La6  1  0.68934399  0.87466995  0.18527908  1
  La  La7  1  0.31068175  0.12535787  0.81464909  1
  La  La8  1  0.50407199  0.81482290  0.68926261  1
  La  La9  1  0.49602168  0.18525521  0.31077608  1
  La  La10  1  0.12553856  0.81479729  0.31075384  1
  La  La11  1  0.87444115  0.18524614  0.68923556  1
  Ni  Ni12  1  0.87807346  0.37811250  0.50001172  1
  Ni  Ni13  1  0.12191656  0.62194582  0.50002217  1
  Ni  Ni14  1  0.37828363  0.50003165  0.87832497  1
  Ni  Ni15  1  0.62178963  0.50003898  0.12181758  1
  Ni  Ni16  1  0.49997406  0.87810749  0.37808848  1
  Ni  Ni17  1  0.49998274  0.12169437  0.62167285  1
  Pb  Pb18  1  0.99998787  0.99999029  0.99999471  1
