# generated using pymatgen
data_Ho2Be2GeO7
_symmetry_space_group_name_H-M   'P 1'
_cell_length_a   4.80560670
_cell_length_b   7.43003451
_cell_length_c   7.43003451
_cell_angle_alpha   90.00000000
_cell_angle_beta   90.00000000
_cell_angle_gamma   90.00000000
_symmetry_Int_Tables_number   1
_chemical_formula_structural   Ho2Be2GeO7
_chemical_formula_sum   'Ho4 Be4 Ge2 O14'
_cell_volume   265.29550172
_cell_formula_units_Z   2
loop_
 _symmetry_equiv_pos_site_id
 _symmetry_equiv_pos_as_xyz
  1  'x, y, z'
loop_
 _atom_site_type_symbol
 _atom_site_label
 _atom_site_symmetry_multiplicity
 _atom_site_fract_x
 _atom_site_fract_y
 _atom_site_fract_z
 _atom_site_occupancy
  Ho  Ho0  1  0.50667455  0.15770134  0.65770134  1
  Ho  Ho1  1  0.50667455  0.84229866  0.34229866  1
  Ho  Ho2  1  0.49332545  0.65770134  0.84229866  1
  Ho  Ho3  1  0.49332545  0.34229866  0.15770134  1
  Be  Be4  1  0.95073154  0.63517352  0.13517352  1
  Be  Be5  1  0.95073154  0.36482648  0.86482648  1
  Be  Be6  1  0.04926846  0.13517352  0.36482648  1
  Be  Be7  1  0.04926846  0.86482648  0.63517352  1
  Ge  Ge8  1  -0.00000000  -0.00000000  0.00000000  1
  Ge  Ge9  1  -0.00000000  0.50000000  0.50000000  1
  O  O10  1  0.18817834  -0.00000000  0.50000000  1
  O  O11  1  0.81182166  0.50000000  0.00000000  1
  O  O12  1  0.28157600  0.64177733  0.14177733  1
  O  O13  1  0.28157600  0.35822267  0.85822267  1
  O  O14  1  0.71842400  0.14177733  0.35822267  1
  O  O15  1  0.71842400  0.85822267  0.64177733  1
  O  O16  1  0.21912527  0.08154924  0.17143023  1
  O  O17  1  0.21912527  0.91845076  0.82856977  1
  O  O18  1  0.78087473  0.17143023  0.91845076  1
  O  O19  1  0.78087473  0.41845076  0.67143023  1
  O  O20  1  0.78087473  0.82856977  0.08154924  1
  O  O21  1  0.78087473  0.58154924  0.32856977  1
  O  O22  1  0.21912527  0.32856977  0.41845076  1
  O  O23  1  0.21912527  0.67143023  0.58154924  1
