# generated using pymatgen
data_Ho2Si5Rh3
_symmetry_space_group_name_H-M   'P 1'
_cell_length_a   5.74553844
_cell_length_b   8.15180977
_cell_length_c   8.15180977
_cell_angle_alpha   74.99637968
_cell_angle_beta   69.36527989
_cell_angle_gamma   69.36527989
_symmetry_Int_Tables_number   1
_chemical_formula_structural   Ho2Si5Rh3
_chemical_formula_sum   'Ho4 Si10 Rh6'
_cell_volume   330.40786630
_cell_formula_units_Z   2
loop_
 _symmetry_equiv_pos_site_id
 _symmetry_equiv_pos_as_xyz
  1  'x, y, z'
loop_
 _atom_site_type_symbol
 _atom_site_label
 _atom_site_symmetry_multiplicity
 _atom_site_fract_x
 _atom_site_fract_y
 _atom_site_fract_z
 _atom_site_occupancy
  Ho  Ho0  1  0.63129314  0.10070828  0.63670544  1
  Ho  Ho1  1  0.36870686  0.89929172  0.36329456  1
  Ho  Ho2  1  0.13129314  0.63670544  0.10070828  1
  Ho  Ho3  1  0.86870686  0.36329456  0.89929172  1
  Si  Si4  1  0.47323785  0.27676215  0.27676215  1
  Si  Si5  1  0.52676215  0.72323785  0.72323785  1
  Si  Si6  1  0.02676215  0.72323785  0.72323785  1
  Si  Si7  1  0.97323785  0.27676215  0.27676215  1
  Si  Si8  1  0.89363495  0.76210351  0.45062659  1
  Si  Si9  1  0.10636505  0.23789649  0.54937341  1
  Si  Si10  1  0.39363495  0.45062659  0.76210351  1
  Si  Si11  1  0.60636505  0.54937341  0.23789649  1
  Si  Si12  1  0.75000000  -0.00000000  0.00000000  1
  Si  Si13  1  0.25000000  -0.00000000  0.00000000  1
  Rh  Rh14  1  0.86057341  0.02917129  0.24968190  1
  Rh  Rh15  1  0.13942659  0.97082871  0.75031810  1
  Rh  Rh16  1  0.36057341  0.24968190  0.02917129  1
  Rh  Rh17  1  0.63942659  0.75031810  0.97082871  1
  Rh  Rh18  1  0.75000000  0.50000000  0.50000000  1
  Rh  Rh19  1  0.25000000  0.50000000  0.50000000  1
