# generated using pymatgen
data_Ho3SbO7
_symmetry_space_group_name_H-M   'P 1'
_cell_length_a   6.46548657
_cell_length_b   6.46548657
_cell_length_c   7.50447301
_cell_angle_alpha   90.00000000
_cell_angle_beta   90.00000000
_cell_angle_gamma   109.27545253
_symmetry_Int_Tables_number   1
_chemical_formula_structural   Ho3SbO7
_chemical_formula_sum   'Ho6 Sb2 O14'
_cell_volume   296.12028157
_cell_formula_units_Z   2
loop_
 _symmetry_equiv_pos_site_id
 _symmetry_equiv_pos_as_xyz
  1  'x, y, z'
loop_
 _atom_site_type_symbol
 _atom_site_label
 _atom_site_symmetry_multiplicity
 _atom_site_fract_x
 _atom_site_fract_y
 _atom_site_fract_z
 _atom_site_occupancy
  Ho  Ho0  1  0.53185107  0.00039943  0.75306330  1
  Ho  Ho1  1  0.46814893  0.99960057  0.25306330  1
  Ho  Ho2  1  0.99960057  0.46814893  0.74693670  1
  Ho  Ho3  1  0.00039943  0.53185107  0.24693670  1
  Ho  Ho4  1  0.48635033  0.48635033  -0.00000000  1
  Ho  Ho5  1  0.51364967  0.51364967  0.50000000  1
  Sb  Sb6  1  0.00010480  0.00010480  -0.00000000  1
  Sb  Sb7  1  -0.00010480  -0.00010480  0.50000000  1
  O  O8  1  0.63773580  0.36226420  0.75000000  1
  O  O9  1  0.36226420  0.63773580  0.25000000  1
  O  O10  1  0.92874835  0.07125165  0.75000000  1
  O  O11  1  0.07125165  0.92874835  0.25000000  1
  O  O12  1  0.32522964  0.07751455  0.97223985  1
  O  O13  1  0.67477036  0.92248545  0.47223985  1
  O  O14  1  0.92248545  0.67477036  0.52776015  1
  O  O15  1  0.07751455  0.32522964  0.02776015  1
  O  O16  1  0.37022422  0.62977578  0.75000000  1
  O  O17  1  0.62977578  0.37022422  0.25000000  1
  O  O18  1  0.31970737  0.06576636  0.53315377  1
  O  O19  1  0.68029263  0.93423364  0.03315377  1
  O  O20  1  0.93423364  0.68029263  0.96684623  1
  O  O21  1  0.06576636  0.31970737  0.46684623  1
