# generated using pymatgen
data_Ho5(In2Pt)2
_symmetry_space_group_name_H-M   'P 1'
_cell_length_a   3.60683762
_cell_length_b   8.15993229
_cell_length_c   18.23665119
_cell_angle_alpha   90.00000000
_cell_angle_beta   90.00000000
_cell_angle_gamma   90.00000000
_symmetry_Int_Tables_number   1
_chemical_formula_structural   Ho5(In2Pt)2
_chemical_formula_sum   'Ho10 In8 Pt4'
_cell_volume   536.73292519
_cell_formula_units_Z   2
loop_
 _symmetry_equiv_pos_site_id
 _symmetry_equiv_pos_as_xyz
  1  'x, y, z'
loop_
 _atom_site_type_symbol
 _atom_site_label
 _atom_site_symmetry_multiplicity
 _atom_site_fract_x
 _atom_site_fract_y
 _atom_site_fract_z
 _atom_site_occupancy
  Ho  Ho0  1  0.00000000  0.11690725  0.41430112  1
  Ho  Ho1  1  0.00000000  0.88309275  0.58569888  1
  Ho  Ho2  1  0.00000000  0.38309275  0.91430112  1
  Ho  Ho3  1  0.00000000  0.61690725  0.08569888  1
  Ho  Ho4  1  -0.00000000  0.24369872  0.22000729  1
  Ho  Ho5  1  0.00000000  0.75630128  0.77999271  1
  Ho  Ho6  1  0.00000000  0.25630128  0.72000729  1
  Ho  Ho7  1  0.00000000  0.74369872  0.27999271  1
  Ho  Ho8  1  0.00000000  -0.00000000  -0.00000000  1
  Ho  Ho9  1  0.00000000  0.50000000  0.50000000  1
  In  In10  1  0.50000000  0.42417156  0.35036571  1
  In  In11  1  0.50000000  0.57582844  0.64963429  1
  In  In12  1  0.50000000  0.07582844  0.85036571  1
  In  In13  1  0.50000000  0.92417156  0.14963429  1
  In  In14  1  0.50000000  0.29236259  0.06671118  1
  In  In15  1  0.50000000  0.70763741  0.93328882  1
  In  In16  1  0.50000000  0.20763741  0.56671118  1
  In  In17  1  0.50000000  0.79236259  0.43328882  1
  Pt  Pt18  1  0.50000000  0.02437675  0.30315324  1
  Pt  Pt19  1  0.50000000  0.97562325  0.69684676  1
  Pt  Pt20  1  0.50000000  0.47562325  0.80315324  1
  Pt  Pt21  1  0.50000000  0.52437675  0.19684676  1
