# generated using pymatgen
data_K2CrF5
_symmetry_space_group_name_H-M   'P 1'
_cell_length_a   7.48359696
_cell_length_b   13.05096207
_cell_length_c   20.61458629
_cell_angle_alpha   90.00000000
_cell_angle_beta   90.00000000
_cell_angle_gamma   90.00000000
_symmetry_Int_Tables_number   1
_chemical_formula_structural   K2CrF5
_chemical_formula_sum   'K32 Cr16 F80'
_cell_volume   2013.38830130
_cell_formula_units_Z   16
loop_
 _symmetry_equiv_pos_site_id
 _symmetry_equiv_pos_as_xyz
  1  'x, y, z'
loop_
 _atom_site_type_symbol
 _atom_site_label
 _atom_site_symmetry_multiplicity
 _atom_site_fract_x
 _atom_site_fract_y
 _atom_site_fract_z
 _atom_site_occupancy
  K  K0  1  -0.00000000  0.57366022  0.25000000  1
  K  K1  1  -0.00000000  0.42633978  0.75000000  1
  K  K2  1  0.50000000  0.92633978  0.75000000  1
  K  K3  1  0.50000000  0.07366022  0.25000000  1
  K  K4  1  -0.00000000  0.03730265  0.25000000  1
  K  K5  1  -0.00000000  0.96269735  0.75000000  1
  K  K6  1  0.50000000  0.46269735  0.75000000  1
  K  K7  1  0.50000000  0.53730265  0.25000000  1
  K  K8  1  0.14629632  0.28817243  0.16326958  1
  K  K9  1  0.85370368  0.71182757  0.83673042  1
  K  K10  1  0.35370368  0.21182757  0.66326958  1
  K  K11  1  0.85370368  0.28817243  0.33673042  1
  K  K12  1  0.64629632  0.78817243  0.33673042  1
  K  K13  1  0.14629632  0.71182757  0.66326958  1
  K  K14  1  0.64629632  0.21182757  0.83673042  1
  K  K15  1  0.35370368  0.78817243  0.16326958  1
  K  K16  1  0.51145038  0.26827953  0.00661225  1
  K  K17  1  0.48854962  0.73172047  0.99338775  1
  K  K18  1  0.98854962  0.23172047  0.50661225  1
  K  K19  1  0.48854962  0.26827953  0.49338775  1
  K  K20  1  0.01145038  0.76827953  0.49338775  1
  K  K21  1  0.51145038  0.73172047  0.50661225  1
  K  K22  1  0.01145038  0.23172047  0.99338775  1
  K  K23  1  0.98854962  0.76827953  0.00661225  1
  K  K24  1  0.34178246  0.02140088  0.41626173  1
  K  K25  1  0.65821754  0.97859912  0.58373827  1
  K  K26  1  0.15821754  0.47859912  0.91626173  1
  K  K27  1  0.65821754  0.02140088  0.08373827  1
  K  K28  1  0.84178246  0.52140088  0.08373827  1
  K  K29  1  0.34178246  0.97859912  0.91626173  1
  K  K30  1  0.84178246  0.47859912  0.58373827  1
  K  K31  1  0.15821754  0.52140088  0.41626173  1
  Cr  Cr32  1  0.16545280  0.00034181  0.07757839  1
  Cr  Cr33  1  0.83454720  0.99965819  0.92242161  1
  Cr  Cr34  1  0.33454720  0.49965819  0.57757839  1
  Cr  Cr35  1  0.83454720  0.00034181  0.42242161  1
  Cr  Cr36  1  0.66545280  0.50034181  0.42242161  1
  Cr  Cr37  1  0.16545280  0.99965819  0.57757839  1
  Cr  Cr38  1  0.66545280  0.49965819  0.92242161  1
  Cr  Cr39  1  0.33454720  0.50034181  0.07757839  1
  Cr  Cr40  1  0.34018330  0.30418976  0.32827774  1
  Cr  Cr41  1  0.65981670  0.69581024  0.67172226  1
  Cr  Cr42  1  0.15981670  0.19581024  0.82827774  1
  Cr  Cr43  1  0.65981670  0.30418976  0.17172226  1
  Cr  Cr44  1  0.84018330  0.80418976  0.17172226  1
  Cr  Cr45  1  0.34018330  0.69581024  0.82827774  1
  Cr  Cr46  1  0.84018330  0.19581024  0.67172226  1
  Cr  Cr47  1  0.15981670  0.80418976  0.32827774  1
  F  F48  1  0.21933041  0.37935186  0.03978667  1
  F  F49  1  0.78066959  0.62064814  0.96021333  1
  F  F50  1  0.28066959  0.12064814  0.53978667  1
  F  F51  1  0.78066959  0.37935186  0.46021333  1
  F  F52  1  0.71933041  0.87935186  0.46021333  1
  F  F53  1  0.21933041  0.62064814  0.53978667  1
  F  F54  1  0.71933041  0.12064814  0.96021333  1
  F  F55  1  0.28066959  0.87935186  0.03978667  1
  F  F56  1  0.20407587  0.42042326  0.29639304  1
  F  F57  1  0.79592413  0.57957674  0.70360696  1
  F  F58  1  0.29592413  0.07957674  0.79639304  1
  F  F59  1  0.79592413  0.42042326  0.20360696  1
  F  F60  1  0.70407587  0.92042326  0.20360696  1
  F  F61  1  0.20407587  0.57957674  0.79639304  1
  F  F62  1  0.70407587  0.07957674  0.70360696  1
  F  F63  1  0.29592413  0.92042326  0.29639304  1
  F  F64  1  0.50659587  0.19750678  0.14006388  1
  F  F65  1  0.49340413  0.80249322  0.85993612  1
  F  F66  1  0.99340413  0.30249322  0.64006388  1
  F  F67  1  0.49340413  0.19750678  0.35993612  1
  F  F68  1  0.00659587  0.69750678  0.35993612  1
  F  F69  1  0.50659587  0.80249322  0.64006388  1
  F  F70  1  0.00659587  0.30249322  0.85993612  1
  F  F71  1  0.99340413  0.69750678  0.14006388  1
  F  F72  1  0.18187042  0.49283196  0.15150774  1
  F  F73  1  0.81812958  0.50716804  0.84849226  1
  F  F74  1  0.31812958  0.00716804  0.65150774  1
  F  F75  1  0.81812958  0.49283196  0.34849226  1
  F  F76  1  0.68187042  0.99283196  0.34849226  1
  F  F77  1  0.18187042  0.50716804  0.65150774  1
  F  F78  1  0.68187042  0.00716804  0.84849226  1
  F  F79  1  0.31812958  0.99283196  0.15150774  1
  F  F80  1  -0.00000000  -0.00000000  0.00000000  1
  F  F81  1  0.50000000  0.50000000  0.50000000  1
  F  F82  1  -0.00000000  -0.00000000  0.50000000  1
  F  F83  1  0.50000000  0.50000000  0.00000000  1
  F  F84  1  -0.00000000  0.82193787  0.25000000  1
  F  F85  1  -0.00000000  0.17806213  0.75000000  1
  F  F86  1  0.50000000  0.67806213  0.75000000  1
  F  F87  1  0.50000000  0.32193787  0.25000000  1
  F  F88  1  0.19075587  0.29833935  0.40350433  1
  F  F89  1  0.80924413  0.70166065  0.59649567  1
  F  F90  1  0.30924413  0.20166065  0.90350433  1
  F  F91  1  0.80924413  0.29833935  0.09649567  1
  F  F92  1  0.69075587  0.79833935  0.09649567  1
  F  F93  1  0.19075587  0.70166065  0.90350433  1
  F  F94  1  0.69075587  0.20166065  0.59649567  1
  F  F95  1  0.30924413  0.79833935  0.40350433  1
  F  F96  1  0.02835271  0.11108235  0.11246424  1
  F  F97  1  0.97164729  0.88891765  0.88753576  1
  F  F98  1  0.47164729  0.38891765  0.61246424  1
  F  F99  1  0.97164729  0.11108235  0.38753576  1
  F  F100  1  0.52835271  0.61108235  0.38753576  1
  F  F101  1  0.02835271  0.88891765  0.61246424  1
  F  F102  1  0.52835271  0.38891765  0.88753576  1
  F  F103  1  0.47164729  0.61108235  0.11246424  1
  F  F104  1  0.20199869  0.20606311  0.27931970  1
  F  F105  1  0.79800131  0.79393689  0.72068030  1
  F  F106  1  0.29800131  0.29393689  0.77931970  1
  F  F107  1  0.79800131  0.20606311  0.22068030  1
  F  F108  1  0.70199869  0.70606311  0.22068030  1
  F  F109  1  0.20199869  0.79393689  0.77931970  1
  F  F110  1  0.70199869  0.29393689  0.72068030  1
  F  F111  1  0.29800131  0.70606311  0.27931970  1
  F  F112  1  0.50498530  0.40475068  0.12328463  1
  F  F113  1  0.49501470  0.59524932  0.87671537  1
  F  F114  1  0.99501470  0.09524932  0.62328463  1
  F  F115  1  0.49501470  0.40475068  0.37671537  1
  F  F116  1  0.00498530  0.90475068  0.37671537  1
  F  F117  1  0.50498530  0.59524932  0.62328463  1
  F  F118  1  0.00498530  0.09524932  0.87671537  1
  F  F119  1  0.99501470  0.90475068  0.12328463  1
  F  F120  1  0.32093663  0.08940040  0.03025666  1
  F  F121  1  0.67906337  0.91059960  0.96974334  1
  F  F122  1  0.17906337  0.41059960  0.53025666  1
  F  F123  1  0.67906337  0.08940040  0.46974334  1
  F  F124  1  0.82093663  0.58940040  0.46974334  1
  F  F125  1  0.32093663  0.91059960  0.53025666  1
  F  F126  1  0.82093663  0.41059960  0.96974334  1
  F  F127  1  0.17906337  0.58940040  0.03025666  1
