# generated using pymatgen
data_Hf6Al16Ir7
_symmetry_space_group_name_H-M   'P 1'
_cell_length_a   8.71458601
_cell_length_b   8.71458601
_cell_length_c   8.71458601
_cell_angle_alpha   60.00000000
_cell_angle_beta   60.00000000
_cell_angle_gamma   60.00000000
_symmetry_Int_Tables_number   1
_chemical_formula_structural   Hf6Al16Ir7
_chemical_formula_sum   'Hf6 Al16 Ir7'
_cell_volume   467.97783438
_cell_formula_units_Z   1
loop_
 _symmetry_equiv_pos_site_id
 _symmetry_equiv_pos_as_xyz
  1  'x, y, z'
loop_
 _atom_site_type_symbol
 _atom_site_label
 _atom_site_symmetry_multiplicity
 _atom_site_fract_x
 _atom_site_fract_y
 _atom_site_fract_z
 _atom_site_occupancy
  Hf  Hf0  1  0.68602746  0.68602746  0.31397254  1
  Hf  Hf1  1  0.31397254  0.31397254  0.68602746  1
  Hf  Hf2  1  0.68602746  0.31397254  0.68602746  1
  Hf  Hf3  1  0.31397254  0.68602746  0.31397254  1
  Hf  Hf4  1  0.31397254  0.68602746  0.68602746  1
  Hf  Hf5  1  0.68602746  0.31397254  0.31397254  1
  Al  Al6  1  0.66249710  0.66249710  0.66249710  1
  Al  Al7  1  0.33750290  0.33750290  0.33750290  1
  Al  Al8  1  0.01250871  0.66249710  0.66249710  1
  Al  Al9  1  0.66249710  0.01250871  0.66249710  1
  Al  Al10  1  0.98749129  0.33750290  0.33750290  1
  Al  Al11  1  0.33750290  0.98749129  0.33750290  1
  Al  Al12  1  0.66249710  0.66249710  0.01250871  1
  Al  Al13  1  0.33750290  0.33750290  0.98749129  1
  Al  Al14  1  0.88038697  0.88038697  0.88038697  1
  Al  Al15  1  0.11961303  0.11961303  0.11961303  1
  Al  Al16  1  0.35883909  0.88038697  0.88038697  1
  Al  Al17  1  0.88038697  0.35883909  0.88038697  1
  Al  Al18  1  0.64116091  0.11961303  0.11961303  1
  Al  Al19  1  0.11961303  0.64116091  0.11961303  1
  Al  Al20  1  0.88038697  0.88038697  0.35883909  1
  Al  Al21  1  0.11961303  0.11961303  0.64116091  1
  Ir  Ir22  1  0.00000000  -0.00000000  0.50000000  1
  Ir  Ir23  1  0.50000000  0.50000000  -0.00000000  1
  Ir  Ir24  1  0.00000000  0.50000000  -0.00000000  1
  Ir  Ir25  1  0.50000000  0.00000000  0.50000000  1
  Ir  Ir26  1  0.50000000  -0.00000000  -0.00000000  1
  Ir  Ir27  1  0.00000000  0.50000000  0.50000000  1
  Ir  Ir28  1  0.00000000  -0.00000000  -0.00000000  1
