# generated using pymatgen
data_Li9Mn2Co5O16
_symmetry_space_group_name_H-M   'P 1'
_cell_length_a   5.03958939
_cell_length_b   7.91043400
_cell_length_c   7.69547395
_cell_angle_alpha   81.63205822
_cell_angle_beta   104.45832235
_cell_angle_gamma   80.35647245
_symmetry_Int_Tables_number   1
_chemical_formula_structural   Li9Mn2Co5O16
_chemical_formula_sum   'Li9 Mn2 Co5 O16'
_cell_volume   287.17340583
_cell_formula_units_Z   1
loop_
 _symmetry_equiv_pos_site_id
 _symmetry_equiv_pos_as_xyz
  1  'x, y, z'
loop_
 _atom_site_type_symbol
 _atom_site_label
 _atom_site_symmetry_multiplicity
 _atom_site_fract_x
 _atom_site_fract_y
 _atom_site_fract_z
 _atom_site_occupancy
  Li  Li0  1  0.49531269  0.25463119  0.74554782  1
  Li  Li1  1  0.01289249  0.86745069  0.38178794  1
  Li  Li2  1  0.49770788  0.50120614  0.99294402  1
  Li  Li3  1  0.98405057  0.38295974  0.86999626  1
  Li  Li4  1  0.50062440  0.99458493  0.49948280  1
  Li  Li5  1  0.99736797  0.62227429  0.12778442  1
  Li  Li6  1  0.00026823  0.12576620  0.61907850  1
  Li  Li7  1  0.50735010  0.74821857  0.26317739  1
  Li  Li8  1  0.49721622  0.62761522  0.62270756  1
  Mn  Mn9  1  0.00049737  0.00003993  0.00194092  1
  Mn  Mn10  1  0.50228832  0.87003493  0.87081022  1
  Co  Co11  1  0.00037954  0.25179348  0.24985458  1
  Co  Co12  1  0.00565813  0.50330370  0.50475669  1
  Co  Co13  1  0.50493758  0.12795091  0.13030028  1
  Co  Co14  1  0.99407882  0.74931607  0.74359057  1
  Co  Co15  1  0.49651328  0.38355212  0.38300722  1
  O  O16  1  0.73714003  0.00108667  0.76660816  1
  O  O17  1  0.23939217  0.60590093  0.38171982  1
  O  O18  1  0.75542988  0.25622871  0.01366582  1
  O  O19  1  0.27001769  0.09794417  0.88789535  1
  O  O20  1  0.77109009  0.74887158  0.51601308  1
  O  O21  1  0.25326547  0.35969424  0.13765977  1
  O  O22  1  0.24761439  0.86913525  0.64359366  1
  O  O23  1  0.75979426  0.50485095  0.27400330  1
  O  O24  1  0.22789484  0.48884984  0.72899812  1
  O  O25  1  0.75023929  0.13751344  0.35938665  1
  O  O26  1  0.25926206  0.74836534  0.97687894  1
  O  O27  1  0.74532965  0.65566219  0.86839910  1
  O  O28  1  0.23628384  0.25308915  0.48234893  1
  O  O29  1  0.74519081  0.88651544  0.10928403  1
  O  O30  1  0.75271430  0.37794740  0.60818150  1
  O  O31  1  0.25219762  0.99764757  0.23859359  1
