# generated using pymatgen
data_Hf3Ti2Ga3
_symmetry_space_group_name_H-M   'P 1'
_cell_length_a   5.46143241
_cell_length_b   7.88906255
_cell_length_c   7.88906255
_cell_angle_alpha   120.00000195
_cell_angle_beta   90.00000000
_cell_angle_gamma   90.00000000
_symmetry_Int_Tables_number   1
_chemical_formula_structural   Hf3Ti2Ga3
_chemical_formula_sum   'Hf6 Ti4 Ga6'
_cell_volume   294.36622989
_cell_formula_units_Z   2
loop_
 _symmetry_equiv_pos_site_id
 _symmetry_equiv_pos_as_xyz
  1  'x, y, z'
loop_
 _atom_site_type_symbol
 _atom_site_label
 _atom_site_symmetry_multiplicity
 _atom_site_fract_x
 _atom_site_fract_y
 _atom_site_fract_z
 _atom_site_occupancy
  Hf  Hf0  1  0.75000000  0.75772679  0.75772679  1
  Hf  Hf1  1  0.25000000  0.24227321  0.24227321  1
  Hf  Hf2  1  0.75000000  0.00000000  0.24227321  1
  Hf  Hf3  1  0.25000000  1.00000000  0.75772679  1
  Hf  Hf4  1  0.75000000  0.24227321  0.00000000  1
  Hf  Hf5  1  0.25000000  0.75772679  1.00000000  1
  Ti  Ti6  1  -0.00000000  0.66666700  0.33333300  1
  Ti  Ti7  1  -0.00000000  0.33333300  0.66666700  1
  Ti  Ti8  1  0.50000000  0.33333300  0.66666700  1
  Ti  Ti9  1  0.50000000  0.66666700  0.33333300  1
  Ga  Ga10  1  0.75000000  0.39930466  0.39930466  1
  Ga  Ga11  1  0.25000000  0.60069534  0.60069534  1
  Ga  Ga12  1  0.75000000  1.00000000  0.60069534  1
  Ga  Ga13  1  0.25000000  0.00000000  0.39930466  1
  Ga  Ga14  1  0.75000000  0.60069534  1.00000000  1
  Ga  Ga15  1  0.25000000  0.39930466  0.00000000  1
