# generated using pymatgen
data_Ho4CdNi
_symmetry_space_group_name_H-M   'P 1'
_cell_length_a   9.50062862
_cell_length_b   9.50062862
_cell_length_c   9.50062862
_cell_angle_alpha   60.00000000
_cell_angle_beta   60.00000000
_cell_angle_gamma   60.00000000
_symmetry_Int_Tables_number   1
_chemical_formula_structural   Ho4CdNi
_chemical_formula_sum   'Ho16 Cd4 Ni4'
_cell_volume   606.37603251
_cell_formula_units_Z   4
loop_
 _symmetry_equiv_pos_site_id
 _symmetry_equiv_pos_as_xyz
  1  'x, y, z'
loop_
 _atom_site_type_symbol
 _atom_site_label
 _atom_site_symmetry_multiplicity
 _atom_site_fract_x
 _atom_site_fract_y
 _atom_site_fract_z
 _atom_site_occupancy
  Ho  Ho0  1  0.65081165  0.65081165  0.65081165  1
  Ho  Ho1  1  0.04756505  0.65081165  0.65081165  1
  Ho  Ho2  1  0.65081165  0.04756505  0.65081165  1
  Ho  Ho3  1  0.65081165  0.65081165  0.04756505  1
  Ho  Ho4  1  0.81087687  0.81087687  0.18912313  1
  Ho  Ho5  1  0.18912313  0.18912313  0.81087687  1
  Ho  Ho6  1  0.81087687  0.18912313  0.81087687  1
  Ho  Ho7  1  0.18912313  0.81087687  0.18912313  1
  Ho  Ho8  1  0.18912313  0.81087687  0.81087687  1
  Ho  Ho9  1  0.81087687  0.18912313  0.18912313  1
  Ho  Ho10  1  0.43674475  0.43674475  0.06325525  1
  Ho  Ho11  1  0.06325525  0.06325525  0.43674475  1
  Ho  Ho12  1  0.43674475  0.06325525  0.43674475  1
  Ho  Ho13  1  0.06325525  0.43674475  0.06325525  1
  Ho  Ho14  1  0.06325525  0.43674475  0.43674475  1
  Ho  Ho15  1  0.43674475  0.06325525  0.06325525  1
  Cd  Cd16  1  0.41832525  0.41832525  0.41832525  1
  Cd  Cd17  1  0.74502426  0.41832525  0.41832525  1
  Cd  Cd18  1  0.41832525  0.74502426  0.41832525  1
  Cd  Cd19  1  0.41832525  0.41832525  0.74502426  1
  Ni  Ni20  1  0.85749785  0.85749785  0.85749785  1
  Ni  Ni21  1  0.42750644  0.85749785  0.85749785  1
  Ni  Ni22  1  0.85749785  0.42750644  0.85749785  1
  Ni  Ni23  1  0.85749785  0.85749785  0.42750644  1
