# generated using pymatgen
data_DyZrF7
_symmetry_space_group_name_H-M   'P 1'
_cell_length_a   5.72633674
_cell_length_b   6.12361642
_cell_length_c   8.32249361
_cell_angle_alpha   102.08366683
_cell_angle_beta   90.00000000
_cell_angle_gamma   90.00000000
_symmetry_Int_Tables_number   1
_chemical_formula_structural   DyZrF7
_chemical_formula_sum   'Dy2 Zr2 F14'
_cell_volume   285.36942645
_cell_formula_units_Z   2
loop_
 _symmetry_equiv_pos_site_id
 _symmetry_equiv_pos_as_xyz
  1  'x, y, z'
loop_
 _atom_site_type_symbol
 _atom_site_label
 _atom_site_symmetry_multiplicity
 _atom_site_fract_x
 _atom_site_fract_y
 _atom_site_fract_z
 _atom_site_occupancy
  Dy  Dy0  1  0.69738823  0.65474186  0.68366091  1
  Dy  Dy1  1  0.19738823  0.34525814  0.31633909  1
  Zr  Zr2  1  0.70720983  0.81151564  0.22368816  1
  Zr  Zr3  1  0.20720983  0.18848436  0.77631184  1
  F  F4  1  0.89101899  0.45552388  0.47790105  1
  F  F5  1  0.39101899  0.54447612  0.52209895  1
  F  F6  1  0.42780382  0.92445375  0.76832905  1
  F  F7  1  0.92780382  0.07554625  0.23167095  1
  F  F8  1  0.94472874  0.95703020  0.75917980  1
  F  F9  1  0.44472874  0.04296980  0.24082020  1
  F  F10  1  0.99340691  0.45737885  0.78663073  1
  F  F11  1  0.49340691  0.54262115  0.21336927  1
  F  F12  1  0.70236078  0.75405623  0.97424239  1
  F  F13  1  0.20236078  0.24594377  0.02575761  1
  F  F14  1  0.70937477  0.85970106  0.47379379  1
  F  F15  1  0.20937477  0.14029894  0.52620621  1
  F  F16  1  0.50306794  0.37948909  0.78144116  1
  F  F17  1  0.00306794  0.62051091  0.21855884  1
