# generated using pymatgen
data_Ga3Te3Cl
_symmetry_space_group_name_H-M   'P 1'
_cell_length_a   4.17104314
_cell_length_b   11.07822434
_cell_length_c   19.96693811
_cell_angle_alpha   90.00000000
_cell_angle_beta   90.00000000
_cell_angle_gamma   90.00000000
_symmetry_Int_Tables_number   1
_chemical_formula_structural   Ga3Te3Cl
_chemical_formula_sum   'Ga12 Te12 Cl4'
_cell_volume   922.62731713
_cell_formula_units_Z   4
loop_
 _symmetry_equiv_pos_site_id
 _symmetry_equiv_pos_as_xyz
  1  'x, y, z'
loop_
 _atom_site_type_symbol
 _atom_site_label
 _atom_site_symmetry_multiplicity
 _atom_site_fract_x
 _atom_site_fract_y
 _atom_site_fract_z
 _atom_site_occupancy
  Ga  Ga0  1  0.75000000  0.83031971  0.50571922  1
  Ga  Ga1  1  0.25000000  0.16968029  0.49428078  1
  Ga  Ga2  1  0.25000000  0.66968029  0.00571922  1
  Ga  Ga3  1  0.75000000  0.33031971  0.99428078  1
  Ga  Ga4  1  0.75000000  0.94785841  0.40010456  1
  Ga  Ga5  1  0.25000000  0.05214159  0.59989544  1
  Ga  Ga6  1  0.25000000  0.55214159  0.90010456  1
  Ga  Ga7  1  0.75000000  0.44785841  0.09989544  1
  Ga  Ga8  1  0.75000000  0.84273306  0.86590863  1
  Ga  Ga9  1  0.25000000  0.15726694  0.13409137  1
  Ga  Ga10  1  0.25000000  0.65726694  0.36590863  1
  Ga  Ga11  1  0.75000000  0.34273306  0.63409137  1
  Te  Te12  1  0.75000000  0.76899435  0.30791552  1
  Te  Te13  1  0.25000000  0.23100565  0.69208448  1
  Te  Te14  1  0.25000000  0.73100565  0.80791552  1
  Te  Te15  1  0.75000000  0.26899435  0.19208448  1
  Te  Te16  1  0.75000000  0.82727318  0.99914510  1
  Te  Te17  1  0.25000000  0.17272682  0.00085490  1
  Te  Te18  1  0.25000000  0.67272682  0.49914510  1
  Te  Te19  1  0.75000000  0.32727318  0.50085490  1
  Te  Te20  1  0.75000000  0.90794183  0.63275067  1
  Te  Te21  1  0.25000000  0.09205817  0.36724933  1
  Te  Te22  1  0.25000000  0.59205817  0.13275067  1
  Te  Te23  1  0.75000000  0.40794183  0.86724933  1
  Cl  Cl24  1  0.75000000  0.53390419  0.66589720  1
  Cl  Cl25  1  0.25000000  0.46609581  0.33410280  1
  Cl  Cl26  1  0.25000000  0.96609581  0.16589720  1
  Cl  Cl27  1  0.75000000  0.03390419  0.83410280  1
