# generated using pymatgen
data_Dy5SbPt2
_symmetry_space_group_name_H-M   'P 1'
_cell_length_a   7.74212498
_cell_length_b   7.74212498
_cell_length_c   8.76145967
_cell_angle_alpha   116.22060426
_cell_angle_beta   116.22060426
_cell_angle_gamma   90.00000000
_symmetry_Int_Tables_number   1
_chemical_formula_structural   Dy5SbPt2
_chemical_formula_sum   'Dy10 Sb2 Pt4'
_cell_volume   410.02511271
_cell_formula_units_Z   2
loop_
 _symmetry_equiv_pos_site_id
 _symmetry_equiv_pos_as_xyz
  1  'x, y, z'
loop_
 _atom_site_type_symbol
 _atom_site_label
 _atom_site_symmetry_multiplicity
 _atom_site_fract_x
 _atom_site_fract_y
 _atom_site_fract_z
 _atom_site_occupancy
  Dy  Dy0  1  -0.00000000  -0.00000000  -0.00000000  1
  Dy  Dy1  1  0.50000000  0.50000000  -0.00000000  1
  Dy  Dy2  1  0.29633678  0.79633678  0.27681252  1
  Dy  Dy3  1  0.70366322  0.20366322  0.72318748  1
  Dy  Dy4  1  0.98047574  0.48047574  0.27681252  1
  Dy  Dy5  1  0.48047574  0.29633678  0.27681252  1
  Dy  Dy6  1  0.20366322  0.01952426  0.72318748  1
  Dy  Dy7  1  0.01952426  0.51952426  0.72318748  1
  Dy  Dy8  1  0.51952426  0.70366322  0.72318748  1
  Dy  Dy9  1  0.79633678  0.98047574  0.27681252  1
  Sb  Sb10  1  0.25000000  0.25000000  0.50000000  1
  Sb  Sb11  1  0.75000000  0.75000000  0.50000000  1
  Pt  Pt12  1  0.63768743  0.13768743  -0.00000000  1
  Pt  Pt13  1  0.36231257  0.86231257  -0.00000000  1
  Pt  Pt14  1  0.86231257  0.63768743  -0.00000000  1
  Pt  Pt15  1  0.13768743  0.36231257  -0.00000000  1
