# generated using pymatgen
data_Li9Mn2Co5O16
_symmetry_space_group_name_H-M   'P 1'
_cell_length_a   5.00191238
_cell_length_b   11.33778580
_cell_length_c   5.22455082
_cell_angle_alpha   96.55335351
_cell_angle_beta   78.07580779
_cell_angle_gamma   92.72981115
_symmetry_Int_Tables_number   1
_chemical_formula_structural   Li9Mn2Co5O16
_chemical_formula_sum   'Li9 Mn2 Co5 O16'
_cell_volume   287.91183245
_cell_formula_units_Z   1
loop_
 _symmetry_equiv_pos_site_id
 _symmetry_equiv_pos_as_xyz
  1  'x, y, z'
loop_
 _atom_site_type_symbol
 _atom_site_label
 _atom_site_symmetry_multiplicity
 _atom_site_fract_x
 _atom_site_fract_y
 _atom_site_fract_z
 _atom_site_occupancy
  Li  Li0  1  0.24864840  0.93827474  0.43351991  1
  Li  Li1  1  0.75336291  0.07170256  0.57681206  1
  Li  Li2  1  0.25382920  0.19546736  0.68983517  1
  Li  Li3  1  0.23818130  0.67489274  0.18314742  1
  Li  Li4  1  0.75413787  0.80773054  0.30893765  1
  Li  Li5  1  0.23297760  0.43323158  0.92606523  1
  Li  Li6  1  0.75103447  0.55866301  0.06785829  1
  Li  Li7  1  0.76288203  0.31847720  0.81336325  1
  Li  Li8  1  0.00284127  0.49946371  0.50007346  1
  Mn  Mn9  1  0.00202011  -0.00146962  -0.00126434  1
  Mn  Mn10  1  0.49837893  0.87003335  0.86762807  1
  Co  Co11  1  0.50475561  0.13179646  0.13443414  1
  Co  Co12  1  0.00174561  0.25480751  0.25603381  1
  Co  Co13  1  0.48673229  0.38362340  0.38951617  1
  Co  Co14  1  0.50736471  0.62285952  0.62229674  1
  Co  Co15  1  0.99700467  0.74257644  0.73280948  1
  O  O16  1  0.14026314  0.85315475  0.08315583  1
  O  O17  1  0.62589485  0.95792090  0.17294962  1
  O  O18  1  0.14016588  0.10427857  0.33082149  1
  O  O19  1  0.13802082  0.61073722  0.82944203  1
  O  O20  1  0.62454986  0.71909065  0.93290369  1
  O  O21  1  0.14927574  0.34729341  0.59013214  1
  O  O22  1  0.60306985  0.48330002  0.71162979  1
  O  O23  1  0.64683054  0.21815027  0.44448167  1
  O  O24  1  0.37073302  0.01843268  0.78594563  1
  O  O25  1  0.86126470  0.14193987  0.91112830  1
  O  O26  1  0.36160068  0.28221738  0.05606148  1
  O  O27  1  0.37295865  0.77829318  0.56860252  1
  O  O28  1  0.85948580  0.89028564  0.66128750  1
  O  O29  1  0.39820582  0.54263923  0.32248223  1
  O  O30  1  0.84669854  0.65584815  0.42621980  1
  O  O31  1  0.86508518  0.39428655  0.17168978  1
