# generated using pymatgen
data_EuAl3(BO3)4
_symmetry_space_group_name_H-M   'P 1'
_cell_length_a   5.96801087
_cell_length_b   5.96801087
_cell_length_c   16.44382312
_cell_angle_alpha   90.67620351
_cell_angle_beta   90.67620351
_cell_angle_gamma   104.12798317
_symmetry_Int_Tables_number   1
_chemical_formula_structural   EuAl3(BO3)4
_chemical_formula_sum   'Eu3 Al9 B12 O36'
_cell_volume   567.86233870
_cell_formula_units_Z   3
loop_
 _symmetry_equiv_pos_site_id
 _symmetry_equiv_pos_as_xyz
  1  'x, y, z'
loop_
 _atom_site_type_symbol
 _atom_site_label
 _atom_site_symmetry_multiplicity
 _atom_site_fract_x
 _atom_site_fract_y
 _atom_site_fract_z
 _atom_site_occupancy
  Eu  Eu0  1  0.45424398  0.20596590  0.33157846  1
  Eu  Eu1  1  0.79403410  0.54575602  0.66842154  1
  Eu  Eu2  1  0.55342635  0.44657365  -0.00000000  1
  Al  Al3  1  0.96724540  0.29009569  0.85256637  1
  Al  Al4  1  0.70990431  0.03275460  0.14743363  1
  Al  Al5  1  0.37522330  0.69593197  0.81440123  1
  Al  Al6  1  0.30406803  0.62477670  0.18559877  1
  Al  Al7  1  0.34482996  0.98845838  0.66570407  1
  Al  Al8  1  0.01154162  0.65517004  0.33429593  1
  Al  Al9  1  0.64258057  0.95150544  0.51887824  1
  Al  Al10  1  0.04849456  0.35741943  0.48112176  1
  Al  Al11  1  0.99902918  0.00097082  -0.00000000  1
  B  B12  1  0.56507356  0.43492644  0.50000000  1
  B  B13  1  0.86683189  0.06330753  0.68578814  1
  B  B14  1  0.93669247  0.13316811  0.31421186  1
  B  B15  1  0.47561498  0.92664297  0.98132551  1
  B  B16  1  0.07335703  0.52438502  0.01867449  1
  B  B17  1  0.27063183  0.46644059  0.64726756  1
  B  B18  1  0.53355941  0.72936817  0.35273244  1
  B  B19  1  0.89186994  0.77139695  0.83781817  1
  B  B20  1  0.22860305  0.10813006  0.16218183  1
  B  B21  1  0.12347351  0.87652649  0.50000000  1
  B  B22  1  0.45131024  0.21370875  0.82966411  1
  B  B23  1  0.78629125  0.54868976  0.17033589  1
  O  O24  1  0.02477644  0.93409343  0.67420990  1
  O  O25  1  0.06590657  0.97522356  0.32579010  1
  O  O26  1  0.71372268  0.28627732  0.50000000  1
  O  O27  1  0.94801425  0.97601818  0.88295861  1
  O  O28  1  0.02398182  0.05198575  0.11704139  1
  O  O29  1  0.30090515  0.36008541  0.83348313  1
  O  O30  1  0.63991459  0.69909485  0.16651687  1
  O  O31  1  0.44384969  0.75026651  0.92498249  1
  O  O32  1  0.24973349  0.55615031  0.07501751  1
  O  O33  1  0.66754412  0.01464212  0.63672004  1
  O  O34  1  0.98535788  0.33245588  0.36327996  1
  O  O35  1  0.68872139  0.70675528  0.79339135  1
  O  O36  1  0.29324472  0.31127861  0.20660865  1
  O  O37  1  0.39640956  0.01046074  0.78390130  1
  O  O38  1  0.98953926  0.60359044  0.21609870  1
  O  O39  1  0.65316154  0.27768091  0.87508971  1
  O  O40  1  0.72231909  0.34683846  0.12491029  1
  O  O41  1  0.76213190  0.10577530  0.25744519  1
  O  O42  1  0.89422470  0.23786810  0.74255481  1
  O  O43  1  0.56078495  0.90601405  0.40890823  1
  O  O44  1  0.09398595  0.43921505  0.59109177  1
  O  O45  1  0.32164066  0.92689847  0.54925161  1
  O  O46  1  0.07310153  0.67835934  0.45074839  1
  O  O47  1  0.31988631  0.05835036  0.99380046  1
  O  O48  1  0.94164964  0.68011369  0.00619954  1
  O  O49  1  0.04216503  0.62524588  0.83262450  1
  O  O50  1  0.37475412  0.95783497  0.16737550  1
  O  O51  1  0.31577547  0.66501078  0.69685422  1
  O  O52  1  0.33498922  0.68422453  0.30314578  1
  O  O53  1  0.40243856  0.31012859  0.65856502  1
  O  O54  1  0.68987141  0.59756144  0.34143498  1
  O  O55  1  0.97525012  0.02474988  0.50000000  1
  O  O56  1  0.63524103  0.64261337  0.54104584  1
  O  O57  1  0.35738663  0.36475897  0.45895416  1
  O  O58  1  0.02686045  0.32367043  0.97009117  1
  O  O59  1  0.67632957  0.97313955  0.02990883  1
