# generated using pymatgen
data_GaClO
_symmetry_space_group_name_H-M   'P 1'
_cell_length_a   5.13710826
_cell_length_b   5.76935627
_cell_length_c   8.38214762
_cell_angle_alpha   90.00000000
_cell_angle_beta   90.00000000
_cell_angle_gamma   90.00000000
_symmetry_Int_Tables_number   1
_chemical_formula_structural   GaClO
_chemical_formula_sum   'Ga4 Cl4 O4'
_cell_volume   248.42847969
_cell_formula_units_Z   4
loop_
 _symmetry_equiv_pos_site_id
 _symmetry_equiv_pos_as_xyz
  1  'x, y, z'
loop_
 _atom_site_type_symbol
 _atom_site_label
 _atom_site_symmetry_multiplicity
 _atom_site_fract_x
 _atom_site_fract_y
 _atom_site_fract_z
 _atom_site_occupancy
  Ga  Ga0  1  0.98769757  0.08573627  0.10445290  1
  Ga  Ga1  1  0.48769757  0.91426373  0.89554710  1
  Ga  Ga2  1  0.98769757  0.58573627  0.89554710  1
  Ga  Ga3  1  0.48769757  0.41426373  0.10445290  1
  Cl  Cl4  1  0.10532202  0.99448317  0.33871103  1
  Cl  Cl5  1  0.60532202  0.00551683  0.66128897  1
  Cl  Cl6  1  0.10532202  0.49448317  0.66128897  1
  Cl  Cl7  1  0.60532202  0.50551683  0.33871103  1
  O  O8  1  0.13598042  0.37801253  0.04794377  1
  O  O9  1  0.63598042  0.62198747  0.95205623  1
  O  O10  1  0.13598042  0.87801253  0.95205623  1
  O  O11  1  0.63598042  0.12198747  0.04794377  1
