# generated using pymatgen
data_K2EuCl5
_symmetry_space_group_name_H-M   'P 1'
_cell_length_a   8.07723359
_cell_length_b   8.87702619
_cell_length_c   13.15602175
_cell_angle_alpha   90.00000000
_cell_angle_beta   90.00000000
_cell_angle_gamma   90.00000000
_symmetry_Int_Tables_number   1
_chemical_formula_structural   K2EuCl5
_chemical_formula_sum   'K8 Eu4 Cl20'
_cell_volume   943.31062609
_cell_formula_units_Z   4
loop_
 _symmetry_equiv_pos_site_id
 _symmetry_equiv_pos_as_xyz
  1  'x, y, z'
loop_
 _atom_site_type_symbol
 _atom_site_label
 _atom_site_symmetry_multiplicity
 _atom_site_fract_x
 _atom_site_fract_y
 _atom_site_fract_z
 _atom_site_occupancy
  K  K0  1  0.97253992  0.99949618  0.67573336  1
  K  K1  1  0.02746008  0.00050382  0.32426664  1
  K  K2  1  0.47253992  0.00050382  0.82426664  1
  K  K3  1  0.02746008  0.49949618  0.32426664  1
  K  K4  1  0.52746008  0.99949618  0.17573336  1
  K  K5  1  0.97253992  0.50050382  0.67573336  1
  K  K6  1  0.52746008  0.50050382  0.17573336  1
  K  K7  1  0.47253992  0.49949618  0.82426664  1
  Eu  Eu8  1  0.93616134  0.75000000  0.99723186  1
  Eu  Eu9  1  0.06383866  0.25000000  0.00276814  1
  Eu  Eu10  1  0.43616134  0.25000000  0.50276814  1
  Eu  Eu11  1  0.56383866  0.75000000  0.49723186  1
  Cl  Cl12  1  0.68149978  0.75000000  0.69971007  1
  Cl  Cl13  1  0.31850022  0.25000000  0.30028993  1
  Cl  Cl14  1  0.18149978  0.25000000  0.80028993  1
  Cl  Cl15  1  0.81850022  0.75000000  0.19971007  1
  Cl  Cl16  1  0.14754436  0.75000000  0.82876610  1
  Cl  Cl17  1  0.85245564  0.25000000  0.17123390  1
  Cl  Cl18  1  0.64754436  0.25000000  0.67123390  1
  Cl  Cl19  1  0.35245564  0.75000000  0.32876610  1
  Cl  Cl20  1  0.57766070  0.75000000  0.99245069  1
  Cl  Cl21  1  0.42233930  0.25000000  0.00754931  1
  Cl  Cl22  1  0.07766070  0.25000000  0.50754931  1
  Cl  Cl23  1  0.92233930  0.75000000  0.49245069  1
  Cl  Cl24  1  0.84715565  0.46451302  0.91398024  1
  Cl  Cl25  1  0.15284435  0.53548698  0.08601976  1
  Cl  Cl26  1  0.34715565  0.53548698  0.58601976  1
  Cl  Cl27  1  0.15284435  0.96451302  0.08601976  1
  Cl  Cl28  1  0.65284435  0.46451302  0.41398024  1
  Cl  Cl29  1  0.84715565  0.03548698  0.91398024  1
  Cl  Cl30  1  0.65284435  0.03548698  0.41398024  1
  Cl  Cl31  1  0.34715565  0.96451302  0.58601976  1
