# generated using pymatgen
data_ErZrF7
_symmetry_space_group_name_H-M   'P 1'
_cell_length_a   5.70129078
_cell_length_b   6.08592119
_cell_length_c   8.27106946
_cell_angle_alpha   102.35465701
_cell_angle_beta   90.00000000
_cell_angle_gamma   90.00000000
_symmetry_Int_Tables_number   1
_chemical_formula_structural   ErZrF7
_chemical_formula_sum   'Er2 Zr2 F14'
_cell_volume   280.34025798
_cell_formula_units_Z   2
loop_
 _symmetry_equiv_pos_site_id
 _symmetry_equiv_pos_as_xyz
  1  'x, y, z'
loop_
 _atom_site_type_symbol
 _atom_site_label
 _atom_site_symmetry_multiplicity
 _atom_site_fract_x
 _atom_site_fract_y
 _atom_site_fract_z
 _atom_site_occupancy
  Er  Er0  1  0.69815723  0.65404465  0.68304330  1
  Er  Er1  1  0.19815723  0.34595535  0.31695670  1
  Zr  Zr2  1  0.70789858  0.81162638  0.22392826  1
  Zr  Zr3  1  0.20789858  0.18837362  0.77607174  1
  F  F4  1  0.89021790  0.45372296  0.47752221  1
  F  F5  1  0.39021790  0.54627704  0.52247779  1
  F  F6  1  0.42788302  0.92083338  0.76589232  1
  F  F7  1  0.92788302  0.07916662  0.23410768  1
  F  F8  1  0.94194616  0.95742018  0.76030674  1
  F  F9  1  0.44194616  0.04257982  0.23969326  1
  F  F10  1  0.99250974  0.45849739  0.78667437  1
  F  F11  1  0.49250974  0.54150261  0.21332563  1
  F  F12  1  0.70247378  0.75453099  0.97321712  1
  F  F13  1  0.20247378  0.24546901  0.02678288  1
  F  F14  1  0.70988466  0.86026494  0.47592917  1
  F  F15  1  0.20988466  0.13973506  0.52407083  1
  F  F16  1  0.50538892  0.38103466  0.78045637  1
  F  F17  1  0.00538892  0.61896534  0.21954363  1
