# generated using pymatgen
data_Dy2OsC2
_symmetry_space_group_name_H-M   'P 1'
_cell_length_a   5.13271064
_cell_length_b   6.44144930
_cell_length_c   9.81629151
_cell_angle_alpha   90.00000000
_cell_angle_beta   90.00000000
_cell_angle_gamma   90.00000000
_symmetry_Int_Tables_number   1
_chemical_formula_structural   Dy2OsC2
_chemical_formula_sum   'Dy8 Os4 C8'
_cell_volume   324.54716598
_cell_formula_units_Z   4
loop_
 _symmetry_equiv_pos_site_id
 _symmetry_equiv_pos_as_xyz
  1  'x, y, z'
loop_
 _atom_site_type_symbol
 _atom_site_label
 _atom_site_symmetry_multiplicity
 _atom_site_fract_x
 _atom_site_fract_y
 _atom_site_fract_z
 _atom_site_occupancy
  Dy  Dy0  1  0.75000000  0.81346518  0.94789714  1
  Dy  Dy1  1  0.25000000  0.18653482  0.05210286  1
  Dy  Dy2  1  0.25000000  0.68653482  0.44789714  1
  Dy  Dy3  1  0.75000000  0.31346518  0.55210286  1
  Dy  Dy4  1  0.75000000  0.97748436  0.27843635  1
  Dy  Dy5  1  0.25000000  0.02251564  0.72156365  1
  Dy  Dy6  1  0.25000000  0.52251564  0.77843635  1
  Dy  Dy7  1  0.75000000  0.47748436  0.22156365  1
  Os  Os8  1  0.75000000  0.77221146  0.63556206  1
  Os  Os9  1  0.25000000  0.22778854  0.36443794  1
  Os  Os10  1  0.25000000  0.72778854  0.13556206  1
  Os  Os11  1  0.75000000  0.27221146  0.86443794  1
  C  C12  1  0.75000000  0.03496915  0.74246191  1
  C  C13  1  0.25000000  0.96503085  0.25753809  1
  C  C14  1  0.25000000  0.46503085  0.24246191  1
  C  C15  1  0.75000000  0.53496915  0.75753809  1
  C  C16  1  0.75000000  0.67754724  0.44763516  1
  C  C17  1  0.25000000  0.32245276  0.55236484  1
  C  C18  1  0.25000000  0.82245276  0.94763516  1
  C  C19  1  0.75000000  0.17754724  0.05236484  1
