# generated using pymatgen
data_Eu(PO3)3
_symmetry_space_group_name_H-M   'P 1'
_cell_length_a   7.15477607
_cell_length_b   7.15477607
_cell_length_c   7.42806389
_cell_angle_alpha   90.00000000
_cell_angle_beta   90.00000000
_cell_angle_gamma   105.33562823
_symmetry_Int_Tables_number   1
_chemical_formula_structural   Eu(PO3)3
_chemical_formula_sum   'Eu2 P6 O18'
_cell_volume   366.70922696
_cell_formula_units_Z   2
loop_
 _symmetry_equiv_pos_site_id
 _symmetry_equiv_pos_as_xyz
  1  'x, y, z'
loop_
 _atom_site_type_symbol
 _atom_site_label
 _atom_site_symmetry_multiplicity
 _atom_site_fract_x
 _atom_site_fract_y
 _atom_site_fract_z
 _atom_site_occupancy
  Eu  Eu0  1  0.37363604  0.37363604  0.00000000  1
  Eu  Eu1  1  0.62636396  0.62636396  0.50000000  1
  P  P2  1  0.81791798  0.16633849  0.54680411  1
  P  P3  1  0.18208202  0.83366151  0.04680411  1
  P  P4  1  0.83366151  0.18208202  0.95319589  1
  P  P5  1  0.16633849  0.81791798  0.45319589  1
  P  P6  1  0.74871894  0.74871894  -0.00000000  1
  P  P7  1  0.25128106  0.25128106  0.50000000  1
  O  O8  1  0.63478119  0.67019314  0.83250727  1
  O  O9  1  0.36521881  0.32980686  0.33250727  1
  O  O10  1  0.32980686  0.36521881  0.66749273  1
  O  O11  1  0.67019314  0.63478119  0.16749273  1
  O  O12  1  0.87367150  0.12632850  0.75000000  1
  O  O13  1  0.12632850  0.87367150  0.25000000  1
  O  O14  1  0.67626814  0.28343162  0.96201557  1
  O  O15  1  0.32373186  0.71656838  0.46201557  1
  O  O16  1  0.71656838  0.32373186  0.53798443  1
  O  O17  1  0.28343162  0.67626814  0.03798443  1
  O  O18  1  0.24609943  0.03034120  0.54162960  1
  O  O19  1  0.75390057  0.96965880  0.04162960  1
  O  O20  1  0.96965880  0.75390057  0.95837040  1
  O  O21  1  0.03034120  0.24609943  0.45837040  1
  O  O22  1  0.27794869  0.02626864  0.96308308  1
  O  O23  1  0.72205131  0.97373136  0.46308308  1
  O  O24  1  0.97373136  0.72205131  0.53691692  1
  O  O25  1  0.02626864  0.27794869  0.03691692  1
