# generated using pymatgen
data_Eu3TaO7
_symmetry_space_group_name_H-M   'P 1'
_cell_length_a   6.61622921
_cell_length_b   6.61622921
_cell_length_c   7.71782008
_cell_angle_alpha   90.00000000
_cell_angle_beta   90.00000000
_cell_angle_gamma   110.09687259
_symmetry_Int_Tables_number   1
_chemical_formula_structural   Eu3TaO7
_chemical_formula_sum   'Eu6 Ta2 O14'
_cell_volume   317.27334751
_cell_formula_units_Z   2
loop_
 _symmetry_equiv_pos_site_id
 _symmetry_equiv_pos_as_xyz
  1  'x, y, z'
loop_
 _atom_site_type_symbol
 _atom_site_label
 _atom_site_symmetry_multiplicity
 _atom_site_fract_x
 _atom_site_fract_y
 _atom_site_fract_z
 _atom_site_occupancy
  Eu  Eu0  1  0.53038992  0.99727558  0.75169711  1
  Eu  Eu1  1  0.46961008  0.00272442  0.25169711  1
  Eu  Eu2  1  0.00272442  0.46961008  0.74830289  1
  Eu  Eu3  1  0.99727558  0.53038992  0.24830289  1
  Eu  Eu4  1  0.49176143  0.49176143  -0.00000000  1
  Eu  Eu5  1  0.50823857  0.50823857  0.50000000  1
  Ta  Ta6  1  0.00001178  0.00001178  -0.00000000  1
  Ta  Ta7  1  0.99998822  0.99998822  0.50000000  1
  O  O8  1  0.63792877  0.36207123  0.75000000  1
  O  O9  1  0.36207123  0.63792877  0.25000000  1
  O  O10  1  0.94533240  0.05466760  0.75000000  1
  O  O11  1  0.05466760  0.94533240  0.25000000  1
  O  O12  1  0.32149669  0.07682889  0.97326479  1
  O  O13  1  0.67850331  0.92317111  0.47326479  1
  O  O14  1  0.92317111  0.67850331  0.52673521  1
  O  O15  1  0.07682889  0.32149669  0.02673521  1
  O  O16  1  0.37215921  0.62784079  0.75000000  1
  O  O17  1  0.62784079  0.37215921  0.25000000  1
  O  O18  1  0.31304955  0.06394554  0.53263961  1
  O  O19  1  0.68695045  0.93605446  0.03263961  1
  O  O20  1  0.93605446  0.68695045  0.96736039  1
  O  O21  1  0.06394554  0.31304955  0.46736039  1
