# generated using pymatgen
data_Eu3Al2O7
_symmetry_space_group_name_H-M   'P 1'
_cell_length_a   3.75491905
_cell_length_b   3.75491905
_cell_length_c   10.25582296
_cell_angle_alpha   100.54820632
_cell_angle_beta   100.54820632
_cell_angle_gamma   90.00000000
_symmetry_Int_Tables_number   1
_chemical_formula_structural   Eu3Al2O7
_chemical_formula_sum   'Eu3 Al2 O7'
_cell_volume   139.67121974
_cell_formula_units_Z   1
loop_
 _symmetry_equiv_pos_site_id
 _symmetry_equiv_pos_as_xyz
  1  'x, y, z'
loop_
 _atom_site_type_symbol
 _atom_site_label
 _atom_site_symmetry_multiplicity
 _atom_site_fract_x
 _atom_site_fract_y
 _atom_site_fract_z
 _atom_site_occupancy
  Eu  Eu0  1  0.31764273  0.31764273  0.63528545  1
  Eu  Eu1  1  0.68235727  0.68235727  0.36471455  1
  Eu  Eu2  1  0.50000000  0.50000000  -0.00000000  1
  Al  Al3  1  0.09557092  0.09557092  0.19114183  1
  Al  Al4  1  0.90442908  0.90442908  0.80885817  1
  O  O5  1  0.09721561  0.59721561  0.19443121  1
  O  O6  1  0.90278439  0.40278439  0.80556879  1
  O  O7  1  0.59721561  0.09721561  0.19443121  1
  O  O8  1  0.40278439  0.90278439  0.80556879  1
  O  O9  1  0.19808276  0.19808276  0.39616552  1
  O  O10  1  0.80191724  0.80191724  0.60383448  1
  O  O11  1  0.00000000  -0.00000000  0.00000000  1
