# generated using pymatgen
data_CuPdF6
_symmetry_space_group_name_H-M   'P 1'
_cell_length_a   4.94373185
_cell_length_b   4.98945966
_cell_length_c   9.61216130
_cell_angle_alpha   75.60316163
_cell_angle_beta   75.83879299
_cell_angle_gamma   60.86583448
_symmetry_Int_Tables_number   1
_chemical_formula_structural   CuPdF6
_chemical_formula_sum   'Cu2 Pd2 F12'
_cell_volume   198.44577937
_cell_formula_units_Z   2
loop_
 _symmetry_equiv_pos_site_id
 _symmetry_equiv_pos_as_xyz
  1  'x, y, z'
loop_
 _atom_site_type_symbol
 _atom_site_label
 _atom_site_symmetry_multiplicity
 _atom_site_fract_x
 _atom_site_fract_y
 _atom_site_fract_z
 _atom_site_occupancy
  Cu  Cu0  1  0.50000000  0.50000000  0.50000000  1
  Cu  Cu1  1  0.00000000  -0.00000000  0.00000000  1
  Pd  Pd2  1  0.23153725  0.27772478  0.24994917  1
  Pd  Pd3  1  0.76846275  0.72227522  0.75005083  1
  F  F4  1  0.21484294  0.54269397  0.37674073  1
  F  F5  1  0.78515706  0.45730603  0.62325927  1
  F  F6  1  0.85670371  0.24869951  0.37558190  1
  F  F7  1  0.14329629  0.75130049  0.62441810  1
  F  F8  1  0.60038881  0.29533678  0.12632053  1
  F  F9  1  0.39961119  0.70466322  0.87367947  1
  F  F10  1  0.25454364  0.00388402  0.12513200  1
  F  F11  1  0.74545636  0.99611598  0.87486800  1
  F  F12  1  0.04038140  0.34972195  0.87579994  1
  F  F13  1  0.95961860  0.65027805  0.12420006  1
  F  F14  1  0.50438441  0.08964467  0.62749230  1
  F  F15  1  0.49561559  0.91035533  0.37250770  1
