# generated using pymatgen
data_CsSrCl3
_symmetry_space_group_name_H-M   'P 1'
_cell_length_a   8.19782927
_cell_length_b   7.88444867
_cell_length_c   11.33868641
_cell_angle_alpha   90.00000000
_cell_angle_beta   90.00000000
_cell_angle_gamma   90.00000000
_symmetry_Int_Tables_number   1
_chemical_formula_structural   CsSrCl3
_chemical_formula_sum   'Cs4 Sr4 Cl12'
_cell_volume   732.88012435
_cell_formula_units_Z   4
loop_
 _symmetry_equiv_pos_site_id
 _symmetry_equiv_pos_as_xyz
  1  'x, y, z'
loop_
 _atom_site_type_symbol
 _atom_site_label
 _atom_site_symmetry_multiplicity
 _atom_site_fract_x
 _atom_site_fract_y
 _atom_site_fract_z
 _atom_site_occupancy
  Cs  Cs0  1  0.55891951  0.98198109  0.75000000  1
  Cs  Cs1  1  0.44108049  0.01801891  0.25000000  1
  Cs  Cs2  1  0.94108049  0.48198109  0.25000000  1
  Cs  Cs3  1  0.05891951  0.51801891  0.75000000  1
  Sr  Sr4  1  0.00000000  -0.00000000  -0.00000000  1
  Sr  Sr5  1  0.50000000  0.50000000  -0.00000000  1
  Sr  Sr6  1  0.00000000  -0.00000000  0.50000000  1
  Sr  Sr7  1  0.50000000  0.50000000  0.50000000  1
  Cl  Cl8  1  0.79096494  0.70538941  0.95882803  1
  Cl  Cl9  1  0.20903506  0.29461059  0.04117197  1
  Cl  Cl10  1  0.70903506  0.20538941  0.04117197  1
  Cl  Cl11  1  0.20903506  0.29461059  0.45882803  1
  Cl  Cl12  1  0.29096494  0.79461059  0.95882803  1
  Cl  Cl13  1  0.79096494  0.70538941  0.54117197  1
  Cl  Cl14  1  0.29096494  0.79461059  0.54117197  1
  Cl  Cl15  1  0.70903506  0.20538941  0.45882803  1
  Cl  Cl16  1  0.47854545  0.41986883  0.75000000  1
  Cl  Cl17  1  0.52145455  0.58013117  0.25000000  1
  Cl  Cl18  1  0.02145455  0.91986883  0.25000000  1
  Cl  Cl19  1  0.97854545  0.08013117  0.75000000  1
