# generated using pymatgen
data_Li9Mn2Co5O16
_symmetry_space_group_name_H-M   'P 1'
_cell_length_a   2.97939609
_cell_length_b   5.98388396
_cell_length_c   16.15881727
_cell_angle_alpha   89.26174180
_cell_angle_beta   89.00468572
_cell_angle_gamma   94.50392593
_symmetry_Int_Tables_number   1
_chemical_formula_structural   Li9Mn2Co5O16
_chemical_formula_sum   'Li9 Mn2 Co5 O16'
_cell_volume   287.12292551
_cell_formula_units_Z   1
loop_
 _symmetry_equiv_pos_site_id
 _symmetry_equiv_pos_as_xyz
  1  'x, y, z'
loop_
 _atom_site_type_symbol
 _atom_site_label
 _atom_site_symmetry_multiplicity
 _atom_site_fract_x
 _atom_site_fract_y
 _atom_site_fract_z
 _atom_site_occupancy
  Li  Li0  1  0.00381489  0.50480665  0.00476160  1
  Li  Li1  1  0.50443462  0.23937943  0.12935117  1
  Li  Li2  1  0.99887421  0.99369754  0.24556756  1
  Li  Li3  1  0.49815405  0.75099709  0.87317989  1
  Li  Li4  1  0.00072021  0.99972759  0.74944178  1
  Li  Li5  1  0.49964870  0.25180864  0.62565431  1
  Li  Li6  1  0.99963743  0.49981630  0.49942597  1
  Li  Li7  1  0.49860191  0.74844766  0.37242682  1
  Li  Li8  1  0.49161460  0.76016068  0.12838328  1
  Mn  Mn9  1  0.00334152  0.99479971  0.00398812  1
  Mn  Mn10  1  0.00015365  0.00099552  0.49942805  1
  Co  Co11  1  0.99632903  0.50890076  0.24425377  1
  Co  Co12  1  0.49834961  0.25165844  0.37309417  1
  Co  Co13  1  0.50224125  0.74754427  0.62569580  1
  Co  Co14  1  0.99997907  0.49975081  0.75062182  1
  Co  Co15  1  0.51130797  0.24750267  0.87409012  1
  O  O16  1  0.52972631  0.22224876  0.99453398  1
  O  O17  1  0.99436672  0.00374762  0.11586930  1
  O  O18  1  0.47313929  0.72890756  0.25047896  1
  O  O19  1  0.97440058  0.48644414  0.87069917  1
  O  O20  1  0.47383846  0.73635117  0.74482057  1
  O  O21  1  0.97285902  0.98788147  0.62157570  1
  O  O22  1  0.47110311  0.24785312  0.49356937  1
  O  O23  1  0.97346116  0.48657494  0.36494156  1
  O  O24  1  0.47395332  0.78163417  0.99947508  1
  O  O25  1  0.00185247  0.49563688  0.13675514  1
  O  O26  1  0.52283495  0.26401755  0.25605107  1
  O  O27  1  0.03157880  0.01561195  0.87933521  1
  O  O28  1  0.52288863  0.26437350  0.75583110  1
  O  O29  1  0.02527097  0.51155868  0.63196702  1
  O  O30  1  0.52759988  0.75409952  0.50614558  1
  O  O31  1  0.02392360  0.01306523  0.37858596  1
