# generated using pymatgen
data_Er2Mo4O15
_symmetry_space_group_name_H-M   'P 1'
_cell_length_a   6.88587129
_cell_length_b   9.68753722
_cell_length_c   10.67022702
_cell_angle_alpha   90.00000000
_cell_angle_beta   105.22882053
_cell_angle_gamma   90.00000000
_symmetry_Int_Tables_number   1
_chemical_formula_structural   Er2Mo4O15
_chemical_formula_sum   'Er4 Mo8 O30'
_cell_volume   686.78573935
_cell_formula_units_Z   2
loop_
 _symmetry_equiv_pos_site_id
 _symmetry_equiv_pos_as_xyz
  1  'x, y, z'
loop_
 _atom_site_type_symbol
 _atom_site_label
 _atom_site_symmetry_multiplicity
 _atom_site_fract_x
 _atom_site_fract_y
 _atom_site_fract_z
 _atom_site_occupancy
  Er  Er0  1  0.28936437  0.47691873  0.22400060  1
  Er  Er1  1  0.71063563  0.52308127  0.77599940  1
  Er  Er2  1  0.71063563  0.97691873  0.27599940  1
  Er  Er3  1  0.28936437  0.02308127  0.72400060  1
  Mo  Mo4  1  0.58152226  0.25693511  0.01087831  1
  Mo  Mo5  1  0.41847774  0.74306489  0.98912169  1
  Mo  Mo6  1  0.41847774  0.75693511  0.48912169  1
  Mo  Mo7  1  0.58152226  0.24306489  0.51087831  1
  Mo  Mo8  1  0.12123544  0.09566257  0.15642846  1
  Mo  Mo9  1  0.87876456  0.90433743  0.84357154  1
  Mo  Mo10  1  0.87876456  0.59566257  0.34357154  1
  Mo  Mo11  1  0.12123544  0.40433743  0.65642846  1
  O  O12  1  0.11397081  0.27856836  0.14778152  1
  O  O13  1  0.88602919  0.72143164  0.85221848  1
  O  O14  1  0.88602919  0.77856836  0.35221848  1
  O  O15  1  0.11397081  0.22143164  0.64778152  1
  O  O16  1  0.47580788  0.37420320  0.10380968  1
  O  O17  1  0.52419212  0.62579680  0.89619032  1
  O  O18  1  0.52419212  0.87420320  0.39619032  1
  O  O19  1  0.47580788  0.12579680  0.60380968  1
  O  O20  1  0.27852158  0.65042115  0.08182806  1
  O  O21  1  0.72147842  0.34957885  0.91817194  1
  O  O22  1  0.72147842  0.15042115  0.41817194  1
  O  O23  1  0.27852158  0.84957885  0.58182806  1
  O  O24  1  0.00000000  -0.00000000  0.00000000  1
  O  O25  1  0.00000000  0.50000000  0.50000000  1
  O  O26  1  0.38331341  0.33376187  0.39832797  1
  O  O27  1  0.61668659  0.66623813  0.60167203  1
  O  O28  1  0.61668659  0.83376187  0.10167203  1
  O  O29  1  0.38331341  0.16623813  0.89832797  1
  O  O30  1  0.05140547  0.02762645  0.29313929  1
  O  O31  1  0.94859453  0.97237355  0.70686071  1
  O  O32  1  0.94859453  0.52762645  0.20686071  1
  O  O33  1  0.05140547  0.47237355  0.79313929  1
  O  O34  1  0.38070823  0.05579598  0.18396657  1
  O  O35  1  0.61929177  0.94420402  0.81603343  1
  O  O36  1  0.61929177  0.55579598  0.31603343  1
  O  O37  1  0.38070823  0.44420402  0.68396657  1
  O  O38  1  0.74432195  0.13464997  0.11870335  1
  O  O39  1  0.25567805  0.86535003  0.88129665  1
  O  O40  1  0.25567805  0.63464997  0.38129665  1
  O  O41  1  0.74432195  0.36535003  0.61870335  1
