# generated using pymatgen
data_H6C3(NO)2
_symmetry_space_group_name_H-M   'P 1'
_cell_length_a   7.32541211
_cell_length_b   8.50254325
_cell_length_c   9.04480869
_cell_angle_alpha   92.92645194
_cell_angle_beta   90.00000000
_cell_angle_gamma   90.00000000
_symmetry_Int_Tables_number   1
_chemical_formula_structural   H6C3(NO)2
_chemical_formula_sum   'H24 C12 N8 O8'
_cell_volume   562.61792082
_cell_formula_units_Z   4
loop_
 _symmetry_equiv_pos_site_id
 _symmetry_equiv_pos_as_xyz
  1  'x, y, z'
loop_
 _atom_site_type_symbol
 _atom_site_label
 _atom_site_symmetry_multiplicity
 _atom_site_fract_x
 _atom_site_fract_y
 _atom_site_fract_z
 _atom_site_occupancy
  H  H0  1  0.88241743  0.78386865  0.17380651  1
  H  H1  1  0.38241743  0.71613135  0.82619349  1
  H  H2  1  0.11758257  0.21613135  0.82619349  1
  H  H3  1  0.61758257  0.28386865  0.17380651  1
  H  H4  1  0.32975878  0.66183882  0.32728658  1
  H  H5  1  0.82975878  0.83816118  0.67271342  1
  H  H6  1  0.67024122  0.33816118  0.67271342  1
  H  H7  1  0.17024122  0.16183882  0.32728658  1
  H  H8  1  0.81378050  0.91314977  0.38951091  1
  H  H9  1  0.31378050  0.58685023  0.61048909  1
  H  H10  1  0.18621950  0.08685023  0.61048909  1
  H  H11  1  0.68621950  0.41314977  0.38951091  1
  H  H12  1  0.47849781  0.67549802  0.11051587  1
  H  H13  1  0.97849781  0.82450198  0.88948413  1
  H  H14  1  0.52150219  0.32450198  0.88948413  1
  H  H15  1  0.02150219  0.17549802  0.11051587  1
  H  H16  1  0.04082734  0.53053529  0.35025197  1
  H  H17  1  0.54082734  0.96946471  0.64974803  1
  H  H18  1  0.95917266  0.46946471  0.64974803  1
  H  H19  1  0.45917266  0.03053529  0.35025197  1
  H  H20  1  0.01137663  0.52550275  0.15385466  1
  H  H21  1  0.51137663  0.97449725  0.84614534  1
  H  H22  1  0.98862337  0.47449725  0.84614534  1
  H  H23  1  0.48862337  0.02550275  0.15385466  1
  C  C24  1  0.90370988  0.80929348  0.39756992  1
  C  C25  1  0.40370988  0.69070652  0.60243008  1
  C  C26  1  0.09629012  0.19070652  0.60243008  1
  C  C27  1  0.59629012  0.30929348  0.39756992  1
  C  C28  1  0.05750520  0.59768021  0.25071053  1
  C  C29  1  0.55750520  0.90231979  0.74928947  1
  C  C30  1  0.94249480  0.40231979  0.74928947  1
  C  C31  1  0.44249480  0.09768021  0.25071053  1
  C  C32  1  0.33096279  0.64743372  0.10198986  1
  C  C33  1  0.83096279  0.85256628  0.89801014  1
  C  C34  1  0.66903721  0.35256628  0.89801014  1
  C  C35  1  0.16903721  0.14743372  0.10198986  1
  N  N36  1  0.94154582  0.73700159  0.26588894  1
  N  N37  1  0.44154582  0.76299841  0.73411106  1
  N  N38  1  0.05845418  0.26299841  0.73411106  1
  N  N39  1  0.55845418  0.23700159  0.26588894  1
  N  N40  1  0.25035831  0.63391084  0.23413196  1
  N  N41  1  0.75035831  0.86608916  0.76586804  1
  N  N42  1  0.74964169  0.36608916  0.76586804  1
  N  N43  1  0.24964169  0.13391084  0.23413196  1
  O  O44  1  0.96194365  0.76821889  0.51944469  1
  O  O45  1  0.46194365  0.73178111  0.48055531  1
  O  O46  1  0.03805635  0.23178111  0.48055531  1
  O  O47  1  0.53805635  0.26821889  0.51944469  1
  O  O48  1  0.25370913  0.63092891  0.97923325  1
  O  O49  1  0.75370913  0.86907109  0.02076675  1
  O  O50  1  0.74629087  0.36907109  0.02076675  1
  O  O51  1  0.24629087  0.13092891  0.97923325  1
