# generated using pymatgen
data_Er5SbPt2
_symmetry_space_group_name_H-M   'P 1'
_cell_length_a   7.68009161
_cell_length_b   7.68009161
_cell_length_c   8.71471821
_cell_angle_alpha   116.14466695
_cell_angle_beta   116.14466695
_cell_angle_gamma   90.00000000
_symmetry_Int_Tables_number   1
_chemical_formula_structural   Er5SbPt2
_chemical_formula_sum   'Er10 Sb2 Pt4'
_cell_volume   402.01871835
_cell_formula_units_Z   2
loop_
 _symmetry_equiv_pos_site_id
 _symmetry_equiv_pos_as_xyz
  1  'x, y, z'
loop_
 _atom_site_type_symbol
 _atom_site_label
 _atom_site_symmetry_multiplicity
 _atom_site_fract_x
 _atom_site_fract_y
 _atom_site_fract_z
 _atom_site_occupancy
  Er  Er0  1  -0.00000000  -0.00000000  -0.00000000  1
  Er  Er1  1  0.50000000  0.50000000  -0.00000000  1
  Er  Er2  1  0.29838789  0.79838789  0.27628136  1
  Er  Er3  1  0.70161211  0.20161211  0.72371864  1
  Er  Er4  1  0.97789346  0.47789346  0.27628136  1
  Er  Er5  1  0.47789346  0.29838789  0.27628136  1
  Er  Er6  1  0.20161211  0.02210654  0.72371864  1
  Er  Er7  1  0.02210654  0.52210654  0.72371864  1
  Er  Er8  1  0.52210654  0.70161211  0.72371864  1
  Er  Er9  1  0.79838789  0.97789346  0.27628136  1
  Sb  Sb10  1  0.25000000  0.25000000  0.50000000  1
  Sb  Sb11  1  0.75000000  0.75000000  0.50000000  1
  Pt  Pt12  1  0.63534817  0.13534817  -0.00000000  1
  Pt  Pt13  1  0.36465183  0.86465183  -0.00000000  1
  Pt  Pt14  1  0.86465183  0.63534817  -0.00000000  1
  Pt  Pt15  1  0.13534817  0.36465183  -0.00000000  1
