# generated using pymatgen
data_Dy6InCo2
_symmetry_space_group_name_H-M   'P 1'
_cell_length_a   8.38763688
_cell_length_b   8.38763688
_cell_length_c   8.38763688
_cell_angle_alpha   106.91687498
_cell_angle_beta   109.73084642
_cell_angle_gamma   111.80284533
_symmetry_Int_Tables_number   1
_chemical_formula_structural   Dy6InCo2
_chemical_formula_sum   'Dy12 In2 Co4'
_cell_volume   453.42319928
_cell_formula_units_Z   2
loop_
 _symmetry_equiv_pos_site_id
 _symmetry_equiv_pos_as_xyz
  1  'x, y, z'
loop_
 _atom_site_type_symbol
 _atom_site_label
 _atom_site_symmetry_multiplicity
 _atom_site_fract_x
 _atom_site_fract_y
 _atom_site_fract_z
 _atom_site_occupancy
  Dy  Dy0  1  0.79176716  0.76562337  0.55739053  1
  Dy  Dy1  1  0.20823284  0.23437663  0.44260947  1
  Dy  Dy2  1  0.20823284  0.76562337  0.97385621  1
  Dy  Dy3  1  0.79176716  0.23437663  0.02614379  1
  Dy  Dy4  1  0.52829884  0.71330267  0.81499617  1
  Dy  Dy5  1  0.47170116  0.28669733  0.18500383  1
  Dy  Dy6  1  0.10169350  0.28669733  0.81499617  1
  Dy  Dy7  1  0.89830650  0.71330267  0.18500383  1
  Dy  Dy8  1  0.69179068  0.37323376  0.68144308  1
  Dy  Dy9  1  0.30820932  0.62676624  0.31855692  1
  Dy  Dy10  1  0.30820932  0.98965240  0.68144308  1
  Dy  Dy11  1  0.69179068  0.01034760  0.31855692  1
  In  In12  1  -0.00000000  0.50000000  0.50000000  1
  In  In13  1  -0.00000000  -0.00000000  -0.00000000  1
  Co  Co14  1  0.63332945  0.00000000  0.63332945  1
  Co  Co15  1  0.36667055  -0.00000000  0.36667055  1
  Co  Co16  1  0.50000000  0.38801186  0.88801186  1
  Co  Co17  1  0.50000000  0.61198814  0.11198814  1
