# generated using pymatgen
data_CsHo(WO4)2
_symmetry_space_group_name_H-M   'P 1'
_cell_length_a   7.65484423
_cell_length_b   7.65484423
_cell_length_c   7.56996635
_cell_angle_alpha   62.58810447
_cell_angle_beta   62.58810447
_cell_angle_gamma   88.58618448
_symmetry_Int_Tables_number   1
_chemical_formula_structural   CsHo(WO4)2
_chemical_formula_sum   'Cs2 Ho2 W4 O16'
_cell_volume   339.54276317
_cell_formula_units_Z   2
loop_
 _symmetry_equiv_pos_site_id
 _symmetry_equiv_pos_as_xyz
  1  'x, y, z'
loop_
 _atom_site_type_symbol
 _atom_site_label
 _atom_site_symmetry_multiplicity
 _atom_site_fract_x
 _atom_site_fract_y
 _atom_site_fract_z
 _atom_site_occupancy
  Cs  Cs0  1  0.80219485  0.19780515  0.75000000  1
  Cs  Cs1  1  0.19780515  0.80219485  0.25000000  1
  Ho  Ho2  1  0.22335353  0.77664647  0.75000000  1
  Ho  Ho3  1  0.77664647  0.22335353  0.25000000  1
  W  W4  1  0.30136375  0.31271039  0.71740800  1
  W  W5  1  0.69863625  0.68728961  0.28259200  1
  W  W6  1  0.68728961  0.69863625  0.78259200  1
  W  W7  1  0.31271039  0.30136375  0.21740800  1
  O  O8  1  0.37980255  0.24967105  0.93531702  1
  O  O9  1  0.62019745  0.75032895  0.06468298  1
  O  O10  1  0.75032895  0.62019745  0.56468298  1
  O  O11  1  0.24967105  0.37980255  0.43531702  1
  O  O12  1  0.62826078  0.93924969  0.62371826  1
  O  O13  1  0.37173922  0.06075031  0.37628174  1
  O  O14  1  0.06075031  0.37173922  0.87628174  1
  O  O15  1  0.93924969  0.62826078  0.12371826  1
  O  O16  1  0.40912244  0.62866419  0.53613534  1
  O  O17  1  0.59087756  0.37133581  0.46386466  1
  O  O18  1  0.37133581  0.59087756  0.96386466  1
  O  O19  1  0.62866419  0.40912244  0.03613534  1
  O  O20  1  0.21912515  0.04904743  0.79928981  1
  O  O21  1  0.78087485  0.95095257  0.20071019  1
  O  O22  1  0.95095257  0.78087485  0.70071019  1
  O  O23  1  0.04904743  0.21912515  0.29928981  1
