# generated using pymatgen
data_CsNb3VCl11
_symmetry_space_group_name_H-M   'P 1'
_cell_length_a   6.95418738
_cell_length_b   13.69658297
_cell_length_c   17.33412292
_cell_angle_alpha   90.00000000
_cell_angle_beta   90.00000000
_cell_angle_gamma   90.00000000
_symmetry_Int_Tables_number   1
_chemical_formula_structural   CsNb3VCl11
_chemical_formula_sum   'Cs4 Nb12 V4 Cl44'
_cell_volume   1651.05101731
_cell_formula_units_Z   4
loop_
 _symmetry_equiv_pos_site_id
 _symmetry_equiv_pos_as_xyz
  1  'x, y, z'
loop_
 _atom_site_type_symbol
 _atom_site_label
 _atom_site_symmetry_multiplicity
 _atom_site_fract_x
 _atom_site_fract_y
 _atom_site_fract_z
 _atom_site_occupancy
  Cs  Cs0  1  0.75000000  0.50427531  0.24131206  1
  Cs  Cs1  1  0.25000000  0.49572469  0.75868794  1
  Cs  Cs2  1  0.25000000  0.99572469  0.74131206  1
  Cs  Cs3  1  0.75000000  0.00427531  0.25868794  1
  Nb  Nb4  1  0.95581376  0.75198157  0.98755290  1
  Nb  Nb5  1  0.04418624  0.24801843  0.01244710  1
  Nb  Nb6  1  0.04418624  0.74801843  0.48755290  1
  Nb  Nb7  1  0.45581376  0.24801843  0.01244710  1
  Nb  Nb8  1  0.95581376  0.25198157  0.51244710  1
  Nb  Nb9  1  0.54418624  0.75198157  0.98755290  1
  Nb  Nb10  1  0.54418624  0.25198157  0.51244710  1
  Nb  Nb11  1  0.45581376  0.74801843  0.48755290  1
  Nb  Nb12  1  0.75000000  0.80946903  0.85253062  1
  Nb  Nb13  1  0.25000000  0.19053097  0.14746938  1
  Nb  Nb14  1  0.25000000  0.69053097  0.35253062  1
  Nb  Nb15  1  0.75000000  0.30946903  0.64746938  1
  V  V16  1  0.75000000  0.81973290  0.66417867  1
  V  V17  1  0.25000000  0.18026710  0.33582133  1
  V  V18  1  0.25000000  0.68026710  0.16417867  1
  V  V19  1  0.75000000  0.31973290  0.83582133  1
  Cl  Cl20  1  0.75000000  0.67911001  0.57183676  1
  Cl  Cl21  1  0.25000000  0.32088999  0.42816324  1
  Cl  Cl22  1  0.25000000  0.82088999  0.07183676  1
  Cl  Cl23  1  0.75000000  0.17911001  0.92816324  1
  Cl  Cl24  1  0.75000000  0.64385418  0.90995834  1
  Cl  Cl25  1  0.25000000  0.35614582  0.09004166  1
  Cl  Cl26  1  0.25000000  0.85614582  0.40995834  1
  Cl  Cl27  1  0.75000000  0.14385418  0.59004166  1
  Cl  Cl28  1  0.98645930  0.74636136  0.75314318  1
  Cl  Cl29  1  0.01354070  0.25363864  0.24685682  1
  Cl  Cl30  1  0.01354070  0.75363864  0.25314318  1
  Cl  Cl31  1  0.48645930  0.25363864  0.24685682  1
  Cl  Cl32  1  0.98645930  0.24636136  0.74685682  1
  Cl  Cl33  1  0.51354070  0.74636136  0.75314318  1
  Cl  Cl34  1  0.51354070  0.24636136  0.74685682  1
  Cl  Cl35  1  0.48645930  0.75363864  0.25314318  1
  Cl  Cl36  1  0.50031791  0.88978562  0.57976885  1
  Cl  Cl37  1  0.49968209  0.11021438  0.42023115  1
  Cl  Cl38  1  0.49968209  0.61021438  0.07976885  1
  Cl  Cl39  1  0.00031791  0.11021438  0.42023115  1
  Cl  Cl40  1  0.50031791  0.38978562  0.92023115  1
  Cl  Cl41  1  0.99968209  0.88978562  0.57976885  1
  Cl  Cl42  1  0.99968209  0.38978562  0.92023115  1
  Cl  Cl43  1  0.00031791  0.61021438  0.07976885  1
  Cl  Cl44  1  0.75000000  0.95753098  0.75442613  1
  Cl  Cl45  1  0.25000000  0.04246902  0.24557387  1
  Cl  Cl46  1  0.25000000  0.54246902  0.25442613  1
  Cl  Cl47  1  0.75000000  0.45753098  0.74557387  1
  Cl  Cl48  1  0.99234980  0.90909228  0.91951764  1
  Cl  Cl49  1  0.00765020  0.09090772  0.08048236  1
  Cl  Cl50  1  0.00765020  0.59090772  0.41951764  1
  Cl  Cl51  1  0.49234980  0.09090772  0.08048236  1
  Cl  Cl52  1  0.99234980  0.40909228  0.58048236  1
  Cl  Cl53  1  0.50765020  0.90909228  0.91951764  1
  Cl  Cl54  1  0.50765020  0.40909228  0.58048236  1
  Cl  Cl55  1  0.49234980  0.59090772  0.41951764  1
  Cl  Cl56  1  0.75000000  0.33960795  0.42005938  1
  Cl  Cl57  1  0.25000000  0.66039205  0.57994062  1
  Cl  Cl58  1  0.25000000  0.16039205  0.92005938  1
  Cl  Cl59  1  0.75000000  0.83960795  0.07994062  1
  Cl  Cl60  1  0.75000000  0.82056685  0.41694891  1
  Cl  Cl61  1  0.25000000  0.17943315  0.58305109  1
  Cl  Cl62  1  0.25000000  0.67943315  0.91694891  1
  Cl  Cl63  1  0.75000000  0.32056685  0.08305109  1
