# generated using pymatgen
data_CsTmP2O7
_symmetry_space_group_name_H-M   'P 1'
_cell_length_a   7.94330425
_cell_length_b   8.81779775
_cell_length_c   10.93722573
_cell_angle_alpha   90.00000000
_cell_angle_beta   90.00000000
_cell_angle_gamma   105.11470965
_symmetry_Int_Tables_number   1
_chemical_formula_structural   CsTmP2O7
_chemical_formula_sum   'Cs4 Tm4 P8 O28'
_cell_volume   739.56844629
_cell_formula_units_Z   4
loop_
 _symmetry_equiv_pos_site_id
 _symmetry_equiv_pos_as_xyz
  1  'x, y, z'
loop_
 _atom_site_type_symbol
 _atom_site_label
 _atom_site_symmetry_multiplicity
 _atom_site_fract_x
 _atom_site_fract_y
 _atom_site_fract_z
 _atom_site_occupancy
  Cs  Cs0  1  0.81240423  0.94481069  0.31425354  1
  Cs  Cs1  1  0.18759577  0.05518931  0.68574646  1
  Cs  Cs2  1  0.18759577  0.55518931  0.81425354  1
  Cs  Cs3  1  0.81240423  0.44481069  0.18574646  1
  Tm  Tm4  1  0.76161388  0.74226527  0.90097090  1
  Tm  Tm5  1  0.23838612  0.25773473  0.09902910  1
  Tm  Tm6  1  0.23838612  0.75773473  0.40097090  1
  Tm  Tm7  1  0.76161388  0.24226527  0.59902910  1
  P  P8  1  0.57025944  0.81124734  0.63169919  1
  P  P9  1  0.42974056  0.18875266  0.36830081  1
  P  P10  1  0.42974056  0.68875266  0.13169919  1
  P  P11  1  0.57025944  0.31124734  0.86830081  1
  P  P12  1  0.86587648  0.67272845  0.59760252  1
  P  P13  1  0.13412352  0.32727155  0.40239748  1
  P  P14  1  0.13412352  0.82727155  0.09760252  1
  P  P15  1  0.86587648  0.17272845  0.90239748  1
  O  O16  1  0.38945150  0.76746589  0.57213613  1
  O  O17  1  0.61054850  0.23253411  0.42786387  1
  O  O18  1  0.61054850  0.73253411  0.07213613  1
  O  O19  1  0.38945150  0.26746589  0.92786387  1
  O  O20  1  0.91155707  0.73741888  0.72756226  1
  O  O21  1  0.08844293  0.26258112  0.27243774  1
  O  O22  1  0.08844293  0.76258112  0.22756226  1
  O  O23  1  0.91155707  0.23741888  0.77243774  1
  O  O24  1  0.55877575  0.76446583  0.76705084  1
  O  O25  1  0.44122425  0.23553417  0.23294916  1
  O  O26  1  0.44122425  0.73553417  0.26705084  1
  O  O27  1  0.55877575  0.26446583  0.73294916  1
  O  O28  1  0.67104764  0.98121844  0.60722024  1
  O  O29  1  0.32895236  0.01878156  0.39277976  1
  O  O30  1  0.32895236  0.51878156  0.10722024  1
  O  O31  1  0.67104764  0.48121844  0.89277976  1
  O  O32  1  0.84633963  0.99743025  0.91060962  1
  O  O33  1  0.15366037  0.00256975  0.08939038  1
  O  O34  1  0.15366037  0.50256975  0.41060962  1
  O  O35  1  0.84633963  0.49743025  0.58939038  1
  O  O36  1  0.67657282  0.70018307  0.56147148  1
  O  O37  1  0.32342718  0.29981693  0.43852852  1
  O  O38  1  0.32342718  0.79981693  0.06147148  1
  O  O39  1  0.67657282  0.20018307  0.93852852  1
  O  O40  1  0.00392521  0.73298586  0.00362254  1
  O  O41  1  0.99607479  0.26701414  0.99637746  1
  O  O42  1  0.99607479  0.76701414  0.50362254  1
  O  O43  1  0.00392521  0.23298586  0.49637746  1
