# generated using pymatgen
data_Gd2Ni7Sn3
_symmetry_space_group_name_H-M   'P 1'
_cell_length_a   7.62746015
_cell_length_b   8.72168717
_cell_length_c   12.75928630
_cell_angle_alpha   109.98523982
_cell_angle_beta   90.00000000
_cell_angle_gamma   90.00000000
_symmetry_Int_Tables_number   1
_chemical_formula_structural   Gd2Ni7Sn3
_chemical_formula_sum   'Gd8 Ni28 Sn12'
_cell_volume   797.68854656
_cell_formula_units_Z   4
loop_
 _symmetry_equiv_pos_site_id
 _symmetry_equiv_pos_as_xyz
  1  'x, y, z'
loop_
 _atom_site_type_symbol
 _atom_site_label
 _atom_site_symmetry_multiplicity
 _atom_site_fract_x
 _atom_site_fract_y
 _atom_site_fract_z
 _atom_site_occupancy
  Gd  Gd0  1  0.42620095  0.19381536  0.38763071  1
  Gd  Gd1  1  0.57379905  0.80618464  0.61236929  1
  Gd  Gd2  1  0.92620095  0.30618464  0.61236929  1
  Gd  Gd3  1  0.07379905  0.69381536  0.38763071  1
  Gd  Gd4  1  -0.00000000  0.20711463  0.00000000  1
  Gd  Gd5  1  -0.00000000  0.79288537  1.00000000  1
  Gd  Gd6  1  0.50000000  0.29288537  1.00000000  1
  Gd  Gd7  1  0.50000000  0.70711463  0.00000000  1
  Ni  Ni8  1  0.05665359  0.10177668  0.20355336  1
  Ni  Ni9  1  0.94334641  0.89822332  0.79644664  1
  Ni  Ni10  1  0.55665359  0.39822332  0.79644664  1
  Ni  Ni11  1  0.44334641  0.60177668  0.20355336  1
  Ni  Ni12  1  0.07788155  0.34990672  0.39682547  1
  Ni  Ni13  1  0.92211845  0.65009328  0.60317453  1
  Ni  Ni14  1  0.57788155  0.15009328  0.60317453  1
  Ni  Ni15  1  0.42211845  0.54691875  0.39682547  1
  Ni  Ni16  1  0.42211845  0.84990672  0.39682547  1
  Ni  Ni17  1  0.57788155  0.45308125  0.60317453  1
  Ni  Ni18  1  0.92211845  0.95308125  0.60317453  1
  Ni  Ni19  1  0.07788155  0.04691875  0.39682547  1
  Ni  Ni20  1  0.31083006  0.33465135  0.66930269  1
  Ni  Ni21  1  0.68916994  0.66534865  0.33069731  1
  Ni  Ni22  1  0.81083006  0.16534865  0.33069731  1
  Ni  Ni23  1  0.18916994  0.83465135  0.66930269  1
  Ni  Ni24  1  0.09235899  0.62265174  0.76767519  1
  Ni  Ni25  1  0.90764101  0.37734826  0.23232481  1
  Ni  Ni26  1  0.59235899  0.87734826  0.23232481  1
  Ni  Ni27  1  0.40764101  0.64502345  0.76767519  1
  Ni  Ni28  1  0.40764101  0.12265174  0.76767519  1
  Ni  Ni29  1  0.59235899  0.35497655  0.23232481  1
  Ni  Ni30  1  0.90764101  0.85497655  0.23232481  1
  Ni  Ni31  1  0.09235899  0.14502345  0.76767519  1
  Ni  Ni32  1  0.35414824  0.04718793  0.09437586  1
  Ni  Ni33  1  0.64585176  0.95281207  0.90562414  1
  Ni  Ni34  1  0.85414824  0.45281207  0.90562414  1
  Ni  Ni35  1  0.14585176  0.54718793  0.09437586  1
  Sn  Sn36  1  0.25000000  0.53225503  0.56451005  1
  Sn  Sn37  1  0.75000000  0.46774497  0.43548995  1
  Sn  Sn38  1  0.75000000  0.96774497  0.43548995  1
  Sn  Sn39  1  0.25000000  0.03225503  0.56451005  1
  Sn  Sn40  1  0.20547628  0.43791054  0.87582107  1
  Sn  Sn41  1  0.79452372  0.56208946  0.12417893  1
  Sn  Sn42  1  0.70547628  0.06208946  0.12417893  1
  Sn  Sn43  1  0.29452372  0.93791054  0.87582107  1
  Sn  Sn44  1  0.25000000  0.35668560  0.21337120  1
  Sn  Sn45  1  0.75000000  0.64331440  0.78662880  1
  Sn  Sn46  1  0.75000000  0.14331440  0.78662880  1
  Sn  Sn47  1  0.25000000  0.85668560  0.21337120  1
