# generated using pymatgen
data_Li9Mn2Co5O16
_symmetry_space_group_name_H-M   'P 1'
_cell_length_a   2.98117155
_cell_length_b   5.97349085
_cell_length_c   16.15634121
_cell_angle_alpha   89.15946057
_cell_angle_beta   89.22088420
_cell_angle_gamma   93.75478361
_symmetry_Int_Tables_number   1
_chemical_formula_structural   Li9Mn2Co5O16
_chemical_formula_sum   'Li9 Mn2 Co5 O16'
_cell_volume   287.03310140
_cell_formula_units_Z   1
loop_
 _symmetry_equiv_pos_site_id
 _symmetry_equiv_pos_as_xyz
  1  'x, y, z'
loop_
 _atom_site_type_symbol
 _atom_site_label
 _atom_site_symmetry_multiplicity
 _atom_site_fract_x
 _atom_site_fract_y
 _atom_site_fract_z
 _atom_site_occupancy
  Li  Li0  1  0.00283664  0.50497562  0.00435204  1
  Li  Li1  1  0.50314628  0.24020402  0.12936296  1
  Li  Li2  1  0.99952003  0.99377165  0.24588320  1
  Li  Li3  1  0.49858639  0.75310778  0.87455545  1
  Li  Li4  1  0.00012625  0.99984519  0.74915722  1
  Li  Li5  1  0.50061744  0.24872693  0.62294126  1
  Li  Li6  1  0.00047291  0.50039482  0.49998561  1
  Li  Li7  1  0.49777551  0.74851286  0.37357021  1
  Li  Li8  1  0.49276284  0.75917177  0.12846770  1
  Mn  Mn9  1  0.00410720  0.99383639  0.00443874  1
  Mn  Mn10  1  0.00068666  0.50079492  0.75005582  1
  Co  Co11  1  0.99569164  0.50823031  0.24471236  1
  Co  Co12  1  0.50472033  0.25116359  0.37421717  1
  Co  Co13  1  0.00234734  0.00191010  0.49790961  1
  Co  Co14  1  0.49097953  0.75218103  0.62362772  1
  Co  Co15  1  0.51118836  0.24550437  0.87497279  1
  O  O16  1  0.52301182  0.22146722  0.99521894  1
  O  O17  1  0.99458029  0.00344622  0.11663294  1
  O  O18  1  0.46916904  0.72828412  0.25096423  1
  O  O19  1  0.97183859  0.48639081  0.87327789  1
  O  O20  1  0.46957525  0.74490638  0.74392494  1
  O  O21  1  0.96337082  0.99050809  0.61927865  1
  O  O22  1  0.51630962  0.24202907  0.49323494  1
  O  O23  1  0.97451964  0.48530929  0.36583356  1
  O  O24  1  0.47990692  0.78018834  0.00025202  1
  O  O25  1  0.00090021  0.49531772  0.13701133  1
  O  O26  1  0.52431419  0.26416880  0.25703145  1
  O  O27  1  0.03302451  0.01442921  0.88033860  1
  O  O28  1  0.52991555  0.25629264  0.75587285  1
  O  O29  1  0.02617742  0.51257681  0.62855380  1
  O  O30  1  0.48541432  0.76158955  0.50520653  1
  O  O31  1  0.03240648  0.01076435  0.37915647  1
