# generated using pymatgen
data_Cs2Pr10Co2I17
_symmetry_space_group_name_H-M   'P 1'
_cell_length_a   10.00613594
_cell_length_b   11.73117842
_cell_length_c   11.73117842
_cell_angle_alpha   108.42210387
_cell_angle_beta   93.10245391
_cell_angle_gamma   93.10245391
_symmetry_Int_Tables_number   1
_chemical_formula_structural   Cs2Pr10Co2I17
_chemical_formula_sum   'Cs2 Pr10 Co2 I17'
_cell_volume   1300.87483273
_cell_formula_units_Z   1
loop_
 _symmetry_equiv_pos_site_id
 _symmetry_equiv_pos_as_xyz
  1  'x, y, z'
loop_
 _atom_site_type_symbol
 _atom_site_label
 _atom_site_symmetry_multiplicity
 _atom_site_fract_x
 _atom_site_fract_y
 _atom_site_fract_z
 _atom_site_occupancy
  Cs  Cs0  1  0.00000000  0.67410655  0.32589345  1
  Cs  Cs1  1  -0.00000000  0.32589345  0.67410655  1
  Pr  Pr2  1  0.57216277  0.70859102  0.00704231  1
  Pr  Pr3  1  0.42783723  0.29140898  0.99295769  1
  Pr  Pr4  1  0.42783723  0.99295769  0.29140898  1
  Pr  Pr5  1  0.57216277  0.00704231  0.70859102  1
  Pr  Pr6  1  0.44464541  0.67504187  0.67504187  1
  Pr  Pr7  1  0.55535459  0.32495813  0.32495813  1
  Pr  Pr8  1  0.32353857  0.93743892  0.93743892  1
  Pr  Pr9  1  0.67646143  0.06256108  0.06256108  1
  Pr  Pr10  1  0.81233297  0.79566406  0.79566406  1
  Pr  Pr11  1  0.18766703  0.20433594  0.20433594  1
  Co  Co12  1  0.56936445  0.85911056  0.85911056  1
  Co  Co13  1  0.43063555  0.14088944  0.14088944  1
  I  I14  1  0.86166642  0.61547523  0.94925194  1
  I  I15  1  0.13833358  0.38452477  0.05074806  1
  I  I16  1  0.13833358  0.05074806  0.38452477  1
  I  I17  1  0.86166642  0.94925194  0.61547523  1
  I  I18  1  0.57949653  0.52764264  0.18974448  1
  I  I19  1  0.42050347  0.47235736  0.81025552  1
  I  I20  1  0.42050347  0.81025552  0.47235736  1
  I  I21  1  0.57949653  0.18974448  0.52764264  1
  I  I22  1  0.71773561  0.56255368  0.56255368  1
  I  I23  1  0.28226439  0.43744632  0.43744632  1
  I  I24  1  0.72588247  0.24673401  0.90019750  1
  I  I25  1  0.27411753  0.75326599  0.09980250  1
  I  I26  1  0.27411753  0.09980250  0.75326599  1
  I  I27  1  0.72588247  0.90019750  0.24673401  1
  I  I28  1  0.86931572  0.28818278  0.28818278  1
  I  I29  1  0.13068428  0.71181722  0.71181722  1
  I  I30  1  0.00000000  -0.00000000  0.00000000  1
