# generated using pymatgen
data_CaYBO4
_symmetry_space_group_name_H-M   'P 1'
_cell_length_a   3.64036537
_cell_length_b   10.50485600
_cell_length_c   9.67118125
_cell_angle_alpha   90.00000000
_cell_angle_beta   90.00000000
_cell_angle_gamma   90.00000000
_symmetry_Int_Tables_number   1
_chemical_formula_structural   CaYBO4
_chemical_formula_sum   'Ca4 Y4 B4 O16'
_cell_volume   369.84061316
_cell_formula_units_Z   4
loop_
 _symmetry_equiv_pos_site_id
 _symmetry_equiv_pos_as_xyz
  1  'x, y, z'
loop_
 _atom_site_type_symbol
 _atom_site_label
 _atom_site_symmetry_multiplicity
 _atom_site_fract_x
 _atom_site_fract_y
 _atom_site_fract_z
 _atom_site_occupancy
  Ca  Ca0  1  0.75000000  0.91757757  0.33090405  1
  Ca  Ca1  1  0.25000000  0.08242243  0.66909595  1
  Ca  Ca2  1  0.25000000  0.58242243  0.83090405  1
  Ca  Ca3  1  0.75000000  0.41757757  0.16909595  1
  Y  Y4  1  0.75000000  0.88857676  0.91125950  1
  Y  Y5  1  0.25000000  0.11142324  0.08874050  1
  Y  Y6  1  0.25000000  0.61142324  0.41125950  1
  Y  Y7  1  0.75000000  0.38857676  0.58874050  1
  B  B8  1  0.75000000  0.79881009  0.63171935  1
  B  B9  1  0.25000000  0.20118991  0.36828065  1
  B  B10  1  0.25000000  0.70118991  0.13171935  1
  B  B11  1  0.75000000  0.29881009  0.86828065  1
  O  O12  1  0.75000000  0.74828147  0.49965818  1
  O  O13  1  0.25000000  0.25171853  0.50034182  1
  O  O14  1  0.25000000  0.75171853  0.99965818  1
  O  O15  1  0.75000000  0.24828147  0.00034182  1
  O  O16  1  0.75000000  0.72294114  0.75052785  1
  O  O17  1  0.25000000  0.27705886  0.24947215  1
  O  O18  1  0.25000000  0.77705886  0.25052785  1
  O  O19  1  0.75000000  0.22294114  0.74947215  1
  O  O20  1  0.75000000  0.93183685  0.64929080  1
  O  O21  1  0.25000000  0.06816315  0.35070920  1
  O  O22  1  0.25000000  0.56816315  0.14929080  1
  O  O23  1  0.75000000  0.43183685  0.85070920  1
  O  O24  1  0.75000000  0.49366083  0.38518295  1
  O  O25  1  0.25000000  0.50633917  0.61481705  1
  O  O26  1  0.25000000  0.00633917  0.88518295  1
  O  O27  1  0.75000000  0.99366083  0.11481705  1
