# generated using pymatgen
data_CaZrTlF7
_symmetry_space_group_name_H-M   'P 1'
_cell_length_a   6.66332284
_cell_length_b   6.66332284
_cell_length_c   8.65100092
_cell_angle_alpha   90.00000000
_cell_angle_beta   90.00000000
_cell_angle_gamma   116.55188751
_symmetry_Int_Tables_number   1
_chemical_formula_structural   CaZrTlF7
_chemical_formula_sum   'Ca2 Zr2 Tl2 F14'
_cell_volume   343.59191600
_cell_formula_units_Z   2
loop_
 _symmetry_equiv_pos_site_id
 _symmetry_equiv_pos_as_xyz
  1  'x, y, z'
loop_
 _atom_site_type_symbol
 _atom_site_label
 _atom_site_symmetry_multiplicity
 _atom_site_fract_x
 _atom_site_fract_y
 _atom_site_fract_z
 _atom_site_occupancy
  Ca  Ca0  1  0.30876111  0.69123889  0.75000000  1
  Ca  Ca1  1  0.69123889  0.30876111  0.25000000  1
  Zr  Zr2  1  0.69262936  0.30737064  0.75000000  1
  Zr  Zr3  1  0.30737064  0.69262936  0.25000000  1
  Tl  Tl4  1  -0.00000000  -0.00000000  -0.00000000  1
  Tl  Tl5  1  -0.00000000  -0.00000000  0.50000000  1
  F  F6  1  0.34854366  0.06463256  0.75000000  1
  F  F7  1  0.65145634  0.93536744  0.25000000  1
  F  F8  1  0.93536744  0.65145634  0.75000000  1
  F  F9  1  0.06463256  0.34854366  0.25000000  1
  F  F10  1  0.70105903  0.29894097  0.98676855  1
  F  F11  1  0.29894097  0.70105903  0.01323145  1
  F  F12  1  0.29894097  0.70105903  0.48676855  1
  F  F13  1  0.70105903  0.29894097  0.51323145  1
  F  F14  1  0.51022916  0.48977084  0.75000000  1
  F  F15  1  0.48977084  0.51022916  0.25000000  1
  F  F16  1  0.67168052  0.97747355  0.75000000  1
  F  F17  1  0.32831948  0.02252645  0.25000000  1
  F  F18  1  0.02252645  0.32831948  0.75000000  1
  F  F19  1  0.97747355  0.67168052  0.25000000  1
