# generated using pymatgen
data_CsSi2Mo3P6O25
_symmetry_space_group_name_H-M   'P 1'
_cell_length_a   8.45598995
_cell_length_b   8.45598995
_cell_length_c   18.19295408
_cell_angle_alpha   90.00000000
_cell_angle_beta   90.00000000
_cell_angle_gamma   120.00000261
_symmetry_Int_Tables_number   1
_chemical_formula_structural   CsSi2Mo3P6O25
_chemical_formula_sum   'Cs2 Si4 Mo6 P12 O50'
_cell_volume   1126.58187610
_cell_formula_units_Z   2
loop_
 _symmetry_equiv_pos_site_id
 _symmetry_equiv_pos_as_xyz
  1  'x, y, z'
loop_
 _atom_site_type_symbol
 _atom_site_label
 _atom_site_symmetry_multiplicity
 _atom_site_fract_x
 _atom_site_fract_y
 _atom_site_fract_z
 _atom_site_occupancy
  Cs  Cs0  1  0.66666700  0.33333300  0.75000000  1
  Cs  Cs1  1  0.33333300  0.66666700  0.25000000  1
  Si  Si2  1  0.00000000  -0.00000000  0.91219004  1
  Si  Si3  1  0.00000000  -0.00000000  0.08780996  1
  Si  Si4  1  0.00000000  -0.00000000  0.58780996  1
  Si  Si5  1  0.00000000  -0.00000000  0.41219004  1
  Mo  Mo6  1  0.66666700  0.33333300  0.97888041  1
  Mo  Mo7  1  0.33333300  0.66666700  0.02111959  1
  Mo  Mo8  1  0.66666700  0.33333300  0.52111959  1
  Mo  Mo9  1  0.33333300  0.66666700  0.47888041  1
  Mo  Mo10  1  0.33333300  0.66666700  0.75000000  1
  Mo  Mo11  1  0.66666700  0.33333300  0.25000000  1
  P  P12  1  0.62166750  0.67036304  0.89082847  1
  P  P13  1  0.37833250  0.32963696  0.10917153  1
  P  P14  1  0.04869553  0.37833250  0.89082847  1
  P  P15  1  0.04869553  0.67036304  0.60917153  1
  P  P16  1  0.95130447  0.62166750  0.10917153  1
  P  P17  1  0.95130447  0.32963696  0.39082847  1
  P  P18  1  0.32963696  0.95130447  0.89082847  1
  P  P19  1  0.32963696  0.37833250  0.60917153  1
  P  P20  1  0.67036304  0.04869553  0.10917153  1
  P  P21  1  0.67036304  0.62166750  0.39082847  1
  P  P22  1  0.62166750  0.95130447  0.60917153  1
  P  P23  1  0.37833250  0.04869553  0.39082847  1
  O  O24  1  0.55692666  0.74682683  0.95359278  1
  O  O25  1  0.44307334  0.25317317  0.04640722  1
  O  O26  1  0.18990017  0.44307334  0.95359278  1
  O  O27  1  0.18990017  0.74682683  0.54640722  1
  O  O28  1  0.81009983  0.55692666  0.04640722  1
  O  O29  1  0.81009983  0.25317317  0.45359278  1
  O  O30  1  0.25317317  0.81009983  0.95359278  1
  O  O31  1  0.25317317  0.44307334  0.54640722  1
  O  O32  1  0.74682683  0.18990017  0.04640722  1
  O  O33  1  0.74682683  0.55692666  0.45359278  1
  O  O34  1  0.55692666  0.81009983  0.54640722  1
  O  O35  1  0.44307334  0.18990017  0.45359278  1
  O  O36  1  0.53930711  0.66218975  0.81630257  1
  O  O37  1  0.46069289  0.33781025  0.18369743  1
  O  O38  1  0.12288264  0.46069289  0.81630257  1
  O  O39  1  0.12288264  0.66218975  0.68369743  1
  O  O40  1  0.87711736  0.53930711  0.18369743  1
  O  O41  1  0.87711736  0.33781025  0.31630257  1
  O  O42  1  0.33781025  0.87711736  0.81630257  1
  O  O43  1  0.33781025  0.46069289  0.68369743  1
  O  O44  1  0.66218975  0.12288264  0.18369743  1
  O  O45  1  0.66218975  0.53930711  0.31630257  1
  O  O46  1  0.53930711  0.87711736  0.68369743  1
  O  O47  1  0.46069289  0.12288264  0.31630257  1
  O  O48  1  0.00000000  -0.00000000  0.00000000  1
  O  O49  1  0.00000000  -0.00000000  0.50000000  1
  O  O50  1  0.88467008  0.40232393  0.91028205  1
  O  O51  1  0.11532992  0.59767607  0.08971795  1
  O  O52  1  0.51765386  0.11532992  0.91028205  1
  O  O53  1  0.51765386  0.40232393  0.58971795  1
  O  O54  1  0.48234614  0.88467008  0.08971795  1
  O  O55  1  0.48234614  0.59767607  0.41028205  1
  O  O56  1  0.59767607  0.48234614  0.91028205  1
  O  O57  1  0.59767607  0.11532992  0.58971795  1
  O  O58  1  0.40232393  0.51765386  0.08971795  1
  O  O59  1  0.40232393  0.88467008  0.41028205  1
  O  O60  1  0.88467008  0.48234614  0.58971795  1
  O  O61  1  0.11532992  0.51765386  0.41028205  1
  O  O62  1  0.97145801  0.16438890  0.88082839  1
  O  O63  1  0.02854199  0.83561110  0.11917161  1
  O  O64  1  0.19293090  0.02854199  0.88082839  1
  O  O65  1  0.19293090  0.16438890  0.61917161  1
  O  O66  1  0.80706910  0.97145801  0.11917161  1
  O  O67  1  0.80706910  0.83561110  0.38082839  1
  O  O68  1  0.83561110  0.80706910  0.88082839  1
  O  O69  1  0.83561110  0.02854199  0.61917161  1
  O  O70  1  0.16438890  0.19293090  0.11917161  1
  O  O71  1  0.16438890  0.97145801  0.38082839  1
  O  O72  1  0.97145801  0.80706910  0.61917161  1
  O  O73  1  0.02854199  0.19293090  0.38082839  1
