# generated using pymatgen
data_Li9Mn2Co5O16
_symmetry_space_group_name_H-M   'P 1'
_cell_length_a   5.01261389
_cell_length_b   7.91734271
_cell_length_c   7.79858506
_cell_angle_alpha   80.67908617
_cell_angle_beta   102.46692372
_cell_angle_gamma   79.90195681
_symmetry_Int_Tables_number   1
_chemical_formula_structural   Li9Mn2Co5O16
_chemical_formula_sum   'Li9 Mn2 Co5 O16'
_cell_volume   291.02186857
_cell_formula_units_Z   1
loop_
 _symmetry_equiv_pos_site_id
 _symmetry_equiv_pos_as_xyz
  1  'x, y, z'
loop_
 _atom_site_type_symbol
 _atom_site_label
 _atom_site_symmetry_multiplicity
 _atom_site_fract_x
 _atom_site_fract_y
 _atom_site_fract_z
 _atom_site_occupancy
  Li  Li0  1  0.50276923  0.24821680  0.74992839  1
  Li  Li1  1  0.99128153  0.88334610  0.37364646  1
  Li  Li2  1  0.50888874  0.49663803  0.00404596  1
  Li  Li3  1  0.00989445  0.37128374  0.88246210  1
  Li  Li4  1  0.49358729  0.00595769  0.49474144  1
  Li  Li5  1  0.00570103  0.61771090  0.12747705  1
  Li  Li6  1  0.99241968  0.12774454  0.61517336  1
  Li  Li7  1  0.49614576  0.75025849  0.25149309  1
  Li  Li8  1  0.00280381  0.24664088  0.25016534  1
  Mn  Mn9  1  0.99807059  0.00233804  0.00021056  1
  Mn  Mn10  1  0.50155603  0.62165910  0.62577414  1
  Co  Co11  1  0.49211880  0.88214102  0.87606088  1
  Co  Co12  1  0.00354165  0.49848709  0.49699559  1
  Co  Co13  1  0.50114440  0.13094253  0.13176706  1
  Co  Co14  1  0.99643066  0.75327814  0.75063229  1
  Co  Co15  1  0.50850161  0.36417145  0.37072977  1
  O  O16  1  0.76121675  0.99314096  0.76583094  1
  O  O17  1  0.24190440  0.62437593  0.39221004  1
  O  O18  1  0.75926418  0.22075832  0.00315243  1
  O  O19  1  0.23887353  0.11792992  0.88421913  1
  O  O20  1  0.75078451  0.73803576  0.51265061  1
  O  O21  1  0.28227454  0.36689214  0.13927240  1
  O  O22  1  0.24728928  0.87765286  0.64434656  1
  O  O23  1  0.72679659  0.49222677  0.26452429  1
  O  O24  1  0.25237811  0.51014235  0.74362642  1
  O  O25  1  0.73472281  0.12787695  0.36817411  1
  O  O26  1  0.22521351  0.77417172  0.99369349  1
  O  O27  1  0.74790702  0.63023053  0.86263464  1
  O  O28  1  0.27284455  0.26917912  0.48811018  1
  O  O29  1  0.74790440  0.87974755  0.10658239  1
  O  O30  1  0.75881458  0.37532851  0.60338913  1
  O  O31  1  0.24695597  0.00149708  0.22627675  1
