# generated using pymatgen
data_Cs2LaCl5
_symmetry_space_group_name_H-M   'P 1'
_cell_length_a   8.70109427
_cell_length_b   9.28100052
_cell_length_c   14.19024106
_cell_angle_alpha   90.00000000
_cell_angle_beta   90.00000000
_cell_angle_gamma   90.00000000
_symmetry_Int_Tables_number   1
_chemical_formula_structural   Cs2LaCl5
_chemical_formula_sum   'Cs8 La4 Cl20'
_cell_volume   1145.93093647
_cell_formula_units_Z   4
loop_
 _symmetry_equiv_pos_site_id
 _symmetry_equiv_pos_as_xyz
  1  'x, y, z'
loop_
 _atom_site_type_symbol
 _atom_site_label
 _atom_site_symmetry_multiplicity
 _atom_site_fract_x
 _atom_site_fract_y
 _atom_site_fract_z
 _atom_site_occupancy
  Cs  Cs0  1  0.55214240  0.49363279  0.67170267  1
  Cs  Cs1  1  0.44785760  0.50636721  0.32829733  1
  Cs  Cs2  1  0.05214240  0.50636721  0.82829733  1
  Cs  Cs3  1  0.44785760  0.99363279  0.32829733  1
  Cs  Cs4  1  0.94785760  0.49363279  0.17170267  1
  Cs  Cs5  1  0.55214240  0.00636721  0.67170267  1
  Cs  Cs6  1  0.94785760  0.00636721  0.17170267  1
  Cs  Cs7  1  0.05214240  0.99363279  0.82829733  1
  La  La8  1  0.56573689  0.75000000  0.99769507  1
  La  La9  1  0.43426311  0.25000000  0.00230493  1
  La  La10  1  0.06573689  0.25000000  0.50230493  1
  La  La11  1  0.93426311  0.75000000  0.49769507  1
  Cl  Cl12  1  0.38780687  0.75000000  0.83251012  1
  Cl  Cl13  1  0.61219313  0.25000000  0.16748988  1
  Cl  Cl14  1  0.88780687  0.25000000  0.66748988  1
  Cl  Cl15  1  0.11219313  0.75000000  0.33251012  1
  Cl  Cl16  1  0.65445995  0.46103935  0.92988135  1
  Cl  Cl17  1  0.34554005  0.53896065  0.07011865  1
  Cl  Cl18  1  0.15445995  0.53896065  0.57011865  1
  Cl  Cl19  1  0.34554005  0.96103935  0.07011865  1
  Cl  Cl20  1  0.84554005  0.46103935  0.42988135  1
  Cl  Cl21  1  0.65445995  0.03896065  0.92988135  1
  Cl  Cl22  1  0.84554005  0.03896065  0.42988135  1
  Cl  Cl23  1  0.15445995  0.96103935  0.57011865  1
  Cl  Cl24  1  0.89279325  0.75000000  0.98817162  1
  Cl  Cl25  1  0.10720675  0.25000000  0.01182838  1
  Cl  Cl26  1  0.39279325  0.25000000  0.51182838  1
  Cl  Cl27  1  0.60720675  0.75000000  0.48817162  1
  Cl  Cl28  1  0.84814642  0.75000000  0.69010409  1
  Cl  Cl29  1  0.15185358  0.25000000  0.30989591  1
  Cl  Cl30  1  0.34814642  0.25000000  0.80989591  1
  Cl  Cl31  1  0.65185358  0.75000000  0.19010409  1
