# generated using pymatgen
data_Cs2(PSe2)3
_symmetry_space_group_name_H-M   'P 1'
_cell_length_a   10.84842988
_cell_length_b   11.17113266
_cell_length_c   12.78436082
_cell_angle_alpha   98.95862593
_cell_angle_beta   90.00000000
_cell_angle_gamma   90.00000000
_symmetry_Int_Tables_number   1
_chemical_formula_structural   Cs2(PSe2)3
_chemical_formula_sum   'Cs8 P12 Se24'
_cell_volume   1530.42692219
_cell_formula_units_Z   4
loop_
 _symmetry_equiv_pos_site_id
 _symmetry_equiv_pos_as_xyz
  1  'x, y, z'
loop_
 _atom_site_type_symbol
 _atom_site_label
 _atom_site_symmetry_multiplicity
 _atom_site_fract_x
 _atom_site_fract_y
 _atom_site_fract_z
 _atom_site_occupancy
  Cs  Cs0  1  0.00103314  0.99004391  0.74597218  1
  Cs  Cs1  1  0.99896686  0.00995609  0.25402782  1
  Cs  Cs2  1  0.50103314  0.50995609  0.75402782  1
  Cs  Cs3  1  0.49896686  0.49004391  0.24597218  1
  Cs  Cs4  1  0.00040378  0.47634888  0.82158404  1
  Cs  Cs5  1  0.99959622  0.52365112  0.17841596  1
  Cs  Cs6  1  0.50040378  0.02365112  0.67841596  1
  Cs  Cs7  1  0.49959622  0.97634888  0.32158404  1
  P  P8  1  0.04915435  0.56607182  0.56188172  1
  P  P9  1  0.95084565  0.43392818  0.43811828  1
  P  P10  1  0.54915435  0.93392818  0.93811828  1
  P  P11  1  0.45084565  0.06607182  0.06188172  1
  P  P12  1  0.31680286  0.70430088  0.55692328  1
  P  P13  1  0.68319714  0.29569912  0.44307672  1
  P  P14  1  0.81680286  0.79569912  0.94307672  1
  P  P15  1  0.18319714  0.20430088  0.05692328  1
  P  P16  1  0.29914780  0.30469787  0.94436129  1
  P  P17  1  0.70085220  0.69530213  0.05563871  1
  P  P18  1  0.79914780  0.19530213  0.55563871  1
  P  P19  1  0.20085220  0.80469787  0.44436129  1
  Se  Se20  1  0.50731454  0.71194816  0.51059865  1
  Se  Se21  1  0.49268546  0.28805184  0.48940135  1
  Se  Se22  1  0.00731454  0.78805184  0.98940135  1
  Se  Se23  1  0.99268546  0.21194816  0.01059865  1
  Se  Se24  1  0.21196558  -0.00268520  0.49928656  1
  Se  Se25  1  0.78803442  0.00268520  0.50071344  1
  Se  Se26  1  0.71196558  0.50268520  0.00071344  1
  Se  Se27  1  0.28803442  0.49731480  -0.00071344  1
  Se  Se28  1  0.49713003  0.23881323  0.98585132  1
  Se  Se29  1  0.50286997  0.76118677  0.01414868  1
  Se  Se30  1  0.99713003  0.26118677  0.51414868  1
  Se  Se31  1  0.00286997  0.73881323  0.48585132  1
  Se  Se32  1  0.26523860  0.76094937  0.71974072  1
  Se  Se33  1  0.73476140  0.23905063  0.28025928  1
  Se  Se34  1  0.76523860  0.73905063  0.78025928  1
  Se  Se35  1  0.23476140  0.26094937  0.21974072  1
  Se  Se36  1  0.25714442  0.01085784  0.99541445  1
  Se  Se37  1  0.74285558  0.98914216  0.00458555  1
  Se  Se38  1  0.75714442  0.48914216  0.50458555  1
  Se  Se39  1  0.24285558  0.51085784  0.49541445  1
  Se  Se40  1  0.25497006  0.24640105  0.77959564  1
  Se  Se41  1  0.74502994  0.75359895  0.22040436  1
  Se  Se42  1  0.75497006  0.25359895  0.72040436  1
  Se  Se43  1  0.24502994  0.74640105  0.27959564  1
