# generated using pymatgen
data_Ce4Ge7
_symmetry_space_group_name_H-M   'P 1'
_cell_length_a   5.95347040
_cell_length_b   7.70232814
_cell_length_c   11.90406073
_cell_angle_alpha   90.00000000
_cell_angle_beta   90.00000000
_cell_angle_gamma   112.73516265
_symmetry_Int_Tables_number   1
_chemical_formula_structural   Ce4Ge7
_chemical_formula_sum   'Ce8 Ge14'
_cell_volume   503.45431588
_cell_formula_units_Z   2
loop_
 _symmetry_equiv_pos_site_id
 _symmetry_equiv_pos_as_xyz
  1  'x, y, z'
loop_
 _atom_site_type_symbol
 _atom_site_label
 _atom_site_symmetry_multiplicity
 _atom_site_fract_x
 _atom_site_fract_y
 _atom_site_fract_z
 _atom_site_occupancy
  Ce  Ce0  1  0.48434700  0.49044089  0.38048594  1
  Ce  Ce1  1  0.51565300  0.50955911  0.88048594  1
  Ce  Ce2  1  0.00609389  0.49044089  0.11951406  1
  Ce  Ce3  1  0.99390611  0.50955911  0.61951406  1
  Ce  Ce4  1  0.50583945  0.01167890  0.25000000  1
  Ce  Ce5  1  0.49416055  0.98832110  0.75000000  1
  Ce  Ce6  1  0.00919220  0.00000000  -0.00000000  1
  Ce  Ce7  1  0.99080780  0.00000000  0.50000000  1
  Ge  Ge8  1  0.06117769  0.12235539  0.25000000  1
  Ge  Ge9  1  0.93882231  0.87764461  0.75000000  1
  Ge  Ge10  1  0.42053284  0.34707581  0.12765799  1
  Ge  Ge11  1  0.57946716  0.65292419  0.62765799  1
  Ge  Ge12  1  0.92654297  0.34707581  0.37234201  1
  Ge  Ge13  1  0.07345703  0.65292419  0.87234201  1
  Ge  Ge14  1  0.67497153  0.70642433  0.16086290  1
  Ge  Ge15  1  0.32502847  0.29357567  0.66086290  1
  Ge  Ge16  1  0.03145280  0.70642433  0.33913710  1
  Ge  Ge17  1  0.96854720  0.29357567  0.83913710  1
  Ge  Ge18  1  0.42742772  0.82344271  0.00998507  1
  Ge  Ge19  1  0.57257228  0.17655729  0.50998507  1
  Ge  Ge20  1  0.39601499  0.82344271  0.49001493  1
  Ge  Ge21  1  0.60398501  0.17655729  0.99001493  1
