# generated using pymatgen
data_Ho10(Ni7As5)3
_symmetry_space_group_name_H-M   'P 1'
_cell_length_a   3.90443428
_cell_length_b   20.90311038
_cell_length_c   20.90311037
_cell_angle_alpha   119.99999879
_cell_angle_beta   90.00000000
_cell_angle_gamma   90.00000000
_symmetry_Int_Tables_number   1
_chemical_formula_structural   Ho10(Ni7As5)3
_chemical_formula_sum   'Ho20 Ni42 As30'
_cell_volume   1477.44247969
_cell_formula_units_Z   2
loop_
 _symmetry_equiv_pos_site_id
 _symmetry_equiv_pos_as_xyz
  1  'x, y, z'
loop_
 _atom_site_type_symbol
 _atom_site_label
 _atom_site_symmetry_multiplicity
 _atom_site_fract_x
 _atom_site_fract_y
 _atom_site_fract_z
 _atom_site_occupancy
  Ho  Ho0  1  0.75000000  0.54192824  0.83907314  1
  Ho  Ho1  1  0.25000000  0.45807176  0.16092686  1
  Ho  Ho2  1  0.75000000  0.29714490  0.45807176  1
  Ho  Ho3  1  0.25000000  0.70285510  0.54192824  1
  Ho  Ho4  1  0.75000000  0.16092686  0.70285510  1
  Ho  Ho5  1  0.25000000  0.83907314  0.29714490  1
  Ho  Ho6  1  0.75000000  0.33333300  0.66666700  1
  Ho  Ho7  1  0.25000000  0.66666700  0.33333300  1
  Ho  Ho8  1  0.75000000  0.50440041  0.62840805  1
  Ho  Ho9  1  0.25000000  0.49559959  0.37159195  1
  Ho  Ho10  1  0.75000000  0.12400763  0.49559959  1
  Ho  Ho11  1  0.25000000  0.87599237  0.50440041  1
  Ho  Ho12  1  0.75000000  0.37159195  0.87599237  1
  Ho  Ho13  1  0.25000000  0.62840805  0.12400763  1
  Ho  Ho14  1  0.75000000  0.71237652  0.80127895  1
  Ho  Ho15  1  0.25000000  0.28762348  0.19872105  1
  Ho  Ho16  1  0.75000000  0.08890243  0.28762348  1
  Ho  Ho17  1  0.25000000  0.91109757  0.71237652  1
  Ho  Ho18  1  0.75000000  0.19872105  0.91109757  1
  Ho  Ho19  1  0.25000000  0.80127895  0.08890243  1
  Ni  Ni20  1  0.75000000  0.89845828  0.93146038  1
  Ni  Ni21  1  0.25000000  0.10154172  0.06853962  1
  Ni  Ni22  1  0.75000000  0.03300209  0.10154172  1
  Ni  Ni23  1  0.25000000  0.96699791  0.89845828  1
  Ni  Ni24  1  0.75000000  0.06853962  0.96699791  1
  Ni  Ni25  1  0.25000000  0.93146038  0.03300209  1
  Ni  Ni26  1  0.75000000  0.97079609  0.34299614  1
  Ni  Ni27  1  0.25000000  0.02920391  0.65700386  1
  Ni  Ni28  1  0.75000000  0.37220006  0.02920391  1
  Ni  Ni29  1  0.25000000  0.62779994  0.97079609  1
  Ni  Ni30  1  0.75000000  0.65700386  0.62779994  1
  Ni  Ni31  1  0.25000000  0.34299614  0.37220006  1
  Ni  Ni32  1  0.75000000  0.93269082  0.13867035  1
  Ni  Ni33  1  0.25000000  0.06730918  0.86132965  1
  Ni  Ni34  1  0.75000000  0.20597954  0.06730918  1
  Ni  Ni35  1  0.25000000  0.79402046  0.93269082  1
  Ni  Ni36  1  0.75000000  0.86132965  0.79402046  1
  Ni  Ni37  1  0.25000000  0.13867035  0.20597954  1
  Ni  Ni38  1  0.75000000  0.44992563  0.45744189  1
  Ni  Ni39  1  0.25000000  0.55007437  0.54255811  1
  Ni  Ni40  1  0.75000000  0.00751626  0.55007437  1
  Ni  Ni41  1  0.25000000  0.99248374  0.44992563  1
  Ni  Ni42  1  0.75000000  0.54255811  0.99248374  1
  Ni  Ni43  1  0.25000000  0.45744189  0.00751626  1
  Ni  Ni44  1  0.75000000  0.75565819  0.17041971  1
  Ni  Ni45  1  0.25000000  0.24434181  0.82958029  1
  Ni  Ni46  1  0.75000000  0.41476152  0.24434181  1
  Ni  Ni47  1  0.25000000  0.58523848  0.75565819  1
  Ni  Ni48  1  0.75000000  0.82958029  0.58523848  1
  Ni  Ni49  1  0.25000000  0.17041971  0.41476152  1
  Ni  Ni50  1  0.75000000  0.71649710  0.95709710  1
  Ni  Ni51  1  0.25000000  0.28350290  0.04290290  1
  Ni  Ni52  1  0.75000000  0.24060000  0.28350290  1
  Ni  Ni53  1  0.25000000  0.75940000  0.71649710  1
  Ni  Ni54  1  0.75000000  0.04290290  0.75940000  1
  Ni  Ni55  1  0.25000000  0.95709710  0.24060000  1
  Ni  Ni56  1  0.75000000  0.79274271  0.37766917  1
  Ni  Ni57  1  0.25000000  0.20725729  0.62233083  1
  Ni  Ni58  1  0.75000000  0.58492645  0.20725729  1
  Ni  Ni59  1  0.25000000  0.41507355  0.79274271  1
  Ni  Ni60  1  0.75000000  0.62233083  0.41507355  1
  Ni  Ni61  1  0.25000000  0.37766917  0.58492645  1
  As  As62  1  0.75000000  0.88019242  0.21516760  1
  As  As63  1  0.25000000  0.11980758  0.78483240  1
  As  As64  1  0.75000000  0.33497518  0.11980758  1
  As  As65  1  0.25000000  0.66502482  0.88019242  1
  As  As66  1  0.75000000  0.78483240  0.66502482  1
  As  As67  1  0.25000000  0.21516760  0.33497518  1
  As  As68  1  0.75000000  0.71118795  0.25177332  1
  As  As69  1  0.25000000  0.28881205  0.74822668  1
  As  As70  1  0.75000000  0.54058537  0.28881205  1
  As  As71  1  0.25000000  0.45941463  0.71118795  1
  As  As72  1  0.75000000  0.74822668  0.45941463  1
  As  As73  1  0.25000000  0.25177332  0.54058537  1
  As  As74  1  0.75000000  0.67544300  0.04599559  1
  As  As75  1  0.25000000  0.32455700  0.95400441  1
  As  As76  1  0.75000000  0.37055259  0.32455700  1
  As  As77  1  0.25000000  0.62944741  0.67544300  1
  As  As78  1  0.75000000  0.95400441  0.62944741  1
  As  As79  1  0.25000000  0.04599559  0.37055259  1
  As  As80  1  0.75000000  0.84920351  0.01044986  1
  As  As81  1  0.25000000  0.15079649  0.98955014  1
  As  As82  1  0.75000000  0.16124636  0.15079649  1
  As  As83  1  0.25000000  0.83875364  0.84920351  1
  As  As84  1  0.75000000  0.98955014  0.83875364  1
  As  As85  1  0.25000000  0.01044986  0.16124636  1
  As  As86  1  0.75000000  0.91709783  0.42126403  1
  As  As87  1  0.25000000  0.08290217  0.57873597  1
  As  As88  1  0.75000000  0.50416620  0.08290217  1
  As  As89  1  0.25000000  0.49583380  0.91709783  1
  As  As90  1  0.75000000  0.57873597  0.49583380  1
  As  As91  1  0.25000000  0.42126403  0.50416620  1
