# generated using pymatgen
data_Ca3Ge2Au9
_symmetry_space_group_name_H-M   'P 1'
_cell_length_a   4.56103060
_cell_length_b   9.65245958
_cell_length_c   13.43628146
_cell_angle_alpha   90.00000000
_cell_angle_beta   90.00000000
_cell_angle_gamma   90.00000000
_symmetry_Int_Tables_number   1
_chemical_formula_structural   Ca3Ge2Au9
_chemical_formula_sum   'Ca6 Ge4 Au18'
_cell_volume   591.53448824
_cell_formula_units_Z   2
loop_
 _symmetry_equiv_pos_site_id
 _symmetry_equiv_pos_as_xyz
  1  'x, y, z'
loop_
 _atom_site_type_symbol
 _atom_site_label
 _atom_site_symmetry_multiplicity
 _atom_site_fract_x
 _atom_site_fract_y
 _atom_site_fract_z
 _atom_site_occupancy
  Ca  Ca0  1  -0.00000000  0.99642452  0.18851185  1
  Ca  Ca1  1  0.00000000  0.00357548  0.81148815  1
  Ca  Ca2  1  0.50000000  0.50357548  0.68851185  1
  Ca  Ca3  1  0.50000000  0.49642452  0.31148815  1
  Ca  Ca4  1  -0.00000000  0.00000000  0.50000000  1
  Ca  Ca5  1  0.50000000  0.50000000  -0.00000000  1
  Ge  Ge6  1  0.00000000  0.34735739  0.18193004  1
  Ge  Ge7  1  0.00000000  0.65264261  0.81806996  1
  Ge  Ge8  1  0.50000000  0.15264261  0.68193004  1
  Ge  Ge9  1  0.50000000  0.84735739  0.31806996  1
  Au  Au10  1  -0.00000000  0.20114348  0.00400009  1
  Au  Au11  1  -0.00000000  0.79885652  0.99599991  1
  Au  Au12  1  0.50000000  0.29885652  0.50400009  1
  Au  Au13  1  0.50000000  0.70114348  0.49599991  1
  Au  Au14  1  -0.00000000  0.27821976  0.36716830  1
  Au  Au15  1  -0.00000000  0.72178024  0.63283170  1
  Au  Au16  1  0.50000000  0.22178024  0.86716830  1
  Au  Au17  1  0.50000000  0.77821976  0.13283170  1
  Au  Au18  1  0.00000000  0.26124447  0.63443135  1
  Au  Au19  1  0.00000000  0.73875553  0.36556865  1
  Au  Au20  1  0.50000000  0.23875553  0.13443135  1
  Au  Au21  1  0.50000000  0.76124447  0.86556865  1
  Au  Au22  1  -0.00000000  0.60680545  0.16035370  1
  Au  Au23  1  -0.00000000  0.39319455  0.83964630  1
  Au  Au24  1  0.50000000  0.89319455  0.66035370  1
  Au  Au25  1  0.50000000  0.10680545  0.33964630  1
  Au  Au26  1  0.50000000  0.00000000  -0.00000000  1
  Au  Au27  1  0.00000000  0.50000000  0.50000000  1
