# generated using pymatgen
data_CaMnGeO4
_symmetry_space_group_name_H-M   'P 1'
_cell_length_a   5.15177215
_cell_length_b   6.60576705
_cell_length_c   11.44421108
_cell_angle_alpha   90.00000000
_cell_angle_beta   90.00000000
_cell_angle_gamma   90.00000000
_symmetry_Int_Tables_number   1
_chemical_formula_structural   CaMnGeO4
_chemical_formula_sum   'Ca4 Mn4 Ge4 O16'
_cell_volume   389.46260183
_cell_formula_units_Z   4
loop_
 _symmetry_equiv_pos_site_id
 _symmetry_equiv_pos_as_xyz
  1  'x, y, z'
loop_
 _atom_site_type_symbol
 _atom_site_label
 _atom_site_symmetry_multiplicity
 _atom_site_fract_x
 _atom_site_fract_y
 _atom_site_fract_z
 _atom_site_occupancy
  Ca  Ca0  1  0.48950688  0.75000000  0.77725523  1
  Ca  Ca1  1  0.51049312  0.25000000  0.22274477  1
  Ca  Ca2  1  0.98950688  0.25000000  0.72274477  1
  Ca  Ca3  1  0.01049312  0.75000000  0.27725523  1
  Mn  Mn4  1  0.00000000  0.00000000  -0.00000000  1
  Mn  Mn5  1  0.50000000  -0.00000000  0.50000000  1
  Mn  Mn6  1  0.00000000  0.50000000  -0.00000000  1
  Mn  Mn7  1  0.50000000  0.50000000  0.50000000  1
  Ge  Ge8  1  0.92569567  0.75000000  0.58853603  1
  Ge  Ge9  1  0.07430433  0.25000000  0.41146397  1
  Ge  Ge10  1  0.42569567  0.25000000  0.91146397  1
  Ge  Ge11  1  0.57430433  0.75000000  0.08853603  1
  O  O12  1  0.26814813  0.75000000  0.58672470  1
  O  O13  1  0.73185187  0.25000000  0.41327530  1
  O  O14  1  0.76814813  0.25000000  0.91327530  1
  O  O15  1  0.23185187  0.75000000  0.08672470  1
  O  O16  1  0.73527750  0.75000000  0.94824656  1
  O  O17  1  0.26472250  0.25000000  0.05175344  1
  O  O18  1  0.23527750  0.25000000  0.55175344  1
  O  O19  1  0.76472250  0.75000000  0.44824656  1
  O  O20  1  0.77359039  0.96307931  0.65610022  1
  O  O21  1  0.22640961  0.03692069  0.34389978  1
  O  O22  1  0.27359039  0.03692069  0.84389978  1
  O  O23  1  0.22640961  0.46307931  0.34389978  1
  O  O24  1  0.72640961  0.96307931  0.15610022  1
  O  O25  1  0.77359039  0.53692069  0.65610022  1
  O  O26  1  0.72640961  0.53692069  0.15610022  1
  O  O27  1  0.27359039  0.46307931  0.84389978  1
