# generated using pymatgen
data_Ca3Pr2Sb3O14
_symmetry_space_group_name_H-M   'P 1'
_cell_length_a   7.55257161
_cell_length_b   7.55257161
_cell_length_c   7.50545868
_cell_angle_alpha   60.68972063
_cell_angle_beta   60.68972063
_cell_angle_gamma   60.55803365
_symmetry_Int_Tables_number   1
_chemical_formula_structural   Ca3Pr2Sb3O14
_chemical_formula_sum   'Ca3 Pr2 Sb3 O14'
_cell_volume   307.14074257
_cell_formula_units_Z   1
loop_
 _symmetry_equiv_pos_site_id
 _symmetry_equiv_pos_as_xyz
  1  'x, y, z'
loop_
 _atom_site_type_symbol
 _atom_site_label
 _atom_site_symmetry_multiplicity
 _atom_site_fract_x
 _atom_site_fract_y
 _atom_site_fract_z
 _atom_site_occupancy
  Ca  Ca0  1  0.00000000  0.00000000  -0.00000000  1
  Ca  Ca1  1  0.50000000  0.50000000  0.50000000  1
  Ca  Ca2  1  0.50000000  0.50000000  -0.00000000  1
  Pr  Pr3  1  0.50000000  0.00000000  0.50000000  1
  Pr  Pr4  1  0.00000000  0.50000000  0.50000000  1
  Sb  Sb5  1  0.00000000  0.00000000  0.50000000  1
  Sb  Sb6  1  0.50000000  0.00000000  -0.00000000  1
  Sb  Sb7  1  0.00000000  0.50000000  -0.00000000  1
  O  O8  1  0.31328182  0.31328182  0.91162261  1
  O  O9  1  0.68671818  0.68671818  0.08837739  1
  O  O10  1  0.62295224  0.62295224  0.62141557  1
  O  O11  1  0.37704776  0.37704776  0.37858443  1
  O  O12  1  0.68386394  0.08853124  0.68288595  1
  O  O13  1  0.31613606  0.91146876  0.31711405  1
  O  O14  1  0.91146876  0.31613606  0.31711405  1
  O  O15  1  0.08853124  0.68386394  0.68288595  1
  O  O16  1  0.37001039  0.90607204  0.90402070  1
  O  O17  1  0.62998961  0.09392796  0.09597930  1
  O  O18  1  0.09392796  0.62998961  0.09597930  1
  O  O19  1  0.90607204  0.37001039  0.90402070  1
  O  O20  1  0.09575762  0.09575762  0.63017825  1
  O  O21  1  0.90424238  0.90424238  0.36982175  1
