# generated using pymatgen
data_CaCdP2O7
_symmetry_space_group_name_H-M   'P 1'
_cell_length_a   6.73104435
_cell_length_b   6.76353958
_cell_length_c   6.77216432
_cell_angle_alpha   65.67168199
_cell_angle_beta   84.21806422
_cell_angle_gamma   87.29874744
_symmetry_Int_Tables_number   1
_chemical_formula_structural   CaCdP2O7
_chemical_formula_sum   'Ca2 Cd2 P4 O14'
_cell_volume   279.49504532
_cell_formula_units_Z   2
loop_
 _symmetry_equiv_pos_site_id
 _symmetry_equiv_pos_as_xyz
  1  'x, y, z'
loop_
 _atom_site_type_symbol
 _atom_site_label
 _atom_site_symmetry_multiplicity
 _atom_site_fract_x
 _atom_site_fract_y
 _atom_site_fract_z
 _atom_site_occupancy
  Ca  Ca0  1  0.87764420  0.68747877  0.26386028  1
  Ca  Ca1  1  0.12235580  0.31252123  0.73613972  1
  Cd  Cd2  1  0.35098508  0.74102092  0.88870178  1
  Cd  Cd3  1  0.64901492  0.25897908  0.11129822  1
  P  P4  1  0.85225911  0.76950899  0.76167580  1
  P  P5  1  0.14774089  0.23049101  0.23832420  1
  P  P6  1  0.36847914  0.81025561  0.36519377  1
  P  P7  1  0.63152086  0.18974439  0.63480623  1
  O  O8  1  0.01174674  0.83519158  0.87068410  1
  O  O9  1  0.98825326  0.16480842  0.12931590  1
  O  O10  1  0.74293244  0.98332839  0.59979363  1
  O  O11  1  0.25706756  0.01667161  0.40020637  1
  O  O12  1  0.57924663  0.89117470  0.25924044  1
  O  O13  1  0.42075337  0.10882530  0.74075956  1
  O  O14  1  0.93391040  0.65418486  0.61943152  1
  O  O15  1  0.06608960  0.34581514  0.38056848  1
  O  O16  1  0.69059519  0.64017119  0.94552450  1
  O  O17  1  0.30940481  0.35982881  0.05447550  1
  O  O18  1  0.75567913  0.24290477  0.78265857  1
  O  O19  1  0.24432087  0.75709523  0.21734143  1
  O  O20  1  0.36604161  0.63510833  0.59814678  1
  O  O21  1  0.63395839  0.36489167  0.40185322  1
