# generated using pymatgen
data_CaIn2Rh
_symmetry_space_group_name_H-M   'P 1'
_cell_length_a   5.71370775
_cell_length_b   7.95055698
_cell_length_c   16.09568224
_cell_angle_alpha   90.00000000
_cell_angle_beta   90.00000000
_cell_angle_gamma   90.00000000
_symmetry_Int_Tables_number   1
_chemical_formula_structural   CaIn2Rh
_chemical_formula_sum   'Ca8 In16 Rh8'
_cell_volume   731.18111687
_cell_formula_units_Z   8
loop_
 _symmetry_equiv_pos_site_id
 _symmetry_equiv_pos_as_xyz
  1  'x, y, z'
loop_
 _atom_site_type_symbol
 _atom_site_label
 _atom_site_symmetry_multiplicity
 _atom_site_fract_x
 _atom_site_fract_y
 _atom_site_fract_z
 _atom_site_occupancy
  Ca  Ca0  1  0.74718759  0.75000000  0.60329152  1
  Ca  Ca1  1  0.25281241  0.25000000  0.39670848  1
  Ca  Ca2  1  0.24718759  0.25000000  0.89670848  1
  Ca  Ca3  1  0.75281241  0.75000000  0.10329152  1
  Ca  Ca4  1  0.45821225  0.75000000  0.86212375  1
  Ca  Ca5  1  0.54178775  0.25000000  0.13787625  1
  Ca  Ca6  1  0.95821225  0.25000000  0.63787625  1
  Ca  Ca7  1  0.04178775  0.75000000  0.36212375  1
  In  In8  1  0.95755042  0.94958659  0.78769245  1
  In  In9  1  0.04244958  0.05041341  0.21230755  1
  In  In10  1  0.45755042  0.05041341  0.71230755  1
  In  In11  1  0.04244958  0.44958659  0.21230755  1
  In  In12  1  0.54244958  0.94958659  0.28769245  1
  In  In13  1  0.95755042  0.55041341  0.78769245  1
  In  In14  1  0.54244958  0.55041341  0.28769245  1
  In  In15  1  0.45755042  0.44958659  0.71230755  1
  In  In16  1  0.75206892  0.44518219  0.96081864  1
  In  In17  1  0.24793108  0.55481781  0.03918136  1
  In  In18  1  0.25206892  0.55481781  0.53918136  1
  In  In19  1  0.24793108  0.94518219  0.03918136  1
  In  In20  1  0.74793108  0.44518219  0.46081864  1
  In  In21  1  0.75206892  0.05481781  0.96081864  1
  In  In22  1  0.74793108  0.05481781  0.46081864  1
  In  In23  1  0.25206892  0.94518219  0.53918136  1
  Rh  Rh24  1  0.22738388  0.75000000  0.68626101  1
  Rh  Rh25  1  0.77261612  0.25000000  0.31373899  1
  Rh  Rh26  1  0.72738388  0.25000000  0.81373899  1
  Rh  Rh27  1  0.27261612  0.75000000  0.18626101  1
  Rh  Rh28  1  0.98068730  0.75000000  0.92847878  1
  Rh  Rh29  1  0.01931270  0.25000000  0.07152122  1
  Rh  Rh30  1  0.48068730  0.25000000  0.57152122  1
  Rh  Rh31  1  0.51931270  0.75000000  0.42847878  1
