# generated using pymatgen
data_CaGaH5
_symmetry_space_group_name_H-M   'P 1'
_cell_length_a   4.39485595
_cell_length_b   6.65870766
_cell_length_c   6.77253099
_cell_angle_alpha   102.83800297
_cell_angle_beta   90.00000000
_cell_angle_gamma   90.00000000
_symmetry_Int_Tables_number   1
_chemical_formula_structural   CaGaH5
_chemical_formula_sum   'Ca2 Ga2 H10'
_cell_volume   193.23740009
_cell_formula_units_Z   2
loop_
 _symmetry_equiv_pos_site_id
 _symmetry_equiv_pos_as_xyz
  1  'x, y, z'
loop_
 _atom_site_type_symbol
 _atom_site_label
 _atom_site_symmetry_multiplicity
 _atom_site_fract_x
 _atom_site_fract_y
 _atom_site_fract_z
 _atom_site_occupancy
  Ca  Ca0  1  0.49979853  0.82959353  0.33202006  1
  Ca  Ca1  1  0.99979853  0.17040647  0.66797994  1
  Ga  Ga2  1  0.74223180  0.71435249  0.79785776  1
  Ga  Ga3  1  0.24223180  0.28564751  0.20214224  1
  H  H4  1  0.57742321  0.67986057  0.99898621  1
  H  H5  1  0.07742321  0.32013943  0.00101379  1
  H  H6  1  0.99929212  0.87994765  0.41738270  1
  H  H7  1  0.49929212  0.12005235  0.58261730  1
  H  H8  1  0.94932794  0.51815042  0.71088221  1
  H  H9  1  0.44932794  0.48184958  0.28911779  1
  H  H10  1  0.94792698  0.91677494  0.85605455  1
  H  H11  1  0.44792698  0.08322506  0.14394545  1
  H  H12  1  0.48579940  0.73727344  0.63894297  1
  H  H13  1  0.98579940  0.26272656  0.36105703  1
