# generated using pymatgen
data_Ca5Ni9As7
_symmetry_space_group_name_H-M   'P 1'
_cell_length_a   3.99137725
_cell_length_b   9.96588582
_cell_length_c   9.96588582
_cell_angle_alpha   120.00000053
_cell_angle_beta   90.00000000
_cell_angle_gamma   90.00000000
_symmetry_Int_Tables_number   1
_chemical_formula_structural   Ca5Ni9As7
_chemical_formula_sum   'Ca5 Ni9 As7'
_cell_volume   343.30902564
_cell_formula_units_Z   1
loop_
 _symmetry_equiv_pos_site_id
 _symmetry_equiv_pos_as_xyz
  1  'x, y, z'
loop_
 _atom_site_type_symbol
 _atom_site_label
 _atom_site_symmetry_multiplicity
 _atom_site_fract_x
 _atom_site_fract_y
 _atom_site_fract_z
 _atom_site_occupancy
  Ca  Ca0  1  0.50000000  0.76811358  0.88895740  1
  Ca  Ca1  1  0.50000000  0.12084383  0.23188642  1
  Ca  Ca2  1  0.50000000  0.11104260  0.87915617  1
  Ca  Ca3  1  -0.00000000  0.66666700  0.33333300  1
  Ca  Ca4  1  0.50000000  0.33333300  0.66666700  1
  Ni  Ni5  1  -0.00000000  0.57937947  0.95466220  1
  Ni  Ni6  1  -0.00000000  0.37528273  0.42062053  1
  Ni  Ni7  1  -0.00000000  0.04533780  0.62471727  1
  Ni  Ni8  1  -0.00000000  0.86633061  0.17080746  1
  Ni  Ni9  1  -0.00000000  0.30447684  0.13366939  1
  Ni  Ni10  1  -0.00000000  0.82919254  0.69552316  1
  Ni  Ni11  1  0.50000000  0.94424427  0.39621092  1
  Ni  Ni12  1  0.50000000  0.45196665  0.05575573  1
  Ni  Ni13  1  0.50000000  0.60378908  0.54803335  1
  As  As14  1  0.50000000  0.71592071  0.14157623  1
  As  As15  1  0.50000000  0.42565552  0.28407929  1
  As  As16  1  0.50000000  0.85842377  0.57434448  1
  As  As17  1  -0.00000000  -0.00000000  -0.00000000  1
  As  As18  1  -0.00000000  0.57532968  0.67183665  1
  As  As19  1  -0.00000000  0.09650697  0.42467032  1
  As  As20  1  -0.00000000  0.32816335  0.90349303  1
