# generated using pymatgen
data_Li9Mn2Co5O16
_symmetry_space_group_name_H-M   'P 1'
_cell_length_a   2.98142347
_cell_length_b   8.09021449
_cell_length_c   12.11449447
_cell_angle_alpha   90.94493184
_cell_angle_beta   100.52239735
_cell_angle_gamma   89.15604859
_symmetry_Int_Tables_number   1
_chemical_formula_structural   Li9Mn2Co5O16
_chemical_formula_sum   'Li9 Mn2 Co5 O16'
_cell_volume   287.23258254
_cell_formula_units_Z   1
loop_
 _symmetry_equiv_pos_site_id
 _symmetry_equiv_pos_as_xyz
  1  'x, y, z'
loop_
 _atom_site_type_symbol
 _atom_site_label
 _atom_site_symmetry_multiplicity
 _atom_site_fract_x
 _atom_site_fract_y
 _atom_site_fract_z
 _atom_site_occupancy
  Li  Li0  1  0.74141579  0.01101689  0.74542807  1
  Li  Li1  1  0.88124279  0.24630750  0.37627777  1
  Li  Li2  1  0.01634353  0.49914505  0.00469091  1
  Li  Li3  1  0.12940510  0.75399226  0.62503608  1
  Li  Li4  1  0.25522048  0.00027995  0.25115241  1
  Li  Li5  1  0.35820156  0.24805472  0.86652773  1
  Li  Li6  1  0.48379435  0.49155688  0.49910082  1
  Li  Li7  1  0.62674319  0.74843297  0.12594097  1
  Li  Li8  1  0.14317688  0.24442411  0.63111357  1
  Mn  Mn9  1  0.99835327  0.00070162  0.99969535  1
  Mn  Mn10  1  0.74182201  0.49285916  0.74625436  1
  Co  Co11  1  0.24988114  0.50101556  0.25183350  1
  Co  Co12  1  0.35668198  0.75142224  0.87165412  1
  Co  Co13  1  0.51085503  0.00947603  0.50407995  1
  Co  Co14  1  0.63546154  0.25234430  0.12599732  1
  Co  Co15  1  0.87146540  0.75024789  0.37656370  1
  O  O16  1  0.34499648  0.98898602  0.87737388  1
  O  O17  1  0.49213584  0.22413176  0.49579115  1
  O  O18  1  0.64389863  0.48946748  0.13069128  1
  O  O19  1  0.72193872  0.73980500  0.75727715  1
  O  O20  1  0.85653573  0.98469686  0.38151868  1
  O  O21  1  0.98262564  0.24376311  0.00765574  1
  O  O22  1  0.16079642  0.50061315  0.63989156  1
  O  O23  1  0.21783259  0.73978288  0.25529089  1
  O  O24  1  0.14672369  0.99803112  0.61360373  1
  O  O25  1  0.28595706  0.26164995  0.24548239  1
  O  O26  1  0.33302215  0.51127683  0.85932007  1
  O  O27  1  0.51874080  0.76771566  0.49293113  1
  O  O28  1  0.65598920  0.01277829  0.12305014  1
  O  O29  1  0.75909575  0.26778867  0.75204411  1
  O  O30  1  0.85917116  0.51225251  0.37363557  1
  O  O31  1  0.02048307  0.75598363  0.99309990  1
