# generated using pymatgen
data_Ca5V3O13
_symmetry_space_group_name_H-M   'P 1'
_cell_length_a   6.95641125
_cell_length_b   10.01547251
_cell_length_c   10.01547251
_cell_angle_alpha   119.99999603
_cell_angle_beta   90.00000000
_cell_angle_gamma   90.00000000
_symmetry_Int_Tables_number   1
_chemical_formula_structural   Ca5V3O13
_chemical_formula_sum   'Ca10 V6 O26'
_cell_volume   604.30861316
_cell_formula_units_Z   2
loop_
 _symmetry_equiv_pos_site_id
 _symmetry_equiv_pos_as_xyz
  1  'x, y, z'
loop_
 _atom_site_type_symbol
 _atom_site_label
 _atom_site_symmetry_multiplicity
 _atom_site_fract_x
 _atom_site_fract_y
 _atom_site_fract_z
 _atom_site_occupancy
  Ca  Ca0  1  0.20636734  0.66666700  0.33333300  1
  Ca  Ca1  1  0.70636734  0.33333300  0.66666700  1
  Ca  Ca2  1  0.71181450  0.66666700  0.33333300  1
  Ca  Ca3  1  0.21181450  0.33333300  0.66666700  1
  Ca  Ca4  1  0.95917695  0.74804945  0.98559994  1
  Ca  Ca5  1  0.95917695  0.23755049  0.25195055  1
  Ca  Ca6  1  0.45917695  0.25195055  0.01440006  1
  Ca  Ca7  1  0.95917695  0.01440006  0.76244951  1
  Ca  Ca8  1  0.45917695  0.76244951  0.74804945  1
  Ca  Ca9  1  0.45917695  0.98559994  0.23755049  1
  V  V10  1  0.95825790  0.59827353  0.62732013  1
  V  V11  1  0.95825790  0.02904660  0.40172647  1
  V  V12  1  0.45825790  0.40172647  0.37267987  1
  V  V13  1  0.95825790  0.37267987  0.97095340  1
  V  V14  1  0.45825790  0.97095340  0.59827353  1
  V  V15  1  0.45825790  0.62732013  0.02904660  1
  O  O16  1  0.75988416  0.65705508  0.74831013  1
  O  O17  1  0.75988416  0.09125504  0.34294492  1
  O  O18  1  0.25988416  0.34294492  0.25168987  1
  O  O19  1  0.75988416  0.25168987  0.90874496  1
  O  O20  1  0.25988416  0.90874496  0.65705508  1
  O  O21  1  0.25988416  0.74831013  0.09125504  1
  O  O22  1  0.65235623  0.75279486  0.08387940  1
  O  O23  1  0.65235623  0.33108454  0.24720514  1
  O  O24  1  0.15235623  0.24720514  0.91612060  1
  O  O25  1  0.65235623  0.91612060  0.66891546  1
  O  O26  1  0.15235623  0.66891546  0.75279486  1
  O  O27  1  0.15235623  0.08387940  0.33108454  1
  O  O28  1  0.95622798  0.83245742  0.33277539  1
  O  O29  1  0.95622798  0.50031797  0.16754258  1
  O  O30  1  0.45622798  0.16754258  0.66722461  1
  O  O31  1  0.95622798  0.66722461  0.49968203  1
  O  O32  1  0.45622798  0.49968203  0.83245742  1
  O  O33  1  0.45622798  0.33277539  0.50031797  1
  O  O34  1  0.96401206  0.39533855  0.53151613  1
  O  O35  1  0.96401206  0.13617757  0.60466145  1
  O  O36  1  0.46401206  0.60466145  0.46848387  1
  O  O37  1  0.96401206  0.46848387  0.86382243  1
  O  O38  1  0.46401206  0.86382243  0.39533855  1
  O  O39  1  0.46401206  0.53151613  0.13617757  1
  O  O40  1  0.95827232  0.00000000  0.00000000  1
  O  O41  1  0.45827232  0.00000000  0.00000000  1
