# generated using pymatgen
data_Ca11AlSb9
_symmetry_space_group_name_H-M   'P 1'
_cell_length_a   11.86232096
_cell_length_b   12.04463097
_cell_length_c   12.04463097
_cell_angle_alpha   62.71085981
_cell_angle_beta   60.49945364
_cell_angle_gamma   60.49945364
_symmetry_Int_Tables_number   1
_chemical_formula_structural   Ca11AlSb9
_chemical_formula_sum   'Ca22 Al2 Sb18'
_cell_volume   1249.48797808
_cell_formula_units_Z   2
loop_
 _symmetry_equiv_pos_site_id
 _symmetry_equiv_pos_as_xyz
  1  'x, y, z'
loop_
 _atom_site_type_symbol
 _atom_site_label
 _atom_site_symmetry_multiplicity
 _atom_site_fract_x
 _atom_site_fract_y
 _atom_site_fract_z
 _atom_site_occupancy
  Ca  Ca0  1  0.48889696  0.84853190  0.49858188  1
  Ca  Ca1  1  0.16398926  0.49858188  0.84853190  1
  Ca  Ca2  1  0.98889696  0.99858188  0.34853190  1
  Ca  Ca3  1  0.66398926  0.34853190  0.99858188  1
  Ca  Ca4  1  0.91288450  0.73705890  0.29122701  1
  Ca  Ca5  1  0.05882958  0.29122701  0.73705890  1
  Ca  Ca6  1  0.41288450  0.79122701  0.23705890  1
  Ca  Ca7  1  0.55882958  0.23705890  0.79122701  1
  Ca  Ca8  1  0.38268743  0.24429287  0.36069266  1
  Ca  Ca9  1  0.01232705  0.36069266  0.24429287  1
  Ca  Ca10  1  0.88268743  0.86069266  0.74429287  1
  Ca  Ca11  1  0.51232705  0.74429287  0.86069266  1
  Ca  Ca12  1  0.00163528  0.99836472  0.99836472  1
  Ca  Ca13  1  0.50163528  0.49836472  0.49836472  1
  Ca  Ca14  1  0.63998502  0.98964573  0.09812610  1
  Ca  Ca15  1  0.27224315  0.09812610  0.98964573  1
  Ca  Ca16  1  0.13998502  0.59812610  0.48964573  1
  Ca  Ca17  1  0.77224315  0.48964573  0.59812610  1
  Ca  Ca18  1  0.57882449  0.05874768  0.60597294  1
  Ca  Ca19  1  0.75645489  0.60597294  0.05874768  1
  Ca  Ca20  1  0.07882449  0.10597294  0.55874768  1
  Ca  Ca21  1  0.25645489  0.55874768  0.10597294  1
  Al  Al22  1  0.72153166  0.27846834  0.27846834  1
  Al  Al23  1  0.22153166  0.77846834  0.77846834  1
  Sb  Sb24  1  0.28349138  0.99789890  0.72466192  1
  Sb  Sb25  1  0.99394780  0.72466192  0.99789890  1
  Sb  Sb26  1  0.78349138  0.22466192  0.49789890  1
  Sb  Sb27  1  0.49394780  0.49789890  0.22466192  1
  Sb  Sb28  1  0.78904418  0.78562925  0.56555538  1
  Sb  Sb29  1  0.85977119  0.56555538  0.78562925  1
  Sb  Sb30  1  0.28904418  0.06555538  0.28562925  1
  Sb  Sb31  1  0.35977119  0.28562925  0.06555538  1
  Sb  Sb32  1  0.69897795  0.05687646  0.28596996  1
  Sb  Sb33  1  0.95817564  0.28596996  0.05687646  1
  Sb  Sb34  1  0.19897795  0.78596996  0.55687646  1
  Sb  Sb35  1  0.45817564  0.55687646  0.78596996  1
  Sb  Sb36  1  0.33313264  0.31329035  0.66766918  1
  Sb  Sb37  1  0.68590783  0.66766918  0.31329035  1
  Sb  Sb38  1  0.83313264  0.16766918  0.81329035  1
  Sb  Sb39  1  0.18590783  0.81329035  0.16766918  1
  Sb  Sb40  1  0.57856212  0.92143788  0.92143788  1
  Sb  Sb41  1  0.07856212  0.42143788  0.42143788  1
