# generated using pymatgen
data_Ba6Nd2Al4O15
_symmetry_space_group_name_H-M   'P 1'
_cell_length_a   6.04285471
_cell_length_b   8.03670359
_cell_length_c   18.75721315
_cell_angle_alpha   91.33312144
_cell_angle_beta   90.00000000
_cell_angle_gamma   90.00000000
_symmetry_Int_Tables_number   1
_chemical_formula_structural   Ba6Nd2Al4O15
_chemical_formula_sum   'Ba12 Nd4 Al8 O30'
_cell_volume   910.69059013
_cell_formula_units_Z   2
loop_
 _symmetry_equiv_pos_site_id
 _symmetry_equiv_pos_as_xyz
  1  'x, y, z'
loop_
 _atom_site_type_symbol
 _atom_site_label
 _atom_site_symmetry_multiplicity
 _atom_site_fract_x
 _atom_site_fract_y
 _atom_site_fract_z
 _atom_site_occupancy
  Ba  Ba0  1  0.75727397  0.50289201  0.41648407  1
  Ba  Ba1  1  0.24272603  0.49710799  0.58351593  1
  Ba  Ba2  1  0.75727397  0.49710799  0.08351593  1
  Ba  Ba3  1  0.24272603  0.50289201  0.91648407  1
  Ba  Ba4  1  0.74139267  0.96633938  0.40876867  1
  Ba  Ba5  1  0.25860733  0.03366062  0.59123133  1
  Ba  Ba6  1  0.74139267  0.03366062  0.09123133  1
  Ba  Ba7  1  0.25860733  0.96633938  0.90876867  1
  Ba  Ba8  1  0.72586786  0.00000000  0.75000000  1
  Ba  Ba9  1  0.27413214  0.00000000  0.25000000  1
  Ba  Ba10  1  0.66761180  0.50000000  0.75000000  1
  Ba  Ba11  1  0.33238820  0.50000000  0.25000000  1
  Nd  Nd12  1  0.74653391  0.75216628  0.59013259  1
  Nd  Nd13  1  0.25346609  0.24783372  0.40986741  1
  Nd  Nd14  1  0.74653391  0.24783372  0.90986741  1
  Nd  Nd15  1  0.25346609  0.75216628  0.09013259  1
  Al  Al16  1  0.75308097  0.75306602  0.94161533  1
  Al  Al17  1  0.24691903  0.24693398  0.05838467  1
  Al  Al18  1  0.75308097  0.24693398  0.55838467  1
  Al  Al19  1  0.24691903  0.75306602  0.44161533  1
  Al  Al20  1  0.77512251  0.78072827  0.23468815  1
  Al  Al21  1  0.22487749  0.21927173  0.76531185  1
  Al  Al22  1  0.77512251  0.21927173  0.26531185  1
  Al  Al23  1  0.22487749  0.78072827  0.73468815  1
  O  O24  1  0.21290549  0.00000000  0.75000000  1
  O  O25  1  0.78709451  0.00000000  0.25000000  1
  O  O26  1  0.48876304  0.76463514  0.49756641  1
  O  O27  1  0.51123696  0.23536486  0.50243359  1
  O  O28  1  0.48876304  0.23536486  0.00243359  1
  O  O29  1  0.51123696  0.76463514  0.99756641  1
  O  O30  1  0.75939638  0.93947537  0.89075397  1
  O  O31  1  0.24060362  0.06052463  0.10924603  1
  O  O32  1  0.75939638  0.06052463  0.60924603  1
  O  O33  1  0.24060362  0.93947537  0.39075397  1
  O  O34  1  0.00747013  0.76219781  0.49923878  1
  O  O35  1  0.99252987  0.23780219  0.50076122  1
  O  O36  1  0.00747013  0.23780219  0.00076122  1
  O  O37  1  0.99252987  0.76219781  0.99923878  1
  O  O38  1  0.31408964  0.69646495  0.81529789  1
  O  O39  1  0.68591036  0.30353505  0.18470211  1
  O  O40  1  0.31408964  0.30353505  0.68470211  1
  O  O41  1  0.68591036  0.69646495  0.31529789  1
  O  O42  1  0.43836964  0.75036551  0.66843436  1
  O  O43  1  0.56163036  0.24963449  0.33156564  1
  O  O44  1  0.43836964  0.24963449  0.83156564  1
  O  O45  1  0.56163036  0.75036551  0.16843436  1
  O  O46  1  0.96613672  0.72998500  0.69510882  1
  O  O47  1  0.03386328  0.27001500  0.30489118  1
  O  O48  1  0.96613672  0.27001500  0.80489118  1
  O  O49  1  0.03386328  0.72998500  0.19510882  1
  O  O50  1  0.75541650  0.54461876  0.90495517  1
  O  O51  1  0.24458350  0.45538124  0.09504483  1
  O  O52  1  0.75541650  0.45538124  0.59504483  1
  O  O53  1  0.24458350  0.54461876  0.40495517  1
