# generated using pymatgen
data_Ca11GaSb9
_symmetry_space_group_name_H-M   'P 1'
_cell_length_a   11.87508075
_cell_length_b   12.05587535
_cell_length_c   12.05587535
_cell_angle_alpha   62.61137820
_cell_angle_beta   60.49485060
_cell_angle_gamma   60.49485060
_symmetry_Int_Tables_number   1
_chemical_formula_structural   Ca11GaSb9
_chemical_formula_sum   'Ca22 Ga2 Sb18'
_cell_volume   1252.28508770
_cell_formula_units_Z   2
loop_
 _symmetry_equiv_pos_site_id
 _symmetry_equiv_pos_as_xyz
  1  'x, y, z'
loop_
 _atom_site_type_symbol
 _atom_site_label
 _atom_site_symmetry_multiplicity
 _atom_site_fract_x
 _atom_site_fract_y
 _atom_site_fract_z
 _atom_site_occupancy
  Ca  Ca0  1  0.91423931  0.73567425  0.29030909  1
  Ca  Ca1  1  0.05977735  0.29030909  0.73567425  1
  Ca  Ca2  1  0.41423931  0.79030909  0.23567425  1
  Ca  Ca3  1  0.55977735  0.23567425  0.79030909  1
  Ca  Ca4  1  0.57641152  0.05923683  0.60449311  1
  Ca  Ca5  1  0.75985854  0.60449311  0.05923683  1
  Ca  Ca6  1  0.07641152  0.10449311  0.55923683  1
  Ca  Ca7  1  0.25985854  0.55923683  0.10449311  1
  Ca  Ca8  1  0.63434770  0.99368417  0.09980718  1
  Ca  Ca9  1  0.27216095  0.09980718  0.99368417  1
  Ca  Ca10  1  0.13434770  0.59980718  0.49368417  1
  Ca  Ca11  1  0.77216095  0.49368417  0.59980718  1
  Ca  Ca12  1  0.48336032  0.84742737  0.50117881  1
  Ca  Ca13  1  0.16803349  0.50117881  0.84742737  1
  Ca  Ca14  1  0.98336032  0.00117881  0.34742737  1
  Ca  Ca15  1  0.66803349  0.34742737  0.00117881  1
  Ca  Ca16  1  0.00143558  0.99856442  0.99856442  1
  Ca  Ca17  1  0.50143558  0.49856442  0.49856442  1
  Ca  Ca18  1  0.38166434  0.24295120  0.35781434  1
  Ca  Ca19  1  0.01757013  0.35781434  0.24295120  1
  Ca  Ca20  1  0.88166434  0.85781434  0.74295120  1
  Ca  Ca21  1  0.51757013  0.74295120  0.85781434  1
  Ga  Ga22  1  0.72051197  0.27948803  0.27948803  1
  Ga  Ga23  1  0.22051197  0.77948803  0.77948803  1
  Sb  Sb24  1  0.28334262  0.99889133  0.72521174  1
  Sb  Sb25  1  0.99255431  0.72521174  0.99889133  1
  Sb  Sb26  1  0.78334262  0.22521174  0.49889133  1
  Sb  Sb27  1  0.49255431  0.49889133  0.22521174  1
  Sb  Sb28  1  0.78820489  0.78568393  0.56529285  1
  Sb  Sb29  1  0.86081833  0.56529285  0.78568393  1
  Sb  Sb30  1  0.28820489  0.06529285  0.28568393  1
  Sb  Sb31  1  0.36081833  0.28568393  0.06529285  1
  Sb  Sb32  1  0.69931076  0.05414078  0.28623012  1
  Sb  Sb33  1  0.96031834  0.28623012  0.05414078  1
  Sb  Sb34  1  0.19931076  0.78623012  0.55414078  1
  Sb  Sb35  1  0.46031834  0.55414078  0.78623012  1
  Sb  Sb36  1  0.57827905  0.92172095  0.92172095  1
  Sb  Sb37  1  0.07827905  0.42172095  0.42172095  1
  Sb  Sb38  1  0.33207238  0.31227282  0.67122669  1
  Sb  Sb39  1  0.68442811  0.67122669  0.31227282  1
  Sb  Sb40  1  0.83207238  0.17122669  0.81227282  1
  Sb  Sb41  1  0.18442811  0.81227282  0.17122669  1
