# generated using pymatgen
data_Ce(AlBr4)3
_symmetry_space_group_name_H-M   'P 1'
_cell_length_a   10.74831675
_cell_length_b   10.74831675
_cell_length_c   19.25801360
_cell_angle_alpha   90.00000000
_cell_angle_beta   90.00000000
_cell_angle_gamma   120.00000447
_symmetry_Int_Tables_number   1
_chemical_formula_structural   Ce(AlBr4)3
_chemical_formula_sum   'Ce3 Al9 Br36'
_cell_volume   1926.73955752
_cell_formula_units_Z   3
loop_
 _symmetry_equiv_pos_site_id
 _symmetry_equiv_pos_as_xyz
  1  'x, y, z'
loop_
 _atom_site_type_symbol
 _atom_site_label
 _atom_site_symmetry_multiplicity
 _atom_site_fract_x
 _atom_site_fract_y
 _atom_site_fract_z
 _atom_site_occupancy
  Ce  Ce0  1  0.27337741  0.27337741  0.16666700  1
  Ce  Ce1  1  1.00000000  0.72662259  0.83333300  1
  Ce  Ce2  1  0.72662259  1.00000000  0.50000000  1
  Al  Al3  1  0.69619456  0.32677413  0.77966413  1
  Al  Al4  1  0.63057957  0.30380544  0.44633113  1
  Al  Al5  1  0.36942043  0.67322587  0.22033587  1
  Al  Al6  1  0.67322587  0.36942043  0.11299713  1
  Al  Al7  1  0.32677413  0.69619456  0.55366887  1
  Al  Al8  1  0.30380544  0.63057957  0.88700287  1
  Al  Al9  1  0.90011198  0.90011198  0.66666700  1
  Al  Al10  1  1.00000000  0.09988802  0.33333300  1
  Al  Al11  1  0.09988802  1.00000000  -0.00000000  1
  Br  Br12  1  0.92289371  0.12019016  0.63528272  1
  Br  Br13  1  0.19729646  0.07710629  0.30194972  1
  Br  Br14  1  0.80270354  0.87980984  0.36471728  1
  Br  Br15  1  0.87980984  0.80270354  0.96861572  1
  Br  Br16  1  0.12019016  0.92289371  0.69805028  1
  Br  Br17  1  0.07710629  0.19729646  0.03138428  1
  Br  Br18  1  0.91518409  0.50159520  0.72336406  1
  Br  Br19  1  0.58641110  0.08481591  0.39003106  1
  Br  Br20  1  0.41358890  0.49840480  0.27663594  1
  Br  Br21  1  0.49840480  0.41358890  0.05669706  1
  Br  Br22  1  0.50159520  0.91518409  0.60996894  1
  Br  Br23  1  0.08481591  0.58641110  0.94330294  1
  Br  Br24  1  0.49584421  0.77151775  0.95521912  1
  Br  Br25  1  0.27567353  0.50415579  0.62188612  1
  Br  Br26  1  0.72432647  0.22848225  0.04478088  1
  Br  Br27  1  0.22848225  0.72432647  0.28855212  1
  Br  Br28  1  0.77151775  0.49584421  0.37811388  1
  Br  Br29  1  0.50415579  0.27567353  0.71144788  1
  Br  Br30  1  0.76386885  0.28856474  0.54260406  1
  Br  Br31  1  0.52469589  0.23613115  0.20927106  1
  Br  Br32  1  0.47530411  0.71143526  0.45739594  1
  Br  Br33  1  0.71143526  0.47530411  0.87593706  1
  Br  Br34  1  0.28856474  0.76386885  0.79072894  1
  Br  Br35  1  0.23613115  0.52469589  0.12406294  1
  Br  Br36  1  0.76745541  0.79461615  0.76759423  1
  Br  Br37  1  0.02716074  0.23254459  0.43426123  1
  Br  Br38  1  0.97283926  0.20538385  0.23240577  1
  Br  Br39  1  0.20538385  0.97283926  0.10092723  1
  Br  Br40  1  0.79461615  0.76745541  0.56573877  1
  Br  Br41  1  0.23254459  0.02716074  0.89907277  1
  Br  Br42  1  0.71600350  0.13695848  0.81662482  1
  Br  Br43  1  0.42095498  0.28399650  0.48329182  1
  Br  Br44  1  0.57904502  0.86304152  0.18337518  1
  Br  Br45  1  0.86304152  0.57904502  0.14995782  1
  Br  Br46  1  0.13695848  0.71600350  0.51670818  1
  Br  Br47  1  0.28399650  0.42095498  0.85004218  1
