# generated using pymatgen
data_Li9Mn2Co5O16
_symmetry_space_group_name_H-M   'P 1'
_cell_length_a   5.01543964
_cell_length_b   10.24382460
_cell_length_c   5.95140456
_cell_angle_alpha   91.51321799
_cell_angle_beta   76.10204575
_cell_angle_gamma   79.84412216
_symmetry_Int_Tables_number   1
_chemical_formula_structural   Li9Mn2Co5O16
_chemical_formula_sum   'Li9 Mn2 Co5 O16'
_cell_volume   291.40763004
_cell_formula_units_Z   1
loop_
 _symmetry_equiv_pos_site_id
 _symmetry_equiv_pos_as_xyz
  1  'x, y, z'
loop_
 _atom_site_type_symbol
 _atom_site_label
 _atom_site_symmetry_multiplicity
 _atom_site_fract_x
 _atom_site_fract_y
 _atom_site_fract_z
 _atom_site_occupancy
  Li  Li0  1  0.49813666  0.13246935  0.37011448  1
  Li  Li1  1  0.99578387  0.25158138  0.24485996  1
  Li  Li2  1  0.00239144  0.00443609  0.50538635  1
  Li  Li3  1  0.50974672  0.37063167  0.12351044  1
  Li  Li4  1  0.01181460  0.49240201  0.99908745  1
  Li  Li5  1  0.49462227  0.62395031  0.87021809  1
  Li  Li6  1  0.99300499  0.74949818  0.75033049  1
  Li  Li7  1  0.49777050  0.87367611  0.63336160  1
  Li  Li8  1  0.99682786  0.24940130  0.75503541  1
  Mn  Mn9  1  0.00592533  0.99912490  0.99619121  1
  Mn  Mn10  1  0.49876298  0.62596932  0.37481011  1
  Co  Co11  1  0.49741381  0.13176630  0.87119854  1
  Co  Co12  1  0.48814395  0.36917340  0.64015612  1
  Co  Co13  1  0.99216508  0.49813663  0.50184401  1
  Co  Co14  1  0.00383696  0.75232024  0.24688878  1
  Co  Co15  1  0.51061377  0.87547208  0.11600753  1
  O  O16  1  0.75383278  0.16818030  0.05632812  1
  O  O17  1  0.26476492  0.30865768  0.93697981  1
  O  O18  1  0.25232010  0.05123057  0.17719813  1
  O  O19  1  0.72486432  0.43433052  0.78536231  1
  O  O20  1  0.23693192  0.54742830  0.68267405  1
  O  O21  1  0.74364979  0.68353435  0.55016803  1
  O  O22  1  0.25871031  0.80466206  0.41369066  1
  O  O23  1  0.78517019  0.93196652  0.28158190  1
  O  O24  1  0.24117771  0.05714862  0.72505029  1
  O  O25  1  0.71351594  0.19657387  0.58125404  1
  O  O26  1  0.76170240  0.94158566  0.82588366  1
  O  O27  1  0.26949584  0.32281805  0.45473550  1
  O  O28  1  0.75498111  0.44951083  0.31419071  1
  O  O29  1  0.23713925  0.57634329  0.20578116  1
  O  O30  1  0.75783027  0.70275017  0.06829803  1
  O  O31  1  0.24695237  0.82326891  0.94182103  1
