# generated using pymatgen
data_Ba3TmRu2O9
_symmetry_space_group_name_H-M   'P 1'
_cell_length_a   5.93107588
_cell_length_b   5.93107588
_cell_length_c   14.54995609
_cell_angle_alpha   90.00000000
_cell_angle_beta   90.00000000
_cell_angle_gamma   119.99999615
_symmetry_Int_Tables_number   1
_chemical_formula_structural   Ba3TmRu2O9
_chemical_formula_sum   'Ba6 Tm2 Ru4 O18'
_cell_volume   443.26076437
_cell_formula_units_Z   2
loop_
 _symmetry_equiv_pos_site_id
 _symmetry_equiv_pos_as_xyz
  1  'x, y, z'
loop_
 _atom_site_type_symbol
 _atom_site_label
 _atom_site_symmetry_multiplicity
 _atom_site_fract_x
 _atom_site_fract_y
 _atom_site_fract_z
 _atom_site_occupancy
  Ba  Ba0  1  0.66666700  0.33333300  0.90708998  1
  Ba  Ba1  1  0.33333300  0.66666700  0.09291002  1
  Ba  Ba2  1  0.33333300  0.66666700  0.40708998  1
  Ba  Ba3  1  0.66666700  0.33333300  0.59291002  1
  Ba  Ba4  1  0.00000000  0.00000000  0.75000000  1
  Ba  Ba5  1  0.00000000  0.00000000  0.25000000  1
  Tm  Tm6  1  0.00000000  0.00000000  -0.00000000  1
  Tm  Tm7  1  0.00000000  0.00000000  0.50000000  1
  Ru  Ru8  1  0.66666700  0.33333300  0.33655043  1
  Ru  Ru9  1  0.33333300  0.66666700  0.66344957  1
  Ru  Ru10  1  0.33333300  0.66666700  0.83655043  1
  Ru  Ru11  1  0.66666700  0.33333300  0.16344957  1
  O  O12  1  0.48969112  0.51030888  0.75000000  1
  O  O13  1  0.51030888  0.48969112  0.25000000  1
  O  O14  1  0.02061776  0.51030888  0.75000000  1
  O  O15  1  0.97938224  0.48969112  0.25000000  1
  O  O16  1  0.48969112  0.97938224  0.75000000  1
  O  O17  1  0.51030888  0.02061776  0.25000000  1
  O  O18  1  0.82537107  0.17462893  0.41297424  1
  O  O19  1  0.17462893  0.82537107  0.58702576  1
  O  O20  1  0.34925785  0.17462893  0.41297424  1
  O  O21  1  0.17462893  0.82537107  0.91297424  1
  O  O22  1  0.65074215  0.82537107  0.58702576  1
  O  O23  1  0.82537107  0.17462893  0.08702576  1
  O  O24  1  0.82537107  0.65074215  0.41297424  1
  O  O25  1  0.65074215  0.82537107  0.91297424  1
  O  O26  1  0.17462893  0.34925785  0.58702576  1
  O  O27  1  0.34925785  0.17462893  0.08702576  1
  O  O28  1  0.17462893  0.34925785  0.91297424  1
  O  O29  1  0.82537107  0.65074215  0.08702576  1
