# generated using pymatgen
data_Bi6As4PbO20
_symmetry_space_group_name_H-M   'P 1'
_cell_length_a   7.20124620
_cell_length_b   7.99431842
_cell_length_c   9.50705158
_cell_angle_alpha   106.75700426
_cell_angle_beta   93.78333637
_cell_angle_gamma   111.98307999
_symmetry_Int_Tables_number   1
_chemical_formula_structural   Bi6As4PbO20
_chemical_formula_sum   'Bi6 As4 Pb1 O20'
_cell_volume   476.55568444
_cell_formula_units_Z   1
loop_
 _symmetry_equiv_pos_site_id
 _symmetry_equiv_pos_as_xyz
  1  'x, y, z'
loop_
 _atom_site_type_symbol
 _atom_site_label
 _atom_site_symmetry_multiplicity
 _atom_site_fract_x
 _atom_site_fract_y
 _atom_site_fract_z
 _atom_site_occupancy
  Bi  Bi0  1  0.33604737  0.12199647  0.51451139  1
  Bi  Bi1  1  0.66395263  0.87800353  0.48548861  1
  Bi  Bi2  1  0.43991262  0.79905249  0.08528105  1
  Bi  Bi3  1  0.56008738  0.20094751  0.91471895  1
  Bi  Bi4  1  0.80179287  0.29318842  0.32419255  1
  Bi  Bi5  1  0.19820713  0.70681158  0.67580745  1
  As  As6  1  0.04736863  0.27333584  0.75886266  1
  As  As7  1  0.95263137  0.72666416  0.24113734  1
  As  As8  1  0.34944696  0.40154526  0.25730344  1
  As  As9  1  0.65055304  0.59845474  0.74269656  1
  Pb  Pb10  1  -0.00000000  0.00000000  -0.00000000  1
  O  O11  1  0.11691201  0.25096685  0.27992119  1
  O  O12  1  0.88308799  0.74903315  0.72007881  1
  O  O13  1  0.15077710  0.51955443  0.83691365  1
  O  O14  1  0.84922290  0.48044557  0.16308635  1
  O  O15  1  0.66737657  0.09298446  0.10089609  1
  O  O16  1  0.33262343  0.90701554  0.89910391  1
  O  O17  1  0.55229090  0.02912917  0.36414461  1
  O  O18  1  0.44770910  0.97087083  0.63585539  1
  O  O19  1  0.37172820  0.63432995  0.31024257  1
  O  O20  1  0.62827180  0.36567005  0.68975743  1
  O  O21  1  0.22762625  0.17676594  0.75502558  1
  O  O22  1  0.77237375  0.82323406  0.24497442  1
  O  O23  1  0.53961592  0.38696674  0.36715599  1
  O  O24  1  0.46038408  0.61303326  0.63284401  1
  O  O25  1  0.06199337  0.80001409  0.42836841  1
  O  O26  1  0.93800663  0.19998591  0.57163159  1
  O  O27  1  0.13050074  0.83050326  0.14422679  1
  O  O28  1  0.86949926  0.16949674  0.85577321  1
  O  O29  1  0.35193800  0.31796657  0.06907400  1
  O  O30  1  0.64806200  0.68203343  0.93092600  1
