# generated using pymatgen
data_Ce6Ni20As13
_symmetry_space_group_name_H-M   'P 1'
_cell_length_a   3.93032560
_cell_length_b   13.15022847
_cell_length_c   13.15022847
_cell_angle_alpha   120.00000105
_cell_angle_beta   90.00000000
_cell_angle_gamma   90.00000000
_symmetry_Int_Tables_number   1
_chemical_formula_structural   Ce6Ni20As13
_chemical_formula_sum   'Ce6 Ni20 As13'
_cell_volume   588.60744865
_cell_formula_units_Z   1
loop_
 _symmetry_equiv_pos_site_id
 _symmetry_equiv_pos_as_xyz
  1  'x, y, z'
loop_
 _atom_site_type_symbol
 _atom_site_label
 _atom_site_symmetry_multiplicity
 _atom_site_fract_x
 _atom_site_fract_y
 _atom_site_fract_z
 _atom_site_occupancy
  Ce  Ce0  1  0.00000000  0.53062649  0.81260482  1
  Ce  Ce1  1  0.00000000  0.28197833  0.46937351  1
  Ce  Ce2  1  -0.00000000  0.18739518  0.71802167  1
  Ce  Ce3  1  0.50000000  0.81324559  0.28054859  1
  Ce  Ce4  1  0.50000000  0.46730300  0.18675441  1
  Ce  Ce5  1  0.50000000  0.71945141  0.53269700  1
  Ni  Ni6  1  0.00000000  0.80226770  0.91186203  1
  Ni  Ni7  1  0.00000000  0.10959433  0.19773230  1
  Ni  Ni8  1  -0.00000000  0.08813797  0.89040567  1
  Ni  Ni9  1  0.50000000  0.33333300  0.66666700  1
  Ni  Ni10  1  0.50000000  0.93142897  0.08400525  1
  Ni  Ni11  1  0.50000000  0.15257628  0.06857103  1
  Ni  Ni12  1  0.50000000  0.91599475  0.84742372  1
  Ni  Ni13  1  0.00000000  0.66666700  0.33333300  1
  Ni  Ni14  1  0.00000000  0.56303680  0.58626682  1
  Ni  Ni15  1  -0.00000000  0.02323002  0.43696320  1
  Ni  Ni16  1  -0.00000000  0.41373318  0.97676998  1
  Ni  Ni17  1  0.50000000  0.68569595  0.75503237  1
  Ni  Ni18  1  0.50000000  0.06933642  0.31430405  1
  Ni  Ni19  1  0.50000000  0.24496763  0.93066358  1
  Ni  Ni20  1  0.50000000  0.97630201  0.56415284  1
  Ni  Ni21  1  0.50000000  0.58785083  0.02369799  1
  Ni  Ni22  1  0.50000000  0.43584716  0.41214917  1
  Ni  Ni23  1  0.00000000  0.75607833  0.07551934  1
  Ni  Ni24  1  0.00000000  0.31944101  0.24392167  1
  Ni  Ni25  1  -0.00000000  0.92448066  0.68055899  1
  As  As26  1  0.50000000  0.47904860  0.61313660  1
  As  As27  1  0.50000000  0.13408800  0.52095140  1
  As  As28  1  0.50000000  0.38686340  0.86591200  1
  As  As29  1  0.50000000  0.72349180  0.95538573  1
  As  As30  1  0.50000000  0.23189393  0.27650820  1
  As  As31  1  0.50000000  0.04461427  0.76810607  1
  As  As32  1  -0.00000000  0.86516323  0.47797611  1
  As  As33  1  -0.00000000  0.61281287  0.13483677  1
  As  As34  1  0.00000000  0.52202389  0.38718713  1
  As  As35  1  0.00000000  0.95264348  0.23075222  1
  As  As36  1  -0.00000000  0.27810874  0.04735652  1
  As  As37  1  0.00000000  0.76924778  0.72189126  1
  As  As38  1  0.00000000  -0.00000000  -0.00000000  1
