# generated using pymatgen
data_Be3Tl2Ni2F12
_symmetry_space_group_name_H-M   'P 1'
_cell_length_a   10.11121954
_cell_length_b   10.11121954
_cell_length_c   10.11121954
_cell_angle_alpha   90.00000000
_cell_angle_beta   90.00000000
_cell_angle_gamma   90.00000000
_symmetry_Int_Tables_number   1
_chemical_formula_structural   Be3Tl2Ni2F12
_chemical_formula_sum   'Be12 Tl8 Ni8 F48'
_cell_volume   1033.73833134
_cell_formula_units_Z   4
loop_
 _symmetry_equiv_pos_site_id
 _symmetry_equiv_pos_as_xyz
  1  'x, y, z'
loop_
 _atom_site_type_symbol
 _atom_site_label
 _atom_site_symmetry_multiplicity
 _atom_site_fract_x
 _atom_site_fract_y
 _atom_site_fract_z
 _atom_site_occupancy
  Be  Be0  1  0.02045604  0.21327434  0.37572088  1
  Be  Be1  1  0.47954396  0.78672566  0.87572088  1
  Be  Be2  1  0.97954396  0.71327434  0.12427912  1
  Be  Be3  1  0.37572088  0.02045604  0.21327434  1
  Be  Be4  1  0.52045604  0.28672566  0.62427912  1
  Be  Be5  1  0.87572088  0.47954396  0.78672566  1
  Be  Be6  1  0.12427912  0.97954396  0.71327434  1
  Be  Be7  1  0.62427912  0.52045604  0.28672566  1
  Be  Be8  1  0.21327434  0.37572088  0.02045604  1
  Be  Be9  1  0.71327434  0.12427912  0.97954396  1
  Be  Be10  1  0.28672566  0.62427912  0.52045604  1
  Be  Be11  1  0.78672566  0.87572088  0.47954396  1
  Tl  Tl12  1  0.04877757  0.04877757  0.04877757  1
  Tl  Tl13  1  0.45122243  0.95122243  0.54877757  1
  Tl  Tl14  1  0.95122243  0.54877757  0.45122243  1
  Tl  Tl15  1  0.54877757  0.45122243  0.95122243  1
  Tl  Tl16  1  0.81668908  0.81668908  0.81668908  1
  Tl  Tl17  1  0.68331092  0.18331092  0.31668908  1
  Tl  Tl18  1  0.18331092  0.31668908  0.68331092  1
  Tl  Tl19  1  0.31668908  0.68331092  0.18331092  1
  Ni  Ni20  1  0.33578078  0.33578078  0.33578078  1
  Ni  Ni21  1  0.16421922  0.66421922  0.83578078  1
  Ni  Ni22  1  0.66421922  0.83578078  0.16421922  1
  Ni  Ni23  1  0.83578078  0.16421922  0.66421922  1
  Ni  Ni24  1  0.60025565  0.60025565  0.60025565  1
  Ni  Ni25  1  0.89974435  0.39974435  0.10025565  1
  Ni  Ni26  1  0.39974435  0.10025565  0.89974435  1
  Ni  Ni27  1  0.10025565  0.89974435  0.39974435  1
  F  F28  1  0.01258549  0.06607630  0.32894510  1
  F  F29  1  0.48741451  0.93392370  0.82894510  1
  F  F30  1  0.98741451  0.56607630  0.17105490  1
  F  F31  1  0.32894510  0.01258549  0.06607630  1
  F  F32  1  0.51258549  0.43392370  0.67105490  1
  F  F33  1  0.82894510  0.48741451  0.93392370  1
  F  F34  1  0.17105490  0.98741451  0.56607630  1
  F  F35  1  0.67105490  0.51258549  0.43392370  1
  F  F36  1  0.06607630  0.32894510  0.01258549  1
  F  F37  1  0.56607630  0.17105490  0.98741451  1
  F  F38  1  0.43392370  0.67105490  0.51258549  1
  F  F39  1  0.93392370  0.82894510  0.48741451  1
  F  F40  1  0.26695500  0.49591603  0.43590879  1
  F  F41  1  0.23304500  0.50408397  0.93590879  1
  F  F42  1  0.73304500  0.99591603  0.06409121  1
  F  F43  1  0.43590879  0.26695500  0.49591603  1
  F  F44  1  0.76695500  0.00408397  0.56409121  1
  F  F45  1  0.93590879  0.23304500  0.50408397  1
  F  F46  1  0.06409121  0.73304500  0.99591603  1
  F  F47  1  0.56409121  0.76695500  0.00408397  1
  F  F48  1  0.49591603  0.43590879  0.26695500  1
  F  F49  1  0.99591603  0.06409121  0.73304500  1
  F  F50  1  0.00408397  0.56409121  0.76695500  1
  F  F51  1  0.50408397  0.93590879  0.23304500  1
  F  F52  1  0.04595339  0.80572237  0.23064420  1
  F  F53  1  0.45404661  0.19427763  0.73064420  1
  F  F54  1  0.95404661  0.30572237  0.26935580  1
  F  F55  1  0.23064420  0.04595339  0.80572237  1
  F  F56  1  0.54595339  0.69427763  0.76935580  1
  F  F57  1  0.73064420  0.45404661  0.19427763  1
  F  F58  1  0.26935580  0.95404661  0.30572237  1
  F  F59  1  0.76935580  0.54595339  0.69427763  1
  F  F60  1  0.80572237  0.23064420  0.04595339  1
  F  F61  1  0.30572237  0.26935580  0.95404661  1
  F  F62  1  0.69427763  0.76935580  0.54595339  1
  F  F63  1  0.19427763  0.73064420  0.45404661  1
  F  F64  1  0.16575012  0.25441553  0.40247423  1
  F  F65  1  0.33424988  0.74558447  0.90247423  1
  F  F66  1  0.83424988  0.75441553  0.09752577  1
  F  F67  1  0.40247423  0.16575012  0.25441553  1
  F  F68  1  0.66575012  0.24558447  0.59752577  1
  F  F69  1  0.90247423  0.33424988  0.74558447  1
  F  F70  1  0.09752577  0.83424988  0.75441553  1
  F  F71  1  0.59752577  0.66575012  0.24558447  1
  F  F72  1  0.25441553  0.40247423  0.16575012  1
  F  F73  1  0.75441553  0.09752577  0.83424988  1
  F  F74  1  0.24558447  0.59752577  0.66575012  1
  F  F75  1  0.74558447  0.90247423  0.33424988  1
