# generated using pymatgen
data_As3Pb5BrO12
_symmetry_space_group_name_H-M   'P 1'
_cell_length_a   7.48516849
_cell_length_b   10.57675020
_cell_length_c   10.57675020
_cell_angle_alpha   120.00000181
_cell_angle_beta   90.00000000
_cell_angle_gamma   90.00000000
_symmetry_Int_Tables_number   1
_chemical_formula_structural   As3Pb5BrO12
_chemical_formula_sum   'As6 Pb10 Br2 O24'
_cell_volume   725.16477354
_cell_formula_units_Z   2
loop_
 _symmetry_equiv_pos_site_id
 _symmetry_equiv_pos_as_xyz
  1  'x, y, z'
loop_
 _atom_site_type_symbol
 _atom_site_label
 _atom_site_symmetry_multiplicity
 _atom_site_fract_x
 _atom_site_fract_y
 _atom_site_fract_z
 _atom_site_occupancy
  As  As0  1  0.75000000  0.96987676  0.37877080  1
  As  As1  1  0.25000000  0.03012324  0.62122920  1
  As  As2  1  0.75000000  0.40889404  0.03012324  1
  As  As3  1  0.25000000  0.59110596  0.96987676  1
  As  As4  1  0.75000000  0.62122920  0.59110596  1
  As  As5  1  0.25000000  0.37877080  0.40889404  1
  Pb  Pb6  1  0.75000000  0.75520948  0.01836049  1
  Pb  Pb7  1  0.25000000  0.24479052  0.98163951  1
  Pb  Pb8  1  0.75000000  0.26315102  0.24479052  1
  Pb  Pb9  1  0.25000000  0.73684898  0.75520948  1
  Pb  Pb10  1  0.75000000  0.98163951  0.73684898  1
  Pb  Pb11  1  0.25000000  0.01836049  0.26315102  1
  Pb  Pb12  1  0.00514430  0.66666700  0.33333300  1
  Pb  Pb13  1  0.99485570  0.33333300  0.66666700  1
  Pb  Pb14  1  0.50514430  0.33333300  0.66666700  1
  Pb  Pb15  1  0.49485570  0.66666700  0.33333300  1
  Br  Br16  1  0.00000000  -0.00000000  0.00000000  1
  Br  Br17  1  0.50000000  -0.00000000  0.00000000  1
  O  O18  1  0.75000000  0.50470396  0.66038884  1
  O  O19  1  0.25000000  0.49529604  0.33961116  1
  O  O20  1  0.75000000  0.15568488  0.49529604  1
  O  O21  1  0.25000000  0.84431512  0.50470396  1
  O  O22  1  0.75000000  0.33961116  0.84431512  1
  O  O23  1  0.25000000  0.66038884  0.15568488  1
  O  O24  1  0.75000000  0.87453205  0.47427616  1
  O  O25  1  0.25000000  0.12546795  0.52572384  1
  O  O26  1  0.75000000  0.59974412  0.12546795  1
  O  O27  1  0.25000000  0.40025588  0.87453205  1
  O  O28  1  0.75000000  0.52572384  0.40025588  1
  O  O29  1  0.25000000  0.47427616  0.59974412  1
  O  O30  1  0.93281244  0.90558541  0.26380132  1
  O  O31  1  0.06718756  0.09441459  0.73619868  1
  O  O32  1  0.93281244  0.35821591  0.09441459  1
  O  O33  1  0.43281244  0.09441459  0.73619868  1
  O  O34  1  0.06718756  0.64178409  0.90558541  1
  O  O35  1  0.56718756  0.90558541  0.26380132  1
  O  O36  1  0.93281244  0.73619868  0.64178409  1
  O  O37  1  0.43281244  0.64178409  0.90558541  1
  O  O38  1  0.06718756  0.26380132  0.35821591  1
  O  O39  1  0.56718756  0.35821591  0.09441459  1
  O  O40  1  0.43281244  0.26380132  0.35821591  1
  O  O41  1  0.56718756  0.73619868  0.64178409  1
