# generated using pymatgen
data_Li9Mn2Co5O16
_symmetry_space_group_name_H-M   'P 1'
_cell_length_a   2.98881775
_cell_length_b   10.01460319
_cell_length_c   9.89859778
_cell_angle_alpha   78.23110995
_cell_angle_beta   92.61616999
_cell_angle_gamma   92.32849548
_symmetry_Int_Tables_number   1
_chemical_formula_structural   Li9Mn2Co5O16
_chemical_formula_sum   'Li9 Mn2 Co5 O16'
_cell_volume   289.60376833
_cell_formula_units_Z   1
loop_
 _symmetry_equiv_pos_site_id
 _symmetry_equiv_pos_as_xyz
  1  'x, y, z'
loop_
 _atom_site_type_symbol
 _atom_site_label
 _atom_site_symmetry_multiplicity
 _atom_site_fract_x
 _atom_site_fract_y
 _atom_site_fract_z
 _atom_site_occupancy
  Li  Li0  1  0.99876953  0.12393296  0.25125829  1
  Li  Li1  1  0.50276504  0.12513526  0.74719752  1
  Li  Li2  1  0.50705296  0.37384369  0.24521793  1
  Li  Li3  1  0.00474752  0.37159438  0.75049473  1
  Li  Li4  1  0.98309867  0.63226455  0.25542479  1
  Li  Li5  1  0.48466457  0.63208000  0.74567391  1
  Li  Li6  1  0.49557375  0.86546071  0.26399576  1
  Li  Li7  1  0.00992745  0.87847109  0.74764357  1
  Li  Li8  1  0.01665552  0.74970192  0.49023968  1
  Mn  Mn9  1  0.01130342  0.00111325  0.00220328  1
  Mn  Mn10  1  0.48947798  0.50452721  0.50024185  1
  Co  Co11  1  0.50997475  0.99158311  0.50012672  1
  Co  Co12  1  0.48885176  0.25196015  0.99984663  1
  Co  Co13  1  0.98807793  0.24796178  0.50325182  1
  Co  Co14  1  0.99102941  0.49921820  0.99701103  1
  Co  Co15  1  0.51039248  0.74776435  0.00025141  1
  O  O16  1  0.47421793  0.07361917  0.11607508  1
  O  O17  1  0.97831138  0.06822296  0.61124935  1
  O  O18  1  0.95870101  0.31808496  0.11645828  1
  O  O19  1  0.45951856  0.31480767  0.61316031  1
  O  O20  1  0.50933349  0.56666215  0.11278866  1
  O  O21  1  0.00955674  0.55330472  0.60912456  1
  O  O22  1  0.02644142  0.81652508  0.11476679  1
  O  O23  1  0.50321591  0.83412610  0.61468073  1
  O  O24  1  0.52751116  0.17916187  0.39277126  1
  O  O25  1  0.02444848  0.18515163  0.88581460  1
  O  O26  1  0.97081907  0.43434986  0.39600888  1
  O  O27  1  0.47916681  0.43069311  0.88603081  1
  O  O28  1  0.50069801  0.67172437  0.38200090  1
  O  O29  1  0.99782916  0.68085234  0.88051542  1
  O  O30  1  0.04013998  0.94523248  0.38494512  1
  O  O31  1  0.54772814  0.93086893  0.88353033  1
