# generated using pymatgen
data_Ba6Dy2Al4O15
_symmetry_space_group_name_H-M   'P 1'
_cell_length_a   5.95833610
_cell_length_b   7.92707663
_cell_length_c   18.53900137
_cell_angle_alpha   91.59931974
_cell_angle_beta   90.00000000
_cell_angle_gamma   90.00000000
_symmetry_Int_Tables_number   1
_chemical_formula_structural   Ba6Dy2Al4O15
_chemical_formula_sum   'Ba12 Dy4 Al8 O30'
_cell_volume   875.29646857
_cell_formula_units_Z   2
loop_
 _symmetry_equiv_pos_site_id
 _symmetry_equiv_pos_as_xyz
  1  'x, y, z'
loop_
 _atom_site_type_symbol
 _atom_site_label
 _atom_site_symmetry_multiplicity
 _atom_site_fract_x
 _atom_site_fract_y
 _atom_site_fract_z
 _atom_site_occupancy
  Ba  Ba0  1  0.75785221  0.50212279  0.41820163  1
  Ba  Ba1  1  0.24214779  0.49787721  0.58179837  1
  Ba  Ba2  1  0.75785221  0.49787721  0.08179837  1
  Ba  Ba3  1  0.24214779  0.50212279  0.91820163  1
  Ba  Ba4  1  0.74480422  0.96927817  0.41069117  1
  Ba  Ba5  1  0.25519578  0.03072183  0.58930883  1
  Ba  Ba6  1  0.74480422  0.03072183  0.08930883  1
  Ba  Ba7  1  0.25519578  0.96927817  0.91069117  1
  Ba  Ba8  1  0.72424773  0.00000000  0.75000000  1
  Ba  Ba9  1  0.27575227  0.00000000  0.25000000  1
  Ba  Ba10  1  0.67044439  0.50000000  0.75000000  1
  Ba  Ba11  1  0.32955561  0.50000000  0.25000000  1
  Dy  Dy12  1  0.74561194  0.75076109  0.58963904  1
  Dy  Dy13  1  0.25438806  0.24923891  0.41036096  1
  Dy  Dy14  1  0.74561194  0.24923891  0.91036096  1
  Dy  Dy15  1  0.25438806  0.75076109  0.08963904  1
  Al  Al16  1  0.75082747  0.75270814  0.94415425  1
  Al  Al17  1  0.24917253  0.24729186  0.05584575  1
  Al  Al18  1  0.75082747  0.24729186  0.55584575  1
  Al  Al19  1  0.24917253  0.75270814  0.44415425  1
  Al  Al20  1  0.77213702  0.77925049  0.23237906  1
  Al  Al21  1  0.22786298  0.22074951  0.76762094  1
  Al  Al22  1  0.77213702  0.22074951  0.26762094  1
  Al  Al23  1  0.22786298  0.77925049  0.73237906  1
  O  O24  1  0.21061491  0.00000000  0.75000000  1
  O  O25  1  0.78938509  0.00000000  0.25000000  1
  O  O26  1  0.49475107  0.76366948  0.49998877  1
  O  O27  1  0.50524893  0.23633052  0.50001123  1
  O  O28  1  0.49475107  0.23633052  0.00001123  1
  O  O29  1  0.50524893  0.76366948  -0.00001123  1
  O  O30  1  0.75910845  0.94374697  0.89418465  1
  O  O31  1  0.24089155  0.05625303  0.10581535  1
  O  O32  1  0.75910845  0.05625303  0.60581535  1
  O  O33  1  0.24089155  0.94374697  0.39418465  1
  O  O34  1  0.00899578  0.76192998  0.50352999  1
  O  O35  1  0.99100422  0.23807002  0.49647001  1
  O  O36  1  0.00899578  0.23807002  0.99647001  1
  O  O37  1  0.99100422  0.76192998  0.00352999  1
  O  O38  1  0.31384096  0.69312870  0.81325721  1
  O  O39  1  0.68615904  0.30687130  0.18674279  1
  O  O40  1  0.31384096  0.30687130  0.68674279  1
  O  O41  1  0.68615904  0.69312870  0.31325721  1
  O  O42  1  0.44943214  0.75316861  0.66721004  1
  O  O43  1  0.55056786  0.24683139  0.33278996  1
  O  O44  1  0.44943214  0.24683139  0.83278996  1
  O  O45  1  0.55056786  0.75316861  0.16721004  1
  O  O46  1  0.96954290  0.73076695  0.68859701  1
  O  O47  1  0.03045710  0.26923305  0.31140299  1
  O  O48  1  0.96954290  0.26923305  0.81140299  1
  O  O49  1  0.03045710  0.73076695  0.18859701  1
  O  O50  1  0.75380866  0.53989028  0.90792861  1
  O  O51  1  0.24619134  0.46010972  0.09207139  1
  O  O52  1  0.75380866  0.46010972  0.59207139  1
  O  O53  1  0.24619134  0.53989028  0.40792861  1
