# generated using pymatgen
data_Al7Cu2Rh
_symmetry_space_group_name_H-M   'P 1'
_cell_length_a   6.44453086
_cell_length_b   6.44453086
_cell_length_c   14.77915419
_cell_angle_alpha   90.00000000
_cell_angle_beta   90.00000000
_cell_angle_gamma   90.00000000
_symmetry_Int_Tables_number   1
_chemical_formula_structural   Al7Cu2Rh
_chemical_formula_sum   'Al28 Cu8 Rh4'
_cell_volume   613.80750676
_cell_formula_units_Z   4
loop_
 _symmetry_equiv_pos_site_id
 _symmetry_equiv_pos_as_xyz
  1  'x, y, z'
loop_
 _atom_site_type_symbol
 _atom_site_label
 _atom_site_symmetry_multiplicity
 _atom_site_fract_x
 _atom_site_fract_y
 _atom_site_fract_z
 _atom_site_occupancy
  Al  Al0  1  0.14902141  0.64902141  0.25000000  1
  Al  Al1  1  0.85097859  0.35097859  0.75000000  1
  Al  Al2  1  0.85097859  0.35097859  0.25000000  1
  Al  Al3  1  0.35097859  0.14902141  0.25000000  1
  Al  Al4  1  0.14902141  0.64902141  0.75000000  1
  Al  Al5  1  0.64902141  0.85097859  0.75000000  1
  Al  Al6  1  0.64902141  0.85097859  0.25000000  1
  Al  Al7  1  0.35097859  0.14902141  0.75000000  1
  Al  Al8  1  -0.00000000  0.00000000  0.12748875  1
  Al  Al9  1  -0.00000000  -0.00000000  0.87251125  1
  Al  Al10  1  0.50000000  0.50000000  0.37251125  1
  Al  Al11  1  0.50000000  0.50000000  0.62748875  1
  Al  Al12  1  0.19850386  0.41290898  0.09764787  1
  Al  Al13  1  0.80149614  0.58709102  0.90235213  1
  Al  Al14  1  0.80149614  0.58709102  0.09764787  1
  Al  Al15  1  0.58709102  0.19850386  0.09764787  1
  Al  Al16  1  0.30149614  0.91290898  0.40235213  1
  Al  Al17  1  0.19850386  0.41290898  0.90235213  1
  Al  Al18  1  0.41290898  0.80149614  0.90235213  1
  Al  Al19  1  0.69850386  0.08709102  0.59764787  1
  Al  Al20  1  0.41290898  0.80149614  0.09764787  1
  Al  Al21  1  0.69850386  0.08709102  0.40235213  1
  Al  Al22  1  0.58709102  0.19850386  0.90235213  1
  Al  Al23  1  0.30149614  0.91290898  0.59764787  1
  Al  Al24  1  0.91290898  0.69850386  0.40235213  1
  Al  Al25  1  0.08709102  0.30149614  0.59764787  1
  Al  Al26  1  0.08709102  0.30149614  0.40235213  1
  Al  Al27  1  0.91290898  0.69850386  0.59764787  1
  Cu  Cu28  1  0.26767778  0.09437344  0.00000000  1
  Cu  Cu29  1  0.73232222  0.90562656  0.00000000  1
  Cu  Cu30  1  0.90562656  0.26767778  0.00000000  1
  Cu  Cu31  1  0.23232222  0.59437344  0.50000000  1
  Cu  Cu32  1  0.09437344  0.73232222  -0.00000000  1
  Cu  Cu33  1  0.76767778  0.40562656  0.50000000  1
  Cu  Cu34  1  0.59437344  0.76767778  0.50000000  1
  Cu  Cu35  1  0.40562656  0.23232222  0.50000000  1
  Rh  Rh36  1  -0.00000000  -0.00000000  0.29806410  1
  Rh  Rh37  1  -0.00000000  0.00000000  0.70193590  1
  Rh  Rh38  1  0.50000000  0.50000000  0.20193590  1
  Rh  Rh39  1  0.50000000  0.50000000  0.79806410  1
