# generated using pymatgen
data_Ba6Y2Ga4O15
_symmetry_space_group_name_H-M   'P 1'
_cell_length_a   6.04061862
_cell_length_b   8.07110891
_cell_length_c   18.65081118
_cell_angle_alpha   91.26839895
_cell_angle_beta   90.00000000
_cell_angle_gamma   90.00000000
_symmetry_Int_Tables_number   1
_chemical_formula_structural   Ba6Y2Ga4O15
_chemical_formula_sum   'Ba12 Y4 Ga8 O30'
_cell_volume   909.08799322
_cell_formula_units_Z   2
loop_
 _symmetry_equiv_pos_site_id
 _symmetry_equiv_pos_as_xyz
  1  'x, y, z'
loop_
 _atom_site_type_symbol
 _atom_site_label
 _atom_site_symmetry_multiplicity
 _atom_site_fract_x
 _atom_site_fract_y
 _atom_site_fract_z
 _atom_site_occupancy
  Ba  Ba0  1  0.75660527  0.49867525  0.42138359  1
  Ba  Ba1  1  0.24339473  0.50132475  0.57861641  1
  Ba  Ba2  1  0.75660527  0.50132475  0.07861641  1
  Ba  Ba3  1  0.24339473  0.49867525  0.92138359  1
  Ba  Ba4  1  0.74441927  0.97171861  0.41017758  1
  Ba  Ba5  1  0.25558073  0.02828139  0.58982242  1
  Ba  Ba6  1  0.74441927  0.02828139  0.08982242  1
  Ba  Ba7  1  0.25558073  0.97171861  0.91017758  1
  Ba  Ba8  1  0.72333219  -0.00000000  0.75000000  1
  Ba  Ba9  1  0.27666781  -0.00000000  0.25000000  1
  Ba  Ba10  1  0.66683263  0.50000000  0.75000000  1
  Ba  Ba11  1  0.33316737  0.50000000  0.25000000  1
  Y  Y12  1  0.74544633  0.75184375  0.59012324  1
  Y  Y13  1  0.25455367  0.24815625  0.40987676  1
  Y  Y14  1  0.74544633  0.24815625  0.90987676  1
  Y  Y15  1  0.25455367  0.75184375  0.09012324  1
  Ga  Ga16  1  0.75127797  0.75415668  0.94134789  1
  Ga  Ga17  1  0.24872203  0.24584332  0.05865211  1
  Ga  Ga18  1  0.75127797  0.24584332  0.55865211  1
  Ga  Ga19  1  0.24872203  0.75415668  0.44134789  1
  Ga  Ga20  1  0.77533959  0.77045830  0.23382156  1
  Ga  Ga21  1  0.22466041  0.22954170  0.76617844  1
  Ga  Ga22  1  0.77533959  0.22954170  0.26617844  1
  Ga  Ga23  1  0.22466041  0.77045830  0.73382156  1
  O  O24  1  0.20629198  -0.00000000  0.75000000  1
  O  O25  1  0.79370802  -0.00000000  0.25000000  1
  O  O26  1  0.50343580  0.76541268  0.49964491  1
  O  O27  1  0.49656420  0.23458732  0.50035509  1
  O  O28  1  0.50343580  0.23458732  0.00035509  1
  O  O29  1  0.49656420  0.76541268  0.99964491  1
  O  O30  1  0.76147794  0.95347872  0.89126496  1
  O  O31  1  0.23852206  0.04652128  0.10873504  1
  O  O32  1  0.76147794  0.04652128  0.60873504  1
  O  O33  1  0.23852206  0.95347872  0.39126496  1
  O  O34  1  0.00430465  0.76378618  0.50491513  1
  O  O35  1  0.99569535  0.23621382  0.49508487  1
  O  O36  1  0.00430465  0.23621382  0.99508487  1
  O  O37  1  0.99569535  0.76378618  0.00491513  1
  O  O38  1  0.32614325  0.68879533  0.81851705  1
  O  O39  1  0.67385675  0.31120467  0.18148295  1
  O  O40  1  0.32614325  0.31120467  0.68148295  1
  O  O41  1  0.67385675  0.68879533  0.31851705  1
  O  O42  1  0.45022464  0.74848351  0.66424834  1
  O  O43  1  0.54977536  0.25151649  0.33575166  1
  O  O44  1  0.45022464  0.25151649  0.83575166  1
  O  O45  1  0.54977536  0.74848351  0.16424834  1
  O  O46  1  0.95548258  0.72567580  0.69047991  1
  O  O47  1  0.04451742  0.27432420  0.30952009  1
  O  O48  1  0.95548258  0.27432420  0.80952009  1
  O  O49  1  0.04451742  0.72567580  0.19047991  1
  O  O50  1  0.75625363  0.53331433  0.90785955  1
  O  O51  1  0.24374637  0.46668567  0.09214045  1
  O  O52  1  0.75625363  0.46668567  0.59214045  1
  O  O53  1  0.24374637  0.53331433  0.40785955  1
