# generated using pymatgen
data_Ba3Tm(BO2)9
_symmetry_space_group_name_H-M   'P 1'
_cell_length_a   7.25559252
_cell_length_b   7.25559252
_cell_length_c   17.32962965
_cell_angle_alpha   90.00000000
_cell_angle_beta   90.00000000
_cell_angle_gamma   120.00000448
_symmetry_Int_Tables_number   1
_chemical_formula_structural   Ba3Tm(BO2)9
_chemical_formula_sum   'Ba6 Tm2 B18 O36'
_cell_volume   790.07016598
_cell_formula_units_Z   2
loop_
 _symmetry_equiv_pos_site_id
 _symmetry_equiv_pos_as_xyz
  1  'x, y, z'
loop_
 _atom_site_type_symbol
 _atom_site_label
 _atom_site_symmetry_multiplicity
 _atom_site_fract_x
 _atom_site_fract_y
 _atom_site_fract_z
 _atom_site_occupancy
  Ba  Ba0  1  0.66666700  0.33333300  0.86820526  1
  Ba  Ba1  1  0.33333300  0.66666700  0.13179474  1
  Ba  Ba2  1  0.33333300  0.66666700  0.36820526  1
  Ba  Ba3  1  0.66666700  0.33333300  0.63179474  1
  Ba  Ba4  1  0.00000000  0.00000000  0.75000000  1
  Ba  Ba5  1  0.00000000  0.00000000  0.25000000  1
  Tm  Tm6  1  0.00000000  0.00000000  -0.00000000  1
  Tm  Tm7  1  0.00000000  0.00000000  0.50000000  1
  B  B8  1  0.55157807  0.83470221  0.91857417  1
  B  B9  1  0.44842193  0.16529779  0.08142583  1
  B  B10  1  0.28312414  0.44842193  0.91857417  1
  B  B11  1  0.44842193  0.16529779  0.41857417  1
  B  B12  1  0.71687586  0.55157807  0.08142583  1
  B  B13  1  0.55157807  0.83470221  0.58142583  1
  B  B14  1  0.16529779  0.71687586  0.91857417  1
  B  B15  1  0.71687586  0.55157807  0.41857417  1
  B  B16  1  0.83470221  0.28312414  0.08142583  1
  B  B17  1  0.28312414  0.44842193  0.58142583  1
  B  B18  1  0.83470221  0.28312414  0.41857417  1
  B  B19  1  0.16529779  0.71687586  0.58142583  1
  B  B20  1  0.50522914  0.62191983  0.75000000  1
  B  B21  1  0.49477086  0.37808017  0.25000000  1
  B  B22  1  0.11669069  0.49477086  0.75000000  1
  B  B23  1  0.88330931  0.50522914  0.25000000  1
  B  B24  1  0.37808017  0.88330931  0.75000000  1
  B  B25  1  0.62191983  0.11669069  0.25000000  1
  O  O26  1  0.54243523  0.83326538  0.75000000  1
  O  O27  1  0.45756477  0.16673462  0.25000000  1
  O  O28  1  0.29083015  0.45756477  0.75000000  1
  O  O29  1  0.70916985  0.54243523  0.25000000  1
  O  O30  1  0.16673462  0.70916985  0.75000000  1
  O  O31  1  0.83326538  0.29083015  0.25000000  1
  O  O32  1  0.91864032  0.33188581  0.75000000  1
  O  O33  1  0.08135968  0.66811419  0.25000000  1
  O  O34  1  0.41324548  0.08135968  0.75000000  1
  O  O35  1  0.58675452  0.91864032  0.25000000  1
  O  O36  1  0.66811419  0.58675452  0.75000000  1
  O  O37  1  0.33188581  0.41324548  0.25000000  1
  O  O38  1  0.75214217  0.99449451  0.92035357  1
  O  O39  1  0.24785783  0.00550549  0.07964643  1
  O  O40  1  0.24235235  0.24785783  0.92035357  1
  O  O41  1  0.24785783  0.00550549  0.42035357  1
  O  O42  1  0.75764765  0.75214217  0.07964643  1
  O  O43  1  0.75214217  0.99449451  0.57964643  1
  O  O44  1  0.00550549  0.75764765  0.92035357  1
  O  O45  1  0.75764765  0.75214217  0.42035357  1
  O  O46  1  0.99449451  0.24235235  0.07964643  1
  O  O47  1  0.24235235  0.24785783  0.57964643  1
  O  O48  1  0.99449451  0.24235235  0.42035357  1
  O  O49  1  0.00550549  0.75764765  0.57964643  1
  O  O50  1  0.49597187  0.61841333  0.91800006  1
  O  O51  1  0.50402813  0.38158667  0.08199994  1
  O  O52  1  0.12244145  0.50402813  0.91800006  1
  O  O53  1  0.50402813  0.38158667  0.41800006  1
  O  O54  1  0.87755855  0.49597187  0.08199994  1
  O  O55  1  0.49597187  0.61841333  0.58199994  1
  O  O56  1  0.38158667  0.87755855  0.91800006  1
  O  O57  1  0.87755855  0.49597187  0.41800006  1
  O  O58  1  0.61841333  0.12244145  0.08199994  1
  O  O59  1  0.12244145  0.50402813  0.58199994  1
  O  O60  1  0.61841333  0.12244145  0.41800006  1
  O  O61  1  0.38158667  0.87755855  0.58199994  1
