# generated using pymatgen
data_Ba2TbWO6
_symmetry_space_group_name_H-M   'P 1'
_cell_length_a   6.02763322
_cell_length_b   6.02763322
_cell_length_c   6.08487029
_cell_angle_alpha   59.71378730
_cell_angle_beta   59.71378730
_cell_angle_gamma   60.60287796
_symmetry_Int_Tables_number   1
_chemical_formula_structural   Ba2TbWO6
_chemical_formula_sum   'Ba2 Tb1 W1 O6'
_cell_volume   156.33628026
_cell_formula_units_Z   1
loop_
 _symmetry_equiv_pos_site_id
 _symmetry_equiv_pos_as_xyz
  1  'x, y, z'
loop_
 _atom_site_type_symbol
 _atom_site_label
 _atom_site_symmetry_multiplicity
 _atom_site_fract_x
 _atom_site_fract_y
 _atom_site_fract_z
 _atom_site_occupancy
  Ba  Ba0  1  0.75109141  0.75109141  0.75336143  1
  Ba  Ba1  1  0.24890859  0.24890859  0.24663857  1
  Tb  Tb2  1  0.50000000  0.50000000  0.50000000  1
  W  W3  1  -0.00000000  -0.00000000  0.00000000  1
  O  O4  1  0.23148864  0.23148864  0.73919167  1
  O  O5  1  0.76851136  0.76851136  0.26080833  1
  O  O6  1  0.77878000  0.25536318  0.22091539  1
  O  O7  1  0.22122000  0.74463682  0.77908461  1
  O  O8  1  0.74463682  0.22122000  0.77908461  1
  O  O9  1  0.25536318  0.77878000  0.22091539  1
