# generated using pymatgen
data_Li9Mn2Co5O16
_symmetry_space_group_name_H-M   'P 1'
_cell_length_a   2.98840009
_cell_length_b   10.00897289
_cell_length_c   9.90362458
_cell_angle_alpha   78.17388161
_cell_angle_beta   92.27633379
_cell_angle_gamma   92.19736611
_symmetry_Int_Tables_number   1
_chemical_formula_structural   Li9Mn2Co5O16
_chemical_formula_sum   'Li9 Mn2 Co5 O16'
_cell_volume   289.57085913
_cell_formula_units_Z   1
loop_
 _symmetry_equiv_pos_site_id
 _symmetry_equiv_pos_as_xyz
  1  'x, y, z'
loop_
 _atom_site_type_symbol
 _atom_site_label
 _atom_site_symmetry_multiplicity
 _atom_site_fract_x
 _atom_site_fract_y
 _atom_site_fract_z
 _atom_site_occupancy
  Li  Li0  1  0.99363927  0.12834890  0.24968514  1
  Li  Li1  1  0.48873587  0.12875472  0.75259434  1
  Li  Li2  1  0.50005370  0.37575856  0.25166752  1
  Li  Li3  1  0.99623139  0.37617436  0.74835590  1
  Li  Li4  1  0.99251915  0.62221327  0.25250378  1
  Li  Li5  1  0.49918472  0.63099386  0.73834280  1
  Li  Li6  1  0.50953914  0.86725966  0.25602046  1
  Li  Li7  1  0.01382084  0.86734900  0.74526748  1
  Li  Li8  1  0.98467626  0.74979100  0.51050238  1
  Mn  Mn9  1  0.99029002  0.99859069  0.00099209  1
  Mn  Mn10  1  0.51037732  0.99442602  0.50050047  1
  Co  Co11  1  0.49081583  0.25309612  0.99885108  1
  Co  Co12  1  0.01313218  0.25208945  0.49601667  1
  Co  Co13  1  0.00773210  0.50155067  -0.00009901  1
  Co  Co14  1  0.48971613  0.50930678  0.49925251  1
  Co  Co15  1  0.51564116  0.74774082  0.00092272  1
  O  O16  1  0.45238558  0.07107902  0.11732111  1
  O  O17  1  0.02621945  0.06517688  0.60386733  1
  O  O18  1  0.00697674  0.32002175  0.11506538  1
  O  O19  1  0.47100184  0.32096159  0.60674123  1
  O  O20  1  0.52147325  0.56757749  0.11256844  1
  O  O21  1  0.95681253  0.55432997  0.61446086  1
  O  O22  1  0.97311405  0.81399749  0.11850099  1
  O  O23  1  0.49773181  0.82723194  0.61853461  1
  O  O24  1  0.53977389  0.18556798  0.38699532  1
  O  O25  1  0.97647125  0.18261821  0.88232781  1
  O  O26  1  0.02730052  0.43244377  0.38881836  1
  O  O27  1  0.48983596  0.43145455  0.88439148  1
  O  O28  1  0.49760297  0.66655262  0.38454327  1
  O  O29  1  0.04702085  0.68282467  0.88633645  1
  O  O30  1  0.98910433  0.94614931  0.39157093  1
  O  O31  1  0.53106991  0.92856888  0.88658010  1
