# generated using pymatgen
data_Al2CdBr8
_symmetry_space_group_name_H-M   'P 1'
_cell_length_a   7.42762565
_cell_length_b   7.62766801
_cell_length_c   14.06341840
_cell_angle_alpha   92.73948519
_cell_angle_beta   90.00000000
_cell_angle_gamma   90.00000000
_symmetry_Int_Tables_number   1
_chemical_formula_structural   Al2CdBr8
_chemical_formula_sum   'Al4 Cd2 Br16'
_cell_volume   795.85890628
_cell_formula_units_Z   2
loop_
 _symmetry_equiv_pos_site_id
 _symmetry_equiv_pos_as_xyz
  1  'x, y, z'
loop_
 _atom_site_type_symbol
 _atom_site_label
 _atom_site_symmetry_multiplicity
 _atom_site_fract_x
 _atom_site_fract_y
 _atom_site_fract_z
 _atom_site_occupancy
  Al  Al0  1  0.93173331  0.77905316  0.57922366  1
  Al  Al1  1  0.06826669  0.77905316  0.07922366  1
  Al  Al2  1  0.57130611  0.36029560  0.77638175  1
  Al  Al3  1  0.42869389  0.36029560  0.27638175  1
  Cd  Cd4  1  0.75384031  0.92327101  0.81430071  1
  Cd  Cd5  1  0.24615969  0.92327101  0.31430071  1
  Br  Br6  1  0.41792307  0.38575693  0.63928158  1
  Br  Br7  1  0.58207693  0.38575693  0.13928158  1
  Br  Br8  1  0.87301459  0.26381081  0.76124934  1
  Br  Br9  1  0.12698541  0.26381081  0.26124934  1
  Br  Br10  1  0.93976290  0.51887091  0.49415477  1
  Br  Br11  1  0.06023710  0.51887091  0.99415477  1
  Br  Br12  1  0.91480731  0.99835129  0.99710932  1
  Br  Br13  1  0.08519269  0.99835129  0.49710932  1
  Br  Br14  1  0.63702204  0.87294119  0.61921906  1
  Br  Br15  1  0.36297796  0.87294119  0.11921906  1
  Br  Br16  1  0.56353180  0.62534014  0.87251207  1
  Br  Br17  1  0.43646820  0.62534014  0.37251207  1
  Br  Br18  1  0.44688626  0.13322499  0.86602822  1
  Br  Br19  1  0.55311374  0.13322499  0.36602822  1
  Br  Br20  1  0.93613192  0.77168398  0.23273952  1
  Br  Br21  1  0.06386808  0.77168398  0.73273952  1
