# generated using pymatgen
data_Zn3PBr3
_symmetry_space_group_name_H-M   'P 1'
_cell_length_a   4.06378156
_cell_length_b   7.07275891
_cell_length_c   6.70679678
_cell_angle_alpha   91.04938769
_cell_angle_beta   90.00191736
_cell_angle_gamma   90.00239368
_symmetry_Int_Tables_number   1
_chemical_formula_structural   Zn3PBr3
_chemical_formula_sum   'Zn3 P1 Br3'
_cell_volume   192.73540957
_cell_formula_units_Z   1
loop_
 _symmetry_equiv_pos_site_id
 _symmetry_equiv_pos_as_xyz
  1  'x, y, z'
loop_
 _atom_site_type_symbol
 _atom_site_label
 _atom_site_symmetry_multiplicity
 _atom_site_fract_x
 _atom_site_fract_y
 _atom_site_fract_z
 _atom_site_occupancy
  Zn  Zn0  1  -0.00004934  0.29751719  0.47533027  1
  Zn  Zn1  1  0.49999213  0.87518328  0.49803756  1
  Zn  Zn2  1  0.49999750  0.15138625  0.02798281  1
  P  P3  1  0.50002295  0.17563634  0.37172437  1
  Br  Br4  1  -0.00000183  0.32762077  0.87151946  1
  Br  Br5  1  0.50000050  0.83720913  0.86373631  1
  Br  Br6  1  0.99998809  0.66879704  0.38766923  1
