# generated using pymatgen
data_BaLu2F8
_symmetry_space_group_name_H-M   'P 1'
_cell_length_a   6.93074782
_cell_length_b   8.10917391
_cell_length_c   22.12755930
_cell_angle_alpha   90.00000000
_cell_angle_beta   90.00000000
_cell_angle_gamma   90.00000000
_symmetry_Int_Tables_number   1
_chemical_formula_structural   BaLu2F8
_chemical_formula_sum   'Ba8 Lu16 F64'
_cell_volume   1243.62723611
_cell_formula_units_Z   8
loop_
 _symmetry_equiv_pos_site_id
 _symmetry_equiv_pos_as_xyz
  1  'x, y, z'
loop_
 _atom_site_type_symbol
 _atom_site_label
 _atom_site_symmetry_multiplicity
 _atom_site_fract_x
 _atom_site_fract_y
 _atom_site_fract_z
 _atom_site_occupancy
  Ba  Ba0  1  0.10663318  0.25000000  0.63547537  1
  Ba  Ba1  1  0.89336682  0.75000000  0.36452463  1
  Ba  Ba2  1  0.39336682  0.75000000  0.13547537  1
  Ba  Ba3  1  0.60663318  0.25000000  0.86452463  1
  Ba  Ba4  1  0.28677877  0.25000000  0.12048722  1
  Ba  Ba5  1  0.71322123  0.75000000  0.87951278  1
  Ba  Ba6  1  0.21322123  0.75000000  0.62048722  1
  Ba  Ba7  1  0.78677877  0.25000000  0.37951278  1
  Lu  Lu8  1  0.34282196  0.01885340  0.28663598  1
  Lu  Lu9  1  0.65717804  0.98114660  0.71336402  1
  Lu  Lu10  1  0.15717804  0.98114660  0.78663598  1
  Lu  Lu11  1  0.65717804  0.51885340  0.71336402  1
  Lu  Lu12  1  0.84282196  0.01885340  0.21336402  1
  Lu  Lu13  1  0.34282196  0.48114660  0.28663598  1
  Lu  Lu14  1  0.84282196  0.48114660  0.21336402  1
  Lu  Lu15  1  0.15717804  0.51885340  0.78663598  1
  Lu  Lu16  1  0.25681387  0.02116773  0.47222860  1
  Lu  Lu17  1  0.74318613  0.97883227  0.52777140  1
  Lu  Lu18  1  0.24318613  0.97883227  0.97222860  1
  Lu  Lu19  1  0.74318613  0.52116773  0.52777140  1
  Lu  Lu20  1  0.75681387  0.02116773  0.02777140  1
  Lu  Lu21  1  0.25681387  0.47883227  0.47222860  1
  Lu  Lu22  1  0.75681387  0.47883227  0.02777140  1
  Lu  Lu23  1  0.24318613  0.52116773  0.97222860  1
  F  F24  1  0.16836270  0.25000000  0.76815070  1
  F  F25  1  0.83163730  0.75000000  0.23184930  1
  F  F26  1  0.33163730  0.75000000  0.26815070  1
  F  F27  1  0.66836270  0.25000000  0.73184930  1
  F  F28  1  0.16720167  0.25000000  0.42458720  1
  F  F29  1  0.83279833  0.75000000  0.57541280  1
  F  F30  1  0.33279833  0.75000000  0.92458720  1
  F  F31  1  0.66720167  0.25000000  0.07541280  1
  F  F32  1  0.02092716  0.01745729  0.29736920  1
  F  F33  1  0.97907284  0.98254271  0.70263080  1
  F  F34  1  0.47907284  0.98254271  0.79736920  1
  F  F35  1  0.97907284  0.51745729  0.70263080  1
  F  F36  1  0.52092716  0.01745729  0.20263080  1
  F  F37  1  0.02092716  0.48254271  0.29736920  1
  F  F38  1  0.52092716  0.48254271  0.20263080  1
  F  F39  1  0.47907284  0.51745729  0.79736920  1
  F  F40  1  0.05842096  0.06362835  0.04895846  1
  F  F41  1  0.94157904  0.93637165  0.95104154  1
  F  F42  1  0.44157904  0.93637165  0.54895846  1
  F  F43  1  0.94157904  0.56362835  0.95104154  1
  F  F44  1  0.55842096  0.06362835  0.45104154  1
  F  F45  1  0.05842096  0.43637165  0.04895846  1
  F  F46  1  0.55842096  0.43637165  0.45104154  1
  F  F47  1  0.44157904  0.56362835  0.54895846  1
  F  F48  1  0.30189833  0.25000000  0.52839686  1
  F  F49  1  0.69810167  0.75000000  0.47160314  1
  F  F50  1  0.19810167  0.75000000  0.02839686  1
  F  F51  1  0.80189833  0.25000000  0.97160314  1
  F  F52  1  0.79838808  0.25000000  0.52089905  1
  F  F53  1  0.20161192  0.75000000  0.47910095  1
  F  F54  1  0.70161192  0.75000000  0.02089905  1
  F  F55  1  0.29838808  0.25000000  0.97910095  1
  F  F56  1  0.25621702  0.25000000  0.24084262  1
  F  F57  1  0.74378298  0.75000000  0.75915738  1
  F  F58  1  0.24378298  0.75000000  0.74084262  1
  F  F59  1  0.75621702  0.25000000  0.25915738  1
  F  F60  1  0.14312790  0.53337589  0.18800469  1
  F  F61  1  0.85687210  0.46662411  0.81199531  1
  F  F62  1  0.35687210  0.46662411  0.68800469  1
  F  F63  1  0.85687210  0.03337589  0.81199531  1
  F  F64  1  0.64312790  0.53337589  0.31199531  1
  F  F65  1  0.14312790  0.96662411  0.18800469  1
  F  F66  1  0.64312790  0.96662411  0.31199531  1
  F  F67  1  0.35687210  0.03337589  0.68800469  1
  F  F68  1  0.27529204  0.55986526  0.37777221  1
  F  F69  1  0.72470796  0.44013474  0.62222779  1
  F  F70  1  0.22470796  0.44013474  0.87777221  1
  F  F71  1  0.72470796  0.05986526  0.62222779  1
  F  F72  1  0.77529204  0.55986526  0.12222779  1
  F  F73  1  0.27529204  0.94013474  0.37777221  1
  F  F74  1  0.77529204  0.94013474  0.12222779  1
  F  F75  1  0.22470796  0.05986526  0.87777221  1
  F  F76  1  0.06016440  0.00487707  0.55462439  1
  F  F77  1  0.93983560  0.99512293  0.44537561  1
  F  F78  1  0.43983560  0.99512293  0.05462439  1
  F  F79  1  0.93983560  0.50487707  0.44537561  1
  F  F80  1  0.56016440  0.00487707  0.94537561  1
  F  F81  1  0.06016440  0.49512293  0.55462439  1
  F  F82  1  0.56016440  0.49512293  0.94537561  1
  F  F83  1  0.43983560  0.50487707  0.05462439  1
  F  F84  1  0.43137921  0.25000000  0.33455343  1
  F  F85  1  0.56862079  0.75000000  0.66544657  1
  F  F86  1  0.06862079  0.75000000  0.83455343  1
  F  F87  1  0.93137921  0.25000000  0.16544657  1
