# generated using pymatgen
data_Cs2TeH6SeO10
_symmetry_space_group_name_H-M   'P 1'
_cell_length_a   7.57480531
_cell_length_b   13.09153285
_cell_length_c   12.65912774
_cell_angle_alpha   110.49747786
_cell_angle_beta   90.00000000
_cell_angle_gamma   90.00000000
_symmetry_Int_Tables_number   1
_chemical_formula_structural   Cs2TeH6SeO10
_chemical_formula_sum   'Cs8 Te4 H24 Se4 O40'
_cell_volume   1175.87330219
_cell_formula_units_Z   4
loop_
 _symmetry_equiv_pos_site_id
 _symmetry_equiv_pos_as_xyz
  1  'x, y, z'
loop_
 _atom_site_type_symbol
 _atom_site_label
 _atom_site_symmetry_multiplicity
 _atom_site_fract_x
 _atom_site_fract_y
 _atom_site_fract_z
 _atom_site_occupancy
  Cs  Cs0  1  0.46968976  0.62802350  0.38139777  1
  Cs  Cs1  1  0.53031024  0.37197650  0.61860223  1
  Cs  Cs2  1  0.96968976  0.37197650  0.11860223  1
  Cs  Cs3  1  0.03031024  0.62802350  0.88139777  1
  Cs  Cs4  1  0.99072493  0.85305492  0.63764927  1
  Cs  Cs5  1  0.00927507  0.14694508  0.36235073  1
  Cs  Cs6  1  0.49072493  0.14694508  0.86235073  1
  Cs  Cs7  1  0.50927507  0.85305492  0.13764927  1
  Te  Te8  1  0.00000000  0.50000000  0.50000000  1
  Te  Te9  1  0.50000000  0.50000000  -0.00000000  1
  Te  Te10  1  0.00000000  0.00000000  -0.00000000  1
  Te  Te11  1  0.50000000  0.00000000  0.50000000  1
  H  H12  1  0.27925953  0.91569363  0.89640175  1
  H  H13  1  0.72074047  0.08430637  0.10359825  1
  H  H14  1  0.77925953  0.08430637  0.60359825  1
  H  H15  1  0.22074047  0.91569363  0.39640175  1
  H  H16  1  0.79236568  0.61214260  0.65636145  1
  H  H17  1  0.20763432  0.38785740  0.34363855  1
  H  H18  1  0.29236568  0.38785740  0.84363855  1
  H  H19  1  0.70763432  0.61214260  0.15636145  1
  H  H20  1  0.75441703  0.40778590  0.87660032  1
  H  H21  1  0.24558297  0.59221410  0.12339968  1
  H  H22  1  0.25441703  0.59221410  0.62339968  1
  H  H23  1  0.74558297  0.40778590  0.37660032  1
  H  H24  1  0.52320311  0.61223709  0.87406535  1
  H  H25  1  0.47679689  0.38776291  0.12593465  1
  H  H26  1  0.02320311  0.38776291  0.62593465  1
  H  H27  1  0.97679689  0.61223709  0.37406535  1
  H  H28  1  0.46523780  0.86805998  0.60309300  1
  H  H29  1  0.53476220  0.13194002  0.39690700  1
  H  H30  1  0.96523780  0.13194002  0.89690700  1
  H  H31  1  0.03476220  0.86805998  0.10309300  1
  H  H32  1  0.75554719  0.87187894  0.89706561  1
  H  H33  1  0.24445281  0.12812106  0.10293439  1
  H  H34  1  0.25554719  0.12812106  0.60293439  1
  H  H35  1  0.74445281  0.87187894  0.39706561  1
  Se  Se36  1  0.49977693  0.74170668  0.74459888  1
  Se  Se37  1  0.50022307  0.25829332  0.25540112  1
  Se  Se38  1  0.99977693  0.25829332  0.75540112  1
  Se  Se39  1  0.00022307  0.74170668  0.24459888  1
  O  O40  1  0.78646064  0.29216253  0.77913316  1
  O  O41  1  0.21353936  0.70783747  0.22086684  1
  O  O42  1  0.28646064  0.70783747  0.72086684  1
  O  O43  1  0.71353936  0.29216253  0.27913316  1
  O  O44  1  0.91953546  0.61613883  0.63581220  1
  O  O45  1  0.08046454  0.38386117  0.36418780  1
  O  O46  1  0.41953546  0.38386117  0.86418780  1
  O  O47  1  0.58046454  0.61613883  0.13581220  1
  O  O48  1  0.38071882  0.91442412  0.57743676  1
  O  O49  1  0.61928118  0.08557588  0.42256324  1
  O  O50  1  0.88071882  0.08557588  0.92256324  1
  O  O51  1  0.11928118  0.91442412  0.07743676  1
  O  O52  1  0.88682161  0.86594515  0.89913370  1
  O  O53  1  0.11317839  0.13405485  0.10086630  1
  O  O54  1  0.38682161  0.13405485  0.60086630  1
  O  O55  1  0.61317839  0.86594515  0.39913370  1
  O  O56  1  0.51614292  0.84430072  0.86900173  1
  O  O57  1  0.48385708  0.15569928  0.13099827  1
  O  O58  1  0.01614292  0.15569928  0.63099827  1
  O  O59  1  0.98385708  0.84430072  0.36900173  1
  O  O60  1  0.69879775  0.02476888  0.60510784  1
  O  O61  1  0.30120225  0.97523112  0.39489216  1
  O  O62  1  0.19879775  0.97523112  0.89489216  1
  O  O63  1  0.80120225  0.02476888  0.10510784  1
  O  O64  1  0.58236994  0.77763930  0.63959178  1
  O  O65  1  0.41763006  0.22236070  0.36040822  1
  O  O66  1  0.08236994  0.22236070  0.86040822  1
  O  O67  1  0.91763006  0.77763930  0.13959178  1
  O  O68  1  0.44199865  0.61329135  0.93622849  1
  O  O69  1  0.55800135  0.38670865  0.06377151  1
  O  O70  1  0.94199865  0.38670865  0.56377151  1
  O  O71  1  0.05800135  0.61329135  0.43622849  1
  O  O72  1  0.61423751  0.63198190  0.74797359  1
  O  O73  1  0.38576249  0.36801810  0.25202641  1
  O  O74  1  0.11423751  0.36801810  0.75202641  1
  O  O75  1  0.88576249  0.63198190  0.24797359  1
  O  O76  1  0.73775373  0.48279575  0.93761436  1
  O  O77  1  0.26224627  0.51720425  0.06238564  1
  O  O78  1  0.23775373  0.51720425  0.56238564  1
  O  O79  1  0.76224627  0.48279575  0.43761436  1
