# generated using pymatgen
data_Zr6Al7Cu16H3
_symmetry_space_group_name_H-M   'P 1'
_cell_length_a   8.50728847
_cell_length_b   8.50728847
_cell_length_c   8.50728847
_cell_angle_alpha   90.37206451
_cell_angle_beta   59.90681485
_cell_angle_gamma   120.33705303
_symmetry_Int_Tables_number   1
_chemical_formula_structural   Zr6Al7Cu16H3
_chemical_formula_sum   'Zr6 Al7 Cu16 H3'
_cell_volume   433.94197213
_cell_formula_units_Z   1
loop_
 _symmetry_equiv_pos_site_id
 _symmetry_equiv_pos_as_xyz
  1  'x, y, z'
loop_
 _atom_site_type_symbol
 _atom_site_label
 _atom_site_symmetry_multiplicity
 _atom_site_fract_x
 _atom_site_fract_y
 _atom_site_fract_z
 _atom_site_occupancy
  Zr  Zr0  1  0.40632084  0.20211064  0.79725709  1
  Zr  Zr1  1  0.00063227  0.79642207  0.79725709  1
  Zr  Zr2  1  0.00000000  0.21217752  0.78782248  1
  Zr  Zr3  1  0.59367916  0.79642207  0.20421020  1
  Zr  Zr4  1  0.99936773  0.20211064  0.20421020  1
  Zr  Zr5  1  0.00000000  0.79319545  0.20680455  1
  Al  Al6  1  0.99847992  0.99872048  0.49830928  1
  Al  Al7  1  0.50297024  0.50321079  0.49830928  1
  Al  Al8  1  0.50000000  0.99969941  0.50030059  1
  Al  Al9  1  0.00152008  0.50321079  0.99975944  1
  Al  Al10  1  0.49702976  0.99872048  0.99975944  1
  Al  Al11  1  0.50000000  0.50137945  0.99862055  1
  Al  Al12  1  0.00000000  0.49985378  0.50014622  1
  Cu  Cu13  1  0.35211208  0.17759955  0.47028837  1
  Cu  Cu14  1  0.64788792  0.17759955  0.17451253  1
  Cu  Cu15  1  0.65879112  0.49008561  0.16870551  1
  Cu  Cu16  1  0.34120888  0.17250337  0.16870551  1
  Cu  Cu17  1  0.65652705  0.82945309  0.51401986  1
  Cu  Cu18  1  0.34347295  0.82945309  0.82707395  1
  Cu  Cu19  1  0.33974779  0.51047534  0.82927245  1
  Cu  Cu20  1  0.66025221  0.83097976  0.82927245  1
  Cu  Cu21  1  0.76060012  0.38068205  0.85871783  1
  Cu  Cu22  1  0.23939988  0.38068205  0.37991807  1
  Cu  Cu23  1  0.23902856  0.85807231  0.38095625  1
  Cu  Cu24  1  0.76097144  0.38001519  0.38095625  1
  Cu  Cu25  1  0.23867100  0.61927197  0.14205703  1
  Cu  Cu26  1  0.76132900  0.61927197  0.61939903  1
  Cu  Cu27  1  0.76035920  0.14173361  0.61862559  1
  Cu  Cu28  1  0.23964080  0.62101522  0.61862559  1
  H  H29  1  0.00000000  0.96978844  0.03021156  1
  H  H30  1  0.18015347  0.09214213  0.72770441  1
  H  H31  1  0.81984653  0.09214213  0.08801134  1
