# generated using pymatgen
data_YbAl3Au
_symmetry_space_group_name_H-M   'P 1'
_cell_length_a   4.12660785
_cell_length_b   4.12660785
_cell_length_c   6.62701645
_cell_angle_alpha   71.85955400
_cell_angle_beta   71.85955400
_cell_angle_gamma   90.00000000
_symmetry_Int_Tables_number   1
_chemical_formula_structural   YbAl3Au
_chemical_formula_sum   'Yb1 Al3 Au1'
_cell_volume   101.32248317
_cell_formula_units_Z   1
loop_
 _symmetry_equiv_pos_site_id
 _symmetry_equiv_pos_as_xyz
  1  'x, y, z'
loop_
 _atom_site_type_symbol
 _atom_site_label
 _atom_site_symmetry_multiplicity
 _atom_site_fract_x
 _atom_site_fract_y
 _atom_site_fract_z
 _atom_site_occupancy
  Yb  Yb0  1  0.99653600  0.99653600  0.00692800  1
  Al  Al1  1  0.75120084  0.25120084  0.49759833  1
  Al  Al2  1  0.25120084  0.75120084  0.49759833  1
  Al  Al3  1  0.60786598  0.60786598  0.78426804  1
  Au  Au4  1  0.39319635  0.39319635  0.21360730  1
