# generated using pymatgen
data_Yb7MgPt4
_symmetry_space_group_name_H-M   'P 1'
_cell_length_a   4.33864888
_cell_length_b   7.50022684
_cell_length_c   8.83753265
_cell_angle_alpha   89.66871076
_cell_angle_beta   90.00000000
_cell_angle_gamma   90.00000000
_symmetry_Int_Tables_number   1
_chemical_formula_structural   Yb7MgPt4
_chemical_formula_sum   'Yb7 Mg1 Pt4'
_cell_volume   287.57602397
_cell_formula_units_Z   1
loop_
 _symmetry_equiv_pos_site_id
 _symmetry_equiv_pos_as_xyz
  1  'x, y, z'
loop_
 _atom_site_type_symbol
 _atom_site_label
 _atom_site_symmetry_multiplicity
 _atom_site_fract_x
 _atom_site_fract_y
 _atom_site_fract_z
 _atom_site_occupancy
  Yb  Yb0  1  0.75000000  0.47130086  0.17301508  1
  Yb  Yb1  1  0.75000000  0.97807258  0.33577394  1
  Yb  Yb2  1  0.25000000  0.52088924  0.82216236  1
  Yb  Yb3  1  0.25000000  0.03711664  0.66589792  1
  Yb  Yb4  1  0.75000000  0.85372400  0.93116018  1
  Yb  Yb5  1  0.25000000  0.63834995  0.43665400  1
  Yb  Yb6  1  0.25000000  0.14769955  0.06750943  1
  Mg  Mg7  1  0.75000000  0.35468358  0.56578881  1
  Pt  Pt8  1  0.75000000  0.24456900  0.86871091  1
  Pt  Pt9  1  0.75000000  0.73219585  0.62438363  1
  Pt  Pt10  1  0.25000000  0.75893730  0.12565028  1
  Pt  Pt11  1  0.25000000  0.26246146  0.38329347  1
