# generated using pymatgen
data_Li9Mn2Co5O16
_symmetry_space_group_name_H-M   'P 1'
_cell_length_a   2.97172005
_cell_length_b   5.95608558
_cell_length_c   16.17611421
_cell_angle_alpha   89.34917518
_cell_angle_beta   89.02003295
_cell_angle_gamma   94.02150022
_symmetry_Int_Tables_number   1
_chemical_formula_structural   Li9Mn2Co5O16
_chemical_formula_sum   'Li9 Mn2 Co5 O16'
_cell_volume   285.54491981
_cell_formula_units_Z   1
loop_
 _symmetry_equiv_pos_site_id
 _symmetry_equiv_pos_as_xyz
  1  'x, y, z'
loop_
 _atom_site_type_symbol
 _atom_site_label
 _atom_site_symmetry_multiplicity
 _atom_site_fract_x
 _atom_site_fract_y
 _atom_site_fract_z
 _atom_site_occupancy
  Li  Li0  1  0.99736588  0.50217460  0.99856590  1
  Li  Li1  1  0.50128337  0.25758480  0.13266306  1
  Li  Li2  1  0.00547067  0.98848315  0.25493701  1
  Li  Li3  1  0.50202507  0.74752919  0.87240068  1
  Li  Li4  1  0.00018730  0.99972191  0.74886100  1
  Li  Li5  1  0.49955927  0.24968350  0.62393966  1
  Li  Li6  1  0.99795984  0.50053795  0.49895440  1
  Li  Li7  1  0.49846795  0.74289018  0.37043573  1
  Li  Li8  1  0.98831686  0.50992886  0.25452370  1
  Mn  Mn9  1  0.00809786  0.00002974  0.99811935  1
  Mn  Mn10  1  0.50529066  0.74202732  0.13033514  1
  Co  Co11  1  0.49361600  0.25778361  0.37071836  1
  Co  Co12  1  0.00051283  0.99848726  0.49914052  1
  Co  Co13  1  0.49969655  0.75116805  0.62428788  1
  Co  Co14  1  0.00078636  0.50092490  0.74856807  1
  Co  Co15  1  0.49921242  0.25348477  0.87332047  1
  O  O16  1  0.47454743  0.24444530  0.99456534  1
  O  O17  1  0.03016168  0.97202430  0.12171794  1
  O  O18  1  0.49480416  0.75197921  0.24227072  1
  O  O19  1  0.97315611  0.48897092  0.86783378  1
  O  O20  1  0.47345248  0.73821364  0.74321735  1
  O  O21  1  0.97113623  0.99051115  0.61852064  1
  O  O22  1  0.47172667  0.23528935  0.49073521  1
  O  O23  1  0.96831570  0.47909261  0.37679292  1
  O  O24  1  0.53648723  0.75870455  0.00495601  1
  O  O25  1  0.97903639  0.52851174  0.12593470  1
  O  O26  1  0.50037846  0.24498516  0.26303000  1
  O  O27  1  0.02791319  0.01405553  0.87692497  1
  O  O28  1  0.52684074  0.26403694  0.75508143  1
  O  O29  1  0.02667702  0.51192318  0.63017768  1
  O  O30  1  0.52398468  0.76288237  0.50651939  1
  O  O31  1  0.02353294  0.01193429  0.38195000  1
