# generated using pymatgen
data_Yb20(CdAu3)3
_symmetry_space_group_name_H-M   'P 1'
_cell_length_a   7.98689382
_cell_length_b   7.98689382
_cell_length_c   14.14689868
_cell_angle_alpha   90.00000000
_cell_angle_beta   90.00000000
_cell_angle_gamma   90.00000000
_symmetry_Int_Tables_number   1
_chemical_formula_structural   Yb20(CdAu3)3
_chemical_formula_sum   'Yb20 Cd3 Au9'
_cell_volume   902.43735675
_cell_formula_units_Z   1
loop_
 _symmetry_equiv_pos_site_id
 _symmetry_equiv_pos_as_xyz
  1  'x, y, z'
loop_
 _atom_site_type_symbol
 _atom_site_label
 _atom_site_symmetry_multiplicity
 _atom_site_fract_x
 _atom_site_fract_y
 _atom_site_fract_z
 _atom_site_occupancy
  Yb  Yb0  1  0.00000000  -0.00000000  0.49686293  1
  Yb  Yb1  1  0.50000000  0.50000000  0.00170836  1
  Yb  Yb2  1  0.00000000  -0.00000000  0.00313707  1
  Yb  Yb3  1  0.50000000  0.50000000  0.49829164  1
  Yb  Yb4  1  0.82832171  0.65778965  0.14116121  1
  Yb  Yb5  1  0.33638187  0.16419831  0.63769347  1
  Yb  Yb6  1  0.17167829  0.34221035  0.14116121  1
  Yb  Yb7  1  0.66361813  0.83580169  0.63769347  1
  Yb  Yb8  1  0.65778965  0.17167829  0.14116121  1
  Yb  Yb9  1  0.16419831  0.66361813  0.63769347  1
  Yb  Yb10  1  0.34221035  0.82832171  0.14116121  1
  Yb  Yb11  1  0.83580169  0.33638187  0.63769347  1
  Yb  Yb12  1  0.65778965  0.82832171  0.35883879  1
  Yb  Yb13  1  0.16419831  0.33638187  0.86230653  1
  Yb  Yb14  1  0.34221035  0.17167829  0.35883879  1
  Yb  Yb15  1  0.83580169  0.66361813  0.86230653  1
  Yb  Yb16  1  0.82832171  0.34221035  0.35883879  1
  Yb  Yb17  1  0.33638187  0.83580169  0.86230653  1
  Yb  Yb18  1  0.17167829  0.65778965  0.35883879  1
  Yb  Yb19  1  0.66361813  0.16419831  0.86230653  1
  Cd  Cd20  1  0.00000000  -0.00000000  0.75000000  1
  Cd  Cd21  1  0.00000000  -0.00000000  0.25000000  1
  Cd  Cd22  1  0.50000000  0.50000000  0.75000000  1
  Au  Au23  1  0.36535719  0.13389014  0.00106492  1
  Au  Au24  1  0.86610986  0.63464281  0.49893508  1
  Au  Au25  1  0.13389014  0.36535719  0.49893508  1
  Au  Au26  1  0.63464281  0.86610986  0.00106492  1
  Au  Au27  1  0.63464281  0.13389014  0.49893508  1
  Au  Au28  1  0.13389014  0.63464281  0.00106492  1
  Au  Au29  1  0.86610986  0.36535719  0.00106492  1
  Au  Au30  1  0.36535719  0.86610986  0.49893508  1
  Au  Au31  1  0.50000000  0.50000000  0.25000000  1
