# generated using pymatgen
data_YbH18(BrO6)3
_symmetry_space_group_name_H-M   'P 1'
_cell_length_a   6.96834447
_cell_length_b   12.07114405
_cell_length_c   12.08227748
_cell_angle_alpha   60.03047858
_cell_angle_beta   90.00000000
_cell_angle_gamma   90.00000000
_symmetry_Int_Tables_number   1
_chemical_formula_structural   YbH18(BrO6)3
_chemical_formula_sum   'Yb2 H36 Br6 O36'
_cell_volume   880.42178593
_cell_formula_units_Z   2
loop_
 _symmetry_equiv_pos_site_id
 _symmetry_equiv_pos_as_xyz
  1  'x, y, z'
loop_
 _atom_site_type_symbol
 _atom_site_label
 _atom_site_symmetry_multiplicity
 _atom_site_fract_x
 _atom_site_fract_y
 _atom_site_fract_z
 _atom_site_occupancy
  Yb  Yb0  1  0.74669458  0.66680774  0.66638452  1
  Yb  Yb1  1  0.24669458  0.33319226  0.33361548  1
  H  H2  1  0.43931829  0.63075423  0.50047879  1
  H  H3  1  0.43892804  0.50049439  0.86872701  1
  H  H4  1  0.43811799  0.86886423  0.63061428  1
  H  H5  1  0.43811799  0.50052148  0.63061428  1
  H  H6  1  0.43931829  0.86876698  0.50047879  1
  H  H7  1  0.43892804  0.63077860  0.86872701  1
  H  H8  1  0.56258788  0.36894124  0.49913114  1
  H  H9  1  0.56185171  0.49887354  0.13188108  1
  H  H10  1  0.56161381  0.13240619  0.36922277  1
  H  H11  1  0.56161381  0.49837104  0.36922277  1
  H  H12  1  0.56258788  0.13192762  0.49913114  1
  H  H13  1  0.56185171  0.36924538  0.13188108  1
  H  H14  1  0.93931829  0.36924577  0.49952121  1
  H  H15  1  0.93892804  0.49950561  0.13127299  1
  H  H16  1  0.93811799  0.13113577  0.36938572  1
  H  H17  1  0.93811799  0.49947852  0.36938572  1
  H  H18  1  0.93931829  0.13123302  0.49952121  1
  H  H19  1  0.93892804  0.36922140  0.13127299  1
  H  H20  1  0.06258788  0.63105876  0.50086886  1
  H  H21  1  0.06185171  0.50112646  0.86811892  1
  H  H22  1  0.06161381  0.86759381  0.63077723  1
  H  H23  1  0.06161381  0.50162896  0.63077723  1
  H  H24  1  0.06258788  0.86807238  0.50086886  1
  H  H25  1  0.06185171  0.63075462  0.86811892  1
  H  H26  1  0.75816455  0.88024313  0.74724419  1
  H  H27  1  0.75848147  0.74745455  0.37325444  1
  H  H28  1  0.75826637  0.37310553  0.87906465  1
  H  H29  1  0.75826637  0.74782982  0.87906465  1
  H  H30  1  0.75816455  0.37251269  0.74724419  1
  H  H31  1  0.75848147  0.87929101  0.37325444  1
  H  H32  1  0.25816455  0.11975687  0.25275581  1
  H  H33  1  0.25848147  0.25254545  0.62674556  1
  H  H34  1  0.25826637  0.62689447  0.12093535  1
  H  H35  1  0.25826637  0.25217018  0.12093535  1
  H  H36  1  0.25816455  0.62748731  0.25275581  1
  H  H37  1  0.25848147  0.12070899  0.62674556  1
  Br  Br38  1  0.75514470  0.13374001  0.13397508  1
  Br  Br39  1  0.75445098  0.13342222  0.73315555  1
  Br  Br40  1  0.75514470  0.73228491  0.13397508  1
  Br  Br41  1  0.25514470  0.86625999  0.86602492  1
  Br  Br42  1  0.25445098  0.86657778  0.26684445  1
  Br  Br43  1  0.25514470  0.26771509  0.86602492  1
  O  O44  1  0.51126637  0.58011829  0.58042021  1
  O  O45  1  0.51169006  0.58029452  0.83941096  1
  O  O46  1  0.51126637  0.83946150  0.58042021  1
  O  O47  1  0.48752857  0.41923717  0.42033386  1
  O  O48  1  0.48776070  0.41955493  0.16089015  1
  O  O49  1  0.48752857  0.16042897  0.42033386  1
  O  O50  1  0.01126637  0.41988171  0.41957979  1
  O  O51  1  0.01169006  0.41970548  0.16058904  1
  O  O52  1  0.01126637  0.16053850  0.41957979  1
  O  O53  1  0.98752857  0.58076283  0.57966614  1
  O  O54  1  0.98776070  0.58044507  0.83910985  1
  O  O55  1  0.98752857  0.83957103  0.57966614  1
  O  O56  1  0.75105329  0.07193679  0.29514194  1
  O  O57  1  0.74917330  0.29444477  0.63355385  1
  O  O58  1  0.75170906  0.63352447  0.07119939  1
  O  O59  1  0.75170906  0.29527614  0.07119939  1
  O  O60  1  0.75105329  0.63292127  0.29514194  1
  O  O61  1  0.74917330  0.07200138  0.63355385  1
  O  O62  1  0.25105329  0.92806321  0.70485806  1
  O  O63  1  0.24917330  0.70555523  0.36644615  1
  O  O64  1  0.25170906  0.36647553  0.92880061  1
  O  O65  1  0.25170906  0.70472386  0.92880061  1
  O  O66  1  0.25105329  0.36707873  0.70485806  1
  O  O67  1  0.24917330  0.92799862  0.36644615  1
  O  O68  1  0.73690365  0.78754678  0.78697901  1
  O  O69  1  0.73361551  0.78728582  0.42542835  1
  O  O70  1  0.73690365  0.42547421  0.78697901  1
  O  O71  1  0.23690365  0.21245322  0.21302099  1
  O  O72  1  0.23361551  0.21271418  0.57457165  1
  O  O73  1  0.23690365  0.57452579  0.21302099  1
  O  O74  1  0.54591333  0.09525824  0.09529190  1
  O  O75  1  0.54304341  0.09635413  0.80729173  1
  O  O76  1  0.54591333  0.80944986  0.09529190  1
  O  O77  1  0.04591333  0.90474176  0.90470810  1
  O  O78  1  0.04304341  0.90364587  0.19270827  1
  O  O79  1  0.04591333  0.19055014  0.90470810  1
