# generated using pymatgen
data_Yb9Zn4Bi9
_symmetry_space_group_name_H-M   'P 1'
_cell_length_a   4.72654747
_cell_length_b   12.53332757
_cell_length_c   22.07659678
_cell_angle_alpha   90.00000000
_cell_angle_beta   90.00000000
_cell_angle_gamma   90.00000000
_symmetry_Int_Tables_number   1
_chemical_formula_structural   Yb9Zn4Bi9
_chemical_formula_sum   'Yb18 Zn8 Bi18'
_cell_volume   1307.80363458
_cell_formula_units_Z   2
loop_
 _symmetry_equiv_pos_site_id
 _symmetry_equiv_pos_as_xyz
  1  'x, y, z'
loop_
 _atom_site_type_symbol
 _atom_site_label
 _atom_site_symmetry_multiplicity
 _atom_site_fract_x
 _atom_site_fract_y
 _atom_site_fract_z
 _atom_site_occupancy
  Yb  Yb0  1  0.00000000  0.63114251  0.36061072  1
  Yb  Yb1  1  -0.00000000  0.36885749  0.63938928  1
  Yb  Yb2  1  0.00000000  0.86885749  0.86061072  1
  Yb  Yb3  1  0.00000000  0.13114251  0.13938928  1
  Yb  Yb4  1  0.50000000  0.50000000  0.50000000  1
  Yb  Yb5  1  0.50000000  0.00000000  -0.00000000  1
  Yb  Yb6  1  0.00000000  0.87346070  0.23477162  1
  Yb  Yb7  1  -0.00000000  0.12653930  0.76522838  1
  Yb  Yb8  1  -0.00000000  0.62653930  0.73477162  1
  Yb  Yb9  1  0.00000000  0.37346070  0.26522838  1
  Yb  Yb10  1  -0.00000000  0.92637296  0.41139122  1
  Yb  Yb11  1  0.00000000  0.07362704  0.58860878  1
  Yb  Yb12  1  0.00000000  0.57362704  0.91139122  1
  Yb  Yb13  1  0.00000000  0.42637296  0.08860878  1
  Yb  Yb14  1  0.50000000  0.70530935  0.09994646  1
  Yb  Yb15  1  0.50000000  0.29469065  0.90005354  1
  Yb  Yb16  1  0.50000000  0.79469065  0.59994646  1
  Yb  Yb17  1  0.50000000  0.20530935  0.40005354  1
  Zn  Zn18  1  0.50000000  0.61030144  0.26244391  1
  Zn  Zn19  1  0.50000000  0.38969856  0.73755609  1
  Zn  Zn20  1  0.50000000  0.88969856  0.76244391  1
  Zn  Zn21  1  0.50000000  0.11030144  0.23755609  1
  Zn  Zn22  1  0.50000000  0.77053553  0.45232308  1
  Zn  Zn23  1  0.50000000  0.22946447  0.54767692  1
  Zn  Zn24  1  0.50000000  0.72946447  0.95232308  1
  Zn  Zn25  1  0.50000000  0.27053553  0.04767692  1
  Bi  Bi26  1  0.50000000  0.95295925  0.14505036  1
  Bi  Bi27  1  0.50000000  0.04704075  0.85494964  1
  Bi  Bi28  1  0.50000000  0.54704075  0.64505036  1
  Bi  Bi29  1  0.50000000  0.45295925  0.35494964  1
  Bi  Bi30  1  0.00000000  0.80914542  0.00840199  1
  Bi  Bi31  1  0.00000000  0.19085458  0.99159801  1
  Bi  Bi32  1  -0.00000000  0.69085458  0.50840199  1
  Bi  Bi33  1  0.00000000  0.30914542  0.49159801  1
  Bi  Bi34  1  -0.00000000  0.61438680  0.19277601  1
  Bi  Bi35  1  -0.00000000  0.38561320  0.80722399  1
  Bi  Bi36  1  -0.00000000  0.88561320  0.69277601  1
  Bi  Bi37  1  0.00000000  0.11438680  0.30722399  1
  Bi  Bi38  1  0.50000000  0.00000000  0.50000000  1
  Bi  Bi39  1  0.50000000  0.50000000  0.00000000  1
  Bi  Bi40  1  0.50000000  0.80927388  0.32910735  1
  Bi  Bi41  1  0.50000000  0.19072612  0.67089265  1
  Bi  Bi42  1  0.50000000  0.69072612  0.82910735  1
  Bi  Bi43  1  0.50000000  0.30927388  0.17089265  1
