# generated using pymatgen
data_Yb2Mn(GeO3)4
_symmetry_space_group_name_H-M   'P 1'
_cell_length_a   4.89896119
_cell_length_b   9.96656240
_cell_length_c   9.96656240
_cell_angle_alpha   91.12434454
_cell_angle_beta   90.00000000
_cell_angle_gamma   90.00000000
_symmetry_Int_Tables_number   1
_chemical_formula_structural   Yb2Mn(GeO3)4
_chemical_formula_sum   'Yb4 Mn2 Ge8 O24'
_cell_volume   486.53171384
_cell_formula_units_Z   2
loop_
 _symmetry_equiv_pos_site_id
 _symmetry_equiv_pos_as_xyz
  1  'x, y, z'
loop_
 _atom_site_type_symbol
 _atom_site_label
 _atom_site_symmetry_multiplicity
 _atom_site_fract_x
 _atom_site_fract_y
 _atom_site_fract_z
 _atom_site_occupancy
  Yb  Yb0  1  0.50000000  0.00000000  0.50000000  1
  Yb  Yb1  1  0.50000000  0.50000000  0.00000000  1
  Yb  Yb2  1  0.50000000  0.75000000  0.75000000  1
  Yb  Yb3  1  0.50000000  0.25000000  0.25000000  1
  Mn  Mn4  1  0.50000000  0.50000000  0.50000000  1
  Mn  Mn5  1  0.50000000  0.00000000  0.00000000  1
  Ge  Ge6  1  0.98771165  0.74673332  0.47558494  1
  Ge  Ge7  1  0.01228835  0.25326668  0.52441506  1
  Ge  Ge8  1  0.01228835  0.24673332  0.97558494  1
  Ge  Ge9  1  0.98771165  0.75326668  0.02441506  1
  Ge  Ge10  1  0.01228835  0.47558494  0.74673332  1
  Ge  Ge11  1  0.98771165  0.52441506  0.25326668  1
  Ge  Ge12  1  0.98771165  0.97558494  0.24673332  1
  Ge  Ge13  1  0.01228835  0.02441506  0.75326668  1
  O  O14  1  0.28044542  0.55101801  0.65710080  1
  O  O15  1  0.23271386  0.07257173  0.32860306  1
  O  O16  1  0.23271386  0.42742827  0.17139694  1
  O  O17  1  0.28044542  0.94898199  0.84289920  1
  O  O18  1  0.71955458  0.44898199  0.34289920  1
  O  O19  1  0.76728614  0.92742827  0.67139694  1
  O  O20  1  0.76728614  0.57257173  0.82860306  1
  O  O21  1  0.71955458  0.05101801  0.15710080  1
  O  O22  1  0.71955458  0.65710080  0.55101801  1
  O  O23  1  0.76728614  0.32860306  0.07257173  1
  O  O24  1  0.76728614  0.17139694  0.42742827  1
  O  O25  1  0.71955458  0.84289920  0.94898199  1
  O  O26  1  0.28044542  0.34289920  0.44898199  1
  O  O27  1  0.23271386  0.67139694  0.92742827  1
  O  O28  1  0.23271386  0.82860306  0.57257173  1
  O  O29  1  0.28044542  0.15710080  0.05101801  1
  O  O30  1  0.82309756  0.36970329  0.63029671  1
  O  O31  1  0.82221505  0.86914183  0.36914183  1
  O  O32  1  0.82221505  0.63085817  0.13085817  1
  O  O33  1  0.82309756  0.13029671  0.86970329  1
  O  O34  1  0.17690244  0.63029671  0.36970329  1
  O  O35  1  0.17778495  0.13085817  0.63085817  1
  O  O36  1  0.17778495  0.36914183  0.86914183  1
  O  O37  1  0.17690244  0.86970329  0.13029671  1
