# generated using pymatgen
data_Tm(CuS)3
_symmetry_space_group_name_H-M   'P 1'
_cell_length_a   6.65059553
_cell_length_b   7.36684211
_cell_length_c   6.65083691
_cell_angle_alpha   63.16653936
_cell_angle_beta   59.99263478
_cell_angle_gamma   89.99978040
_symmetry_Int_Tables_number   1
_chemical_formula_structural   Tm(CuS)3
_chemical_formula_sum   'Tm2 Cu6 S6'
_cell_volume   240.80530292
_cell_formula_units_Z   2
loop_
 _symmetry_equiv_pos_site_id
 _symmetry_equiv_pos_as_xyz
  1  'x, y, z'
loop_
 _atom_site_type_symbol
 _atom_site_label
 _atom_site_symmetry_multiplicity
 _atom_site_fract_x
 _atom_site_fract_y
 _atom_site_fract_z
 _atom_site_occupancy
  Tm  Tm0  1  0.00010578  0.00026902  0.99980783  1
  Tm  Tm1  1  0.33322722  0.99973098  0.33352517  1
  Cu  Cu2  1  0.79016133  0.37060525  0.08352356  1
  Cu  Cu3  1  0.12629942  0.37061901  0.41957453  1
  Cu  Cu4  1  0.45411528  0.37058405  0.75571801  1
  Cu  Cu5  1  0.87921872  0.62941595  0.57761599  1
  Cu  Cu6  1  0.20703358  0.62938099  0.91375847  1
  Cu  Cu7  1  0.54317167  0.62939475  0.24980944  1
  S  S8  1  0.58531978  0.75356689  0.49662166  1
  S  S9  1  0.25029084  0.75358904  0.16441660  1
  S  S10  1  0.91811252  0.75357457  0.83166350  1
  S  S11  1  0.41522148  0.24642543  0.50167050  1
  S  S12  1  0.08304216  0.24641096  0.16891640  1
  S  S13  1  0.74801322  0.24643311  0.83671134  1
