# generated using pymatgen
data_TlV3Cd4O12
_symmetry_space_group_name_H-M   'P 1'
_cell_length_a   7.19827151
_cell_length_b   9.55903902
_cell_length_c   9.55903902
_cell_angle_alpha   92.07472783
_cell_angle_beta   107.12263815
_cell_angle_gamma   107.12263815
_symmetry_Int_Tables_number   1
_chemical_formula_structural   TlV3Cd4O12
_chemical_formula_sum   'Tl2 V6 Cd8 O24'
_cell_volume   595.26684237
_cell_formula_units_Z   2
loop_
 _symmetry_equiv_pos_site_id
 _symmetry_equiv_pos_as_xyz
  1  'x, y, z'
loop_
 _atom_site_type_symbol
 _atom_site_label
 _atom_site_symmetry_multiplicity
 _atom_site_fract_x
 _atom_site_fract_y
 _atom_site_fract_z
 _atom_site_occupancy
  Tl  Tl0  1  0.25103973  0.97900708  0.02400207  1
  Tl  Tl1  1  0.75103973  0.02400207  0.97900708  1
  V  V2  1  0.24962710  0.70363582  0.29693738  1
  V  V3  1  0.74962710  0.29693738  0.70363582  1
  V  V4  1  0.13872698  0.12801964  0.35210876  1
  V  V5  1  0.36290441  0.64893706  0.87264774  1
  V  V6  1  0.86290441  0.87264774  0.64893706  1
  V  V7  1  0.63872698  0.35210876  0.12801964  1
  Cd  Cd8  1  0.35705632  0.93921291  0.61912344  1
  Cd  Cd9  1  0.14405567  0.37957071  0.06375556  1
  Cd  Cd10  1  0.64405567  0.06375556  0.37957071  1
  Cd  Cd11  1  0.85705632  0.61912344  0.93921291  1
  Cd  Cd12  1  0.24806825  0.26284248  0.73636816  1
  Cd  Cd13  1  0.74806825  0.73636816  0.26284248  1
  Cd  Cd14  1  0.47335049  0.51258624  0.52137862  1
  Cd  Cd15  1  0.97335049  0.52137862  0.51258624  1
  O  O16  1  0.23032839  0.71469482  0.47746450  1
  O  O17  1  0.27225663  0.52643750  0.28510177  1
  O  O18  1  0.77225663  0.28510177  0.52643750  1
  O  O19  1  0.73032839  0.47746450  0.71469482  1
  O  O20  1  0.20973489  0.28555934  0.48457023  1
  O  O21  1  0.29343153  0.51947758  0.70886316  1
  O  O22  1  0.79343153  0.70886316  0.51947758  1
  O  O23  1  0.70973489  0.48457023  0.28555934  1
  O  O24  1  0.90012639  0.99364815  0.33177866  1
  O  O25  1  0.60056068  0.66987436  0.00625055  1
  O  O26  1  0.10056068  0.00625055  0.66987436  1
  O  O27  1  0.40012639  0.33177866  0.99364815  1
  O  O28  1  0.46975837  0.81992476  0.26854032  1
  O  O29  1  0.03050014  0.73156092  0.17930933  1
  O  O30  1  0.53050014  0.17930933  0.73156092  1
  O  O31  1  0.96975837  0.26854032  0.81992476  1
  O  O32  1  0.32248464  0.03910938  0.39880359  1
  O  O33  1  0.17778889  0.60090977  0.95974951  1
  O  O34  1  0.67778889  0.95974951  0.60090977  1
  O  O35  1  0.82248464  0.39880359  0.03910938  1
  O  O36  1  0.12791011  0.17790138  0.17851768  1
  O  O37  1  0.37109040  0.82061930  0.82113976  1
  O  O38  1  0.87109040  0.82113976  0.82061930  1
  O  O39  1  0.62791011  0.17851768  0.17790138  1
