# generated using pymatgen
data_Ti2Te3
_symmetry_space_group_name_H-M   'P 1'
_cell_length_a   6.77905133
_cell_length_b   6.77446808
_cell_length_c   7.44228982
_cell_angle_alpha   62.90662061
_cell_angle_beta   89.95379587
_cell_angle_gamma   119.91893338
_symmetry_Int_Tables_number   1
_chemical_formula_structural   Ti2Te3
_chemical_formula_sum   'Ti4 Te6'
_cell_volume   251.95468831
_cell_formula_units_Z   2
loop_
 _symmetry_equiv_pos_site_id
 _symmetry_equiv_pos_as_xyz
  1  'x, y, z'
loop_
 _atom_site_type_symbol
 _atom_site_label
 _atom_site_symmetry_multiplicity
 _atom_site_fract_x
 _atom_site_fract_y
 _atom_site_fract_z
 _atom_site_occupancy
  Ti  Ti0  1  0.33333300  0.66666700  0.00000000  1
  Ti  Ti1  1  0.67405432  0.34755490  0.97933569  1
  Ti  Ti2  1  0.99261268  0.98577810  0.02066431  1
  Ti  Ti3  1  0.83333300  0.66666700  0.50000000  1
  Te  Te4  1  0.91008775  0.47907634  0.26188547  1
  Te  Te5  1  0.56914572  0.82811452  0.26189822  1
  Te  Te6  1  0.25871316  0.16865457  0.26178251  1
  Te  Te7  1  0.40795384  0.16467843  0.73821749  1
  Te  Te8  1  0.09752128  0.50521848  0.73810178  1
  Te  Te9  1  0.75657825  0.85425766  0.73811453  1
