# generated using pymatgen
data_Li9Mn2Co5O16
_symmetry_space_group_name_H-M   'P 1'
_cell_length_a   2.98692181
_cell_length_b   7.80584479
_cell_length_c   12.53008686
_cell_angle_alpha   90.51841114
_cell_angle_beta   90.12730536
_cell_angle_gamma   81.28934631
_symmetry_Int_Tables_number   1
_chemical_formula_structural   Li9Mn2Co5O16
_chemical_formula_sum   'Li9 Mn2 Co5 O16'
_cell_volume   288.76299076
_cell_formula_units_Z   1
loop_
 _symmetry_equiv_pos_site_id
 _symmetry_equiv_pos_as_xyz
  1  'x, y, z'
loop_
 _atom_site_type_symbol
 _atom_site_label
 _atom_site_symmetry_multiplicity
 _atom_site_fract_x
 _atom_site_fract_y
 _atom_site_fract_z
 _atom_site_occupancy
  Li  Li0  1  0.80427283  0.37712868  0.05555217  1
  Li  Li1  1  0.05683047  0.87451915  0.31322378  1
  Li  Li2  1  0.31748197  0.37518580  0.56411104  1
  Li  Li3  1  0.20567067  0.61902436  0.93206160  1
  Li  Li4  1  0.44683898  0.12361193  0.18960154  1
  Li  Li5  1  0.68188488  0.62443167  0.43985066  1
  Li  Li6  1  0.55041686  0.88802015  0.81118158  1
  Li  Li7  1  0.93504662  0.12887400  0.69563215  1
  Li  Li8  1  0.39350531  0.24057391  0.86952642  1
  Mn  Mn9  1  0.98884037  0.00723516  0.99619617  1
  Mn  Mn10  1  0.25587108  0.50036453  0.24856464  1
  Co  Co11  1  0.50137435  0.99833921  0.50218017  1
  Co  Co12  1  0.75780604  0.49048864  0.75425090  1
  Co  Co13  1  0.60545523  0.75348903  0.12496241  1
  Co  Co14  1  0.88774378  0.24763163  0.37690979  1
  Co  Co15  1  0.12149318  0.74895049  0.62765306  1
  O  O16  1  0.42544733  0.16440638  0.02704535  1
  O  O17  1  0.61983572  0.68514185  0.27197301  1
  O  O18  1  0.92167785  0.18148234  0.52386472  1
  O  O19  1  0.77660656  0.45094675  0.89143201  1
  O  O20  1  0.99099056  0.92668138  0.14779980  1
  O  O21  1  0.30067472  0.43110524  0.39891363  1
  O  O22  1  0.11899917  0.68017612  0.77274933  1
  O  O23  1  0.52932473  0.93416759  0.64976392  1
  O  O24  1  0.24247737  0.57090739  0.09692882  1
  O  O25  1  0.47175896  0.06461217  0.35267562  1
  O  O26  1  0.70865567  0.56722484  0.60728870  1
  O  O27  1  0.56034618  0.83465745  0.97939400  1
  O  O28  1  0.89341658  0.31278101  0.22554787  1
  O  O29  1  0.08137042  0.81350464  0.47843747  1
  O  O30  1  0.97683447  0.05434847  0.85395016  1
  O  O31  1  0.37105110  0.32998806  0.72077551  1
