# generated using pymatgen
data_Ti3Nb(AlC)2
_symmetry_space_group_name_H-M   'P 1'
_cell_length_a   3.06790169
_cell_length_b   3.06815955
_cell_length_c   13.86128365
_cell_angle_alpha   90.00033771
_cell_angle_beta   89.99972221
_cell_angle_gamma   59.99674452
_symmetry_Int_Tables_number   1
_chemical_formula_structural   Ti3Nb(AlC)2
_chemical_formula_sum   'Ti3 Nb1 Al2 C2'
_cell_volume   112.98979318
_cell_formula_units_Z   1
loop_
 _symmetry_equiv_pos_site_id
 _symmetry_equiv_pos_as_xyz
  1  'x, y, z'
loop_
 _atom_site_type_symbol
 _atom_site_label
 _atom_site_symmetry_multiplicity
 _atom_site_fract_x
 _atom_site_fract_y
 _atom_site_fract_z
 _atom_site_occupancy
  Ti  Ti0  1  0.66669198  0.66665509  0.41372520  1
  Ti  Ti1  1  0.66668118  0.66665854  0.08354092  1
  Ti  Ti2  1  0.33331811  0.33334126  0.91689007  1
  Nb  Nb3  1  0.33329883  0.33334928  0.58886806  1
  Al  Al4  1  0.33337035  0.33331460  0.24847239  1
  Al  Al5  1  0.66663343  0.66668314  0.75308108  1
  C  C6  1  0.00000528  -0.00000203  0.49513808  1
  C  C7  1  0.00000084  0.00000012  0.00028420  1
