# generated using pymatgen
data_U5ClO12
_symmetry_space_group_name_H-M   'P 1'
_cell_length_a   4.16541060
_cell_length_b   7.15401492
_cell_length_c   19.82621327
_cell_angle_alpha   90.00000000
_cell_angle_beta   90.00000000
_cell_angle_gamma   90.00000000
_symmetry_Int_Tables_number   1
_chemical_formula_structural   U5ClO12
_chemical_formula_sum   'U10 Cl2 O24'
_cell_volume   590.80944966
_cell_formula_units_Z   2
loop_
 _symmetry_equiv_pos_site_id
 _symmetry_equiv_pos_as_xyz
  1  'x, y, z'
loop_
 _atom_site_type_symbol
 _atom_site_label
 _atom_site_symmetry_multiplicity
 _atom_site_fract_x
 _atom_site_fract_y
 _atom_site_fract_z
 _atom_site_occupancy
  U  U0  1  0.00000000  0.21332389  0.85362694  1
  U  U1  1  -0.00000000  0.78667611  0.14637306  1
  U  U2  1  0.00000000  0.21332389  0.64637306  1
  U  U3  1  0.00000000  0.78667611  0.35362694  1
  U  U4  1  0.00000000  0.33205086  0.42952261  1
  U  U5  1  0.00000000  0.66794914  0.57047739  1
  U  U6  1  -0.00000000  0.33205086  0.07047739  1
  U  U7  1  0.00000000  0.66794914  0.92952261  1
  U  U8  1  0.00000000  0.23895918  0.25000000  1
  U  U9  1  -0.00000000  0.76104082  0.75000000  1
  Cl  Cl10  1  0.00000000  -0.00000000  0.50000000  1
  Cl  Cl11  1  0.00000000  0.00000000  0.00000000  1
  O  O12  1  0.00000000  0.62521230  0.04878013  1
  O  O13  1  -0.00000000  0.37478770  0.95121987  1
  O  O14  1  0.00000000  0.62521230  0.45121987  1
  O  O15  1  -0.00000000  0.37478770  0.54878013  1
  O  O16  1  0.00000000  0.10429899  0.14540786  1
  O  O17  1  0.00000000  0.89570101  0.85459214  1
  O  O18  1  0.00000000  0.10429899  0.35459214  1
  O  O19  1  0.00000000  0.89570101  0.64540786  1
  O  O20  1  0.50000000  0.21261002  0.85503929  1
  O  O21  1  0.50000000  0.78738998  0.14496071  1
  O  O22  1  0.50000000  0.21261002  0.64496071  1
  O  O23  1  0.50000000  0.78738998  0.35503929  1
  O  O24  1  0.50000000  0.23249390  0.25000000  1
  O  O25  1  0.50000000  0.76750610  0.75000000  1
  O  O26  1  -0.00000000  0.87349614  0.25000000  1
  O  O27  1  0.00000000  0.12650386  0.75000000  1
  O  O28  1  0.50000000  0.32523730  0.43035600  1
  O  O29  1  0.50000000  0.67476270  0.56964400  1
  O  O30  1  0.50000000  0.32523730  0.06964400  1
  O  O31  1  0.50000000  0.67476270  0.93035600  1
  O  O32  1  0.00000000  0.47418733  0.17144389  1
  O  O33  1  -0.00000000  0.52581267  0.82855611  1
  O  O34  1  0.00000000  0.47418733  0.32855611  1
  O  O35  1  -0.00000000  0.52581267  0.67144389  1
