# generated using pymatgen
data_Ti4C3N
_symmetry_space_group_name_H-M   'P 1'
_cell_length_a   3.05414428
_cell_length_b   3.05414428
_cell_length_c   10.11358028
_cell_angle_alpha   90.00000000
_cell_angle_beta   81.31556238
_cell_angle_gamma   120.00000000
_symmetry_Int_Tables_number   1
_chemical_formula_structural   Ti4C3N
_chemical_formula_sum   'Ti4 C3 N1'
_cell_volume   80.44727790
_cell_formula_units_Z   1
loop_
 _symmetry_equiv_pos_site_id
 _symmetry_equiv_pos_as_xyz
  1  'x, y, z'
loop_
 _atom_site_type_symbol
 _atom_site_label
 _atom_site_symmetry_multiplicity
 _atom_site_fract_x
 _atom_site_fract_y
 _atom_site_fract_z
 _atom_site_occupancy
  Ti  Ti0  1  0.99924190  0.49962095  0.50113714  1
  Ti  Ti1  1  0.50075810  0.75037905  0.74886286  1
  Ti  Ti2  1  0.00157446  0.00078723  0.99763832  1
  Ti  Ti3  1  0.49842554  0.24921277  0.25236168  1
  C  C4  1  0.75207677  0.87603839  0.37188484  1
  C  C5  1  0.25000000  0.12500000  0.62500000  1
  C  C6  1  0.74792323  0.37396161  0.87811516  1
  N  N7  1  0.25000000  0.62500000  0.12500000  1
