# generated using pymatgen
data_TiVO3
_symmetry_space_group_name_H-M   'P 1'
_cell_length_a   5.14170458
_cell_length_b   5.14170451
_cell_length_c   5.60322686
_cell_angle_alpha   90.00000002
_cell_angle_beta   62.68923738
_cell_angle_gamma   119.99999107
_symmetry_Int_Tables_number   1
_chemical_formula_structural   TiVO3
_chemical_formula_sum   'Ti2 V2 O6'
_cell_volume   108.80357594
_cell_formula_units_Z   2
loop_
 _symmetry_equiv_pos_site_id
 _symmetry_equiv_pos_as_xyz
  1  'x, y, z'
loop_
 _atom_site_type_symbol
 _atom_site_label
 _atom_site_symmetry_multiplicity
 _atom_site_fract_x
 _atom_site_fract_y
 _atom_site_fract_z
 _atom_site_occupancy
  Ti  Ti0  1  0.70572246  0.85286123  0.44141632  1
  Ti  Ti1  1  0.70572246  0.35286123  0.94141632  1
  V  V2  1  0.30132391  0.15066196  0.54801413  1
  V  V3  1  0.30132391  0.65066196  0.04801413  1
  O  O4  1  0.52455931  0.07505117  0.75352318  1
  O  O5  1  0.79696868  0.72191751  0.75352318  1
  O  O6  1  0.17142565  0.44950814  0.75352318  1
  O  O7  1  0.17142565  0.22191751  0.25352318  1
  O  O8  1  0.79696868  0.57505117  0.25352318  1
  O  O9  1  0.52455930  0.94950814  0.25352318  1
