# generated using pymatgen
data_Y10Ga3Co7
_symmetry_space_group_name_H-M   'P 1'
_cell_length_a   3.94517396
_cell_length_b   9.55006074
_cell_length_c   23.07978054
_cell_angle_alpha   90.00000000
_cell_angle_beta   90.00000000
_cell_angle_gamma   90.00000000
_symmetry_Int_Tables_number   1
_chemical_formula_structural   Y10Ga3Co7
_chemical_formula_sum   'Y20 Ga6 Co14'
_cell_volume   869.56883536
_cell_formula_units_Z   2
loop_
 _symmetry_equiv_pos_site_id
 _symmetry_equiv_pos_as_xyz
  1  'x, y, z'
loop_
 _atom_site_type_symbol
 _atom_site_label
 _atom_site_symmetry_multiplicity
 _atom_site_fract_x
 _atom_site_fract_y
 _atom_site_fract_z
 _atom_site_occupancy
  Y  Y0  1  0.25000000  0.73905614  0.69314760  1
  Y  Y1  1  0.25000000  0.76094386  0.19314760  1
  Y  Y2  1  0.75000000  0.25308916  0.30307682  1
  Y  Y3  1  0.75000000  0.24691084  0.80307682  1
  Y  Y4  1  0.25000000  0.12050558  0.68280787  1
  Y  Y5  1  0.25000000  0.37949442  0.18280787  1
  Y  Y6  1  0.75000000  0.88191606  0.31141515  1
  Y  Y7  1  0.75000000  0.61808394  0.81141515  1
  Y  Y8  1  0.25000000  0.90945077  0.55479262  1
  Y  Y9  1  0.25000000  0.59054923  0.05479262  1
  Y  Y10  1  0.75000000  0.09042864  0.44324753  1
  Y  Y11  1  0.75000000  0.40957136  0.94324753  1
  Y  Y12  1  0.25000000  0.35396483  0.51972581  1
  Y  Y13  1  0.25000000  0.14603517  0.01972581  1
  Y  Y14  1  0.75000000  0.64967695  0.47951564  1
  Y  Y15  1  0.75000000  0.85032305  0.97951564  1
  Y  Y16  1  0.25000000  0.94727348  0.85444220  1
  Y  Y17  1  0.25000000  0.55272652  0.35444220  1
  Y  Y18  1  0.75000000  0.05925011  0.15791737  1
  Y  Y19  1  0.75000000  0.44074989  0.65791737  1
  Ga  Ga20  1  0.75000000  0.56417182  0.25433894  1
  Ga  Ga21  1  0.75000000  0.93582818  0.75433894  1
  Ga  Ga22  1  0.25000000  0.65111472  0.91623438  1
  Ga  Ga23  1  0.25000000  0.84888528  0.41623438  1
  Ga  Ga24  1  0.75000000  0.34739114  0.08101978  1
  Ga  Ga25  1  0.75000000  0.15260886  0.58101978  1
  Co  Co26  1  0.25000000  0.21477567  0.89884948  1
  Co  Co27  1  0.25000000  0.28522433  0.39884948  1
  Co  Co28  1  0.75000000  0.79200649  0.10082766  1
  Co  Co29  1  0.75000000  0.70799351  0.60082766  1
  Co  Co30  1  0.25000000  0.88608416  0.07963281  1
  Co  Co31  1  0.25000000  0.61391584  0.57963281  1
  Co  Co32  1  0.75000000  0.11323663  0.92197192  1
  Co  Co33  1  0.75000000  0.38676337  0.42197192  1
  Co  Co34  1  0.25000000  0.43232893  0.85172609  1
  Co  Co35  1  0.25000000  0.06767107  0.35172609  1
  Co  Co36  1  0.75000000  0.56755071  0.14463399  1
  Co  Co37  1  0.75000000  0.93244929  0.64463399  1
  Co  Co38  1  0.25000000  0.44050127  0.75067633  1
  Co  Co39  1  0.25000000  0.05949873  0.25067633  1
