# generated using pymatgen
data_Ta20Pd9S50
_symmetry_space_group_name_H-M   'P 1'
_cell_length_a   10.39476883
_cell_length_b   15.47384382
_cell_length_c   10.39476883
_cell_angle_alpha   99.10315311
_cell_angle_beta   74.71695697
_cell_angle_gamma   80.89684689
_symmetry_Int_Tables_number   1
_chemical_formula_structural   Ta20Pd9S50
_chemical_formula_sum   'Ta20 Pd9 S50'
_cell_volume   1557.05302360
_cell_formula_units_Z   1
loop_
 _symmetry_equiv_pos_site_id
 _symmetry_equiv_pos_as_xyz
  1  'x, y, z'
loop_
 _atom_site_type_symbol
 _atom_site_label
 _atom_site_symmetry_multiplicity
 _atom_site_fract_x
 _atom_site_fract_y
 _atom_site_fract_z
 _atom_site_occupancy
  Ta  Ta0  1  0.35077336  0.62241846  0.04922664  1
  Ta  Ta1  1  0.15034270  0.62363454  0.84847773  1
  Ta  Ta2  1  0.95159161  0.62309670  0.64951228  1
  Ta  Ta3  1  0.75048772  0.62309670  0.44840839  1
  Ta  Ta4  1  0.55152227  0.62363454  0.24965730  1
  Ta  Ta5  1  0.84847773  0.37636546  0.15034270  1
  Ta  Ta6  1  0.64951228  0.37690330  0.95159161  1
  Ta  Ta7  1  0.44840839  0.37690330  0.75048772  1
  Ta  Ta8  1  0.24965730  0.37636546  0.55152227  1
  Ta  Ta9  1  0.04922664  0.37758154  0.35077336  1
  Ta  Ta10  1  0.17385246  0.81663953  0.02398856  1
  Ta  Ta11  1  0.97467309  0.81753305  0.82454780  1
  Ta  Ta12  1  0.77525406  0.81731607  0.62474594  1
  Ta  Ta13  1  0.57545220  0.81753305  0.42532691  1
  Ta  Ta14  1  0.37601144  0.81663953  0.22614754  1
  Ta  Ta15  1  0.02398856  0.18336047  0.17385246  1
  Ta  Ta16  1  0.82454780  0.18246695  0.97467309  1
  Ta  Ta17  1  0.62474594  0.18268393  0.77525406  1
  Ta  Ta18  1  0.42532691  0.18246695  0.57545220  1
  Ta  Ta19  1  0.22614754  0.18336047  0.37601144  1
  Pd  Pd20  1  0.79998030  0.00000000  0.79998030  1
  Pd  Pd21  1  0.60001970  0.00000000  0.60001970  1
  Pd  Pd22  1  0.39987069  0.00000000  0.39987069  1
  Pd  Pd23  1  0.20000000  0.00000000  0.20000000  1
  Pd  Pd24  1  0.00012931  0.00000000  0.00012931  1
  Pd  Pd25  1  0.60017762  0.50000000  0.60017762  1
  Pd  Pd26  1  0.00442134  0.50000000  0.00442134  1
  Pd  Pd27  1  0.39557866  0.50000000  0.39557866  1
  Pd  Pd28  1  0.79982238  0.50000000  0.79982238  1
  S  S29  1  0.74722160  0.69583695  0.25239426  1
  S  S30  1  0.54679956  0.69504325  0.05170808  1
  S  S31  1  0.34829192  0.69504325  0.85320044  1
  S  S32  1  0.14760574  0.69583695  0.65277840  1
  S  S33  1  0.94754945  0.69536152  0.45245055  1
  S  S34  1  0.45245055  0.30463848  0.94754945  1
  S  S35  1  0.25239426  0.30416305  0.74722160  1
  S  S36  1  0.05170808  0.30495675  0.54679956  1
  S  S37  1  0.85320044  0.30495675  0.34829192  1
  S  S38  1  0.65277840  0.30416305  0.14760574  1
  S  S39  1  0.94795360  0.50329026  0.25124562  1
  S  S40  1  0.75571283  0.50522224  0.04920381  1
  S  S41  1  0.54904267  0.50439622  0.85095733  1
  S  S42  1  0.35079619  0.50522224  0.64428717  1
  S  S43  1  0.14875438  0.50329026  0.45204640  1
  S  S44  1  0.25124562  0.49670974  0.94795360  1
  S  S45  1  0.04920381  0.49477776  0.75571283  1
  S  S46  1  0.85095733  0.49560378  0.54904267  1
  S  S47  1  0.64428717  0.49477776  0.35079619  1
  S  S48  1  0.45204640  0.49670974  0.14875438  1
  S  S49  1  0.92820663  0.87400532  0.07164662  1
  S  S50  1  0.72799694  0.87429196  0.87170932  1
  S  S51  1  0.52829068  0.87429196  0.67200306  1
  S  S52  1  0.32835338  0.87400532  0.47179337  1
  S  S53  1  0.12969042  0.87335290  0.27030958  1
  S  S54  1  0.27030958  0.12664710  0.12969042  1
  S  S55  1  0.07164662  0.12599468  0.92820663  1
  S  S56  1  0.87170932  0.12570804  0.72799694  1
  S  S57  1  0.67200306  0.12570804  0.52829068  1
  S  S58  1  0.47179337  0.12599468  0.32835338  1
  S  S59  1  0.10347998  0.68225832  0.09818240  1
  S  S60  1  0.90274846  0.68470526  0.89739251  1
  S  S61  1  0.70345189  0.68407831  0.69654811  1
  S  S62  1  0.50260749  0.68470526  0.49725154  1
  S  S63  1  0.30181760  0.68225832  0.29652002  1
  S  S64  1  0.09818240  0.31774168  0.10347998  1
  S  S65  1  0.89739251  0.31529474  0.90274846  1
  S  S66  1  0.69654811  0.31592169  0.70345189  1
  S  S67  1  0.49725154  0.31529474  0.50260749  1
  S  S68  1  0.29652002  0.31774168  0.30181760  1
  S  S69  1  0.76990574  0.89019499  0.43037012  1
  S  S70  1  0.56947494  0.88997634  0.23066465  1
  S  S71  1  0.36831733  0.88921880  0.03168267  1
  S  S72  1  0.16933535  0.88997634  0.83052506  1
  S  S73  1  0.96962988  0.89019499  0.63009426  1
  S  S74  1  0.43037012  0.10980501  0.76990574  1
  S  S75  1  0.23066465  0.11002366  0.56947494  1
  S  S76  1  0.03168267  0.11078120  0.36831733  1
  S  S77  1  0.83052506  0.11002366  0.16933535  1
  S  S78  1  0.63009426  0.10980501  0.96962988  1
