# generated using pymatgen
data_Sr4FeMoO8
_symmetry_space_group_name_H-M   'P 1'
_cell_length_a   5.59248496
_cell_length_b   5.66187793
_cell_length_c   6.99080476
_cell_angle_alpha   90.00000000
_cell_angle_beta   66.42252450
_cell_angle_gamma   90.00000000
_symmetry_Int_Tables_number   1
_chemical_formula_structural   Sr4FeMoO8
_chemical_formula_sum   'Sr4 Fe1 Mo1 O8'
_cell_volume   202.87777286
_cell_formula_units_Z   1
loop_
 _symmetry_equiv_pos_site_id
 _symmetry_equiv_pos_as_xyz
  1  'x, y, z'
loop_
 _atom_site_type_symbol
 _atom_site_label
 _atom_site_symmetry_multiplicity
 _atom_site_fract_x
 _atom_site_fract_y
 _atom_site_fract_z
 _atom_site_occupancy
  Sr  Sr0  1  0.35177162  -0.00000000  0.29645676  1
  Sr  Sr1  1  0.85384976  0.50000000  0.29230047  1
  Sr  Sr2  1  0.14615024  0.50000000  0.70769953  1
  Sr  Sr3  1  0.64822838  0.00000000  0.70354324  1
  Fe  Fe4  1  -0.00000000  0.00000000  0.00000000  1
  Mo  Mo5  1  0.50000000  0.50000000  0.00000000  1
  O  O6  1  0.16120134  0.00000000  0.67759732  1
  O  O7  1  0.66130029  0.50000000  0.67739943  1
  O  O8  1  0.33869971  0.50000000  0.32260057  1
  O  O9  1  0.83879866  -0.00000000  0.32240268  1
  O  O10  1  0.25429284  0.74905948  1.00000000  1
  O  O11  1  0.74570716  0.25094052  0.00000000  1
  O  O12  1  0.25429284  0.25094052  1.00000000  1
  O  O13  1  0.74570716  0.74905948  0.00000000  1
