# generated using pymatgen
data_Li9Mn2Co5O16
_symmetry_space_group_name_H-M   'P 1'
_cell_length_a   2.98373302
_cell_length_b   19.20014856
_cell_length_c   5.06282005
_cell_angle_alpha   92.79565041
_cell_angle_beta   91.26644089
_cell_angle_gamma   83.72091959
_symmetry_Int_Tables_number   1
_chemical_formula_structural   Li9Mn2Co5O16
_chemical_formula_sum   'Li9 Mn2 Co5 O16'
_cell_volume   287.91527815
_cell_formula_units_Z   1
loop_
 _symmetry_equiv_pos_site_id
 _symmetry_equiv_pos_as_xyz
  1  'x, y, z'
loop_
 _atom_site_type_symbol
 _atom_site_label
 _atom_site_symmetry_multiplicity
 _atom_site_fract_x
 _atom_site_fract_y
 _atom_site_fract_z
 _atom_site_occupancy
  Li  Li0  1  0.86222912  0.12634126  0.39389518  1
  Li  Li1  1  0.25735295  0.25041814  0.24562546  1
  Li  Li2  1  0.62831723  0.37386362  0.12566716  1
  Li  Li3  1  0.00365695  0.49881411  0.99973110  1
  Li  Li4  1  0.37433798  0.62504074  0.87432895  1
  Li  Li5  1  0.74752779  0.74955048  0.75191405  1
  Li  Li6  1  0.13475355  0.87334239  0.61856502  1
  Li  Li7  1  0.49136251  0.00445327  0.50824765  1
  Li  Li8  1  0.38831631  0.12337572  0.85907273  1
  Mn  Mn9  1  0.99106586  0.00369522  0.99555765  1
  Mn  Mn10  1  0.86845432  0.62409312  0.37386081  1
  Co  Co11  1  0.75740546  0.24505785  0.75039505  1
  Co  Co12  1  0.13270006  0.37416648  0.63053681  1
  Co  Co13  1  0.51152545  0.49839824  0.50104804  1
  Co  Co14  1  0.24715755  0.75169088  0.24908700  1
  Co  Co15  1  0.61625744  0.87605036  0.13158356  1
  O  O16  1  0.45813971  0.05489255  0.16220067  1
  O  O17  1  0.80450747  0.19555393  0.02843964  1
  O  O18  1  0.15202266  0.31275673  0.91799750  1
  O  O19  1  0.57543535  0.43767363  0.79053340  1
  O  O20  1  0.91155289  0.56103768  0.66790415  1
  O  O21  1  0.26630133  0.68961474  0.54554796  1
  O  O22  1  0.69691131  0.81359088  0.41776672  1
  O  O23  1  0.02624771  0.93561884  0.28851902  1
  O  O24  1  0.33507323  0.19256457  0.56902931  1
  O  O25  1  0.68401429  0.31107585  0.47096068  1
  O  O26  1  0.10648714  0.43647249  0.33433396  1
  O  O27  1  0.46930844  0.55983203  0.20697292  1
  O  O28  1  0.79720600  0.68822505  0.08126493  1
  O  O29  1  0.21989708  0.81428820  0.95721270  1
  O  O30  1  0.53442932  0.94193461  0.84906921  1
  O  O31  1  0.95003751  0.05651834  0.70312603  1
