# generated using pymatgen
data_TbAl3Ag
_symmetry_space_group_name_H-M   'P 1'
_cell_length_a   4.19155152
_cell_length_b   4.18542326
_cell_length_c   6.38376477
_cell_angle_alpha   70.86362693
_cell_angle_beta   70.83451022
_cell_angle_gamma   90.00000000
_symmetry_Int_Tables_number   1
_chemical_formula_structural   TbAl3Ag
_chemical_formula_sum   'Tb1 Al3 Ag1'
_cell_volume   99.21067927
_cell_formula_units_Z   1
loop_
 _symmetry_equiv_pos_site_id
 _symmetry_equiv_pos_as_xyz
  1  'x, y, z'
loop_
 _atom_site_type_symbol
 _atom_site_label
 _atom_site_symmetry_multiplicity
 _atom_site_fract_x
 _atom_site_fract_y
 _atom_site_fract_z
 _atom_site_occupancy
  Tb  Tb0  1  0.00016097  0.00016097  0.99967805  1
  Al  Al1  1  0.24939244  0.74939244  0.50121512  1
  Al  Al2  1  0.60972172  0.60972172  0.78055656  1
  Al  Al3  1  0.39015496  0.39015496  0.21969008  1
  Ag  Ag4  1  0.75056991  0.25056991  0.49886018  1
