# generated using pymatgen
data_TaCu3Se3S
_symmetry_space_group_name_H-M   'P 1'
_cell_length_a   5.66651937
_cell_length_b   5.66651937
_cell_length_c   5.66651937
_cell_angle_alpha   90.60143762
_cell_angle_beta   89.39856238
_cell_angle_gamma   90.60143762
_symmetry_Int_Tables_number   1
_chemical_formula_structural   TaCu3Se3S
_chemical_formula_sum   'Ta1 Cu3 Se3 S1'
_cell_volume   181.91890960
_cell_formula_units_Z   1
loop_
 _symmetry_equiv_pos_site_id
 _symmetry_equiv_pos_as_xyz
  1  'x, y, z'
loop_
 _atom_site_type_symbol
 _atom_site_label
 _atom_site_symmetry_multiplicity
 _atom_site_fract_x
 _atom_site_fract_y
 _atom_site_fract_z
 _atom_site_occupancy
  Ta  Ta0  1  0.00046960  0.99953040  0.00046960  1
  Cu  Cu1  1  0.99369986  0.49764812  0.99369986  1
  Cu  Cu2  1  0.50235188  0.00630014  0.99369986  1
  Cu  Cu3  1  0.99369986  0.00630014  0.50235188  1
  Se  Se4  1  0.24965595  0.75034405  0.74418951  1
  Se  Se5  1  0.74418951  0.75034405  0.24965595  1
  Se  Se6  1  0.24965595  0.25581049  0.24965595  1
  S  S7  1  0.76627738  0.23372262  0.76627738  1
