# generated using pymatgen
data_Tb2P7Rh12
_symmetry_space_group_name_H-M   'P 1'
_cell_length_a   3.87594007
_cell_length_b   9.61541793
_cell_length_c   9.61710072
_cell_angle_alpha   119.90514065
_cell_angle_beta   89.98820841
_cell_angle_gamma   89.98590123
_symmetry_Int_Tables_number   1
_chemical_formula_structural   Tb2P7Rh12
_chemical_formula_sum   'Tb2 P7 Rh12'
_cell_volume   310.69502899
_cell_formula_units_Z   1
loop_
 _symmetry_equiv_pos_site_id
 _symmetry_equiv_pos_as_xyz
  1  'x, y, z'
loop_
 _atom_site_type_symbol
 _atom_site_label
 _atom_site_symmetry_multiplicity
 _atom_site_fract_x
 _atom_site_fract_y
 _atom_site_fract_z
 _atom_site_occupancy
  Tb  Tb0  1  0.25091951  0.66704707  0.33368826  1
  Tb  Tb1  1  0.74908049  0.33295293  0.66631174  1
  P  P2  1  0.50000000  0.00000000  -0.00000000  1
  P  P3  1  0.75497962  0.88230091  0.59534295  1
  P  P4  1  0.75548564  0.40525146  0.28719519  1
  P  P5  1  0.75545210  0.71325067  0.11821846  1
  P  P6  1  0.24502038  0.11769909  0.40465705  1
  P  P7  1  0.24451436  0.59474854  0.71280481  1
  P  P8  1  0.24454790  0.28674933  0.88178154  1
  Rh  Rh9  1  0.74801422  0.11185898  0.84941877  1
  Rh  Rh10  1  0.74857058  0.15048257  0.26152667  1
  Rh  Rh11  1  0.74780378  0.73821106  0.88873453  1
  Rh  Rh12  1  0.25198578  0.88814102  0.15058123  1
  Rh  Rh13  1  0.25142942  0.84951743  0.73847333  1
  Rh  Rh14  1  0.25219622  0.26178894  0.11126547  1
  Rh  Rh15  1  0.75111438  0.61870067  0.55096409  1
  Rh  Rh16  1  0.75119706  0.44973848  0.06845513  1
  Rh  Rh17  1  0.75135124  0.93265543  0.38164883  1
  Rh  Rh18  1  0.24888562  0.38129933  0.44903591  1
  Rh  Rh19  1  0.24880294  0.55026152  0.93154487  1
  Rh  Rh20  1  0.24864876  0.06734457  0.61835117  1
