# generated using pymatgen
data_TaTlWO6
_symmetry_space_group_name_H-M   'P 1'
_cell_length_a   7.43074324
_cell_length_b   7.44286423
_cell_length_c   7.40845830
_cell_angle_alpha   90.00000000
_cell_angle_beta   60.09915727
_cell_angle_gamma   120.05397425
_symmetry_Int_Tables_number   1
_chemical_formula_structural   TaTlWO6
_chemical_formula_sum   'Ta2 Tl2 W2 O12'
_cell_volume   289.92171620
_cell_formula_units_Z   2
loop_
 _symmetry_equiv_pos_site_id
 _symmetry_equiv_pos_as_xyz
  1  'x, y, z'
loop_
 _atom_site_type_symbol
 _atom_site_label
 _atom_site_symmetry_multiplicity
 _atom_site_fract_x
 _atom_site_fract_y
 _atom_site_fract_z
 _atom_site_occupancy
  Ta  Ta0  1  0.50000000  0.50000000  0.99704098  1
  Ta  Ta1  1  0.50000000  -0.00000000  0.99704098  1
  Tl  Tl2  1  0.81406675  0.40703337  0.27633567  1
  Tl  Tl3  1  0.18593325  0.59296663  0.59040241  1
  W  W4  1  0.99943560  0.99971780  0.49726129  1
  W  W5  1  0.00056440  0.00028220  0.99669689  1
  O  O6  1  0.88252404  0.94126202  0.30875689  1
  O  O7  1  0.62970331  0.31485166  0.93759022  1
  O  O8  1  0.24420715  0.93793445  0.94038044  1
  O  O9  1  0.24629420  0.30731398  0.31644393  1
  O  O10  1  0.24420715  0.30627270  0.94038044  1
  O  O11  1  0.24629420  0.93898021  0.31644393  1
  O  O12  1  0.11747596  0.05873798  0.69128094  1
  O  O13  1  0.37029669  0.68514834  0.06729354  1
  O  O14  1  0.75370580  0.06101979  0.06273813  1
  O  O15  1  0.75579285  0.69372730  0.68458759  1
  O  O16  1  0.75370580  0.69268602  0.06273813  1
  O  O17  1  0.75579285  0.06206555  0.68458759  1
