# generated using pymatgen
data_Tb5Si2BO13
_symmetry_space_group_name_H-M   'P 1'
_cell_length_a   6.82219903
_cell_length_b   9.30084332
_cell_length_c   9.35058130
_cell_angle_alpha   59.75238006
_cell_angle_beta   90.00000000
_cell_angle_gamma   90.00000000
_symmetry_Int_Tables_number   1
_chemical_formula_structural   Tb5Si2BO13
_chemical_formula_sum   'Tb10 Si4 B2 O26'
_cell_volume   512.53897425
_cell_formula_units_Z   2
loop_
 _symmetry_equiv_pos_site_id
 _symmetry_equiv_pos_as_xyz
  1  'x, y, z'
loop_
 _atom_site_type_symbol
 _atom_site_label
 _atom_site_symmetry_multiplicity
 _atom_site_fract_x
 _atom_site_fract_y
 _atom_site_fract_z
 _atom_site_occupancy
  Tb  Tb0  1  0.51009651  0.67727081  0.65521507  1
  Tb  Tb1  1  0.98996325  0.33127341  0.34633925  1
  Tb  Tb2  1  0.51003675  0.33127341  0.34633925  1
  Tb  Tb3  1  0.98990349  0.67727081  0.65521507  1
  Tb  Tb4  1  0.75000000  0.98631030  0.24722208  1
  Tb  Tb5  1  0.75000000  0.76434744  0.00966505  1
  Tb  Tb6  1  0.75000000  0.23055647  0.75200421  1
  Tb  Tb7  1  0.25000000  0.00689257  0.75670020  1
  Tb  Tb8  1  0.25000000  0.23064082  0.00616822  1
  Tb  Tb9  1  0.25000000  0.75221034  0.23555434  1
  Si  Si10  1  0.75000000  0.36882881  0.03063265  1
  Si  Si11  1  0.25000000  0.40029251  0.63253595  1
  Si  Si12  1  0.25000000  0.97299025  0.40091539  1
  Si  Si13  1  0.25000000  0.62761693  0.97066832  1
  B  B14  1  0.75000000  0.60111619  0.36922006  1
  B  B15  1  0.75000000  0.03302688  0.59080772  1
  O  O16  1  0.55774467  0.24663956  0.09482180  1
  O  O17  1  0.57019733  0.65374772  0.25962527  1
  O  O18  1  0.56979770  0.09145294  0.64468470  1
  O  O19  1  0.05822752  0.75161655  0.90770390  1
  O  O20  1  0.05825747  0.33799363  0.75416079  1
  O  O21  1  0.06066297  0.90396107  0.34586464  1
  O  O22  1  0.44177248  0.75161655  0.90770390  1
  O  O23  1  0.44174253  0.33799363  0.75416079  1
  O  O24  1  0.43933703  0.90396107  0.34586464  1
  O  O25  1  0.94225533  0.24663956  0.09482180  1
  O  O26  1  0.92980267  0.65374772  0.25962527  1
  O  O27  1  0.93020230  0.09145294  0.64468470  1
  O  O28  1  0.75000000  0.67423406  0.47989373  1
  O  O29  1  0.75000000  0.85162532  0.65536949  1
  O  O30  1  0.75000000  0.49733072  0.83066240  1
  O  O31  1  0.25000000  0.31838022  0.51490781  1
  O  O32  1  0.25000000  0.17180946  0.32227167  1
  O  O33  1  0.25000000  0.51002786  0.17164025  1
  O  O34  1  0.75000000  0.41443435  0.46613123  1
  O  O35  1  0.75000000  0.12961962  0.40469696  1
  O  O36  1  0.75000000  0.46924747  0.13290987  1
  O  O37  1  0.25000000  0.60404199  0.52837617  1
  O  O38  1  0.25000000  0.86860226  0.60454523  1
  O  O39  1  0.25000000  0.52826382  0.86672108  1
  O  O40  1  0.75000000  0.00355128  0.00231994  1
  O  O41  1  0.25000000  0.99609067  0.00062912  1
