# generated using pymatgen
data_Sn4Te5Pb
_symmetry_space_group_name_H-M   'P 1'
_cell_length_a   4.53021926
_cell_length_b   16.63715209
_cell_length_c   4.53021926
_cell_angle_alpha   97.82498979
_cell_angle_beta   90.00000000
_cell_angle_gamma   82.17501021
_symmetry_Int_Tables_number   1
_chemical_formula_structural   Sn4Te5Pb
_chemical_formula_sum   'Sn4 Te5 Pb1'
_cell_volume   335.05357262
_cell_formula_units_Z   1
loop_
 _symmetry_equiv_pos_site_id
 _symmetry_equiv_pos_as_xyz
  1  'x, y, z'
loop_
 _atom_site_type_symbol
 _atom_site_label
 _atom_site_symmetry_multiplicity
 _atom_site_fract_x
 _atom_site_fract_y
 _atom_site_fract_z
 _atom_site_occupancy
  Sn  Sn0  1  0.39998083  0.20003834  0.60001917  1
  Sn  Sn1  1  0.79999439  0.40001123  0.20000561  1
  Sn  Sn2  1  0.20000561  0.59998877  0.79999439  1
  Sn  Sn3  1  0.60001917  0.79996166  0.39998083  1
  Te  Te4  1  0.10059008  0.79881983  0.89940992  1
  Te  Te5  1  0.50000000  0.00000000  0.50000000  1
  Te  Te6  1  0.89940992  0.20118017  0.10059008  1
  Te  Te7  1  0.30003573  0.39992854  0.69996427  1
  Te  Te8  1  0.69996427  0.60007146  0.30003573  1
  Pb  Pb9  1  -0.00000000  -0.00000000  0.00000000  1
