# generated using pymatgen
data_Li9Mn2Co5O16
_symmetry_space_group_name_H-M   'P 1'
_cell_length_a   5.01744161
_cell_length_b   5.09739304
_cell_length_c   11.87284781
_cell_angle_alpha   88.91234861
_cell_angle_beta   88.19738333
_cell_angle_gamma   108.11748123
_symmetry_Int_Tables_number   1
_chemical_formula_structural   Li9Mn2Co5O16
_chemical_formula_sum   'Li9 Mn2 Co5 O16'
_cell_volume   288.32823419
_cell_formula_units_Z   1
loop_
 _symmetry_equiv_pos_site_id
 _symmetry_equiv_pos_as_xyz
  1  'x, y, z'
loop_
 _atom_site_type_symbol
 _atom_site_label
 _atom_site_symmetry_multiplicity
 _atom_site_fract_x
 _atom_site_fract_y
 _atom_site_fract_z
 _atom_site_occupancy
  Li  Li0  1  0.00040150  0.49727949  0.13093179  1
  Li  Li1  1  0.50314199  0.50428789  0.25167898  1
  Li  Li2  1  0.99735887  0.50059433  0.36824643  1
  Li  Li3  1  0.49701887  0.49521733  0.49739300  1
  Li  Li4  1  0.99921998  0.50141257  0.62491281  1
  Li  Li5  1  0.49769956  0.49983058  0.75034001  1
  Li  Li6  1  0.00233992  0.50110591  0.87505558  1
  Li  Li7  1  0.50805220  0.50414866  0.00304916  1
  Li  Li8  1  0.99632290  0.99538089  0.24753844  1
  Mn  Mn9  1  0.00438597  0.00598256  0.00235567  1
  Mn  Mn10  1  0.50001377  0.99672456  0.62605734  1
  Co  Co11  1  0.49602398  0.99919279  0.13083068  1
  Co  Co12  1  0.48981421  0.99079568  0.36753658  1
  Co  Co13  1  0.99244704  0.99673249  0.49636384  1
  Co  Co14  1  0.00150495  0.00258749  0.75011428  1
  Co  Co15  1  0.50570272  0.00846949  0.87703055  1
  O  O16  1  0.76857090  0.23564552  0.00497531  1
  O  O17  1  0.24336977  0.22079699  0.11164078  1
  O  O18  1  0.71557247  0.22863656  0.25366294  1
  O  O19  1  0.26989396  0.21842841  0.37857134  1
  O  O20  1  0.75591227  0.23130305  0.50806183  1
  O  O21  1  0.24441092  0.22525416  0.62933632  1
  O  O22  1  0.74263894  0.23728918  0.76313123  1
  O  O23  1  0.24873899  0.22536844  0.87723526  1
  O  O24  1  0.26502343  0.74987764  0.24664004  1
  O  O25  1  0.72674805  0.78068138  0.37920186  1
  O  O26  1  0.23723276  0.76655472  0.48945429  1
  O  O27  1  0.74926120  0.76878565  0.62834385  1
  O  O28  1  0.25641138  0.76368726  0.74442523  1
  O  O29  1  0.77014748  0.79154347  0.87988509  1
  O  O30  1  0.25852381  0.78377974  0.99192702  1
  O  O31  1  0.75609524  0.77262510  0.11406949  1
