# generated using pymatgen
data_Sr2P7Rh12
_symmetry_space_group_name_H-M   'P 1'
_cell_length_a   3.89643206
_cell_length_b   9.72406716
_cell_length_c   9.72475547
_cell_angle_alpha   59.99848633
_cell_angle_beta   89.99837350
_cell_angle_gamma   90.00563386
_symmetry_Int_Tables_number   1
_chemical_formula_structural   Sr2P7Rh12
_chemical_formula_sum   'Sr2 P7 Rh12'
_cell_volume   319.09334802
_cell_formula_units_Z   1
loop_
 _symmetry_equiv_pos_site_id
 _symmetry_equiv_pos_as_xyz
  1  'x, y, z'
loop_
 _atom_site_type_symbol
 _atom_site_label
 _atom_site_symmetry_multiplicity
 _atom_site_fract_x
 _atom_site_fract_y
 _atom_site_fract_z
 _atom_site_occupancy
  Sr  Sr0  1  0.74747729  0.33334033  0.33335344  1
  Sr  Sr1  1  0.25295477  0.66663056  0.66669676  1
  P  P2  1  0.52523689  0.00004664  -0.00004268  1
  P  P3  1  0.75476245  0.88833842  0.71142153  1
  P  P4  1  0.75472409  0.40005531  0.88847825  1
  P  P5  1  0.75475095  0.71150832  0.40011711  1
  P  P6  1  0.24603670  0.11107024  0.28901109  1
  P  P7  1  0.24602613  0.59988860  0.11116485  1
  P  P8  1  0.24602218  0.28900231  0.59986574  1
  Rh  Rh9  1  0.74919198  0.11159433  0.73985874  1
  Rh  Rh10  1  0.74918210  0.14873740  0.11146304  1
  Rh  Rh11  1  0.74932026  0.73988856  0.14861218  1
  Rh  Rh12  1  0.25371688  0.88986192  0.25646290  1
  Rh  Rh13  1  0.25365538  0.85382796  0.88974314  1
  Rh  Rh14  1  0.25372221  0.25644229  0.85378065  1
  Rh  Rh15  1  0.75236049  0.61922812  0.93875773  1
  Rh  Rh16  1  0.75240438  0.44191725  0.61924441  1
  Rh  Rh17  1  0.75232802  0.93871827  0.44206756  1
  Rh  Rh18  1  0.24868833  0.38195180  0.05974403  1
  Rh  Rh19  1  0.24869229  0.55816881  0.38199775  1
  Rh  Rh20  1  0.24874620  0.05978255  0.55820177  1
