# generated using pymatgen
data_Sr3NdMn2O8
_symmetry_space_group_name_H-M   'P 1'
_cell_length_a   5.53403239
_cell_length_b   5.54547417
_cell_length_c   6.77385366
_cell_angle_alpha   90.00000000
_cell_angle_beta   65.89031284
_cell_angle_gamma   90.00000000
_symmetry_Int_Tables_number   1
_chemical_formula_structural   Sr3NdMn2O8
_chemical_formula_sum   'Sr3 Nd1 Mn2 O8'
_cell_volume   189.74713715
_cell_formula_units_Z   1
loop_
 _symmetry_equiv_pos_site_id
 _symmetry_equiv_pos_as_xyz
  1  'x, y, z'
loop_
 _atom_site_type_symbol
 _atom_site_label
 _atom_site_symmetry_multiplicity
 _atom_site_fract_x
 _atom_site_fract_y
 _atom_site_fract_z
 _atom_site_occupancy
  Sr  Sr0  1  0.35629966  0.00000000  0.28740067  1
  Sr  Sr1  1  0.64209022  -0.00000000  0.71581956  1
  Sr  Sr2  1  0.14412143  0.50000000  0.71175714  1
  Nd  Nd3  1  0.86285625  0.50000000  0.27428750  1
  Mn  Mn4  1  0.50083318  0.50000000  0.99833363  1
  Mn  Mn5  1  0.00144209  0.00000000  0.99711582  1
  O  O6  1  0.15838556  0.00000000  0.68322888  1
  O  O7  1  0.66988323  0.50000000  0.66023354  1
  O  O8  1  0.34067858  0.50000000  0.31864284  1
  O  O9  1  0.83978288  0.00000000  0.32043424  1
  O  O10  1  0.24256668  0.25869839  0.00818654  1
  O  O11  1  0.74924677  0.74130161  0.00818654  1
  O  O12  1  0.24256668  0.74130161  0.00818654  1
  O  O13  1  0.74924677  0.25869839  0.00818654  1
