# generated using pymatgen
data_Sr2MnSbO6
_symmetry_space_group_name_H-M   'P 1'
_cell_length_a   5.52836062
_cell_length_b   5.52836062
_cell_length_c   5.77457608
_cell_angle_alpha   61.40070954
_cell_angle_beta   61.40070965
_cell_angle_gamma   90.00000000
_symmetry_Int_Tables_number   1
_chemical_formula_structural   Sr2MnSbO6
_chemical_formula_sum   'Sr2 Mn1 Sb1 O6'
_cell_volume   129.89842691
_cell_formula_units_Z   1
loop_
 _symmetry_equiv_pos_site_id
 _symmetry_equiv_pos_as_xyz
  1  'x, y, z'
loop_
 _atom_site_type_symbol
 _atom_site_label
 _atom_site_symmetry_multiplicity
 _atom_site_fract_x
 _atom_site_fract_y
 _atom_site_fract_z
 _atom_site_occupancy
  Sr  Sr0  1  0.25000000  0.75000000  0.50000000  1
  Sr  Sr1  1  0.75000000  0.25000000  0.50000000  1
  Mn  Mn2  1  0.50000000  0.50000000  0.00000000  1
  Sb  Sb3  1  -0.00000000  0.00000000  0.00000000  1
  O  O4  1  0.76649592  0.76649592  0.46700815  1
  O  O5  1  0.23350408  0.23350408  0.53299185  1
  O  O6  1  0.69642793  0.79550674  1.00000000  1
  O  O7  1  0.30357207  0.20449326  0.00000000  1
  O  O8  1  0.20449326  0.69642793  1.00000000  1
  O  O9  1  0.79550674  0.30357207  0.00000000  1
