# generated using pymatgen
data_Sr2GaSi
_symmetry_space_group_name_H-M   'P 1'
_cell_length_a   4.25953070
_cell_length_b   4.72212440
_cell_length_c   6.36534837
_cell_angle_alpha   68.22736927
_cell_angle_beta   90.00000000
_cell_angle_gamma   90.00000000
_symmetry_Int_Tables_number   1
_chemical_formula_structural   Sr2GaSi
_chemical_formula_sum   'Sr2 Ga1 Si1'
_cell_volume   118.89936943
_cell_formula_units_Z   1
loop_
 _symmetry_equiv_pos_site_id
 _symmetry_equiv_pos_as_xyz
  1  'x, y, z'
loop_
 _atom_site_type_symbol
 _atom_site_label
 _atom_site_symmetry_multiplicity
 _atom_site_fract_x
 _atom_site_fract_y
 _atom_site_fract_z
 _atom_site_occupancy
  Sr  Sr0  1  0.25000000  0.63907151  0.72185699  1
  Sr  Sr1  1  0.75000000  0.35899117  0.28201766  1
  Ga  Ga2  1  0.25000000  0.93778920  0.12442161  1
  Si  Si3  1  0.75000000  0.06414813  0.87170375  1
