# generated using pymatgen
data_Sr2Pr2TlNi2O9
_symmetry_space_group_name_H-M   'P 1'
_cell_length_a   3.82694978
_cell_length_b   3.82694978
_cell_length_c   15.28520894
_cell_angle_alpha   82.73958798
_cell_angle_beta   82.73958798
_cell_angle_gamma   89.45328152
_symmetry_Int_Tables_number   1
_chemical_formula_structural   Sr2Pr2TlNi2O9
_chemical_formula_sum   'Sr2 Pr2 Tl1 Ni2 O9'
_cell_volume   220.28007563
_cell_formula_units_Z   1
loop_
 _symmetry_equiv_pos_site_id
 _symmetry_equiv_pos_as_xyz
  1  'x, y, z'
loop_
 _atom_site_type_symbol
 _atom_site_label
 _atom_site_symmetry_multiplicity
 _atom_site_fract_x
 _atom_site_fract_y
 _atom_site_fract_z
 _atom_site_occupancy
  Sr  Sr0  1  0.59140731  0.59140731  0.83234862  1
  Sr  Sr1  1  0.42375593  0.42375593  0.16765138  1
  Pr  Pr2  1  0.70312379  0.70312379  0.59536093  1
  Pr  Pr3  1  0.29848472  0.29848472  0.40463907  1
  Tl  Tl4  1  0.04423351  0.04423351  -0.00000000  1
  Ni  Ni5  1  0.14708968  0.14708968  0.70838330  1
  Ni  Ni6  1  0.85547298  0.85547298  0.29161670  1
  O  O7  1  0.21922454  0.21922454  0.56250200  1
  O  O8  1  0.78172654  0.78172654  0.43749800  1
  O  O9  1  0.14980809  0.65053869  0.70333041  1
  O  O10  1  0.65053869  0.14980809  0.70333041  1
  O  O11  1  0.85313850  0.35386910  0.29666959  1
  O  O12  1  0.35386910  0.85313850  0.29666959  1
  O  O13  1  0.47466958  0.47466958  0.00000000  1
  O  O14  1  0.06975280  0.06975280  0.85995146  1
  O  O15  1  0.92970426  0.92970426  0.14004854  1
