# generated using pymatgen
data_B2PH20C5N
_symmetry_space_group_name_H-M   'P 1'
_cell_length_a   7.15768154
_cell_length_b   10.90437397
_cell_length_c   16.07402842
_cell_angle_alpha   90.00000000
_cell_angle_beta   90.00000000
_cell_angle_gamma   90.00000000
_symmetry_Int_Tables_number   1
_chemical_formula_structural   B2PH20C5N
_chemical_formula_sum   'B8 P4 H80 C20 N4'
_cell_volume   1254.57850119
_cell_formula_units_Z   4
loop_
 _symmetry_equiv_pos_site_id
 _symmetry_equiv_pos_as_xyz
  1  'x, y, z'
loop_
 _atom_site_type_symbol
 _atom_site_label
 _atom_site_symmetry_multiplicity
 _atom_site_fract_x
 _atom_site_fract_y
 _atom_site_fract_z
 _atom_site_occupancy
  B  B0  1  0.22761357  0.78163296  0.02812986  1
  B  B1  1  0.77238643  0.28163296  0.97187014  1
  B  B2  1  0.22761357  0.28163296  0.47187014  1
  B  B3  1  0.77238643  0.78163296  0.52812986  1
  B  B4  1  0.42397423  0.92070759  0.13217494  1
  B  B5  1  0.57602577  0.42070759  0.86782506  1
  B  B6  1  0.42397423  0.42070759  0.36782506  1
  B  B7  1  0.57602577  0.92070759  0.63217494  1
  P  P8  1  0.33869149  0.85554143  0.92944065  1
  P  P9  1  0.66130851  0.35554143  0.07055935  1
  P  P10  1  0.33869149  0.35554143  0.57055935  1
  P  P11  1  0.66130851  0.85554143  0.42944065  1
  H  H12  1  0.63972372  0.95632206  0.93801706  1
  H  H13  1  0.36027628  0.45632206  0.06198294  1
  H  H14  1  0.63972372  0.45632206  0.56198294  1
  H  H15  1  0.36027628  0.95632206  0.43801706  1
  H  H16  1  0.65471581  0.79889253  0.96766849  1
  H  H17  1  0.34528419  0.29889253  0.03233151  1
  H  H18  1  0.65471581  0.29889253  0.53233151  1
  H  H19  1  0.34528419  0.79889253  0.46766849  1
  H  H20  1  0.63595693  0.83943521  0.85968144  1
  H  H21  1  0.36404307  0.33943521  0.14031856  1
  H  H22  1  0.63595693  0.33943521  0.64031856  1
  H  H23  1  0.36404307  0.83943521  0.35968144  1
  H  H24  1  0.33154676  0.66253093  0.85503023  1
  H  H25  1  0.66845324  0.16253093  0.14496977  1
  H  H26  1  0.33154676  0.16253093  0.64496977  1
  H  H27  1  0.66845324  0.66253093  0.35503023  1
  H  H28  1  0.12249601  0.74978287  0.83833378  1
  H  H29  1  0.87750399  0.24978287  0.16166622  1
  H  H30  1  0.12249601  0.24978287  0.66166622  1
  H  H31  1  0.87750399  0.74978287  0.33833378  1
  H  H32  1  0.33550126  0.79241534  0.78654169  1
  H  H33  1  0.66449874  0.29241534  0.21345831  1
  H  H34  1  0.33550126  0.29241534  0.71345831  1
  H  H35  1  0.66449874  0.79241534  0.28654169  1
  H  H36  1  0.31066939  0.02497871  0.83313436  1
  H  H37  1  0.68933061  0.52497871  0.16686564  1
  H  H38  1  0.31066939  0.52497871  0.66686564  1
  H  H39  1  0.68933061  0.02497871  0.33313436  1
  H  H40  1  0.10506259  0.00894733  0.89616700  1
  H  H41  1  0.89493741  0.50894733  0.10383300  1
  H  H42  1  0.10506259  0.50894733  0.60383300  1
  H  H43  1  0.89493741  0.00894733  0.39616700  1
  H  H44  1  0.31223397  0.07626137  0.93874644  1
  H  H45  1  0.68776603  0.57626137  0.06125356  1
  H  H46  1  0.31223397  0.57626137  0.56125356  1
  H  H47  1  0.68776603  0.07626137  0.43874644  1
  H  H48  1  0.32055195  0.68860433  0.03484521  1
  H  H49  1  0.67944805  0.18860433  0.96515479  1
  H  H50  1  0.32055195  0.18860433  0.46515479  1
  H  H51  1  0.67944805  0.68860433  0.53484521  1
  H  H52  1  0.06746425  0.75936884  0.00653732  1
  H  H53  1  0.93253575  0.25936884  0.99346268  1
  H  H54  1  0.06746425  0.25936884  0.49346268  1
  H  H55  1  0.93253575  0.75936884  0.50653732  1
  H  H56  1  0.44780741  0.99985129  0.07890542  1
  H  H57  1  0.55219259  0.49985129  0.92109458  1
  H  H58  1  0.44780741  0.49985129  0.42109458  1
  H  H59  1  0.55219259  0.99985129  0.57890542  1
  H  H60  1  0.54516449  0.84140521  0.13038305  1
  H  H61  1  0.45483551  0.34140521  0.86961695  1
  H  H62  1  0.54516449  0.34140521  0.36961695  1
  H  H63  1  0.45483551  0.84140521  0.63038305  1
  H  H64  1  0.41054023  0.96741138  0.20165343  1
  H  H65  1  0.58945977  0.46741138  0.79834657  1
  H  H66  1  0.41054023  0.46741138  0.29834657  1
  H  H67  1  0.58945977  0.96741138  0.70165343  1
  H  H68  1  0.07949126  0.99694007  0.17367623  1
  H  H69  1  0.92050874  0.49694007  0.82632377  1
  H  H70  1  0.07949126  0.49694007  0.32632377  1
  H  H71  1  0.92050874  0.99694007  0.67367623  1
  H  H72  1  0.09374913  0.01415422  0.06363975  1
  H  H73  1  0.90625087  0.51415422  0.93636025  1
  H  H74  1  0.09374913  0.51415422  0.43636025  1
  H  H75  1  0.90625087  0.01415422  0.56363975  1
  H  H76  1  0.93822014  0.90252967  0.10704002  1
  H  H77  1  0.06177986  0.40252967  0.89295998  1
  H  H78  1  0.93822014  0.40252967  0.39295998  1
  H  H79  1  0.06177986  0.90252967  0.60704002  1
  H  H80  1  0.05512230  0.71669458  0.16640618  1
  H  H81  1  0.94487770  0.21669458  0.83359382  1
  H  H82  1  0.05512230  0.21669458  0.33359382  1
  H  H83  1  0.94487770  0.71669458  0.66640618  1
  H  H84  1  0.30127595  0.69918439  0.18365303  1
  H  H85  1  0.69872405  0.19918439  0.81634697  1
  H  H86  1  0.30127595  0.19918439  0.31634697  1
  H  H87  1  0.69872405  0.69918439  0.68365303  1
  H  H88  1  0.17445574  0.81536614  0.23846206  1
  H  H89  1  0.82554426  0.31536614  0.76153794  1
  H  H90  1  0.17445574  0.31536614  0.26153794  1
  H  H91  1  0.82554426  0.81536614  0.73846206  1
  C  C92  1  0.59259239  0.86314282  0.92311232  1
  C  C93  1  0.40740761  0.36314282  0.07688768  1
  C  C94  1  0.59259239  0.36314282  0.57688768  1
  C  C95  1  0.40740761  0.86314282  0.42311232  1
  C  C96  1  0.27521850  0.75489512  0.84393235  1
  C  C97  1  0.72478150  0.25489512  0.15606765  1
  C  C98  1  0.27521850  0.25489512  0.65606765  1
  C  C99  1  0.72478150  0.75489512  0.34393235  1
  C  C100  1  0.25849739  0.00606908  0.89605725  1
  C  C101  1  0.74150261  0.50606908  0.10394275  1
  C  C102  1  0.25849739  0.50606908  0.60394275  1
  C  C103  1  0.74150261  0.00606908  0.39605725  1
  C  C104  1  0.07455977  0.94782435  0.11387982  1
  C  C105  1  0.92544023  0.44782435  0.88612018  1
  C  C106  1  0.07455977  0.44782435  0.38612018  1
  C  C107  1  0.92544023  0.94782435  0.61387982  1
  C  C108  1  0.18674936  0.76510091  0.17950738  1
  C  C109  1  0.81325064  0.26510091  0.82049262  1
  C  C110  1  0.18674936  0.26510091  0.32049262  1
  C  C111  1  0.81325064  0.76510091  0.67950738  1
  N  N112  1  0.22723771  0.85525927  0.11235722  1
  N  N113  1  0.77276229  0.35525927  0.88764278  1
  N  N114  1  0.22723771  0.35525927  0.38764278  1
  N  N115  1  0.77276229  0.85525927  0.61235722  1
