# generated using pymatgen
data_Li9Mn2Co5O16
_symmetry_space_group_name_H-M   'P 1'
_cell_length_a   2.96148051
_cell_length_b   10.01269720
_cell_length_c   9.86055746
_cell_angle_alpha   78.53860168
_cell_angle_beta   92.56571193
_cell_angle_gamma   92.34143139
_symmetry_Int_Tables_number   1
_chemical_formula_structural   Li9Mn2Co5O16
_chemical_formula_sum   'Li9 Mn2 Co5 O16'
_cell_volume   286.11885927
_cell_formula_units_Z   1
loop_
 _symmetry_equiv_pos_site_id
 _symmetry_equiv_pos_as_xyz
  1  'x, y, z'
loop_
 _atom_site_type_symbol
 _atom_site_label
 _atom_site_symmetry_multiplicity
 _atom_site_fract_x
 _atom_site_fract_y
 _atom_site_fract_z
 _atom_site_occupancy
  Li  Li0  1  0.99261685  0.11999627  0.26058201  1
  Li  Li1  1  0.51003677  0.12975454  0.74415827  1
  Li  Li2  1  0.50523410  0.37354203  0.25363320  1
  Li  Li3  1  -0.00071821  0.37460424  0.75025702  1
  Li  Li4  1  0.02069504  0.62159278  0.24372650  1
  Li  Li5  1  0.50425635  0.62146428  0.75041450  1
  Li  Li6  1  0.47977963  0.88018350  0.25739440  1
  Li  Li7  1  0.99326257  0.88240870  0.74522452  1
  Li  Li8  1  0.51626410  0.00018149  0.48969470  1
  Mn  Mn9  1  0.00849513  0.00219183  0.99631567  1
  Mn  Mn10  1  0.98963285  0.75505754  0.50006249  1
  Co  Co11  1  0.48753732  0.25206097  0.00106986  1
  Co  Co12  1  0.00915663  0.24128650  0.50044749  1
  Co  Co13  1  -0.00579390  0.49747720  0.00417834  1
  Co  Co14  1  0.48821643  0.49786117  0.50373780  1
  Co  Co15  1  0.50795175  0.74727764  0.99849059  1
  O  O16  1  0.48206744  0.06938917  0.11290757  1
  O  O17  1  0.00178350  0.08502688  0.61464611  1
  O  O18  1  0.95974793  0.31486208  0.11535048  1
  O  O19  1  0.47883155  0.31877991  0.61171030  1
  O  O20  1  0.51201382  0.56060921  0.12151791  1
  O  O21  1  0.95869777  0.56554788  0.61393918  1
  O  O22  1  0.00072746  0.81769715  0.11038153  1
  O  O23  1  0.51007331  0.80414689  0.60974878  1
  O  O24  1  0.53800557  0.19492671  0.38444016  1
  O  O25  1  0.02334844  0.18662600  0.88628537  1
  O  O26  1  0.02852988  0.42849335  0.39290013  1
  O  O27  1  0.48136529  0.43076011  0.88765784  1
  O  O28  1  0.46883142  0.68382608  0.39602447  1
  O  O29  1  0.01911019  0.68049384  0.88403706  1
  O  O30  1  -0.00072147  0.92114926  0.38152071  1
  O  O31  1  0.53096449  0.94072480  0.87754503  1
