# generated using pymatgen
data_PrTaTiO6
_symmetry_space_group_name_H-M   'P 1'
_cell_length_a   5.42711991
_cell_length_b   7.57792395
_cell_length_c   11.09694054
_cell_angle_alpha   90.00000000
_cell_angle_beta   90.00000000
_cell_angle_gamma   90.00000000
_symmetry_Int_Tables_number   1
_chemical_formula_structural   PrTaTiO6
_chemical_formula_sum   'Pr4 Ta4 Ti4 O24'
_cell_volume   456.37612732
_cell_formula_units_Z   4
loop_
 _symmetry_equiv_pos_site_id
 _symmetry_equiv_pos_as_xyz
  1  'x, y, z'
loop_
 _atom_site_type_symbol
 _atom_site_label
 _atom_site_symmetry_multiplicity
 _atom_site_fract_x
 _atom_site_fract_y
 _atom_site_fract_z
 _atom_site_occupancy
  Pr  Pr0  1  0.54418695  0.24878522  0.04325238  1
  Pr  Pr1  1  0.95581305  0.24878522  0.54325238  1
  Pr  Pr2  1  0.45581305  0.74878522  0.95674762  1
  Pr  Pr3  1  0.04418695  0.74878522  0.45674762  1
  Ta  Ta4  1  0.53801989  0.00550269  0.35626280  1
  Ta  Ta5  1  0.46198011  0.50550269  0.64373720  1
  Ta  Ta6  1  0.03801989  0.50550269  0.14373720  1
  Ta  Ta7  1  0.96198011  0.00550269  0.85626280  1
  Ti  Ti8  1  0.96499382  0.49329110  0.85681925  1
  Ti  Ti9  1  0.03500618  0.99329110  0.14318075  1
  Ti  Ti10  1  0.46499382  0.99329110  0.64318075  1
  Ti  Ti11  1  0.53500618  0.49329110  0.35681925  1
  O  O12  1  0.95326642  0.24881268  0.14434823  1
  O  O13  1  0.54673358  0.24881268  0.64434823  1
  O  O14  1  0.04673358  0.74881268  0.85565177  1
  O  O15  1  0.45326642  0.74881268  0.35565177  1
  O  O16  1  0.84623017  0.25232491  0.87716459  1
  O  O17  1  0.65376983  0.25232491  0.37716459  1
  O  O18  1  0.15376983  0.75232491  0.12283541  1
  O  O19  1  0.34623017  0.75232491  0.62283541  1
  O  O20  1  0.36892843  0.05812083  0.20970254  1
  O  O21  1  0.12624170  0.44272727  0.71203471  1
  O  O22  1  0.63107157  0.55812083  0.79029746  1
  O  O23  1  0.87375830  0.94272727  0.28796529  1
  O  O24  1  0.62624170  0.94272727  0.78796529  1
  O  O25  1  0.86892843  0.55812083  0.29029746  1
  O  O26  1  0.37375830  0.44272727  0.21203471  1
  O  O27  1  0.13107157  0.05812083  0.70970254  1
  O  O28  1  0.76696363  0.53744492  0.02700080  1
  O  O29  1  0.72871619  0.96299039  0.52555183  1
  O  O30  1  0.23303637  0.03744492  0.97299920  1
  O  O31  1  0.27128381  0.46299039  0.47444817  1
  O  O32  1  0.22871619  0.46299039  0.97444817  1
  O  O33  1  0.26696363  0.03744492  0.47299920  1
  O  O34  1  0.77128381  0.96299039  0.02555183  1
  O  O35  1  0.73303637  0.53744492  0.52700080  1
