# generated using pymatgen
data_Rb(GePt)4
_symmetry_space_group_name_H-M   'P 1'
_cell_length_a   4.82189648
_cell_length_b   6.70074325
_cell_length_c   6.70074325
_cell_angle_alpha   97.43828625
_cell_angle_beta   111.08810017
_cell_angle_gamma   68.91189983
_symmetry_Int_Tables_number   1
_chemical_formula_structural   Rb(GePt)4
_chemical_formula_sum   'Rb1 Ge4 Pt4'
_cell_volume   188.47487082
_cell_formula_units_Z   1
loop_
 _symmetry_equiv_pos_site_id
 _symmetry_equiv_pos_as_xyz
  1  'x, y, z'
loop_
 _atom_site_type_symbol
 _atom_site_label
 _atom_site_symmetry_multiplicity
 _atom_site_fract_x
 _atom_site_fract_y
 _atom_site_fract_z
 _atom_site_occupancy
  Rb  Rb0  1  0.29920736  1.00000000  0.00000000  1
  Ge  Ge1  1  0.11718107  0.50084736  0.73524352  1
  Ge  Ge2  1  0.88278491  0.49915264  0.26475648  1
  Ge  Ge3  1  0.61802843  0.26475648  0.50084736  1
  Ge  Ge4  1  0.38193755  0.73524352  0.49915264  1
  Pt  Pt5  1  0.32557490  0.50146965  0.15218911  1
  Pt  Pt6  1  0.67485544  0.49853035  0.84781089  1
  Pt  Pt7  1  0.82704455  0.84781089  0.50146965  1
  Pt  Pt8  1  0.17338579  0.15218911  0.49853035  1
