# generated using pymatgen
data_Rb4Mn(MoO4)3
_symmetry_space_group_name_H-M   'P 1'
_cell_length_a   6.22260610
_cell_length_b   6.22257187
_cell_length_c   24.22448697
_cell_angle_alpha   89.99962715
_cell_angle_beta   89.99925438
_cell_angle_gamma   59.99981498
_symmetry_Int_Tables_number   1
_chemical_formula_structural   Rb4Mn(MoO4)3
_chemical_formula_sum   'Rb8 Mn2 Mo6 O24'
_cell_volume   812.31905742
_cell_formula_units_Z   2
loop_
 _symmetry_equiv_pos_site_id
 _symmetry_equiv_pos_as_xyz
  1  'x, y, z'
loop_
 _atom_site_type_symbol
 _atom_site_label
 _atom_site_symmetry_multiplicity
 _atom_site_fract_x
 _atom_site_fract_y
 _atom_site_fract_z
 _atom_site_occupancy
  Rb  Rb0  1  0.33338231  0.33331674  0.02944874  1
  Rb  Rb1  1  0.33337964  0.33331372  0.47433899  1
  Rb  Rb2  1  0.66669904  0.66668326  0.52944874  1
  Rb  Rb3  1  0.66669336  0.66668628  0.97433899  1
  Rb  Rb4  1  0.66661851  0.66668724  0.15462429  1
  Rb  Rb5  1  0.66661710  0.66669026  0.34249129  1
  Rb  Rb6  1  0.33330574  0.33331276  0.65462429  1
  Rb  Rb7  1  0.33330736  0.33330974  0.84249129  1
  Mn  Mn8  1  0.00001519  0.00000311  0.25007483  1
  Mn  Mn9  1  0.00001830  0.99999689  0.75007483  1
  Mo  Mo10  1  0.99999861  0.00000355  0.09003701  1
  Mo  Mo11  1  -0.00000030  0.00000239  0.41001601  1
  Mo  Mo12  1  0.00000217  0.99999645  0.59003701  1
  Mo  Mo13  1  0.00000209  0.99999761  0.91001601  1
  Mo  Mo14  1  0.33334977  0.33332523  0.22774616  1
  Mo  Mo15  1  0.66667500  0.66667477  0.72774616  1
  O  O16  1  0.00000701  0.99999475  0.16555879  1
  O  O17  1  0.00000854  0.99999869  0.33480728  1
  O  O18  1  0.00000177  0.00000525  0.66555879  1
  O  O19  1  0.00000723  0.00000131  0.83480728  1
  O  O20  1  0.87211947  0.31063828  0.06492833  1
  O  O21  1  0.31063570  0.81724553  0.06492782  1
  O  O22  1  0.81724175  0.87212378  0.06492937  1
  O  O23  1  0.87382489  0.31259537  0.43385970  1
  O  O24  1  0.31259225  0.81357978  0.43386012  1
  O  O25  1  0.81357555  0.87383113  0.43385912  1
  O  O26  1  0.18275775  0.68936172  0.56492833  1
  O  O27  1  0.12788123  0.18275447  0.56492782  1
  O  O28  1  0.68936553  0.12787622  0.56492937  1
  O  O29  1  0.18642025  0.68740463  0.93385970  1
  O  O30  1  0.12617203  0.18642022  0.93386012  1
  O  O31  1  0.68740668  0.12616887  0.93385912  1
  O  O32  1  0.33338585  0.33330781  0.15500420  1
  O  O33  1  0.66669366  0.66669219  0.65500420  1
  O  O34  1  0.06431336  0.31654300  0.25132612  1
  O  O35  1  0.31656230  0.61914136  0.25132886  1
  O  O36  1  0.61915229  0.06429869  0.25133297  1
  O  O37  1  0.38085636  0.68345700  0.75132612  1
  O  O38  1  0.93570366  0.38085864  0.75132886  1
  O  O39  1  0.68345098  0.93570131  0.75133297  1
