# generated using pymatgen
data_PuTaC2
_symmetry_space_group_name_H-M   'P 1'
_cell_length_a   3.27520171
_cell_length_b   3.27520171
_cell_length_c   5.91367998
_cell_angle_alpha   73.92368888
_cell_angle_beta   90.00000000
_cell_angle_gamma   120.00000000
_symmetry_Int_Tables_number   1
_chemical_formula_structural   PuTaC2
_chemical_formula_sum   'Pu1 Ta1 C2'
_cell_volume   52.05274466
_cell_formula_units_Z   1
loop_
 _symmetry_equiv_pos_site_id
 _symmetry_equiv_pos_as_xyz
  1  'x, y, z'
loop_
 _atom_site_type_symbol
 _atom_site_label
 _atom_site_symmetry_multiplicity
 _atom_site_fract_x
 _atom_site_fract_y
 _atom_site_fract_z
 _atom_site_occupancy
  Pu  Pu0  1  0.00000000  0.00000000  0.00000000  1
  Ta  Ta1  1  0.50000000  0.00000000  0.50000000  1
  C  C2  1  0.24118379  0.48236758  0.27644864  1
  C  C3  1  0.75881621  0.51763242  0.72355136  1
