# generated using pymatgen
data_Sc8B8As3Rh20
_symmetry_space_group_name_H-M   'P 1'
_cell_length_a   3.16520677
_cell_length_b   9.20335160
_cell_length_c   18.40849648
_cell_angle_alpha   89.99257100
_cell_angle_beta   90.00000000
_cell_angle_gamma   90.00000000
_symmetry_Int_Tables_number   1
_chemical_formula_structural   Sc8B8As3Rh20
_chemical_formula_sum   'Sc8 B8 As3 Rh20'
_cell_volume   536.24890077
_cell_formula_units_Z   1
loop_
 _symmetry_equiv_pos_site_id
 _symmetry_equiv_pos_as_xyz
  1  'x, y, z'
loop_
 _atom_site_type_symbol
 _atom_site_label
 _atom_site_symmetry_multiplicity
 _atom_site_fract_x
 _atom_site_fract_y
 _atom_site_fract_z
 _atom_site_occupancy
  Sc  Sc0  1  0.00000000  0.32732349  0.41085441  1
  Sc  Sc1  1  -0.00000000  0.32550812  0.91572869  1
  Sc  Sc2  1  0.00000000  0.67267651  0.08914559  1
  Sc  Sc3  1  0.00000000  0.67449188  0.58427131  1
  Sc  Sc4  1  0.00000000  0.17448379  0.16418757  1
  Sc  Sc5  1  0.00000000  0.17457119  0.66232000  1
  Sc  Sc6  1  0.00000000  0.82551621  0.33581243  1
  Sc  Sc7  1  0.00000000  0.82542881  0.83768000  1
  B  B8  1  0.00000000  0.13952654  0.30721364  1
  B  B9  1  0.00000000  0.12267866  0.81210932  1
  B  B10  1  0.00000000  0.86047346  0.19278636  1
  B  B11  1  0.00000000  0.87732134  0.68789068  1
  B  B12  1  0.00000000  0.38343788  0.07063108  1
  B  B13  1  0.00000000  0.37801890  0.55989357  1
  B  B14  1  0.00000000  0.61656212  0.42936892  1
  B  B15  1  0.00000000  0.62198110  0.94010643  1
  As  As16  1  0.00000000  0.50000000  0.75000000  1
  As  As17  1  0.00000000  0.00113419  0.00306160  1
  As  As18  1  0.00000000  0.99886581  0.49693840  1
  Rh  Rh19  1  0.50000000  0.00000000  0.25000000  1
  Rh  Rh20  1  0.50000000  0.00000000  0.75000000  1
  Rh  Rh21  1  0.50000000  0.50113320  0.00137014  1
  Rh  Rh22  1  0.50000000  0.49886680  0.49862986  1
  Rh  Rh23  1  0.50000000  0.56827114  0.35310884  1
  Rh  Rh24  1  0.50000000  0.57107389  0.85788193  1
  Rh  Rh25  1  0.50000000  0.43172886  0.14689116  1
  Rh  Rh26  1  0.50000000  0.42892611  0.64211807  1
  Rh  Rh27  1  0.50000000  0.92462489  0.10854322  1
  Rh  Rh28  1  0.50000000  0.92761956  0.60764021  1
  Rh  Rh29  1  0.50000000  0.07537511  0.39145678  1
  Rh  Rh30  1  0.50000000  0.07238044  0.89235979  1
  Rh  Rh31  1  0.50000000  0.70685965  0.21584781  1
  Rh  Rh32  1  0.50000000  0.71579935  0.71344255  1
  Rh  Rh33  1  0.50000000  0.29314035  0.28415219  1
  Rh  Rh34  1  0.50000000  0.28420065  0.78655745  1
  Rh  Rh35  1  0.50000000  0.21731531  0.03779899  1
  Rh  Rh36  1  0.50000000  0.21489223  0.53678118  1
  Rh  Rh37  1  0.50000000  0.78268469  0.46220101  1
  Rh  Rh38  1  0.50000000  0.78510777  0.96321882  1
