# generated using pymatgen
data_RbNb4Ag(PS10)2
_symmetry_space_group_name_H-M   'P 1'
_cell_length_a   7.40778279
_cell_length_b   7.53796980
_cell_length_c   13.03814537
_cell_angle_alpha   89.47371392
_cell_angle_beta   76.52633800
_cell_angle_gamma   87.90710559
_symmetry_Int_Tables_number   1
_chemical_formula_structural   RbNb4Ag(PS10)2
_chemical_formula_sum   'Rb1 Nb4 Ag1 P2 S20'
_cell_volume   707.53502154
_cell_formula_units_Z   1
loop_
 _symmetry_equiv_pos_site_id
 _symmetry_equiv_pos_as_xyz
  1  'x, y, z'
loop_
 _atom_site_type_symbol
 _atom_site_label
 _atom_site_symmetry_multiplicity
 _atom_site_fract_x
 _atom_site_fract_y
 _atom_site_fract_z
 _atom_site_occupancy
  Rb  Rb0  1  0.05644961  0.50190387  0.43931486  1
  Nb  Nb1  1  0.49991263  0.06759277  0.60548841  1
  Nb  Nb2  1  0.49936299  0.93175049  0.39635896  1
  Nb  Nb3  1  0.50195426  0.06747359  0.89471242  1
  Nb  Nb4  1  0.49818574  0.93348987  0.10452642  1
  Ag  Ag5  1  0.00326463  0.49992969  0.99878658  1
  P  P6  1  0.29119495  0.38257467  0.77711771  1
  P  P7  1  0.70678278  0.61886480  0.22200266  1
  S  S8  1  0.62884688  0.86545703  0.73376982  1
  S  S9  1  0.37220420  0.13530264  0.26730617  1
  S  S10  1  0.70713918  0.16957648  0.01050993  1
  S  S11  1  0.29366369  0.83041123  0.98871006  1
  S  S12  1  0.44941526  0.40933259  0.88562932  1
  S  S13  1  0.54842290  0.59062361  0.11448068  1
  S  S14  1  0.71088794  0.16623682  0.43329719  1
  S  S15  1  0.28856728  0.83101102  0.56840260  1
  S  S16  1  0.77262378  0.91755919  0.48048385  1
  S  S17  1  0.22562927  0.07987993  0.52212334  1
  S  S18  1  0.77654587  0.92109994  0.95072071  1
  S  S19  1  0.22358935  0.07867999  0.04888741  1
  S  S20  1  0.05803221  0.53709782  0.80735408  1
  S  S21  1  0.94052676  0.46319205  0.19103200  1
  S  S22  1  0.74441299  0.10954479  0.71704687  1
  S  S23  1  0.25496440  0.89221804  0.28253876  1
  S  S24  1  0.24825633  0.10846945  0.78302453  1
  S  S25  1  0.75109022  0.89182225  0.21746317  1
  S  S26  1  0.43970210  0.41109068  0.62338285  1
  S  S27  1  0.56277181  0.58761467  0.37692864  1
