# generated using pymatgen
data_Nd2(B2Rh3)3
_symmetry_space_group_name_H-M   'P 1'
_cell_length_a   5.67023571
_cell_length_b   5.66946824
_cell_length_c   8.58185197
_cell_angle_alpha   90.00005868
_cell_angle_beta   89.99988265
_cell_angle_gamma   120.00447328
_symmetry_Int_Tables_number   1
_chemical_formula_structural   Nd2(B2Rh3)3
_chemical_formula_sum   'Nd2 B6 Rh9'
_cell_volume   238.91065110
_cell_formula_units_Z   1
loop_
 _symmetry_equiv_pos_site_id
 _symmetry_equiv_pos_as_xyz
  1  'x, y, z'
loop_
 _atom_site_type_symbol
 _atom_site_label
 _atom_site_symmetry_multiplicity
 _atom_site_fract_x
 _atom_site_fract_y
 _atom_site_fract_z
 _atom_site_occupancy
  Nd  Nd0  1  0.99999608  1.00000000  0.29285427  1
  Nd  Nd1  1  -0.00000080  -0.00000000  0.70715062  1
  B  B2  1  0.33331579  0.66663352  0.00000250  1
  B  B3  1  0.66668227  0.33336648  0.00000250  1
  B  B4  1  0.33332790  0.66667139  0.33270303  1
  B  B5  1  0.66665651  0.33332861  0.33270303  1
  B  B6  1  0.66665368  0.33332524  0.66729225  1
  B  B7  1  0.33332844  0.66667476  0.66729225  1
  Rh  Rh8  1  0.49998907  -0.00000000  0.16329783  1
  Rh  Rh9  1  0.49999051  0.50000513  0.16324737  1
  Rh  Rh10  1  0.99998538  0.49999487  0.16324737  1
  Rh  Rh11  1  0.50000013  1.00000000  0.83671274  1
  Rh  Rh12  1  0.49999376  0.49999932  0.83674871  1
  Rh  Rh13  1  0.99999444  0.50000068  0.83674871  1
  Rh  Rh14  1  0.49999651  0.00000000  0.49999866  1
  Rh  Rh15  1  0.49999644  0.50000256  0.49999907  1
  Rh  Rh16  1  0.99999388  0.49999744  0.49999907  1
