# generated using pymatgen
data_Li9Mn2Co5O16
_symmetry_space_group_name_H-M   'P 1'
_cell_length_a   5.10288889
_cell_length_b   9.77168379
_cell_length_c   5.80395849
_cell_angle_alpha   90.00000000
_cell_angle_beta   90.00000000
_cell_angle_gamma   98.54185876
_symmetry_Int_Tables_number   1
_chemical_formula_structural   Li9Mn2Co5O16
_chemical_formula_sum   'Li9 Mn2 Co5 O16'
_cell_volume   286.19730159
_cell_formula_units_Z   1
loop_
 _symmetry_equiv_pos_site_id
 _symmetry_equiv_pos_as_xyz
  1  'x, y, z'
loop_
 _atom_site_type_symbol
 _atom_site_label
 _atom_site_symmetry_multiplicity
 _atom_site_fract_x
 _atom_site_fract_y
 _atom_site_fract_z
 _atom_site_occupancy
  Li  Li0  1  0.24964039  0.24990212  0.25568119  1
  Li  Li1  1  0.75035961  0.75009788  0.25568119  1
  Li  Li2  1  0.75320933  0.23962847  0.50219944  1
  Li  Li3  1  0.24679067  0.76037153  0.50219944  1
  Li  Li4  1  0.24016851  0.24626480  0.74445970  1
  Li  Li5  1  0.75983149  0.75373520  0.74445970  1
  Li  Li6  1  0.75210797  0.24813565  0.99853871  1
  Li  Li7  1  0.24789203  0.75186435  0.99853871  1
  Li  Li8  1  0.00000000  -0.00000000  0.50427247  1
  Mn  Mn9  1  0.00000000  -0.00000000  0.99661072  1
  Mn  Mn10  1  0.00000000  0.50000000  0.75021068  1
  Co  Co11  1  0.50000000  0.50000000  -0.00126131  1
  Co  Co12  1  0.50000000  -0.00000000  0.25319388  1
  Co  Co13  1  0.00000000  0.50000000  0.25044041  1
  Co  Co14  1  0.50000000  0.50000000  0.50155996  1
  Co  Co15  1  0.50000000  -0.00000000  0.74379849  1
  O  O16  1  0.84448642  0.10761385  0.23501462  1
  O  O17  1  0.37842111  0.61620464  0.25029719  1
  O  O18  1  0.39678458  0.10925695  0.49492815  1
  O  O19  1  0.88144510  0.61621922  0.50327830  1
  O  O20  1  0.88188216  0.11652371  0.76726104  1
  O  O21  1  0.39564672  0.62149987  0.74998099  1
  O  O22  1  0.35926542  0.10567280  0.00104643  1
  O  O23  1  0.87985519  0.61425811  -0.00209841  1
  O  O24  1  0.62157889  0.38379536  0.25029719  1
  O  O25  1  0.15551358  0.89238615  0.23501462  1
  O  O26  1  0.11855490  0.38378078  0.50327830  1
  O  O27  1  0.60321542  0.89074305  0.49492815  1
  O  O28  1  0.60435328  0.37850013  0.74998099  1
  O  O29  1  0.11811784  0.88347629  0.76726104  1
  O  O30  1  0.12014481  0.38574189  -0.00209841  1
  O  O31  1  0.64073458  0.89432720  0.00104643  1
