# generated using pymatgen
data_Nd3SOF5
_symmetry_space_group_name_H-M   'P 1'
_cell_length_a   3.84492687
_cell_length_b   9.77860494
_cell_length_c   9.73315052
_cell_angle_alpha   60.41328801
_cell_angle_beta   90.00000000
_cell_angle_gamma   90.00000000
_symmetry_Int_Tables_number   1
_chemical_formula_structural   Nd3SOF5
_chemical_formula_sum   'Nd6 S2 O2 F10'
_cell_volume   318.23114446
_cell_formula_units_Z   2
loop_
 _symmetry_equiv_pos_site_id
 _symmetry_equiv_pos_as_xyz
  1  'x, y, z'
loop_
 _atom_site_type_symbol
 _atom_site_label
 _atom_site_symmetry_multiplicity
 _atom_site_fract_x
 _atom_site_fract_y
 _atom_site_fract_z
 _atom_site_occupancy
  Nd  Nd0  1  0.75000000  0.13273475  0.58335744  1
  Nd  Nd1  1  0.75000000  0.27247829  0.13191905  1
  Nd  Nd2  1  0.75000000  0.58506693  0.29848441  1
  Nd  Nd3  1  0.25000000  0.89509708  0.40522623  1
  Nd  Nd4  1  0.25000000  0.71447213  0.87695975  1
  Nd  Nd5  1  0.25000000  0.40341738  0.70436042  1
  S  S6  1  0.75000000  0.66729182  0.67140382  1
  S  S7  1  0.25000000  0.33841544  0.32654899  1
  O  O8  1  0.75000000  0.38732958  0.56396490  1
  O  O9  1  0.75000000  0.05154306  0.38381776  1
  F  F10  1  0.75000000  0.87972992  0.84002186  1
  F  F11  1  0.75000000  0.27396632  0.88692828  1
  F  F12  1  0.75000000  0.83716893  0.27616852  1
  F  F13  1  0.25000000  0.11879831  0.14600633  1
  F  F14  1  0.25000000  0.71486013  0.12173024  1
  F  F15  1  0.25000000  0.14943683  0.72713071  1
  F  F16  1  0.75000000  0.56697636  0.04749417  1
  F  F17  1  0.25000000  0.62557187  0.43053416  1
  F  F18  1  0.25000000  0.95271011  0.62270338  1
  F  F19  1  0.25000000  0.43293478  0.95523954  1
