# generated using pymatgen
data_Pr(AlFe)6
_symmetry_space_group_name_H-M   'P 1'
_cell_length_a   5.02069522
_cell_length_b   6.63701219
_cell_length_c   6.63701219
_cell_angle_alpha   98.78493650
_cell_angle_beta   112.22437213
_cell_angle_gamma   67.77562787
_symmetry_Int_Tables_number   1
_chemical_formula_structural   Pr(AlFe)6
_chemical_formula_sum   'Pr1 Al6 Fe6'
_cell_volume   189.50957989
_cell_formula_units_Z   1
loop_
 _symmetry_equiv_pos_site_id
 _symmetry_equiv_pos_as_xyz
  1  'x, y, z'
loop_
 _atom_site_type_symbol
 _atom_site_label
 _atom_site_symmetry_multiplicity
 _atom_site_fract_x
 _atom_site_fract_y
 _atom_site_fract_z
 _atom_site_occupancy
  Pr  Pr0  1  0.00000000  -0.00000000  0.00000000  1
  Al  Al1  1  0.65156787  0.34843213  0.65156787  1
  Al  Al2  1  0.34843213  0.65156787  0.34843213  1
  Al  Al3  1  0.00000000  0.33911897  0.33911897  1
  Al  Al4  1  0.00000000  0.66088103  0.66088103  1
  Al  Al5  1  0.70144609  0.79855391  0.20144609  1
  Al  Al6  1  0.29855391  0.20144609  0.79855391  1
  Fe  Fe7  1  0.50000000  -0.00000000  0.50000000  1
  Fe  Fe8  1  0.00000000  -0.00000000  0.50000000  1
  Fe  Fe9  1  0.50000000  0.50000000  0.00000000  1
  Fe  Fe10  1  0.00000000  0.50000000  0.00000000  1
  Fe  Fe11  1  0.50000000  0.75907946  0.75907946  1
  Fe  Fe12  1  0.50000000  0.24092054  0.24092054  1
