# generated using pymatgen
data_Rb2MnP2H3(O4F)2
_symmetry_space_group_name_H-M   'P 1'
_cell_length_a   7.55226543
_cell_length_b   8.16662729
_cell_length_c   8.65750463
_cell_angle_alpha   90.00000000
_cell_angle_beta   115.63464298
_cell_angle_gamma   90.00000000
_symmetry_Int_Tables_number   1
_chemical_formula_structural   Rb2MnP2H3(O4F)2
_chemical_formula_sum   'Rb4 Mn2 P4 H6 O16 F4'
_cell_volume   481.40733022
_cell_formula_units_Z   2
loop_
 _symmetry_equiv_pos_site_id
 _symmetry_equiv_pos_as_xyz
  1  'x, y, z'
loop_
 _atom_site_type_symbol
 _atom_site_label
 _atom_site_symmetry_multiplicity
 _atom_site_fract_x
 _atom_site_fract_y
 _atom_site_fract_z
 _atom_site_occupancy
  Rb  Rb0  1  0.14458962  0.33498812  0.69531466  1
  Rb  Rb1  1  0.85541038  0.83498812  0.80468534  1
  Rb  Rb2  1  0.86183206  0.65851353  0.29906080  1
  Rb  Rb3  1  0.13816794  0.15851353  0.20093920  1
  Mn  Mn4  1  0.49942077  0.50192180  0.50337983  1
  Mn  Mn5  1  0.50057923  0.00192180  0.99662017  1
  P  P6  1  0.67633011  0.14271838  0.38226886  1
  P  P7  1  0.32366989  0.64271838  0.11773114  1
  P  P8  1  0.30926648  0.86363565  0.61022899  1
  P  P9  1  0.69073352  0.36363565  0.88977101  1
  H  H10  1  0.71682165  0.28039251  0.18510311  1
  H  H11  1  0.28317835  0.78039251  0.31489689  1
  H  H12  1  0.28684910  0.71549299  0.80883401  1
  H  H13  1  0.71315090  0.21549299  0.69116599  1
  H  H14  1  0.97102070  0.00363889  0.49846988  1
  H  H15  1  0.02897930  0.50363889  0.00153012  1
  O  O16  1  0.79259579  0.26591365  0.31706625  1
  O  O17  1  0.20740421  0.76591365  0.18293375  1
  O  O18  1  0.20246433  0.73484205  0.68209972  1
  O  O19  1  0.79753567  0.23484205  0.81790028  1
  O  O20  1  0.52592110  0.44821094  0.73376356  1
  O  O21  1  0.47407890  0.94821094  0.76623644  1
  O  O22  1  0.47919855  0.55228231  0.27404184  1
  O  O23  1  0.52080145  0.05228231  0.22595816  1
  O  O24  1  0.83558844  0.02430087  0.51046701  1
  O  O25  1  0.16441156  0.52430087  0.98953299  1
  O  O26  1  0.14773003  0.97907274  0.49134987  1
  O  O27  1  0.85226997  0.47907274  0.00865013  1
  O  O28  1  0.57991402  0.23093019  0.48229342  1
  O  O29  1  0.42008598  0.73093019  0.01770658  1
  O  O30  1  0.40295923  0.77123633  0.50839898  1
  O  O31  1  0.59704077  0.27123633  0.99160102  1
  F  F32  1  0.23119654  0.44560075  0.41177191  1
  F  F33  1  0.76880346  0.94560075  0.08822809  1
  F  F34  1  0.76648543  0.55730831  0.59209286  1
  F  F35  1  0.23351457  0.05730831  0.90790714  1
