# generated using pymatgen
data_Nd2CoSn4
_symmetry_space_group_name_H-M   'P 1'
_cell_length_a   4.56588153
_cell_length_b   4.55941327
_cell_length_c   8.81104301
_cell_angle_alpha   75.00511253
_cell_angle_beta   90.00000000
_cell_angle_gamma   90.00000000
_symmetry_Int_Tables_number   1
_chemical_formula_structural   Nd2CoSn4
_chemical_formula_sum   'Nd2 Co1 Sn4'
_cell_volume   177.18015564
_cell_formula_units_Z   1
loop_
 _symmetry_equiv_pos_site_id
 _symmetry_equiv_pos_as_xyz
  1  'x, y, z'
loop_
 _atom_site_type_symbol
 _atom_site_label
 _atom_site_symmetry_multiplicity
 _atom_site_fract_x
 _atom_site_fract_y
 _atom_site_fract_z
 _atom_site_occupancy
  Nd  Nd0  1  0.25000000  0.90677256  0.18645488  1
  Nd  Nd1  1  0.75000000  0.11242907  0.77514185  1
  Co  Co2  1  0.25000000  0.70473541  0.59052917  1
  Sn  Sn3  1  0.25000000  0.26765446  0.46469108  1
  Sn  Sn4  1  0.75000000  0.76618063  0.46763875  1
  Sn  Sn5  1  0.25000000  0.55906167  0.88187666  1
  Sn  Sn6  1  0.75000000  0.44316620  0.11366760  1
