# generated using pymatgen
data_Ni8Bi8SI2
_symmetry_space_group_name_H-M   'P 1'
_cell_length_a   4.18283675
_cell_length_b   9.97145624
_cell_length_c   21.71127189
_cell_angle_alpha   90.00000000
_cell_angle_beta   90.00000000
_cell_angle_gamma   90.00000000
_symmetry_Int_Tables_number   1
_chemical_formula_structural   Ni8Bi8SI2
_chemical_formula_sum   'Ni16 Bi16 S2 I4'
_cell_volume   905.55486634
_cell_formula_units_Z   2
loop_
 _symmetry_equiv_pos_site_id
 _symmetry_equiv_pos_as_xyz
  1  'x, y, z'
loop_
 _atom_site_type_symbol
 _atom_site_label
 _atom_site_symmetry_multiplicity
 _atom_site_fract_x
 _atom_site_fract_y
 _atom_site_fract_z
 _atom_site_occupancy
  Ni  Ni0  1  0.00025537  0.31205770  0.97019157  1
  Ni  Ni1  1  0.00025537  0.68794230  0.02980843  1
  Ni  Ni2  1  0.49974463  0.81205770  0.52980843  1
  Ni  Ni3  1  0.49974463  0.18794230  0.47019157  1
  Ni  Ni4  1  0.49979071  0.58862080  0.08559387  1
  Ni  Ni5  1  0.49979071  0.41137920  0.91440613  1
  Ni  Ni6  1  0.00020929  0.08862080  0.41440613  1
  Ni  Ni7  1  0.00020929  0.91137920  0.58559387  1
  Ni  Ni8  1  0.49910424  0.32437211  0.04158852  1
  Ni  Ni9  1  0.49910424  0.67562789  0.95841148  1
  Ni  Ni10  1  0.00089576  0.82437211  0.45841148  1
  Ni  Ni11  1  0.00089576  0.17562789  0.54158852  1
  Ni  Ni12  1  0.00010276  0.43886241  0.08868507  1
  Ni  Ni13  1  0.00010276  0.56113759  0.91131493  1
  Ni  Ni14  1  0.49989724  0.93886241  0.41131493  1
  Ni  Ni15  1  0.49989724  0.06113759  0.58868507  1
  Bi  Bi16  1  0.49968484  0.37942163  0.16591896  1
  Bi  Bi17  1  0.49968484  0.62057837  0.83408104  1
  Bi  Bi18  1  0.00031516  0.87942163  0.33408104  1
  Bi  Bi19  1  0.00031516  0.12057837  0.66591896  1
  Bi  Bi20  1  0.00031327  0.16686126  0.07908344  1
  Bi  Bi21  1  0.00031327  0.83313874  0.92091656  1
  Bi  Bi22  1  0.49968673  0.66686126  0.42091656  1
  Bi  Bi23  1  0.49968673  0.33313874  0.57908344  1
  Bi  Bi24  1  0.49970522  0.14442317  0.94709938  1
  Bi  Bi25  1  0.49970522  0.85557683  0.05290062  1
  Bi  Bi26  1  0.00029478  0.64442317  0.55290062  1
  Bi  Bi27  1  0.00029478  0.35557683  0.44709938  1
  Bi  Bi28  1  0.00030037  0.67243010  0.15631724  1
  Bi  Bi29  1  0.00030037  0.32756990  0.84368276  1
  Bi  Bi30  1  0.49969963  0.17243010  0.34368276  1
  Bi  Bi31  1  0.49969963  0.82756990  0.65631724  1
  S  S32  1  0.74543889  0.50000000  -0.00000000  1
  S  S33  1  0.75456111  0.00000000  0.50000000  1
  I  I34  1  0.49982821  0.00502292  0.79607313  1
  I  I35  1  0.49982821  0.99497708  0.20392687  1
  I  I36  1  0.00017179  0.50502292  0.70392687  1
  I  I37  1  0.00017179  0.49497708  0.29607313  1
