# generated using pymatgen
data_Nd6Mg(GeS7)2
_symmetry_space_group_name_H-M   'P 1'
_cell_length_a   5.83358913
_cell_length_b   10.21897095
_cell_length_c   10.21609875
_cell_angle_alpha   119.99604281
_cell_angle_beta   90.00223445
_cell_angle_gamma   90.00007610
_symmetry_Int_Tables_number   1
_chemical_formula_structural   Nd6Mg(GeS7)2
_chemical_formula_sum   'Nd6 Mg1 Ge2 S14'
_cell_volume   527.44360621
_cell_formula_units_Z   1
loop_
 _symmetry_equiv_pos_site_id
 _symmetry_equiv_pos_as_xyz
  1  'x, y, z'
loop_
 _atom_site_type_symbol
 _atom_site_label
 _atom_site_symmetry_multiplicity
 _atom_site_fract_x
 _atom_site_fract_y
 _atom_site_fract_z
 _atom_site_occupancy
  Nd  Nd0  1  0.75827284  0.13155884  0.35871849  1
  Nd  Nd1  1  0.75829036  0.64127354  0.77281784  1
  Nd  Nd2  1  0.75826170  0.22720719  0.86848827  1
  Nd  Nd3  1  0.25330632  0.86841045  0.64294640  1
  Nd  Nd4  1  0.25331200  0.35707350  0.22549506  1
  Nd  Nd5  1  0.25330625  0.77448525  0.13154201  1
  Mg  Mg6  1  0.53325864  0.00000497  0.00000544  1
  Ge  Ge7  1  0.17461091  0.33347467  0.66672212  1
  Ge  Ge8  1  0.67010784  0.66651314  0.33326753  1
  S  S9  1  0.02110765  0.48049956  0.89646675  1
  S  S10  1  0.02105577  0.10339564  0.58396812  1
  S  S11  1  0.02110263  0.41598322  0.51951361  1
  S  S12  1  0.51583723  0.52042910  0.10340081  1
  S  S13  1  0.51578702  0.89672205  0.41708291  1
  S  S14  1  0.51582407  0.58295329  0.47955681  1
  S  S15  1  0.77123316  0.24885345  0.15750379  1
  S  S16  1  0.77122612  0.84250838  0.09136782  1
  S  S17  1  0.77123898  0.90865422  0.75112914  1
  S  S18  1  0.29427910  0.75194642  0.84530463  1
  S  S19  1  0.29428116  0.15468908  0.90662112  1
  S  S20  1  0.29428850  0.09336206  0.24807860  1
  S  S21  1  0.55253643  0.33333351  0.66666835  1
  S  S22  1  0.04707533  0.66666847  0.33333440  1
