# generated using pymatgen
data_Na9Sm(GeSe3)4
_symmetry_space_group_name_H-M   'P 1'
_cell_length_a   8.01290123
_cell_length_b   9.47904159
_cell_length_c   9.47904159
_cell_angle_alpha   98.05288698
_cell_angle_beta   78.48106682
_cell_angle_gamma   101.51893318
_symmetry_Int_Tables_number   1
_chemical_formula_structural   Na9Sm(GeSe3)4
_chemical_formula_sum   'Na9 Sm1 Ge4 Se12'
_cell_volume   687.49117008
_cell_formula_units_Z   1
loop_
 _symmetry_equiv_pos_site_id
 _symmetry_equiv_pos_as_xyz
  1  'x, y, z'
loop_
 _atom_site_type_symbol
 _atom_site_label
 _atom_site_symmetry_multiplicity
 _atom_site_fract_x
 _atom_site_fract_y
 _atom_site_fract_z
 _atom_site_occupancy
  Na  Na0  1  0.99757564  0.34615379  0.34819328  1
  Na  Na1  1  0.50242436  0.84819328  0.84615379  1
  Na  Na2  1  0.00248081  0.65686264  0.65054869  1
  Na  Na3  1  0.49751919  0.15054869  0.15686264  1
  Na  Na4  1  0.99693803  0.99666094  0.00164408  1
  Na  Na5  1  0.50306197  0.50164408  0.49666094  1
  Na  Na6  1  0.75000000  0.92741961  0.42741961  1
  Na  Na7  1  0.25000000  0.06799149  0.56799149  1
  Na  Na8  1  0.75000000  0.57462433  0.07462433  1
  Sm  Sm9  1  0.25000000  0.42797168  0.92797168  1
  Ge  Ge10  1  0.38318967  0.72618567  0.27989725  1
  Ge  Ge11  1  0.88034234  0.21608601  0.77884074  1
  Ge  Ge12  1  0.11681033  0.77989725  0.22618567  1
  Ge  Ge13  1  0.61965766  0.27884074  0.71608601  1
  Se  Se14  1  0.62040975  0.86178503  0.13451997  1
  Se  Se15  1  0.12364821  0.36684240  0.64710527  1
  Se  Se16  1  0.87959025  0.63451997  0.36178503  1
  Se  Se17  1  0.37635179  0.14710527  0.86684240  1
  Se  Se18  1  0.36682206  0.46450825  0.20946967  1
  Se  Se19  1  0.87398546  0.96545198  0.71886333  1
  Se  Se20  1  0.37406550  0.77776844  0.53424763  1
  Se  Se21  1  0.88796145  0.28787849  0.03247934  1
  Se  Se22  1  0.12593450  0.03424763  0.27776844  1
  Se  Se23  1  0.61203855  0.53247934  0.78787849  1
  Se  Se24  1  0.13317794  0.70946967  0.96450825  1
  Se  Se25  1  0.62601454  0.21886333  0.46545198  1
