# generated using pymatgen
data_NdDyFe14B
_symmetry_space_group_name_H-M   'P 1'
_cell_length_a   8.74846792
_cell_length_b   8.74846792
_cell_length_c   12.05316684
_cell_angle_alpha   90.00000000
_cell_angle_beta   90.00000000
_cell_angle_gamma   90.00000000
_symmetry_Int_Tables_number   1
_chemical_formula_structural   NdDyFe14B
_chemical_formula_sum   'Nd4 Dy4 Fe56 B4'
_cell_volume   922.49745220
_cell_formula_units_Z   4
loop_
 _symmetry_equiv_pos_site_id
 _symmetry_equiv_pos_as_xyz
  1  'x, y, z'
loop_
 _atom_site_type_symbol
 _atom_site_label
 _atom_site_symmetry_multiplicity
 _atom_site_fract_x
 _atom_site_fract_y
 _atom_site_fract_z
 _atom_site_occupancy
  Nd  Nd0  1  0.64013640  0.64013640  0.50000000  1
  Nd  Nd1  1  0.35986360  0.35986360  0.50000000  1
  Nd  Nd2  1  0.85986360  0.14013640  -0.00000000  1
  Nd  Nd3  1  0.14013640  0.85986360  -0.00000000  1
  Dy  Dy4  1  0.22932787  0.77067213  0.50000000  1
  Dy  Dy5  1  0.77067213  0.22932787  0.50000000  1
  Dy  Dy6  1  0.27067213  0.27067213  0.00000000  1
  Dy  Dy7  1  0.72932787  0.72932787  0.00000000  1
  Fe  Fe8  1  0.18197612  0.81802388  0.25554559  1
  Fe  Fe9  1  0.81802388  0.18197612  0.25554559  1
  Fe  Fe10  1  0.31802388  0.31802388  0.75554559  1
  Fe  Fe11  1  0.68197612  0.68197612  0.75554559  1
  Fe  Fe12  1  0.81802388  0.18197612  0.74445441  1
  Fe  Fe13  1  0.18197612  0.81802388  0.74445441  1
  Fe  Fe14  1  0.68197612  0.68197612  0.24445441  1
  Fe  Fe15  1  0.31802388  0.31802388  0.24445441  1
  Fe  Fe16  1  0.50000000  0.50000000  0.11389119  1
  Fe  Fe17  1  -0.00000000  -0.00000000  0.61389119  1
  Fe  Fe18  1  0.50000000  0.50000000  0.88610881  1
  Fe  Fe19  1  -0.00000000  -0.00000000  0.38610881  1
  Fe  Fe20  1  0.40180772  0.59819228  0.29552412  1
  Fe  Fe21  1  0.59819228  0.40180772  0.29552412  1
  Fe  Fe22  1  0.09819228  0.09819228  0.79552412  1
  Fe  Fe23  1  0.90180772  0.90180772  0.79552412  1
  Fe  Fe24  1  0.59819228  0.40180772  0.70447588  1
  Fe  Fe25  1  0.40180772  0.59819228  0.70447588  1
  Fe  Fe26  1  0.90180772  0.90180772  0.20447588  1
  Fe  Fe27  1  0.09819228  0.09819228  0.20447588  1
  Fe  Fe28  1  0.93319697  0.72419207  0.37341779  1
  Fe  Fe29  1  0.06680303  0.27580793  0.37341779  1
  Fe  Fe30  1  0.56680303  0.22419207  0.87341779  1
  Fe  Fe31  1  0.43319697  0.77580793  0.87341779  1
  Fe  Fe32  1  0.06680303  0.27580793  0.62658221  1
  Fe  Fe33  1  0.93319697  0.72419207  0.62658221  1
  Fe  Fe34  1  0.43319697  0.77580793  0.12658221  1
  Fe  Fe35  1  0.56680303  0.22419207  0.12658221  1
  Fe  Fe36  1  0.72419207  0.93319697  0.37341779  1
  Fe  Fe37  1  0.27580793  0.06680303  0.37341779  1
  Fe  Fe38  1  0.22419207  0.56680303  0.87341779  1
  Fe  Fe39  1  0.77580793  0.43319697  0.87341779  1
  Fe  Fe40  1  0.27580793  0.06680303  0.62658221  1
  Fe  Fe41  1  0.72419207  0.93319697  0.62658221  1
  Fe  Fe42  1  0.77580793  0.43319697  0.12658221  1
  Fe  Fe43  1  0.22419207  0.56680303  0.12658221  1
  Fe  Fe44  1  0.14025693  0.53873938  0.32474815  1
  Fe  Fe45  1  0.85974307  0.46126062  0.32474815  1
  Fe  Fe46  1  0.35974307  0.03873938  0.82474815  1
  Fe  Fe47  1  0.64025693  0.96126062  0.82474815  1
  Fe  Fe48  1  0.85974307  0.46126062  0.67525185  1
  Fe  Fe49  1  0.14025693  0.53873938  0.67525185  1
  Fe  Fe50  1  0.64025693  0.96126062  0.17525185  1
  Fe  Fe51  1  0.35974307  0.03873938  0.17525185  1
  Fe  Fe52  1  0.53873938  0.14025693  0.32474815  1
  Fe  Fe53  1  0.46126062  0.85974307  0.32474815  1
  Fe  Fe54  1  0.03873938  0.35974307  0.82474815  1
  Fe  Fe55  1  0.96126062  0.64025693  0.82474815  1
  Fe  Fe56  1  0.46126062  0.85974307  0.67525185  1
  Fe  Fe57  1  0.53873938  0.14025693  0.67525185  1
  Fe  Fe58  1  0.96126062  0.64025693  0.17525185  1
  Fe  Fe59  1  0.03873938  0.35974307  0.17525185  1
  Fe  Fe60  1  -0.00000000  0.50000000  0.50000000  1
  Fe  Fe61  1  0.50000000  -0.00000000  -0.00000000  1
  Fe  Fe62  1  0.50000000  -0.00000000  0.50000000  1
  Fe  Fe63  1  -0.00000000  0.50000000  -0.00000000  1
  B  B64  1  0.87455748  0.87455748  0.50000000  1
  B  B65  1  0.12544252  0.12544252  0.50000000  1
  B  B66  1  0.62544252  0.37455748  0.00000000  1
  B  B67  1  0.37455748  0.62544252  0.00000000  1
