# generated using pymatgen
data_NaTiVS4
_symmetry_space_group_name_H-M   'P 1'
_cell_length_a   3.42973156
_cell_length_b   5.90623389
_cell_length_c   7.29525837
_cell_angle_alpha   82.20290769
_cell_angle_beta   76.40449435
_cell_angle_gamma   90.00000000
_symmetry_Int_Tables_number   1
_chemical_formula_structural   NaTiVS4
_chemical_formula_sum   'Na1 Ti1 V1 S4'
_cell_volume   142.23170454
_cell_formula_units_Z   1
loop_
 _symmetry_equiv_pos_site_id
 _symmetry_equiv_pos_as_xyz
  1  'x, y, z'
loop_
 _atom_site_type_symbol
 _atom_site_label
 _atom_site_symmetry_multiplicity
 _atom_site_fract_x
 _atom_site_fract_y
 _atom_site_fract_z
 _atom_site_occupancy
  Na  Na0  1  0.75666282  0.91356767  0.48667436  1
  Ti  Ti1  1  0.50687019  0.49402470  0.98625963  1
  V  V2  1  0.00701089  0.01009695  0.98597823  1
  S  S3  1  0.10712300  0.70516640  0.78575399  1
  S  S4  1  0.60851492  0.20071446  0.78297016  1
  S  S5  1  0.40784238  0.80653587  0.18431524  1
  S  S6  1  0.90497580  0.30289395  0.19004840  1
