# generated using pymatgen
data_NaHSeO4
_symmetry_space_group_name_H-M   'P 1'
_cell_length_a   5.18648792
_cell_length_b   5.77674526
_cell_length_c   6.68773138
_cell_angle_alpha   89.22898939
_cell_angle_beta   73.63310609
_cell_angle_gamma   82.80904335
_symmetry_Int_Tables_number   1
_chemical_formula_structural   NaHSeO4
_chemical_formula_sum   'Na2 H2 Se2 O8'
_cell_volume   190.68933571
_cell_formula_units_Z   2
loop_
 _symmetry_equiv_pos_site_id
 _symmetry_equiv_pos_as_xyz
  1  'x, y, z'
loop_
 _atom_site_type_symbol
 _atom_site_label
 _atom_site_symmetry_multiplicity
 _atom_site_fract_x
 _atom_site_fract_y
 _atom_site_fract_z
 _atom_site_occupancy
  Na  Na0  1  0.03021913  0.74736571  0.84105210  1
  Na  Na1  1  0.96775065  0.24844140  0.15200888  1
  H  H2  1  0.46921835  0.96179130  0.48625246  1
  H  H3  1  0.96866752  0.48686460  0.52017022  1
  Se  Se4  1  0.37333212  0.70312736  0.25262641  1
  Se  Se5  1  0.63712363  0.27355168  0.72512940  1
  O  O6  1  0.70055062  0.62934071  0.14918949  1
  O  O7  1  0.32159863  0.38139911  0.83769176  1
  O  O8  1  0.23095461  0.87732468  0.10593713  1
  O  O9  1  0.78627098  0.12405801  0.88240901  1
  O  O10  1  0.21702126  0.46885972  0.33167388  1
  O  O11  1  0.80371516  0.52258427  0.65050945  1
  O  O12  1  0.32257761  0.85423357  0.49226911  1
  O  O13  1  0.68199971  0.12705790  0.50108070  1
