# generated using pymatgen
data_NaPdF3
_symmetry_space_group_name_H-M   'P 1'
_cell_length_a   6.79800691
_cell_length_b   6.90288705
_cell_length_c   7.51817513
_cell_angle_alpha   62.88929114
_cell_angle_beta   105.71845722
_cell_angle_gamma   89.23021130
_symmetry_Int_Tables_number   1
_chemical_formula_structural   NaPdF3
_chemical_formula_sum   'Na4 Pd4 F12'
_cell_volume   298.40801395
_cell_formula_units_Z   4
loop_
 _symmetry_equiv_pos_site_id
 _symmetry_equiv_pos_as_xyz
  1  'x, y, z'
loop_
 _atom_site_type_symbol
 _atom_site_label
 _atom_site_symmetry_multiplicity
 _atom_site_fract_x
 _atom_site_fract_y
 _atom_site_fract_z
 _atom_site_occupancy
  Na  Na0  1  0.50463589  0.75972105  0.00178459  1
  Na  Na1  1  0.49536411  0.24027895  0.99821541  1
  Na  Na2  1  0.00000000  0.50000000  0.00000000  1
  Na  Na3  1  0.00000000  0.50000000  0.50000000  1
  Pd  Pd4  1  0.52284904  0.73982787  0.53057947  1
  Pd  Pd5  1  0.47715096  0.26017213  0.46942053  1
  Pd  Pd6  1  0.00000000  -0.00000000  0.00000000  1
  Pd  Pd7  1  0.00000000  -0.00000000  0.50000000  1
  F  F8  1  0.82829278  0.72053399  0.57300737  1
  F  F9  1  0.17170722  0.27946601  0.42699263  1
  F  F10  1  0.60066356  0.57788629  0.84294342  1
  F  F11  1  0.39933644  0.42211371  0.15705658  1
  F  F12  1  0.46160191  0.89028892  0.22095679  1
  F  F13  1  0.53839809  0.10971108  0.77904321  1
  F  F14  1  0.11208892  0.86462813  0.84783839  1
  F  F15  1  0.11588322  0.27929147  0.86584729  1
  F  F16  1  0.88791108  0.13537187  0.15216161  1
  F  F17  1  0.88411678  0.72070853  0.13415271  1
  F  F18  1  0.22046909  0.75322391  0.50832481  1
  F  F19  1  0.77953091  0.24677609  0.49167519  1
