# generated using pymatgen
data_Nb6V3Ni3C2
_symmetry_space_group_name_H-M   'P 1'
_cell_length_a   8.19387803
_cell_length_b   8.19451351
_cell_length_c   8.17079228
_cell_angle_alpha   90.00000000
_cell_angle_beta   60.09315644
_cell_angle_gamma   120.00256553
_symmetry_Int_Tables_number   1
_chemical_formula_structural   Nb6V3Ni3C2
_chemical_formula_sum   'Nb12 V6 Ni6 C4'
_cell_volume   388.46789040
_cell_formula_units_Z   2
loop_
 _symmetry_equiv_pos_site_id
 _symmetry_equiv_pos_as_xyz
  1  'x, y, z'
loop_
 _atom_site_type_symbol
 _atom_site_label
 _atom_site_symmetry_multiplicity
 _atom_site_fract_x
 _atom_site_fract_y
 _atom_site_fract_z
 _atom_site_occupancy
  Nb  Nb0  1  0.63726591  0.81863295  0.43136705  1
  Nb  Nb1  1  0.87779053  0.43889526  0.81110474  1
  Nb  Nb2  1  0.24732486  0.81294682  0.81709639  1
  Nb  Nb3  1  0.24732486  0.43437804  0.43557875  1
  Nb  Nb4  1  0.24732486  0.43437804  0.81709639  1
  Nb  Nb5  1  0.24732486  0.81294682  0.43557875  1
  Nb  Nb6  1  0.37811831  0.18905915  0.56094085  1
  Nb  Nb7  1  0.13376379  0.56688189  0.18311811  1
  Nb  Nb8  1  0.74690406  0.18388701  0.18559691  1
  Nb  Nb9  1  0.74690406  0.56301706  0.56749902  1
  Nb  Nb10  1  0.74690406  0.56301706  0.18559691  1
  Nb  Nb11  1  0.74690406  0.18388701  0.56749902  1
  V  V12  1  0.51064492  0.50310564  0.99467754  1
  V  V13  1  0.51064492  0.00753928  0.99467754  1
  V  V14  1  0.00277910  0.00138955  0.50637675  1
  V  V15  1  0.00277910  0.00138955  0.99084415  1
  V  V16  1  0.08841211  0.88210180  0.20579395  1
  V  V17  1  0.08841211  0.20631031  0.20579395  1
  Ni  Ni18  1  0.40641060  0.20320530  0.89303299  1
  Ni  Ni19  1  0.40641060  0.20320530  0.20055640  1
  Ni  Ni20  1  0.90161301  0.10556796  0.79919350  1
  Ni  Ni21  1  0.90161301  0.79604505  0.79919350  1
  Ni  Ni22  1  0.59212159  0.79606080  0.11151637  1
  Ni  Ni23  1  0.59212159  0.79606080  0.79636204  1
  C  C24  1  0.49940288  0.00030520  0.50029856  1
  C  C25  1  0.49940288  0.49909768  0.50029856  1
  C  C26  1  0.99668868  0.49834434  0.00307525  1
  C  C27  1  0.99668868  0.49834434  0.50023607  1
