# generated using pymatgen
data_Na9Sm(SiSe3)4
_symmetry_space_group_name_H-M   'P 1'
_cell_length_a   7.07114324
_cell_length_b   9.85792308
_cell_length_c   9.85792308
_cell_angle_alpha   76.61943584
_cell_angle_beta   96.76784371
_cell_angle_gamma   96.76784371
_symmetry_Int_Tables_number   1
_chemical_formula_structural   Na9Sm(SiSe3)4
_chemical_formula_sum   'Na9 Sm1 Si4 Se12'
_cell_volume   660.92826469
_cell_formula_units_Z   1
loop_
 _symmetry_equiv_pos_site_id
 _symmetry_equiv_pos_as_xyz
  1  'x, y, z'
loop_
 _atom_site_type_symbol
 _atom_site_label
 _atom_site_symmetry_multiplicity
 _atom_site_fract_x
 _atom_site_fract_y
 _atom_site_fract_z
 _atom_site_occupancy
  Na  Na0  1  0.00319796  0.00237293  0.00146815  1
  Na  Na1  1  0.49680204  0.49853185  0.49762707  1
  Na  Na2  1  0.00133283  0.67388460  0.32679778  1
  Na  Na3  1  0.49866717  0.17320222  0.82611540  1
  Na  Na4  1  0.99847506  0.32359238  0.67056361  1
  Na  Na5  1  0.50152494  0.82943639  0.17640762  1
  Na  Na6  1  0.25000000  0.08548516  0.41451484  1
  Na  Na7  1  0.75000000  0.92232948  0.57767052  1
  Na  Na8  1  0.25000000  0.40921302  0.09078698  1
  Sm  Sm9  1  0.75000000  0.58215813  0.91784187  1
  Si  Si10  1  0.78235570  0.32402179  0.32948375  1
  Si  Si11  1  0.27164433  0.82827787  0.82366011  1
  Si  Si12  1  0.71764430  0.17051625  0.17597821  1
  Si  Si13  1  0.22835567  0.67633989  0.67172213  1
  Se  Se14  1  0.64310376  0.52840342  0.20707680  1
  Se  Se15  1  0.13910141  0.02996804  0.71998973  1
  Se  Se16  1  0.63425744  0.22241745  0.52776168  1
  Se  Se17  1  0.12412766  0.71141540  0.02263652  1
  Se  Se18  1  0.86574256  0.97223832  0.27758255  1
  Se  Se19  1  0.37587234  0.47736348  0.78858460  1
  Se  Se20  1  0.85689624  0.29292320  0.97159658  1
  Se  Se21  1  0.36089859  0.78001027  0.47003196  1
  Se  Se22  1  0.10279975  0.37651608  0.37394181  1
  Se  Se23  1  0.60044802  0.85976339  0.87643921  1
  Se  Se24  1  0.39720025  0.12605819  0.12348392  1
  Se  Se25  1  0.89955198  0.62356079  0.64023661  1
