# generated using pymatgen
data_NaBi3(BrO2)2
_symmetry_space_group_name_H-M   'P 1'
_cell_length_a   5.63426861
_cell_length_b   5.63169009
_cell_length_c   6.99968581
_cell_angle_alpha   90.00000000
_cell_angle_beta   66.26758031
_cell_angle_gamma   90.00000000
_symmetry_Int_Tables_number   1
_chemical_formula_structural   NaBi3(BrO2)2
_chemical_formula_sum   'Na1 Bi3 Br2 O4'
_cell_volume   203.32105793
_cell_formula_units_Z   1
loop_
 _symmetry_equiv_pos_site_id
 _symmetry_equiv_pos_as_xyz
  1  'x, y, z'
loop_
 _atom_site_type_symbol
 _atom_site_label
 _atom_site_symmetry_multiplicity
 _atom_site_fract_x
 _atom_site_fract_y
 _atom_site_fract_z
 _atom_site_occupancy
  Na  Na0  1  0.65462445  0.50000000  0.69075110  1
  Bi  Bi1  1  0.16159597  -0.00000000  0.67680805  1
  Bi  Bi2  1  0.83751696  -0.00000000  0.32496608  1
  Bi  Bi3  1  0.33810841  0.50000000  0.32378319  1
  Br  Br4  1  0.50314655  -0.00000000  0.99370690  1
  Br  Br5  1  0.99760077  0.50000000  0.00479845  1
  O  O6  1  0.49444813  0.24291934  0.49629656  1
  O  O7  1  0.00925531  0.75708066  0.49629656  1
  O  O8  1  0.00925531  0.24291934  0.49629656  1
  O  O9  1  0.49444813  0.75708066  0.49629656  1
