# generated using pymatgen
data_Na5SrTaP4
_symmetry_space_group_name_H-M   'P 1'
_cell_length_a   7.37416640
_cell_length_b   9.34683554
_cell_length_c   9.34683554
_cell_angle_alpha   120.01531143
_cell_angle_beta   90.09268622
_cell_angle_gamma   90.09268622
_symmetry_Int_Tables_number   1
_chemical_formula_structural   Na5SrTaP4
_chemical_formula_sum   'Na10 Sr2 Ta2 P8'
_cell_volume   557.83205412
_cell_formula_units_Z   2
loop_
 _symmetry_equiv_pos_site_id
 _symmetry_equiv_pos_as_xyz
  1  'x, y, z'
loop_
 _atom_site_type_symbol
 _atom_site_label
 _atom_site_symmetry_multiplicity
 _atom_site_fract_x
 _atom_site_fract_y
 _atom_site_fract_z
 _atom_site_occupancy
  Na  Na0  1  0.38765401  0.53389390  0.47141904  1
  Na  Na1  1  0.38761553  0.93697240  0.47030221  1
  Na  Na2  1  0.88765401  0.47141904  0.53389390  1
  Na  Na3  1  0.88761553  0.47030221  0.93697240  1
  Na  Na4  1  0.21744706  0.13925412  0.85324869  1
  Na  Na5  1  0.21367774  0.71142975  0.85012007  1
  Na  Na6  1  0.22121338  0.14636678  0.28931670  1
  Na  Na7  1  0.71744706  0.85324869  0.13925412  1
  Na  Na8  1  0.72121338  0.28931670  0.14636678  1
  Na  Na9  1  0.71367774  0.85012007  0.71142975  1
  Sr  Sr10  1  0.39122699  0.53273623  0.06349407  1
  Sr  Sr11  1  0.89122699  0.06349407  0.53273623  1
  Ta  Ta12  1  0.49993225  0.33298909  0.66270627  1
  Ta  Ta13  1  0.99993225  0.66270627  0.33298909  1
  P  P14  1  0.10343101  0.80816680  0.19430692  1
  P  P15  1  0.10592732  0.38412030  0.19109314  1
  P  P16  1  0.10044062  0.80995623  0.61505914  1
  P  P17  1  0.60343101  0.19430692  0.80816680  1
  P  P18  1  0.60044062  0.61505914  0.80995623  1
  P  P19  1  0.60592732  0.19109314  0.38412030  1
  P  P20  1  0.17433410  0.33357551  0.66947265  1
  P  P21  1  0.67433410  0.66947265  0.33357551  1
