# generated using pymatgen
data_Li9Mn2Co5O16
_symmetry_space_group_name_H-M   'P 1'
_cell_length_a   5.03456089
_cell_length_b   5.88952369
_cell_length_c   9.69748993
_cell_angle_alpha   83.32420591
_cell_angle_beta   85.73351424
_cell_angle_gamma   87.04690970
_symmetry_Int_Tables_number   1
_chemical_formula_structural   Li9Mn2Co5O16
_chemical_formula_sum   'Li9 Mn2 Co5 O16'
_cell_volume   284.53398330
_cell_formula_units_Z   1
loop_
 _symmetry_equiv_pos_site_id
 _symmetry_equiv_pos_as_xyz
  1  'x, y, z'
loop_
 _atom_site_type_symbol
 _atom_site_label
 _atom_site_symmetry_multiplicity
 _atom_site_fract_x
 _atom_site_fract_y
 _atom_site_fract_z
 _atom_site_occupancy
  Li  Li0  1  0.62178957  0.93464306  0.25241104  1
  Li  Li1  1  0.38852508  0.56769016  0.74131535  1
  Li  Li2  1  0.12511736  0.18186081  0.25441949  1
  Li  Li3  1  0.10508977  0.68164814  0.26028231  1
  Li  Li4  1  0.87317943  0.31871460  0.74814436  1
  Li  Li5  1  0.63034895  0.43800426  0.25384638  1
  Li  Li6  1  0.38116952  0.06966405  0.74424268  1
  Li  Li7  1  0.87465298  0.80691845  0.74582744  1
  Li  Li8  1  0.74873123  0.62451134  0.49958626  1
  Mn  Mn9  1  -0.00081702  0.00328780  -0.00017222  1
  Mn  Mn10  1  0.49954466  0.74642232  0.00036007  1
  Co  Co11  1  0.49995904  0.25130743  0.99887982  1
  Co  Co12  1  0.25609678  0.87102151  0.50108717  1
  Co  Co13  1  0.00039348  0.49831766  0.00083086  1
  Co  Co14  1  0.75040419  0.12530515  0.50060271  1
  Co  Co15  1  0.24446393  0.37993433  0.49869386  1
  O  O16  1  0.79612741  0.21001989  0.11733120  1
  O  O17  1  0.54339437  0.85159484  0.61139581  1
  O  O18  1  0.29961116  0.44903857  0.11485941  1
  O  O19  1  0.30478226  0.95639800  0.11718378  1
  O  O20  1  0.09799057  0.60343952  0.60693309  1
  O  O21  1  0.80133185  0.70037570  0.12027139  1
  O  O22  1  0.55440223  0.33669756  0.60867196  1
  O  O23  1  0.08462442  0.10940412  0.60794768  1
  O  O24  1  0.40239879  0.64748507  0.39171029  1
  O  O25  1  0.20109862  0.30006091  0.88459114  1
  O  O26  1  0.94554078  0.91473135  0.39132885  1
  O  O27  1  0.95800315  0.39730996  0.38861197  1
  O  O28  1  0.69791317  0.04937370  0.88047560  1
  O  O29  1  0.41628901  0.14114325  0.39294890  1
  O  O30  1  0.19374180  0.79228453  0.88340119  1
  O  O31  1  0.70410144  0.54139199  0.88198016  1
