# generated using pymatgen
data_MnZn4Se5
_symmetry_space_group_name_H-M   'P 1'
_cell_length_a   4.08194224
_cell_length_b   9.13230588
_cell_length_c   7.06992504
_cell_angle_alpha   104.97471953
_cell_angle_beta   106.77915303
_cell_angle_gamma   77.08595036
_symmetry_Int_Tables_number   1
_chemical_formula_structural   MnZn4Se5
_chemical_formula_sum   'Mn1 Zn4 Se5'
_cell_volume   240.58028815
_cell_formula_units_Z   1
loop_
 _symmetry_equiv_pos_site_id
 _symmetry_equiv_pos_as_xyz
  1  'x, y, z'
loop_
 _atom_site_type_symbol
 _atom_site_label
 _atom_site_symmetry_multiplicity
 _atom_site_fract_x
 _atom_site_fract_y
 _atom_site_fract_z
 _atom_site_occupancy
  Mn  Mn0  1  0.99952833  0.00073904  0.99979570  1
  Zn  Zn1  1  0.39937109  0.40169078  0.20043297  1
  Zn  Zn2  1  0.80103682  0.79869769  0.40077134  1
  Zn  Zn3  1  0.19939667  0.20118025  0.59997359  1
  Zn  Zn4  1  0.60040803  0.59814126  0.79895731  1
  Se  Se5  1  0.20041038  0.44927155  0.85009231  1
  Se  Se6  1  0.60313781  0.84476758  0.05104319  1
  Se  Se7  1  0.99930243  0.25401485  0.25261972  1
  Se  Se8  1  0.40041746  0.65071477  0.45154969  1
  Se  Se9  1  0.79699097  0.05078223  0.64476417  1
