# generated using pymatgen
data_MnZnSe2
_symmetry_space_group_name_H-M   'P 1'
_cell_length_a   4.12654087
_cell_length_b   4.12654087
_cell_length_c   7.12873845
_cell_angle_alpha   73.17617485
_cell_angle_beta   90.00000000
_cell_angle_gamma   120.00000000
_symmetry_Int_Tables_number   1
_chemical_formula_structural   MnZnSe2
_chemical_formula_sum   'Mn1 Zn1 Se2'
_cell_volume   99.08255392
_cell_formula_units_Z   1
loop_
 _symmetry_equiv_pos_site_id
 _symmetry_equiv_pos_as_xyz
  1  'x, y, z'
loop_
 _atom_site_type_symbol
 _atom_site_label
 _atom_site_symmetry_multiplicity
 _atom_site_fract_x
 _atom_site_fract_y
 _atom_site_fract_z
 _atom_site_occupancy
  Mn  Mn0  1  0.99967142  0.99934283  0.00098575  1
  Zn  Zn1  1  0.49990092  0.99980183  0.50029725  1
  Se  Se2  1  0.87364249  0.74728499  0.37907252  1
  Se  Se3  1  0.37678517  0.75357035  0.86964448  1
