# generated using pymatgen
data_Na10B18H6O35
_symmetry_space_group_name_H-M   'P 1'
_cell_length_a   6.75243850
_cell_length_b   9.46692900
_cell_length_c   11.93288564
_cell_angle_alpha   83.41907837
_cell_angle_beta   75.52055157
_cell_angle_gamma   81.46539704
_symmetry_Int_Tables_number   1
_chemical_formula_structural   Na10B18H6O35
_chemical_formula_sum   'Na10 B18 H6 O35'
_cell_volume   728.00412967
_cell_formula_units_Z   1
loop_
 _symmetry_equiv_pos_site_id
 _symmetry_equiv_pos_as_xyz
  1  'x, y, z'
loop_
 _atom_site_type_symbol
 _atom_site_label
 _atom_site_symmetry_multiplicity
 _atom_site_fract_x
 _atom_site_fract_y
 _atom_site_fract_z
 _atom_site_occupancy
  Na  Na0  1  0.38883208  0.80967247  0.06354210  1
  Na  Na1  1  0.60552768  0.18676043  0.94209951  1
  Na  Na2  1  0.58922832  0.82281857  0.37789898  1
  Na  Na3  1  0.39874329  0.15508416  0.61330000  1
  Na  Na4  1  0.76126615  0.57858997  0.90575394  1
  Na  Na5  1  0.24391520  0.42416270  0.09214009  1
  Na  Na6  1  0.02014929  0.94163246  0.76912570  1
  Na  Na7  1  0.99588729  0.03601209  0.23041771  1
  Na  Na8  1  0.22401751  0.55871614  0.61148757  1
  Na  Na9  1  0.78168321  0.46028350  0.38230971  1
  B  B10  1  0.74852803  0.57608365  0.16105742  1
  B  B11  1  0.25182040  0.42195855  0.83667280  1
  B  B12  1  0.04918339  0.72937767  0.42734383  1
  B  B13  1  0.95066757  0.30568431  0.56801260  1
  B  B14  1  0.36762086  0.62714294  0.29320068  1
  B  B15  1  0.62978205  0.37141261  0.70931593  1
  B  B16  1  0.77263463  0.76041669  0.61671531  1
  B  B17  1  0.22240548  0.23090560  0.38277120  1
  B  B18  1  0.02793456  0.66081530  0.23194586  1
  B  B19  1  0.96924482  0.33242834  0.77380674  1
  B  B20  1  0.39819450  0.84403030  0.64942014  1
  B  B21  1  0.59722656  0.16441918  0.35170437  1
  B  B22  1  0.88672505  0.80057392  0.07037615  1
  B  B23  1  0.11550726  0.19593055  0.93371074  1
  B  B24  1  0.56774278  0.87269075  0.79687021  1
  B  B25  1  0.43476663  0.12478662  0.20477799  1
  B  B26  1  0.35089383  0.67142154  0.82771637  1
  B  B27  1  0.64863371  0.32952028  0.17288668  1
  H  H28  1  0.70740862  0.93231436  0.91655327  1
  H  H29  1  0.29583032  0.06674702  0.08457997  1
  H  H30  1  0.99363061  0.99052768  0.99906900  1
  H  H31  1  0.20786103  0.88965993  0.52527497  1
  H  H32  1  0.80091410  0.16252124  0.45181638  1
  H  H33  1  0.93799884  0.94423227  0.43124423  1
  O  O34  1  0.26050998  0.62271776  0.20914621  1
  O  O35  1  0.73875239  0.37400465  0.79162539  1
  O  O36  1  0.75341113  0.70174097  0.07170578  1
  O  O37  1  0.24977223  0.29807404  0.92503686  1
  O  O38  1  0.29489721  0.72076428  0.72510698  1
  O  O39  1  0.70248686  0.28368320  0.27691126  1
  O  O40  1  0.26185186  0.92961392  0.58302467  1
  O  O41  1  0.72172112  0.09410082  0.43257674  1
  O  O42  1  0.94464468  0.54524310  0.19395288  1
  O  O43  1  0.05782752  0.45070066  0.79990910  1
  O  O44  1  0.58013982  0.61174222  0.26827078  1
  O  O45  1  0.42144587  0.38766127  0.72802032  1
  O  O46  1  0.43322134  0.94310669  0.72556712  1
  O  O47  1  0.56671247  0.05830161  0.28076353  1
  O  O48  1  0.29486748  0.54436266  0.88865846  1
  O  O49  1  0.70437972  0.45416317  0.10837596  1
  O  O50  1  0.76942876  0.80462096  0.72409935  1
  O  O51  1  0.22618264  0.18957172  0.27642884  1
  O  O52  1  0.99687182  0.79649982  0.15415250  1
  O  O53  1  0.99966663  0.20146977  0.84995887  1
  O  O54  1  0.47036231  0.74623808  0.87326677  1
  O  O55  1  0.52812067  0.25241537  0.13031658  1
  O  O56  1  0.90966386  0.90706644  0.98083063  1
  O  O57  1  0.09672408  0.09216522  0.02209757  1
  O  O58  1  0.59518783  0.77789119  0.57529856  1
  O  O59  1  0.39395464  0.23224703  0.42274241  1
  O  O60  1  0.26756193  0.65559050  0.40600016  1
  O  O61  1  0.73677874  0.34343022  0.59451423  1
  O  O62  1  0.95580610  0.69632150  0.55236476  1
  O  O63  1  0.02580268  0.27752594  0.45270254  1
  O  O64  1  0.60816541  0.97345167  0.86877987  1
  O  O65  1  0.40135321  0.02570739  0.12992654  1
  O  O66  1  0.93435776  0.68091971  0.35378483  1
  O  O67  1  0.06287191  0.29796582  0.64822475  1
  O  O68  1  0.07119170  0.88528682  0.40484007  1
