# generated using pymatgen
data_Na4Ca2SiP4
_symmetry_space_group_name_H-M   'P 1'
_cell_length_a   6.98563989
_cell_length_b   9.15324903
_cell_length_c   9.20953086
_cell_angle_alpha   59.79657285
_cell_angle_beta   92.04980442
_cell_angle_gamma   91.03159206
_symmetry_Int_Tables_number   1
_chemical_formula_structural   Na4Ca2SiP4
_chemical_formula_sum   'Na8 Ca4 Si2 P8'
_cell_volume   508.60160013
_cell_formula_units_Z   2
loop_
 _symmetry_equiv_pos_site_id
 _symmetry_equiv_pos_as_xyz
  1  'x, y, z'
loop_
 _atom_site_type_symbol
 _atom_site_label
 _atom_site_symmetry_multiplicity
 _atom_site_fract_x
 _atom_site_fract_y
 _atom_site_fract_z
 _atom_site_occupancy
  Na  Na0  1  0.38916711  0.52980407  0.52652878  1
  Na  Na1  1  0.88919928  0.47018362  0.05637221  1
  Na  Na2  1  0.18764018  0.14288619  0.13773008  1
  Na  Na3  1  0.21844735  0.15179452  0.71250140  1
  Na  Na4  1  0.20472075  0.71045455  0.15039754  1
  Na  Na5  1  0.71844258  0.84819229  0.86428973  1
  Na  Na6  1  0.68764280  0.85711519  0.28060965  1
  Na  Na7  1  0.70471196  0.28956675  0.86086187  1
  Ca  Ca8  1  0.38824921  0.52413689  0.94747075  1
  Ca  Ca9  1  0.38609217  0.94888676  0.52064370  1
  Ca  Ca10  1  0.88824020  0.47586427  0.47161170  1
  Ca  Ca11  1  0.88609138  0.05111159  0.46953192  1
  Si  Si12  1  0.50040048  0.33327012  0.33726739  1
  Si  Si13  1  0.00039836  0.66672994  0.67054383  1
  P  P14  1  0.17180188  0.32434406  0.33989363  1
  P  P15  1  0.67179926  0.67566317  0.66424133  1
  P  P16  1  0.12383830  0.80959190  0.79720250  1
  P  P17  1  0.08987649  0.80544382  0.39385886  1
  P  P18  1  0.10376165  0.39541355  0.79846890  1
  P  P19  1  0.58988543  0.19455113  0.19930428  1
  P  P20  1  0.62383137  0.19040904  0.60679198  1
  P  P21  1  0.60376182  0.60458657  0.19387797  1
