# generated using pymatgen
data_Li9Mn2Co5O16
_symmetry_space_group_name_H-M   'P 1'
_cell_length_a   5.76904810
_cell_length_b   8.50583171
_cell_length_c   6.52856157
_cell_angle_alpha   90.27360480
_cell_angle_beta   116.22079403
_cell_angle_gamma   89.99999816
_symmetry_Int_Tables_number   1
_chemical_formula_structural   Li9Mn2Co5O16
_chemical_formula_sum   'Li9 Mn2 Co5 O16'
_cell_volume   287.39037763
_cell_formula_units_Z   1
loop_
 _symmetry_equiv_pos_site_id
 _symmetry_equiv_pos_as_xyz
  1  'x, y, z'
loop_
 _atom_site_type_symbol
 _atom_site_label
 _atom_site_symmetry_multiplicity
 _atom_site_fract_x
 _atom_site_fract_y
 _atom_site_fract_z
 _atom_site_occupancy
  Li  Li0  1  0.62283495  0.26052386  0.74805959  1
  Li  Li1  1  0.37477536  0.73947614  0.25194041  1
  Li  Li2  1  0.12522464  0.26052386  0.74805959  1
  Li  Li3  1  0.50011223  0.50123948  0.00022447  1
  Li  Li4  1  0.25000000  0.00000000  0.50000000  1
  Li  Li5  1  -0.00011223  0.49876052  -0.00022447  1
  Li  Li6  1  0.87716505  0.73947614  0.25194041  1
  Li  Li7  1  0.75000000  0.00000000  0.50000000  1
  Li  Li8  1  0.25000000  0.50000000  0.50000000  1
  Mn  Mn9  1  0.00043169  0.00243368  0.00086338  1
  Mn  Mn10  1  0.49956831  0.99756632  -0.00086338  1
  Co  Co11  1  0.75000000  0.50000000  0.50000000  1
  Co  Co12  1  0.61837906  0.73833689  0.74439895  1
  Co  Co13  1  0.37398010  0.26166311  0.25560105  1
  Co  Co14  1  0.12601990  0.73833689  0.74439895  1
  Co  Co15  1  0.88162094  0.26166311  0.25560105  1
  O  O16  1  0.63769907  -0.00077536  0.77149344  1
  O  O17  1  0.40245401  0.49262014  0.26823492  1
  O  O18  1  0.13379437  -0.00077536  0.77149344  1
  O  O19  1  0.51165495  0.24363822  0.02330990  1
  O  O20  1  0.26156270  0.75804358  0.52312539  1
  O  O21  1  0.00532392  0.24535729  0.01064784  1
  O  O22  1  0.86578091  0.49262014  0.26823492  1
  O  O23  1  0.75231320  0.72883514  0.50462641  1
  O  O24  1  0.63421909  0.50737986  0.73176508  1
  O  O25  1  0.36620563  0.00077536  0.22850656  1
  O  O26  1  0.09754599  0.50737986  0.73176508  1
  O  O27  1  0.49467608  0.75464271  0.98935216  1
  O  O28  1  0.23843730  0.24195642  0.47687461  1
  O  O29  1  0.98834505  0.75636178  0.97669010  1
  O  O30  1  0.86230093  0.00077536  0.22850656  1
  O  O31  1  0.74768680  0.27116486  0.49537359  1
