# generated using pymatgen
data_Na4Sr2SiP4
_symmetry_space_group_name_H-M   'P 1'
_cell_length_a   7.31343831
_cell_length_b   9.31762740
_cell_length_c   9.34787767
_cell_angle_alpha   59.89209388
_cell_angle_beta   90.54889638
_cell_angle_gamma   90.27539977
_symmetry_Int_Tables_number   1
_chemical_formula_structural   Na4Sr2SiP4
_chemical_formula_sum   'Na8 Sr4 Si2 P8'
_cell_volume   551.03275359
_cell_formula_units_Z   2
loop_
 _symmetry_equiv_pos_site_id
 _symmetry_equiv_pos_as_xyz
  1  'x, y, z'
loop_
 _atom_site_type_symbol
 _atom_site_label
 _atom_site_symmetry_multiplicity
 _atom_site_fract_x
 _atom_site_fract_y
 _atom_site_fract_z
 _atom_site_occupancy
  Na  Na0  1  0.38728479  0.52674633  0.52645914  1
  Na  Na1  1  0.88728742  0.47325818  0.05320445  1
  Na  Na2  1  0.19605128  0.14323173  0.13651887  1
  Na  Na3  1  0.21775038  0.15264256  0.71365129  1
  Na  Na4  1  0.21206550  0.71084432  0.15113304  1
  Na  Na5  1  0.71774604  0.84738894  0.86626178  1
  Na  Na6  1  0.69607004  0.85674741  0.27975838  1
  Na  Na7  1  0.71206287  0.28915141  0.86199302  1
  Sr  Sr8  1  0.38592336  0.52089014  0.94884032  1
  Sr  Sr9  1  0.38624561  0.94479165  0.52117657  1
  Sr  Sr10  1  0.88592138  0.47910901  0.46973211  1
  Sr  Sr11  1  0.88625195  0.05520831  0.46596274  1
  Si  Si12  1  0.50089021  0.33567552  0.33767113  1
  Si  Si13  1  0.00089086  0.66432436  0.67335986  1
  P  P14  1  0.18424812  0.32497868  0.33674647  1
  P  P15  1  0.68424489  0.67501083  0.66175555  1
  P  P16  1  0.10409983  0.80590055  0.80223749  1
  P  P17  1  0.09237903  0.80149754  0.39495820  1
  P  P18  1  0.09704609  0.39440365  0.79979365  1
  P  P19  1  0.59238657  0.19850651  0.19645435  1
  P  P20  1  0.60410138  0.19409306  0.60814099  1
  P  P21  1  0.59705242  0.60559928  0.19419061  1
