# generated using pymatgen
data_NaCaMgCr(SiO3)4
_symmetry_space_group_name_H-M   'P 1'
_cell_length_a   5.32654896
_cell_length_b   6.62942464
_cell_length_c   6.62942464
_cell_angle_alpha   84.75066508
_cell_angle_beta   77.70986279
_cell_angle_gamma   77.70986279
_symmetry_Int_Tables_number   1
_chemical_formula_structural   NaCaMgCr(SiO3)4
_chemical_formula_sum   'Na1 Ca1 Mg1 Cr1 Si4 O12'
_cell_volume   223.22927708
_cell_formula_units_Z   1
loop_
 _symmetry_equiv_pos_site_id
 _symmetry_equiv_pos_as_xyz
  1  'x, y, z'
loop_
 _atom_site_type_symbol
 _atom_site_label
 _atom_site_symmetry_multiplicity
 _atom_site_fract_x
 _atom_site_fract_y
 _atom_site_fract_z
 _atom_site_occupancy
  Na  Na0  1  0.75000000  0.69941353  0.30058647  1
  Ca  Ca1  1  0.25000000  0.30165872  0.69834128  1
  Mg  Mg2  1  0.75000000  0.09164661  0.90835339  1
  Cr  Cr3  1  0.25000000  0.90548237  0.09451763  1
  Si  Si4  1  0.72723971  0.62045565  0.80447228  1
  Si  Si5  1  0.77276029  0.19552772  0.37954435  1
  Si  Si6  1  0.26722588  0.38263447  0.19735769  1
  Si  Si7  1  0.23277412  0.80264231  0.61736553  1
  O  O8  1  0.63104218  0.80356261  0.96872670  1
  O  O9  1  0.86895782  0.03127330  0.19643739  1
  O  O10  1  0.35215343  0.19785515  0.03263249  1
  O  O11  1  0.14784657  0.96736751  0.80214485  1
  O  O12  1  0.49818717  0.63129193  0.66331180  1
  O  O13  1  0.00181283  0.33668820  0.36870807  1
  O  O14  1  0.49774511  0.36193280  0.33775581  1
  O  O15  1  0.00225489  0.66224419  0.63806720  1
  O  O16  1  0.81480108  0.38752206  0.88923170  1
  O  O17  1  0.68519892  0.11076830  0.61247794  1
  O  O18  1  0.19170953  0.61508752  0.10505495  1
  O  O19  1  0.30829047  0.89494505  0.38491248  1
