# generated using pymatgen
data_Li2ZnCu3
_symmetry_space_group_name_H-M   'P 1'
_cell_length_a   4.94543095
_cell_length_b   4.94543095
_cell_length_c   4.97054453
_cell_angle_alpha   90.00000000
_cell_angle_beta   60.16699446
_cell_angle_gamma   120.00000000
_symmetry_Int_Tables_number   1
_chemical_formula_structural   Li2ZnCu3
_chemical_formula_sum   'Li2 Zn1 Cu3'
_cell_volume   86.17650331
_cell_formula_units_Z   1
loop_
 _symmetry_equiv_pos_site_id
 _symmetry_equiv_pos_as_xyz
  1  'x, y, z'
loop_
 _atom_site_type_symbol
 _atom_site_label
 _atom_site_symmetry_multiplicity
 _atom_site_fract_x
 _atom_site_fract_y
 _atom_site_fract_z
 _atom_site_occupancy
  Li  Li0  1  0.50092036  0.75046018  0.74861946  1
  Li  Li1  1  0.99907964  0.99953982  0.00138054  1
  Zn  Zn2  1  0.75000000  0.37500000  0.87500000  1
  Cu  Cu3  1  0.25000000  0.37500000  0.37500000  1
  Cu  Cu4  1  0.25000000  0.87500000  0.37500000  1
  Cu  Cu5  1  0.75000000  0.37500000  0.37500000  1
