# generated using pymatgen
data_LaTiSbO6
_symmetry_space_group_name_H-M   'P 1'
_cell_length_a   5.18680645
_cell_length_b   5.29089471
_cell_length_c   5.29087449
_cell_angle_alpha   119.99987258
_cell_angle_beta   89.99839372
_cell_angle_gamma   90.00080311
_symmetry_Int_Tables_number   1
_chemical_formula_structural   LaTiSbO6
_chemical_formula_sum   'La1 Ti1 Sb1 O6'
_cell_volume   125.74415588
_cell_formula_units_Z   1
loop_
 _symmetry_equiv_pos_site_id
 _symmetry_equiv_pos_as_xyz
  1  'x, y, z'
loop_
 _atom_site_type_symbol
 _atom_site_label
 _atom_site_symmetry_multiplicity
 _atom_site_fract_x
 _atom_site_fract_y
 _atom_site_fract_z
 _atom_site_occupancy
  La  La0  1  0.00000000  -0.00002859  -0.00001429  1
  Ti  Ti1  1  0.50000000  0.66667247  0.33333624  1
  Sb  Sb2  1  0.50000000  0.33334330  0.66667165  1
  O  O3  1  0.28564655  0.37604268  0.37283064  1
  O  O4  1  0.28565197  0.62717359  0.00321790  1
  O  O5  1  0.28566304  0.99679014  0.62395453  1
  O  O6  1  0.71434803  0.62717359  0.62395569  1
  O  O7  1  0.71435345  0.37604268  0.00321204  1
  O  O8  1  0.71433696  0.99679014  0.37283561  1
