# generated using pymatgen
data_Li9Mn2Co5O16
_symmetry_space_group_name_H-M   'P 1'
_cell_length_a   2.95660873
_cell_length_b   19.86719110
_cell_length_c   5.08645615
_cell_angle_alpha   92.46641299
_cell_angle_beta   76.16928669
_cell_angle_gamma   87.86122377
_symmetry_Int_Tables_number   1
_chemical_formula_structural   Li9Mn2Co5O16
_chemical_formula_sum   'Li9 Mn2 Co5 O16'
_cell_volume   289.49533642
_cell_formula_units_Z   1
loop_
 _symmetry_equiv_pos_site_id
 _symmetry_equiv_pos_as_xyz
  1  'x, y, z'
loop_
 _atom_site_type_symbol
 _atom_site_label
 _atom_site_symmetry_multiplicity
 _atom_site_fract_x
 _atom_site_fract_y
 _atom_site_fract_z
 _atom_site_occupancy
  Li  Li0  1  0.67091502  0.06179288  0.57680161  1
  Li  Li1  1  0.06625586  0.18720159  0.68464023  1
  Li  Li2  1  0.43461110  0.31457163  0.81095548  1
  Li  Li3  1  0.81673940  0.43679172  0.94089809  1
  Li  Li4  1  0.18136271  0.56533892  0.06034461  1
  Li  Li5  1  0.55595410  0.68944979  0.18738175  1
  Li  Li6  1  0.93292015  0.81436302  0.29705806  1
  Li  Li7  1  0.34998234  0.93125936  0.42896430  1
  Li  Li8  1  0.59909165  0.87360140  0.89329129  1
  Mn  Mn9  1  0.00078275  0.99395553  0.00806826  1
  Mn  Mn10  1  0.49932370  0.50156284  0.50082541  1
  Co  Co11  1  0.38384102  0.12428596  0.12596518  1
  Co  Co12  1  0.75808424  0.25123603  0.24305905  1
  Co  Co13  1  0.13833050  0.37617801  0.37114844  1
  Co  Co14  1  0.86651803  0.62695429  0.62421467  1
  Co  Co15  1  0.23413908  0.75470104  0.74882936  1
  O  O16  1  0.38541308  0.02764428  0.25174285  1
  O  O17  1  0.72583223  0.15600013  0.38746629  1
  O  O18  1  0.10901422  0.28517765  0.50274123  1
  O  O19  1  0.45258059  0.40935199  0.63658222  1
  O  O20  1  0.82050011  0.53670479  0.76722336  1
  O  O21  1  0.19688208  0.66197943  0.87531065  1
  O  O22  1  0.56810382  0.77717605  0.00435343  1
  O  O23  1  0.96483167  0.91156901  0.15708300  1
  O  O24  1  0.03836817  0.09048500  0.86967688  1
  O  O25  1  0.40877567  0.21962728  0.98627886  1
  O  O26  1  0.81226307  0.34503092  0.11283215  1
  O  O27  1  0.17559453  0.46634236  0.23572453  1
  O  O28  1  0.54852751  0.59229201  0.35925696  1
  O  O29  1  0.91439950  0.71453946  0.49078955  1
  O  O30  1  0.28088603  0.83132071  0.59744644  1
  O  O31  1  0.60917810  0.97151794  0.76304576  1
