# generated using pymatgen
data_Li2InP2HO8
_symmetry_space_group_name_H-M   'P 1'
_cell_length_a   4.88222831
_cell_length_b   7.84321854
_cell_length_c   8.39402648
_cell_angle_alpha   90.00000000
_cell_angle_beta   90.00000000
_cell_angle_gamma   102.97488169
_symmetry_Int_Tables_number   1
_chemical_formula_structural   Li2InP2HO8
_chemical_formula_sum   'Li4 In2 P4 H2 O16'
_cell_volume   313.22078957
_cell_formula_units_Z   2
loop_
 _symmetry_equiv_pos_site_id
 _symmetry_equiv_pos_as_xyz
  1  'x, y, z'
loop_
 _atom_site_type_symbol
 _atom_site_label
 _atom_site_symmetry_multiplicity
 _atom_site_fract_x
 _atom_site_fract_y
 _atom_site_fract_z
 _atom_site_occupancy
  Li  Li0  1  0.88238403  0.34418090  0.63432209  1
  Li  Li1  1  0.39425870  0.83769744  0.86418038  1
  Li  Li2  1  0.10574130  0.66230256  0.36418038  1
  Li  Li3  1  0.61761597  0.15581910  0.13432209  1
  In  In4  1  0.99942245  0.50581761  0.00031432  1
  In  In5  1  0.50057755  0.99418239  0.50031432  1
  P  P6  1  0.36755041  0.23265208  0.84606995  1
  P  P7  1  0.86256380  0.72418731  0.65082486  1
  P  P8  1  0.63743620  0.77581269  0.15082486  1
  P  P9  1  0.13244959  0.26734792  0.34606995  1
  H  H10  1  0.04712297  0.01702761  0.98440592  1
  H  H11  1  0.45287703  0.48297239  0.48440592  1
  O  O12  1  0.49568785  0.19250773  0.68698269  1
  O  O13  1  0.99865113  0.69457649  0.81273640  1
  O  O14  1  0.50134887  0.80542351  0.31273640  1
  O  O15  1  0.00431215  0.30749227  0.18698269  1
  O  O16  1  0.24298627  0.04852662  0.92865410  1
  O  O17  1  0.73471313  0.54805091  0.56989298  1
  O  O18  1  0.76528687  0.95194909  0.06989298  1
  O  O19  1  0.25701373  0.45147338  0.42865410  1
  O  O20  1  0.13615588  0.33565573  0.82218241  1
  O  O21  1  0.64203895  0.83745482  0.68080289  1
  O  O22  1  0.85796105  0.66254518  0.18080289  1
  O  O23  1  0.36384412  0.16434427  0.32218241  1
  O  O24  1  0.59422663  0.32798035  0.96252078  1
  O  O25  1  0.09221266  0.82798080  0.53711022  1
  O  O26  1  0.40778734  0.67201920  0.03711022  1
  O  O27  1  0.90577337  0.17201965  0.46252078  1
