# generated using pymatgen
data_LaTaTiO6
_symmetry_space_group_name_H-M   'P 1'
_cell_length_a   5.48888546
_cell_length_b   7.61514091
_cell_length_c   11.08794264
_cell_angle_alpha   90.00000000
_cell_angle_beta   90.00000000
_cell_angle_gamma   90.00000000
_symmetry_Int_Tables_number   1
_chemical_formula_structural   LaTaTiO6
_chemical_formula_sum   'La4 Ta4 Ti4 O24'
_cell_volume   463.46088080
_cell_formula_units_Z   4
loop_
 _symmetry_equiv_pos_site_id
 _symmetry_equiv_pos_as_xyz
  1  'x, y, z'
loop_
 _atom_site_type_symbol
 _atom_site_label
 _atom_site_symmetry_multiplicity
 _atom_site_fract_x
 _atom_site_fract_y
 _atom_site_fract_z
 _atom_site_occupancy
  La  La0  1  0.54425805  0.24903473  0.04185397  1
  La  La1  1  0.95574195  0.24903473  0.54185397  1
  La  La2  1  0.45574195  0.74903473  0.95814603  1
  La  La3  1  0.04425805  0.74903473  0.45814603  1
  Ta  Ta4  1  0.53817942  0.00514075  0.35630570  1
  Ta  Ta5  1  0.46182058  0.50514075  0.64369430  1
  Ta  Ta6  1  0.03817942  0.50514075  0.14369430  1
  Ta  Ta7  1  0.96182058  0.00514075  0.85630570  1
  Ti  Ti8  1  0.96473886  0.49405879  0.85653601  1
  Ti  Ti9  1  0.03526114  0.99405879  0.14346399  1
  Ti  Ti10  1  0.46473886  0.99405879  0.64346399  1
  Ti  Ti11  1  0.53526114  0.49405879  0.35653601  1
  O  O12  1  0.95928064  0.24878671  0.14351861  1
  O  O13  1  0.54071936  0.24878671  0.64351861  1
  O  O14  1  0.04071936  0.74878671  0.85648139  1
  O  O15  1  0.45928064  0.74878671  0.35648139  1
  O  O16  1  0.36692216  0.05400522  0.21025641  1
  O  O17  1  0.12842360  0.44637569  0.71216558  1
  O  O18  1  0.63307784  0.55400522  0.78974359  1
  O  O19  1  0.87157640  0.94637569  0.28783442  1
  O  O20  1  0.62842360  0.94637569  0.78783442  1
  O  O21  1  0.86692216  0.55400522  0.28974359  1
  O  O22  1  0.37157640  0.44637569  0.21216558  1
  O  O23  1  0.13307784  0.05400522  0.71025641  1
  O  O24  1  0.85070059  0.25205795  0.87584835  1
  O  O25  1  0.64929941  0.25205795  0.37584835  1
  O  O26  1  0.14929941  0.75205795  0.12415165  1
  O  O27  1  0.35070059  0.75205795  0.62415165  1
  O  O28  1  0.76925141  0.53580373  0.02649620  1
  O  O29  1  0.72715180  0.96473644  0.52586130  1
  O  O30  1  0.23074859  0.03580373  0.97350380  1
  O  O31  1  0.27284820  0.46473644  0.47413870  1
  O  O32  1  0.22715180  0.46473644  0.97413870  1
  O  O33  1  0.26925141  0.03580373  0.47350380  1
  O  O34  1  0.77284820  0.96473644  0.02586130  1
  O  O35  1  0.73074859  0.53580373  0.52649620  1
