# generated using pymatgen
data_Li2Ga7
_symmetry_space_group_name_H-M   'P 1'
_cell_length_a   7.51632060
_cell_length_b   7.51358547
_cell_length_c   7.51358551
_cell_angle_alpha   69.30270919
_cell_angle_beta   69.46223422
_cell_angle_gamma   69.46223348
_symmetry_Int_Tables_number   1
_chemical_formula_structural   Li2Ga7
_chemical_formula_sum   'Li4 Ga14'
_cell_volume   359.03353157
_cell_formula_units_Z   2
loop_
 _symmetry_equiv_pos_site_id
 _symmetry_equiv_pos_as_xyz
  1  'x, y, z'
loop_
 _atom_site_type_symbol
 _atom_site_label
 _atom_site_symmetry_multiplicity
 _atom_site_fract_x
 _atom_site_fract_y
 _atom_site_fract_z
 _atom_site_occupancy
  Li  Li0  1  0.53249095  0.11822070  0.11822070  1
  Li  Li1  1  0.88363061  0.88283334  0.46714432  1
  Li  Li2  1  0.88363061  0.46714432  0.88283334  1
  Li  Li3  1  0.46620956  0.88224264  0.88224264  1
  Ga  Ga4  1  0.70877465  0.70072701  0.18367315  1
  Ga  Ga5  1  0.70877465  0.18367315  0.70072701  1
  Ga  Ga6  1  0.18218690  0.70582449  0.70582449  1
  Ga  Ga7  1  0.29441977  0.29911359  0.81428451  1
  Ga  Ga8  1  0.29441977  0.81428451  0.29911359  1
  Ga  Ga9  1  0.81764356  0.29698277  0.29698277  1
  Ga  Ga10  1  0.48671819  0.49104038  0.17476822  1
  Ga  Ga11  1  0.48671819  0.17476822  0.49104038  1
  Ga  Ga12  1  0.17217015  0.48828062  0.48828062  1
  Ga  Ga13  1  0.50813260  0.50908022  0.82665777  1
  Ga  Ga14  1  0.50813260  0.82665777  0.50908022  1
  Ga  Ga15  1  0.82784898  0.50886110  0.50886110  1
  Ga  Ga16  1  0.07728058  0.07820524  0.07820524  1
  Ga  Ga17  1  0.92461769  0.92025993  0.92025993  1
