# generated using pymatgen
data_Lu3MgNi8
_symmetry_space_group_name_H-M   'P 1'
_cell_length_a   4.95246505
_cell_length_b   4.95246505
_cell_length_c   8.58263511
_cell_angle_alpha   73.23083338
_cell_angle_beta   90.00000000
_cell_angle_gamma   120.00000000
_symmetry_Int_Tables_number   1
_chemical_formula_structural   Lu3MgNi8
_chemical_formula_sum   'Lu3 Mg1 Ni8'
_cell_volume   171.88883380
_cell_formula_units_Z   1
loop_
 _symmetry_equiv_pos_site_id
 _symmetry_equiv_pos_as_xyz
  1  'x, y, z'
loop_
 _atom_site_type_symbol
 _atom_site_label
 _atom_site_symmetry_multiplicity
 _atom_site_fract_x
 _atom_site_fract_y
 _atom_site_fract_z
 _atom_site_occupancy
  Lu  Lu0  1  0.12469764  0.24939527  0.62590709  1
  Lu  Lu1  1  0.99711293  0.99422586  0.00866121  1
  Lu  Lu2  1  0.50304582  0.00609164  0.49086254  1
  Mg  Mg3  1  0.62523911  0.25047822  0.12428267  1
  Ni  Ni4  1  0.06343991  0.62451710  0.31204299  1
  Ni  Ni5  1  0.56284118  0.62438619  0.81277263  1
  Ni  Ni6  1  0.06343991  0.12687982  0.31204299  1
  Ni  Ni7  1  0.56284118  0.12568236  0.81277263  1
  Ni  Ni8  1  0.31228227  0.62456455  0.06315318  1
  Ni  Ni9  1  0.81243784  0.62487569  0.56268647  1
  Ni  Ni10  1  0.56107719  0.62451710  0.31204299  1
  Ni  Ni11  1  0.06154501  0.62438619  0.81277263  1
