# generated using pymatgen
data_La4CePd15
_symmetry_space_group_name_H-M   'P 1'
_cell_length_a   4.21879475
_cell_length_b   4.21879475
_cell_length_c   21.08898872
_cell_angle_alpha   90.00000000
_cell_angle_beta   90.00000000
_cell_angle_gamma   90.00000000
_symmetry_Int_Tables_number   1
_chemical_formula_structural   La4CePd15
_chemical_formula_sum   'La4 Ce1 Pd15'
_cell_volume   375.34665362
_cell_formula_units_Z   1
loop_
 _symmetry_equiv_pos_site_id
 _symmetry_equiv_pos_as_xyz
  1  'x, y, z'
loop_
 _atom_site_type_symbol
 _atom_site_label
 _atom_site_symmetry_multiplicity
 _atom_site_fract_x
 _atom_site_fract_y
 _atom_site_fract_z
 _atom_site_occupancy
  La  La0  1  -0.00000000  -0.00000000  0.20093495  1
  La  La1  1  0.00000000  -0.00000000  0.40029834  1
  La  La2  1  -0.00000000  -0.00000000  0.59970166  1
  La  La3  1  0.00000000  -0.00000000  0.79906505  1
  Ce  Ce4  1  -0.00000000  -0.00000000  -0.00000000  1
  Pd  Pd5  1  0.50000000  0.50000000  -0.00000000  1
  Pd  Pd6  1  0.50000000  0.50000000  0.19958392  1
  Pd  Pd7  1  0.50000000  0.50000000  0.39993195  1
  Pd  Pd8  1  0.50000000  0.50000000  0.60006805  1
  Pd  Pd9  1  0.50000000  0.50000000  0.80041608  1
  Pd  Pd10  1  0.50000000  -0.00000000  0.09735529  1
  Pd  Pd11  1  0.50000000  -0.00000000  0.29976234  1
  Pd  Pd12  1  0.50000000  -0.00000000  0.50000000  1
  Pd  Pd13  1  0.50000000  -0.00000000  0.70023766  1
  Pd  Pd14  1  0.50000000  -0.00000000  0.90264471  1
  Pd  Pd15  1  -0.00000000  0.50000000  0.09735529  1
  Pd  Pd16  1  -0.00000000  0.50000000  0.29976234  1
  Pd  Pd17  1  -0.00000000  0.50000000  0.50000000  1
  Pd  Pd18  1  0.00000000  0.50000000  0.70023766  1
  Pd  Pd19  1  0.00000000  0.50000000  0.90264471  1
