# generated using pymatgen
data_La4Bi4S8O3F
_symmetry_space_group_name_H-M   'P 1'
_cell_length_a   5.77401609
_cell_length_b   5.77401609
_cell_length_c   14.32659588
_cell_angle_alpha   78.37449892
_cell_angle_beta   78.37449892
_cell_angle_gamma   90.00000000
_symmetry_Int_Tables_number   1
_chemical_formula_structural   La4Bi4S8O3F
_chemical_formula_sum   'La4 Bi4 S8 O3 F1'
_cell_volume   457.83160938
_cell_formula_units_Z   1
loop_
 _symmetry_equiv_pos_site_id
 _symmetry_equiv_pos_as_xyz
  1  'x, y, z'
loop_
 _atom_site_type_symbol
 _atom_site_label
 _atom_site_symmetry_multiplicity
 _atom_site_fract_x
 _atom_site_fract_y
 _atom_site_fract_z
 _atom_site_occupancy
  La  La0  1  0.19086150  0.94086150  0.59663895  1
  La  La1  1  0.71249955  0.46249955  0.59663895  1
  La  La2  1  0.28750045  0.55913850  0.40336105  1
  La  La3  1  0.80913850  0.03750045  0.40336105  1
  Bi  Bi4  1  0.06237709  0.31199055  0.87563235  1
  Bi  Bi5  1  0.56199055  0.81237709  0.87563235  1
  Bi  Bi6  1  0.43800945  0.18800945  0.12436765  1
  Bi  Bi7  1  0.93762291  0.68762291  0.12436765  1
  S  S8  1  0.05875417  0.80875417  0.88170537  1
  S  S9  1  0.55954046  0.30954046  0.88170537  1
  S  S10  1  0.44045954  0.69124583  0.11829463  1
  S  S11  1  0.94124583  0.19045954  0.11829463  1
  S  S12  1  0.15758588  0.40505380  0.68736033  1
  S  S13  1  0.65505380  0.90758588  0.68736033  1
  S  S14  1  0.34494620  0.09494620  0.31263967  1
  S  S15  1  0.84241412  0.59241412  0.31263967  1
  O  O16  1  -0.00000000  0.75000000  0.50000000  1
  O  O17  1  -0.00000000  0.25000000  0.50000000  1
  O  O18  1  0.50000000  0.75000000  0.50000000  1
  F  F19  1  0.50000000  0.25000000  0.50000000  1
