# generated using pymatgen
data_LiU4As3O20
_symmetry_space_group_name_H-M   'P 1'
_cell_length_a   7.30452050
_cell_length_b   7.30452050
_cell_length_c   17.98000606
_cell_angle_alpha   78.28000582
_cell_angle_beta   78.28000582
_cell_angle_gamma   90.00000000
_symmetry_Int_Tables_number   1
_chemical_formula_structural   LiU4As3O20
_chemical_formula_sum   'Li2 U8 As6 O40'
_cell_volume   918.90561111
_cell_formula_units_Z   2
loop_
 _symmetry_equiv_pos_site_id
 _symmetry_equiv_pos_as_xyz
  1  'x, y, z'
loop_
 _atom_site_type_symbol
 _atom_site_label
 _atom_site_symmetry_multiplicity
 _atom_site_fract_x
 _atom_site_fract_y
 _atom_site_fract_z
 _atom_site_occupancy
  Li  Li0  1  0.95243561  0.70243561  0.09512877  1
  Li  Li1  1  0.20243561  0.45243561  0.59512877  1
  U  U2  1  0.47049552  0.72049552  0.05900896  1
  U  U3  1  0.22049552  0.97049552  0.55900896  1
  U  U4  1  0.52939517  0.27939517  0.94120966  1
  U  U5  1  0.77939517  0.02939517  0.44120966  1
  U  U6  1  0.34616322  0.59616322  0.30767355  1
  U  U7  1  0.09616322  0.84616322  0.80767355  1
  U  U8  1  0.65392455  0.40392455  0.69215091  1
  U  U9  1  0.90392455  0.15392455  0.19215091  1
  As  As10  1  0.56739872  0.81739872  0.86520255  1
  As  As11  1  0.31739872  0.06739872  0.36520255  1
  As  As12  1  0.43224844  0.18224844  0.13550312  1
  As  As13  1  0.68224844  0.93224844  0.63550312  1
  As  As14  1  0.87324156  0.62324156  0.25351688  1
  As  As15  1  0.12324156  0.37324156  0.75351688  1
  O  O16  1  0.53370140  0.60800965  0.93259721  1
  O  O17  1  0.53370140  0.95939314  0.93259721  1
  O  O18  1  0.10800965  0.03370140  0.43259721  1
  O  O19  1  0.45939314  0.03370140  0.43259721  1
  O  O20  1  0.46499185  0.39460029  0.07001630  1
  O  O21  1  0.46499185  0.03538341  0.07001630  1
  O  O22  1  0.89460029  0.96499185  0.57001630  1
  O  O23  1  0.53538341  0.96499185  0.57001630  1
  O  O24  1  0.78780665  0.84512705  0.80974591  1
  O  O25  1  0.34512705  0.28780665  0.30974591  1
  O  O26  1  0.34512705  0.90244744  0.30974591  1
  O  O27  1  0.40244744  0.84512705  0.80974591  1
  O  O28  1  0.21101124  0.15498954  0.19002091  1
  O  O29  1  0.65498954  0.71101124  0.69002091  1
  O  O30  1  0.65498954  0.09896785  0.69002091  1
  O  O31  1  0.59896785  0.15498954  0.19002091  1
  O  O32  1  0.40282651  0.65282651  0.19434697  1
  O  O33  1  0.15282651  0.90282651  0.69434697  1
  O  O34  1  0.59865546  0.34865546  0.80268909  1
  O  O35  1  0.84865546  0.09865546  0.30268909  1
  O  O36  1  0.65159412  0.59577076  0.30845847  1
  O  O37  1  0.09577076  0.15159412  0.80845847  1
  O  O38  1  0.09577076  0.53994741  0.80845847  1
  O  O39  1  0.03994741  0.59577076  0.30845847  1
  O  O40  1  0.33913855  0.40531514  0.68936973  1
  O  O41  1  0.90531514  0.83913855  0.18936973  1
  O  O42  1  0.90531514  0.47149172  0.18936973  1
  O  O43  1  0.97149172  0.40531514  0.68936973  1
  O  O44  1  0.29367784  0.54367784  0.41264432  1
  O  O45  1  0.04367784  0.79367784  0.91264432  1
  O  O46  1  0.70624052  0.45624052  0.58751895  1
  O  O47  1  0.95624052  0.20624052  0.08751895  1
  O  O48  1  0.22189593  0.72053342  0.05893316  1
  O  O49  1  0.22053342  0.72189593  0.55893316  1
  O  O50  1  0.22053342  0.21917091  0.55893316  1
  O  O51  1  0.71917091  0.72053342  0.05893316  1
  O  O52  1  0.77378111  0.27921928  0.94156144  1
  O  O53  1  0.77921928  0.27378111  0.44156144  1
  O  O54  1  0.77921928  0.78465745  0.44156144  1
  O  O55  1  0.28465745  0.27921928  0.94156144  1
