# generated using pymatgen
data_Lu4V5B18
_symmetry_space_group_name_H-M   'P 1'
_cell_length_a   3.35944567
_cell_length_b   8.94153618
_cell_length_c   33.81458173
_cell_angle_alpha   89.99234363
_cell_angle_beta   90.00000000
_cell_angle_gamma   90.00000000
_symmetry_Int_Tables_number   1
_chemical_formula_structural   Lu4V5B18
_chemical_formula_sum   'Lu16 V20 B72'
_cell_volume   1015.74285502
_cell_formula_units_Z   4
loop_
 _symmetry_equiv_pos_site_id
 _symmetry_equiv_pos_as_xyz
  1  'x, y, z'
loop_
 _atom_site_type_symbol
 _atom_site_label
 _atom_site_symmetry_multiplicity
 _atom_site_fract_x
 _atom_site_fract_y
 _atom_site_fract_z
 _atom_site_occupancy
  Lu  Lu0  1  -0.00000000  0.32338669  0.13781308  1
  Lu  Lu1  1  0.00000000  0.32273682  0.47173878  1
  Lu  Lu2  1  -0.00000000  0.32238376  0.80503688  1
  Lu  Lu3  1  0.00000000  0.67655725  0.19546142  1
  Lu  Lu4  1  0.00000000  0.67686785  0.52901540  1
  Lu  Lu5  1  -0.00000000  0.67675065  0.86234176  1
  Lu  Lu6  1  -0.00000000  0.81882112  0.02749347  1
  Lu  Lu7  1  0.00000000  0.81848009  0.36172989  1
  Lu  Lu8  1  0.00000000  0.81898227  0.69452911  1
  Lu  Lu9  1  0.00000000  0.18179342  0.30546600  1
  Lu  Lu10  1  -0.00000000  0.18055197  0.63800586  1
  Lu  Lu11  1  -0.00000000  0.18046092  0.97107505  1
  Lu  Lu12  1  -0.00000000  0.94441593  0.12276080  1
  Lu  Lu13  1  -0.00000000  0.94596846  0.45792134  1
  Lu  Lu14  1  0.00000000  0.94622908  0.79113195  1
  Lu  Lu15  1  -0.00000000  0.05584359  0.21041950  1
  V  V16  1  0.00000000  0.63530812  0.10379683  1
  V  V17  1  -0.00000000  0.63663046  0.43803287  1
  V  V18  1  0.00000000  0.63674686  0.77117349  1
  V  V19  1  0.00000000  0.36487108  0.22945286  1
  V  V20  1  0.00000000  0.35652176  0.56220906  1
  V  V21  1  0.00000000  0.35669315  0.89548990  1
  V  V22  1  0.00000000  0.15075872  0.05867061  1
  V  V23  1  -0.00000000  0.15084510  0.39328876  1
  V  V24  1  -0.00000000  0.15077485  0.72629065  1
  V  V25  1  -0.00000000  0.84919225  0.27443856  1
  V  V26  1  -0.00000000  0.85498893  0.60566828  1
  V  V27  1  0.00000000  0.85490714  0.93892057  1
  V  V28  1  0.00000000  0.05560869  0.54415388  1
  V  V29  1  0.00000000  0.05563454  0.87753626  1
  V  V30  1  -0.00000000  0.44505175  0.04255142  1
  V  V31  1  -0.00000000  0.44500336  0.37596927  1
  V  V32  1  0.00000000  0.44503802  0.70938573  1
  V  V33  1  0.00000000  0.55508309  0.29080817  1
  V  V34  1  -0.00000000  0.55468050  0.62348329  1
  V  V35  1  0.00000000  0.55440747  0.95678207  1
  B  B36  1  0.50000000  0.59383813  0.00785264  1
  B  B37  1  0.50000000  0.59321335  0.34191750  1
  B  B38  1  0.50000000  0.59403019  0.67471840  1
  B  B39  1  0.50000000  0.40682370  0.32505648  1
  B  B40  1  0.50000000  0.40673777  0.65803474  1
  B  B41  1  0.50000000  0.40689052  0.99117682  1
  B  B42  1  0.50000000  0.10441810  0.15743863  1
  B  B43  1  0.50000000  0.09990908  0.49362995  1
  B  B44  1  0.50000000  0.09975614  0.82691754  1
  B  B45  1  0.50000000  0.89554420  0.17583794  1
  B  B46  1  0.50000000  0.90512437  0.51060129  1
  B  B47  1  0.50000000  0.90502942  0.84391958  1
  B  B48  1  0.50000000  0.79336839  0.08633730  1
  B  B49  1  0.50000000  0.79411440  0.42016264  1
  B  B50  1  0.50000000  0.79426616  0.75343580  1
  B  B51  1  0.50000000  0.20687233  0.24689118  1
  B  B52  1  0.50000000  0.20113685  0.57939686  1
  B  B53  1  0.50000000  0.20109099  0.91269774  1
  B  B54  1  0.50000000  0.30102326  0.07769261  1
  B  B55  1  0.50000000  0.30132734  0.41151382  1
  B  B56  1  0.50000000  0.30111818  0.74472673  1
  B  B57  1  0.50000000  0.69899032  0.25558294  1
  B  B58  1  0.50000000  0.70060235  0.58800486  1
  B  B59  1  0.50000000  0.70064220  0.92127847  1
  B  B60  1  0.50000000  0.55160654  0.14415568  1
  B  B61  1  0.50000000  0.55037149  0.47799533  1
  B  B62  1  0.50000000  0.55048252  0.81125213  1
  B  B63  1  0.50000000  0.44855010  0.18908880  1
  B  B64  1  0.50000000  0.44434628  0.52250096  1
  B  B65  1  0.50000000  0.44439894  0.85577198  1
  B  B66  1  0.50000000  0.05570471  0.02093040  1
  B  B67  1  0.50000000  0.05513978  0.35513118  1
  B  B68  1  0.50000000  0.05559921  0.68809301  1
  B  B69  1  0.50000000  0.94488133  0.31212352  1
  B  B70  1  0.50000000  0.94606210  0.64450715  1
  B  B71  1  0.50000000  0.94601351  0.97767034  1
  B  B72  1  0.50000000  0.98297970  0.06951943  1
  B  B73  1  0.50000000  0.98296019  0.40358524  1
  B  B74  1  0.50000000  0.98279186  0.73675567  1
  B  B75  1  0.50000000  0.01687949  0.26368717  1
  B  B76  1  0.50000000  0.01996942  0.59540616  1
  B  B77  1  0.50000000  0.02000696  0.92864076  1
  B  B78  1  0.50000000  0.47749621  0.09446083  1
  B  B79  1  0.50000000  0.47812040  0.42818096  1
  B  B80  1  0.50000000  0.47841378  0.76136011  1
  B  B81  1  0.50000000  0.52262630  0.23872724  1
  B  B82  1  0.50000000  0.52056493  0.57183577  1
  B  B83  1  0.50000000  0.52061456  0.90512500  1
  B  B84  1  0.50000000  0.62451674  0.05886809  1
  B  B85  1  0.50000000  0.62527023  0.39277616  1
  B  B86  1  0.50000000  0.62514246  0.72586290  1
  B  B87  1  0.50000000  0.37554598  0.27425864  1
  B  B88  1  0.50000000  0.37342004  0.60719304  1
  B  B89  1  0.50000000  0.37341978  0.94047024  1
  B  B90  1  0.50000000  0.13536030  0.10480107  1
  B  B91  1  0.50000000  0.13474296  0.43899035  1
  B  B92  1  0.50000000  0.13468774  0.77217017  1
  B  B93  1  0.50000000  0.86457564  0.22839805  1
  B  B94  1  0.50000000  0.87238911  0.56061458  1
  B  B95  1  0.50000000  0.87227213  0.89387309  1
  B  B96  1  0.50000000  0.74845582  0.13919174  1
  B  B97  1  0.50000000  0.74950927  0.47310936  1
  B  B98  1  0.50000000  0.74945674  0.80640200  1
  B  B99  1  0.50000000  0.25166377  0.19404595  1
  B  B100  1  0.50000000  0.24217394  0.52791220  1
  B  B101  1  0.50000000  0.24219830  0.86119175  1
  B  B102  1  0.50000000  0.26211059  0.02584809  1
  B  B103  1  0.50000000  0.26136129  0.35972397  1
  B  B104  1  0.50000000  0.26185712  0.69286060  1
  B  B105  1  0.50000000  0.73828354  0.30734598  1
  B  B106  1  0.50000000  0.74009028  0.63975160  1
  B  B107  1  0.50000000  0.74007249  0.97297028  1
