# generated using pymatgen
data_La9Al5Se21
_symmetry_space_group_name_H-M   'P 1'
_cell_length_a   12.42329395
_cell_length_b   12.42366147
_cell_length_c   12.42331373
_cell_angle_alpha   96.45404647
_cell_angle_beta   83.54870266
_cell_angle_gamma   83.54879389
_symmetry_Int_Tables_number   1
_chemical_formula_structural   La9Al5Se21
_chemical_formula_sum   'La18 Al10 Se42'
_cell_volume   1878.00222789
_cell_formula_units_Z   2
loop_
 _symmetry_equiv_pos_site_id
 _symmetry_equiv_pos_as_xyz
  1  'x, y, z'
loop_
 _atom_site_type_symbol
 _atom_site_label
 _atom_site_symmetry_multiplicity
 _atom_site_fract_x
 _atom_site_fract_y
 _atom_site_fract_z
 _atom_site_occupancy
  La  La0  1  0.25196115  0.11735979  0.88417438  1
  La  La1  1  0.91999539  0.45479064  0.21946724  1
  La  La2  1  0.58801679  0.78237698  0.55094371  1
  La  La3  1  0.44905717  0.41203917  0.78237153  1
  La  La4  1  0.11584884  0.74804232  0.11734183  1
  La  La5  1  0.78053688  0.08002267  0.45480507  1
  La  La6  1  0.54518828  0.21944098  0.08001389  1
  La  La7  1  0.21759988  0.55093113  0.41200303  1
  La  La8  1  0.88266020  0.88415966  0.74804244  1
  La  La9  1  0.41525100  0.21474628  0.44803075  1
  La  La10  1  0.07737519  0.54714944  0.78309196  1
  La  La11  1  0.74928125  0.88033002  0.11319448  1
  La  La12  1  0.21689598  0.92260432  0.54715932  1
  La  La13  1  0.88678658  0.25074470  0.88033176  1
  La  La14  1  0.55195534  0.58471653  0.21476220  1
  La  La15  1  0.11965287  0.11321973  0.25073018  1
  La  La16  1  0.78525783  0.44805305  0.58474633  1
  La  La17  1  0.45285235  0.78310978  0.92261950  1
  Al  Al18  1  0.94447071  0.72198666  0.38898029  1
  Al  Al19  1  0.61100637  0.05553581  0.72197459  1
  Al  Al20  1  0.27801722  0.38899529  0.05552225  1
  Al  Al21  1  0.44450445  0.88825791  0.22254897  1
  Al  Al22  1  0.11173506  0.22253585  0.55549618  1
  Al  Al23  1  0.77745614  0.55548903  0.88827622  1
  Al  Al24  1  0.15145352  0.84855395  0.84854857  1
  Al  Al25  1  0.83844872  0.16154403  0.16154866  1
  Al  Al26  1  0.33864683  0.66135860  0.66135631  1
  Al  Al27  1  0.65159856  0.34839714  0.34840302  1
  Se  Se28  1  0.82003104  0.84514722  0.51516878  1
  Se  Se29  1  0.48482528  0.17998990  0.84513179  1
  Se  Se30  1  0.15485952  0.51518421  0.17997701  1
  Se  Se31  1  0.65453947  0.67967105  0.01541880  1
  Se  Se32  1  0.32031816  0.01540671  0.34546226  1
  Se  Se33  1  0.98459173  0.34545675  0.67968138  1
  Se  Se34  1  0.97613291  0.54412013  0.44862175  1
  Se  Se35  1  0.63979871  0.87794049  0.78069808  1
  Se  Se36  1  0.30321175  0.20964267  0.11247806  1
  Se  Se37  1  0.88752242  0.69677377  0.20962753  1
  Se  Se38  1  0.55138148  0.02385553  0.54410180  1
  Se  Se39  1  0.21929979  0.36020980  0.87792137  1
  Se  Se40  1  0.12207374  0.78069589  0.36019502  1
  Se  Se41  1  0.79037142  0.11247779  0.69679117  1
  Se  Se42  1  0.45589893  0.44861403  0.02386147  1
  Se  Se43  1  0.51761594  0.96866455  0.06757100  1
  Se  Se44  1  0.18162656  0.30198576  0.39805353  1
  Se  Se45  1  0.84510888  0.63533960  0.73016777  1
  Se  Se46  1  0.60195454  0.81834566  0.30199372  1
  Se  Se47  1  0.26984706  0.15487969  0.63534333  1
  Se  Se48  1  0.93245429  0.48237844  0.96866675  1
  Se  Se49  1  0.36465427  0.73014900  0.15487970  1
  Se  Se50  1  0.03133422  0.06755916  0.48237411  1
  Se  Se51  1  0.69800868  0.39804181  0.81835792  1
  Se  Se52  1  0.69227908  0.54556678  0.39331594  1
  Se  Se53  1  0.34438153  0.88013212  0.73889273  1
  Se  Se54  1  0.01088370  0.22657064  0.07941389  1
  Se  Se55  1  0.92059336  0.98911911  0.22658229  1
  Se  Se56  1  0.60668360  0.30772651  0.54557929  1
  Se  Se57  1  0.26110993  0.65562042  0.88013656  1
  Se  Se58  1  0.11985479  0.73888813  0.65561318  1
  Se  Se59  1  0.77341828  0.07941132  0.98911764  1
  Se  Se60  1  0.45442803  0.39331030  0.30772119  1
  Se  Se61  1  0.63924819  0.13693833  0.27766804  1
  Se  Se62  1  0.29289377  0.47033092  0.61637529  1
  Se  Se63  1  0.97688253  0.78493589  0.93674077  1
  Se  Se64  1  0.38362639  0.70709815  0.47032889  1
  Se  Se65  1  0.06324872  0.02311508  0.78492900  1
  Se  Se66  1  0.72233483  0.36074002  0.13692494  1
  Se  Se67  1  0.21507594  0.93675443  0.02311587  1
  Se  Se68  1  0.86307189  0.27767086  0.36074704  1
  Se  Se69  1  0.52968010  0.61638391  0.70710267  1
