# generated using pymatgen
data_La2Si2PbSe8
_symmetry_space_group_name_H-M   'P 1'
_cell_length_a   9.54255007
_cell_length_b   9.55111838
_cell_length_c   11.04495785
_cell_angle_alpha   88.64542602
_cell_angle_beta   115.59370702
_cell_angle_gamma   60.02967317
_symmetry_Int_Tables_number   1
_chemical_formula_structural   La2Si2PbSe8
_chemical_formula_sum   'La4 Si4 Pb2 Se16'
_cell_volume   748.64244541
_cell_formula_units_Z   2
loop_
 _symmetry_equiv_pos_site_id
 _symmetry_equiv_pos_as_xyz
  1  'x, y, z'
loop_
 _atom_site_type_symbol
 _atom_site_label
 _atom_site_symmetry_multiplicity
 _atom_site_fract_x
 _atom_site_fract_y
 _atom_site_fract_z
 _atom_site_occupancy
  La  La0  1  0.80772875  0.44058685  0.74760099  1
  La  La1  1  0.19483618  0.74912681  0.75401940  1
  La  La2  1  0.49928540  0.94058685  0.24760099  1
  La  La3  1  0.81005641  0.24912681  0.25401940  1
  Si  Si4  1  0.67256270  0.65826205  0.02152592  1
  Si  Si5  1  0.69070116  0.15826205  0.52152592  1
  Si  Si6  1  0.31162658  0.34155654  0.97765632  1
  Si  Si7  1  0.32447320  0.84155654  0.47765632  1
  Pb  Pb8  1  0.50152297  0.06870340  0.75001104  1
  Pb  Pb9  1  0.17978467  0.56870340  0.25001104  1
  Se  Se10  1  0.83207934  0.57495115  0.26312902  1
  Se  Se11  1  0.85609852  0.07495115  0.76312902  1
  Se  Se12  1  0.14143637  0.44552459  0.73662657  1
  Se  Se13  1  0.14966561  0.94552459  0.23662657  1
  Se  Se14  1  0.81577400  0.71467807  0.92564211  1
  Se  Se15  1  0.65478302  0.44223104  0.94414929  1
  Se  Se16  1  0.37853732  0.89419660  0.94807049  1
  Se  Se17  1  0.84713523  0.94223104  0.44414929  1
  Se  Se18  1  0.39519004  0.21467807  0.42564211  1
  Se  Se19  1  0.67533656  0.39419660  0.44807049  1
  Se  Se20  1  0.15067605  0.27655530  0.04662415  1
  Se  Se21  1  0.34789525  0.54217583  0.06840773  1
  Se  Se22  1  0.60948375  0.10145177  0.06653698  1
  Se  Se23  1  0.17833665  0.04217583  0.56840773  1
  Se  Se24  1  0.61939280  0.77655530  0.54662415  1
  Se  Se25  1  0.35560146  0.60145177  0.56653698  1
