# generated using pymatgen
data_Li9Mn2Co5O16
_symmetry_space_group_name_H-M   'P 1'
_cell_length_a   5.23491759
_cell_length_b   11.33530087
_cell_length_c   5.23107296
_cell_angle_alpha   90.00000000
_cell_angle_beta   67.28876670
_cell_angle_gamma   90.00000000
_symmetry_Int_Tables_number   1
_chemical_formula_structural   Li9Mn2Co5O16
_chemical_formula_sum   'Li9 Mn2 Co5 O16'
_cell_volume   286.34022223
_cell_formula_units_Z   1
loop_
 _symmetry_equiv_pos_site_id
 _symmetry_equiv_pos_as_xyz
  1  'x, y, z'
loop_
 _atom_site_type_symbol
 _atom_site_label
 _atom_site_symmetry_multiplicity
 _atom_site_fract_x
 _atom_site_fract_y
 _atom_site_fract_z
 _atom_site_occupancy
  Li  Li0  1  0.50000000  0.12585217  0.00000000  1
  Li  Li1  1  0.50000000  0.25150996  0.50000000  1
  Li  Li2  1  0.50000000  0.37446562  0.00000000  1
  Li  Li3  1  0.50000000  0.50304625  0.50000000  1
  Li  Li4  1  0.50000000  0.62831533  0.00000000  1
  Li  Li5  1  0.50000000  0.74366788  0.50000000  1
  Li  Li6  1  0.50000000  0.87136283  0.00000000  1
  Li  Li7  1  0.50000000  0.00195492  0.50000000  1
  Li  Li8  1  -0.00000000  0.62504269  0.50000000  1
  Mn  Mn9  1  -0.00000000  0.00184890  0.00000000  1
  Mn  Mn10  1  -0.00000000  0.87028870  0.50000000  1
  Co  Co11  1  -0.00000000  0.12656086  0.50000000  1
  Co  Co12  1  -0.00000000  0.25177866  0.00000000  1
  Co  Co13  1  -0.00000000  0.38175844  0.50000000  1
  Co  Co14  1  -0.00000000  0.50063558  0.00000000  1
  Co  Co15  1  -0.00000000  0.74492558  0.00000000  1
  O  O16  1  0.23044283  0.12769237  0.77232269  1
  O  O17  1  0.22278184  0.25094428  0.27674518  1
  O  O18  1  0.22263234  0.37491896  0.77197813  1
  O  O19  1  0.23428057  0.48707607  0.27032542  1
  O  O20  1  0.23037481  0.62334627  0.78260873  1
  O  O21  1  0.23614612  0.75850868  0.26149497  1
  O  O22  1  0.20934952  0.87396740  0.74670117  1
  O  O23  1  0.23296476  0.00203879  0.27624127  1
  O  O24  1  0.76955717  0.12769237  0.22767731  1
  O  O25  1  0.77721816  0.25094428  0.72325482  1
  O  O26  1  0.77736766  0.37491896  0.22802187  1
  O  O27  1  0.76571943  0.48707607  0.72967458  1
  O  O28  1  0.76962519  0.62334627  0.21739127  1
  O  O29  1  0.76385388  0.75850868  0.73850503  1
  O  O30  1  0.79065048  0.87396740  0.25329883  1
  O  O31  1  0.76703524  0.00203879  0.72375873  1
