# generated using pymatgen
data_KSrB(PO4)2
_symmetry_space_group_name_H-M   'P 1'
_cell_length_a   7.11340406
_cell_length_b   7.11340406
_cell_length_c   8.87328149
_cell_angle_alpha   65.06139827
_cell_angle_beta   67.82651736
_cell_angle_gamma   90.18628859
_symmetry_Int_Tables_number   1
_chemical_formula_structural   KSrB(PO4)2
_chemical_formula_sum   'K2 Sr2 B2 P4 O16'
_cell_volume   369.90251800
_cell_formula_units_Z   2
loop_
 _symmetry_equiv_pos_site_id
 _symmetry_equiv_pos_as_xyz
  1  'x, y, z'
loop_
 _atom_site_type_symbol
 _atom_site_label
 _atom_site_symmetry_multiplicity
 _atom_site_fract_x
 _atom_site_fract_y
 _atom_site_fract_z
 _atom_site_occupancy
  K  K0  1  0.37301395  0.76070551  0.75874350  1
  K  K1  1  0.23055099  0.11824255  0.25874350  1
  Sr  Sr2  1  0.88954270  0.49361895  0.73681362  1
  Sr  Sr3  1  0.51956743  0.62364368  0.23681362  1
  B  B4  1  0.73587733  0.23490184  0.49874436  1
  B  B5  1  0.01635380  0.01537831  0.99874436  1
  P  P6  1  0.38501336  0.28889636  0.73953556  1
  P  P7  1  0.86842616  0.96374937  0.76220492  1
  P  P8  1  0.72156808  0.12545108  0.23953556  1
  P  P9  1  0.02404571  0.61936892  0.26220492  1
  O  O10  1  0.25935889  0.44222088  0.65895668  1
  O  O11  1  0.52413871  0.37961806  0.79706088  1
  O  O12  1  0.04622695  0.87206960  0.67598338  1
  O  O13  1  0.66637802  0.80079877  0.88048877  1
  O  O14  1  0.57332106  0.92880041  0.29706088  1
  O  O15  1  0.20194702  0.52778967  0.17598338  1
  O  O16  1  0.06871246  0.70313321  0.38048877  1
  O  O17  1  0.64882245  0.33168443  0.15895668  1
  O  O18  1  0.50999998  0.20522002  0.59712485  1
  O  O19  1  0.24232805  0.07207287  0.90562961  1
  O  O20  1  0.84964002  0.17872856  0.61376639  1
  O  O21  1  0.91219760  0.06954093  0.87494747  1
  O  O22  1  0.77229751  0.10204233  0.40562961  1
  O  O23  1  0.95750505  0.78659359  0.11376639  1
  O  O24  1  0.80551159  0.46285493  0.37494747  1
  O  O25  1  0.94765513  0.14287516  0.09712485  1
