# generated using pymatgen
data_Li2TiCr(PO4)3
_symmetry_space_group_name_H-M   'P 1'
_cell_length_a   8.63782423
_cell_length_b   8.73027740
_cell_length_c   12.11515070
_cell_angle_alpha   90.00000000
_cell_angle_beta   90.00000000
_cell_angle_gamma   90.00000000
_symmetry_Int_Tables_number   1
_chemical_formula_structural   Li2TiCr(PO4)3
_chemical_formula_sum   'Li8 Ti4 Cr4 P12 O48'
_cell_volume   913.61080349
_cell_formula_units_Z   4
loop_
 _symmetry_equiv_pos_site_id
 _symmetry_equiv_pos_as_xyz
  1  'x, y, z'
loop_
 _atom_site_type_symbol
 _atom_site_label
 _atom_site_symmetry_multiplicity
 _atom_site_fract_x
 _atom_site_fract_y
 _atom_site_fract_z
 _atom_site_occupancy
  Li  Li0  1  0.71550302  0.78397579  0.31799006  1
  Li  Li1  1  0.78327141  0.28075115  0.18043437  1
  Li  Li2  1  0.78449698  0.21602421  0.81799006  1
  Li  Li3  1  0.71672859  0.71924885  0.68043437  1
  Li  Li4  1  0.28327141  0.21924885  0.68043437  1
  Li  Li5  1  0.21550302  0.71602421  0.81799006  1
  Li  Li6  1  0.21672859  0.78075115  0.18043437  1
  Li  Li7  1  0.28449698  0.28397579  0.31799006  1
  Ti  Ti8  1  0.75248774  0.46445615  0.38866112  1
  Ti  Ti9  1  0.74751226  0.53554385  0.88866112  1
  Ti  Ti10  1  0.25248774  0.03554385  0.88866112  1
  Ti  Ti11  1  0.24751226  0.96445615  0.38866112  1
  Cr  Cr12  1  0.74881228  0.96513386  0.11342940  1
  Cr  Cr13  1  0.75118772  0.03486614  0.61342940  1
  Cr  Cr14  1  0.24881228  0.53486614  0.61342940  1
  Cr  Cr15  1  0.25118772  0.46513386  0.11342940  1
  P  P16  1  0.96313946  0.74949478  0.50154224  1
  P  P17  1  0.53686054  0.25050522  0.00154224  1
  P  P18  1  0.03686054  0.24949478  0.50154224  1
  P  P19  1  0.46313946  0.75050522  0.00154224  1
  P  P20  1  0.89622867  0.60964634  0.14726391  1
  P  P21  1  0.60513033  0.10764001  0.35380195  1
  P  P22  1  0.60377133  0.39035366  0.64726391  1
  P  P23  1  0.89486967  0.89235999  0.85380195  1
  P  P24  1  0.10513033  0.39235999  0.85380195  1
  P  P25  1  0.39622867  0.89035366  0.64726391  1
  P  P26  1  0.39486967  0.60764001  0.35380195  1
  P  P27  1  0.10377133  0.10964634  0.14726391  1
  O  O28  1  0.84043204  0.56245849  0.02910102  1
  O  O29  1  0.65496710  0.06217057  0.46909170  1
  O  O30  1  0.65956796  0.43754151  0.52910102  1
  O  O31  1  0.84503290  0.93782943  0.96909170  1
  O  O32  1  0.15496710  0.43782943  0.96909170  1
  O  O33  1  0.34043204  0.93754151  0.52910102  1
  O  O34  1  0.34503290  0.56217057  0.46909170  1
  O  O35  1  0.15956796  0.06245849  0.02910102  1
  O  O36  1  0.85580320  0.66067911  0.41879755  1
  O  O37  1  0.64673437  0.16371475  0.07912039  1
  O  O38  1  0.64419680  0.33932089  0.91879755  1
  O  O39  1  0.85326563  0.83628525  0.57912039  1
  O  O40  1  0.14673437  0.33628525  0.57912039  1
  O  O41  1  0.35580320  0.83932089  0.91879755  1
  O  O42  1  0.35326563  0.66371475  0.07912039  1
  O  O43  1  0.14419680  0.16067911  0.41879755  1
  O  O44  1  0.83894185  0.77061304  0.17771313  1
  O  O45  1  0.66012993  0.27410169  0.32412394  1
  O  O46  1  0.66105815  0.22938696  0.67771313  1
  O  O47  1  0.83987007  0.72589831  0.82412394  1
  O  O48  1  0.16012993  0.22589831  0.82412394  1
  O  O49  1  0.33894185  0.72938696  0.67771313  1
  O  O50  1  0.33987007  0.77410169  0.32412394  1
  O  O51  1  0.16105815  0.27061304  0.17771313  1
  O  O52  1  0.55914022  0.85875519  0.07098989  1
  O  O53  1  0.93696564  0.35850733  0.42933034  1
  O  O54  1  0.94085978  0.14124481  0.57098989  1
  O  O55  1  0.56303436  0.64149267  0.92933034  1
  O  O56  1  0.43696564  0.14149267  0.92933034  1
  O  O57  1  0.05914022  0.64124481  0.57098989  1
  O  O58  1  0.06303436  0.85850733  0.42933034  1
  O  O59  1  0.44085978  0.35875519  0.07098989  1
  O  O60  1  0.67369863  0.99115031  0.27123706  1
  O  O61  1  0.82547187  0.48972631  0.22788129  1
  O  O62  1  0.82630137  0.00884969  0.77123706  1
  O  O63  1  0.67452813  0.51027369  0.72788129  1
  O  O64  1  0.32547187  0.01027369  0.72788129  1
  O  O65  1  0.17369863  0.50884969  0.77123706  1
  O  O66  1  0.17452813  0.98972631  0.22788129  1
  O  O67  1  0.32630137  0.49115031  0.27123706  1
  O  O68  1  0.57513539  0.60574641  0.34463195  1
  O  O69  1  0.92619983  0.10760653  0.15485872  1
  O  O70  1  0.92486461  0.39425359  0.84463195  1
  O  O71  1  0.57380017  0.89239347  0.65485872  1
  O  O72  1  0.42619983  0.39239347  0.65485872  1
  O  O73  1  0.07513539  0.89425359  0.84463195  1
  O  O74  1  0.07380017  0.60760653  0.15485872  1
  O  O75  1  0.42486461  0.10574641  0.34463195  1
