# generated using pymatgen
data_Li9Mn2Co5O16
_symmetry_space_group_name_H-M   'P 1'
_cell_length_a   2.95514220
_cell_length_b   10.82808662
_cell_length_c   10.08936802
_cell_angle_alpha   113.81742951
_cell_angle_beta   90.14244564
_cell_angle_gamma   82.23378114
_symmetry_Int_Tables_number   1
_chemical_formula_structural   Li9Mn2Co5O16
_chemical_formula_sum   'Li9 Mn2 Co5 O16'
_cell_volume   292.15798681
_cell_formula_units_Z   1
loop_
 _symmetry_equiv_pos_site_id
 _symmetry_equiv_pos_as_xyz
  1  'x, y, z'
loop_
 _atom_site_type_symbol
 _atom_site_label
 _atom_site_symmetry_multiplicity
 _atom_site_fract_x
 _atom_site_fract_y
 _atom_site_fract_z
 _atom_site_occupancy
  Li  Li0  1  0.85623260  0.27690480  0.94792930  1
  Li  Li1  1  0.13687416  0.73742434  0.06675028  1
  Li  Li2  1  0.36208692  0.26056153  0.18941474  1
  Li  Li3  1  0.38021403  0.25213356  0.69219413  1
  Li  Li4  1  0.63479411  0.74192712  0.81387939  1
  Li  Li5  1  0.87085495  0.25787614  0.43453145  1
  Li  Li6  1  0.11620509  0.74470978  0.55548384  1
  Li  Li7  1  0.63559554  0.72988413  0.30172747  1
  Li  Li8  1  0.24879264  0.50023384  0.12524805  1
  Mn  Mn9  1  0.99990601  0.00094712  0.00023449  1
  Mn  Mn10  1  0.25104511  0.50017764  0.62504938  1
  Co  Co11  1  0.50256308  0.00402317  0.26010123  1
  Co  Co12  1  0.75123119  0.49474299  0.35357409  1
  Co  Co13  1  0.00197660  0.99737824  0.49819316  1
  Co  Co14  1  0.49780226  0.99737664  0.74129944  1
  Co  Co15  1  0.74854507  0.50472063  0.89514388  1
  O  O16  1  0.44975580  0.10462409  0.96560977  1
  O  O17  1  0.69049603  0.62384810  0.08240787  1
  O  O18  1  0.94989623  0.11020880  0.20587693  1
  O  O19  1  0.94263630  0.11289508  0.70864294  1
  O  O20  1  0.19793959  0.61081454  0.83110626  1
  O  O21  1  0.44394869  0.11719298  0.46089519  1
  O  O22  1  0.69975619  0.60778168  0.59640585  1
  O  O23  1  0.19160536  0.61673326  0.34999638  1
  O  O24  1  0.30769694  0.38118855  0.89914277  1
  O  O25  1  0.55048319  0.89616320  0.03420801  1
  O  O26  1  0.80773631  0.37618812  0.16639030  1
  O  O27  1  0.80212587  0.39292281  0.65368629  1
  O  O28  1  0.05113970  0.88960252  0.79542116  1
  O  O29  1  0.30351916  0.38999528  0.41893533  1
  O  O30  1  0.55743447  0.88213799  0.54140026  1
  O  O31  1  0.05911080  0.88668136  0.28912034  1
