# generated using pymatgen
data_KNb2(PS6)2
_symmetry_space_group_name_H-M   'P 1'
_cell_length_a   13.24662906
_cell_length_b   13.24662906
_cell_length_c   13.24662906
_cell_angle_alpha   60.59154467
_cell_angle_beta   75.16539390
_cell_angle_gamma   104.65143746
_symmetry_Int_Tables_number   1
_chemical_formula_structural   KNb2(PS6)2
_chemical_formula_sum   'K4 Nb8 P8 S48'
_cell_volume   1748.36600795
_cell_formula_units_Z   4
loop_
 _symmetry_equiv_pos_site_id
 _symmetry_equiv_pos_as_xyz
  1  'x, y, z'
loop_
 _atom_site_type_symbol
 _atom_site_label
 _atom_site_symmetry_multiplicity
 _atom_site_fract_x
 _atom_site_fract_y
 _atom_site_fract_z
 _atom_site_occupancy
  K  K0  1  0.43154352  0.37500000  0.69345648  1
  K  K1  1  0.56845648  0.87500000  0.05654352  1
  K  K2  1  0.06828108  0.87500000  0.55671892  1
  K  K3  1  0.93171892  0.37500000  0.19328108  1
  Nb  Nb4  1  0.49959415  0.06828322  0.56985372  1
  Nb  Nb5  1  0.13813694  0.81944787  0.18014628  1
  Nb  Nb6  1  0.50040585  0.93055213  0.43131093  1
  Nb  Nb7  1  0.86186306  0.68171678  0.31868907  1
  Nb  Nb8  1  0.63808234  0.56835100  0.93178807  1
  Nb  Nb9  1  0.00013907  0.31987041  0.81821193  1
  Nb  Nb10  1  0.36191766  0.43012959  0.06973134  1
  Nb  Nb11  1  0.99986093  0.18164900  0.68026866  1
  P  P12  1  0.31922330  0.94422330  0.87500000  1
  P  P13  1  0.68077670  0.80577670  0.37500000  1
  P  P14  1  0.81991555  0.87500000  0.80508445  1
  P  P15  1  0.18008445  0.37500000  0.94491555  1
  P  P16  1  0.81911817  0.44411817  0.87500000  1
  P  P17  1  0.18088183  0.30588183  0.37500000  1
  P  P18  1  0.31983650  0.87500000  0.30516350  1
  P  P19  1  0.68016350  0.37500000  0.44483650  1
  S  S20  1  0.00084596  0.92361078  0.16541009  1
  S  S21  1  0.58902086  0.91625605  0.58458991  1
  S  S22  1  0.99915404  0.83374395  0.07723518  1
  S  S23  1  0.41097914  0.82638922  0.67276482  1
  S  S24  1  0.08881222  0.16568242  0.83313559  1
  S  S25  1  0.49881801  0.67194781  0.91686441  1
  S  S26  1  0.91118778  0.07805219  0.92312981  1
  S  S27  1  0.50118199  0.58431758  0.82687019  1
  S  S28  1  0.28357818  0.28596076  0.99740855  1
  S  S29  1  0.78336931  0.03098673  0.75259145  1
  S  S30  1  0.71642182  0.71901327  0.99761742  1
  S  S31  1  0.21663069  0.46403924  0.75238258  1
  S  S32  1  0.28477374  0.99914954  0.71796541  1
  S  S33  1  0.21711495  0.75273915  0.03203459  1
  S  S34  1  0.71522626  0.99726085  0.28562420  1
  S  S35  1  0.78288505  0.75085046  0.46437580  1
  S  S36  1  0.91104897  0.33395596  0.66557859  1
  S  S37  1  0.49953456  0.32662756  0.08442141  1
  S  S38  1  0.08895103  0.42337244  0.57709301  1
  S  S39  1  0.50046544  0.41604404  0.17290699  1
  S  S40  1  0.99928245  0.66594641  0.42278774  1
  S  S41  1  0.58873415  0.17207018  0.32721226  1
  S  S42  1  0.00071755  0.57792982  0.33333604  1
  S  S43  1  0.41126585  0.08405359  0.41666396  1
  S  S44  1  0.50470909  0.29118592  0.49870694  1
  S  S45  1  0.28989286  0.75341604  0.25129306  1
  S  S46  1  0.49529091  0.99658396  0.21352318  1
  S  S47  1  0.71010714  0.45881408  0.53647682  1
  S  S48  1  0.79077721  0.49950471  0.99565550  1
  S  S49  1  0.99516021  0.53643271  0.75434450  1
  S  S50  1  0.20922279  0.21356729  0.29127250  1
  S  S51  1  0.00483979  0.25049529  0.45872750  1
  S  S52  1  0.49559046  0.00089902  0.79033441  1
  S  S53  1  0.29123343  0.03592487  0.95966559  1
  S  S54  1  0.50440954  0.71407513  0.49469144  1
  S  S55  1  0.70876657  0.74910098  0.25530856  1
  S  S56  1  0.79008192  0.79023581  0.71411896  1
  S  S57  1  0.00435477  0.25420088  0.03588104  1
  S  S58  1  0.20991808  0.49579912  0.99984611  1
  S  S59  1  0.99564523  0.95976419  0.75015389  1
  S  S60  1  0.71623978  0.21873135  0.49740030  1
  S  S61  1  0.21613164  0.96364008  0.25259970  1
  S  S62  1  0.28376022  0.78635992  0.49750843  1
  S  S63  1  0.78386836  0.53126865  0.25249157  1
  S  S64  1  0.71686356  0.49926051  0.78597255  1
  S  S65  1  0.78523306  0.25283611  0.96402745  1
  S  S66  1  0.28313644  0.49716389  0.21760305  1
  S  S67  1  0.21476694  0.25073949  0.53239695  1
