# generated using pymatgen
data_K2MgZr(MoO4)4
_symmetry_space_group_name_H-M   'P 1'
_cell_length_a   5.87938027
_cell_length_b   9.42013644
_cell_length_c   9.43670701
_cell_angle_alpha   77.21134178
_cell_angle_beta   71.85365441
_cell_angle_gamma   108.18454200
_symmetry_Int_Tables_number   1
_chemical_formula_structural   K2MgZr(MoO4)4
_chemical_formula_sum   'K2 Mg1 Zr1 Mo4 O16'
_cell_volume   441.50019242
_cell_formula_units_Z   1
loop_
 _symmetry_equiv_pos_site_id
 _symmetry_equiv_pos_as_xyz
  1  'x, y, z'
loop_
 _atom_site_type_symbol
 _atom_site_label
 _atom_site_symmetry_multiplicity
 _atom_site_fract_x
 _atom_site_fract_y
 _atom_site_fract_z
 _atom_site_occupancy
  K  K0  1  0.99154340  0.23343528  0.25070188  1
  K  K1  1  0.00845660  0.76656472  0.74929812  1
  Mg  Mg2  1  -0.00000000  0.00000000  0.00000000  1
  Zr  Zr3  1  -0.00000000  0.50000000  0.50000000  1
  Mo  Mo4  1  0.32902181  0.45542332  0.79739519  1
  Mo  Mo5  1  0.33825312  0.96154132  0.28506294  1
  Mo  Mo6  1  0.67097819  0.54457668  0.20260481  1
  Mo  Mo7  1  0.66174688  0.03845868  0.71493706  1
  O  O8  1  0.32692611  0.57176496  0.91780324  1
  O  O9  1  0.34027363  0.08283002  0.40226268  1
  O  O10  1  0.67307389  0.42823504  0.08219676  1
  O  O11  1  0.65972637  0.91716998  0.59773732  1
  O  O12  1  0.67073527  0.50276406  0.67107967  1
  O  O13  1  0.67161346  0.00533689  0.16547002  1
  O  O14  1  0.16094865  0.50274184  0.67107227  1
  O  O15  1  0.16811600  0.00526828  0.16552334  1
  O  O16  1  0.16458221  0.25182818  0.92278474  1
  O  O17  1  0.16414713  0.74874195  0.42055303  1
  O  O18  1  0.32926473  0.49723594  0.32892033  1
  O  O19  1  0.32838654  0.99466311  0.83452998  1
  O  O20  1  0.83905135  0.49725816  0.32892773  1
  O  O21  1  0.83188400  0.99473172  0.83447666  1
  O  O22  1  0.83541779  0.74817182  0.07721526  1
  O  O23  1  0.83585287  0.25125805  0.57944697  1
