# generated using pymatgen
data_KBaB(PO4)2
_symmetry_space_group_name_H-M   'P 1'
_cell_length_a   7.28098035
_cell_length_b   7.28098035
_cell_length_c   8.92548834
_cell_angle_alpha   66.34495015
_cell_angle_beta   65.54886188
_cell_angle_gamma   90.04250150
_symmetry_Int_Tables_number   1
_chemical_formula_structural   KBaB(PO4)2
_chemical_formula_sum   'K2 Ba2 B2 P4 O16'
_cell_volume   386.56103228
_cell_formula_units_Z   2
loop_
 _symmetry_equiv_pos_site_id
 _symmetry_equiv_pos_as_xyz
  1  'x, y, z'
loop_
 _atom_site_type_symbol
 _atom_site_label
 _atom_site_symmetry_multiplicity
 _atom_site_fract_x
 _atom_site_fract_y
 _atom_site_fract_z
 _atom_site_occupancy
  K  K0  1  0.87414096  0.76405692  0.75014189  1
  K  K1  1  0.23580119  0.62571716  0.25014189  1
  Ba  Ba2  1  0.37451348  0.49328059  0.74946367  1
  Ba  Ba3  1  0.50725574  0.12602285  0.24946367  1
  B  B4  1  0.75285205  0.25237316  0.49997083  1
  B  B5  1  0.99765601  0.99717711  0.99997083  1
  P  P6  1  0.87480727  0.27320665  0.75134804  1
  P  P7  1  0.37620241  0.97349125  0.74875099  1
  P  P8  1  0.72544530  0.62384468  0.25134804  1
  P  P9  1  0.02775775  0.12504659  0.24875099  1
  O  O10  1  0.06908035  0.43154917  0.66545976  1
  O  O11  1  0.67627821  0.34065872  0.84441005  1
  O  O12  1  0.27959271  0.90692256  0.65082161  1
  O  O13  1  0.47530343  0.81089792  0.83930669  1
  O  O14  1  0.56493124  0.72931174  0.34441005  1
  O  O15  1  0.19225583  0.31958568  0.15082161  1
  O  O16  1  0.09979539  0.93538988  0.33930669  1
  O  O17  1  0.65299107  0.51545988  0.16545976  1
  O  O18  1  0.86802827  0.20330092  0.60671728  1
  O  O19  1  0.87942032  0.05773915  0.89483957  1
  O  O20  1  0.52685302  0.19143458  0.60990181  1
  O  O21  1  0.22225972  0.05042062  0.88886781  1
  O  O22  1  0.79742128  0.47574011  0.39483957  1
  O  O23  1  0.94866362  0.11324517  0.10990181  1
  O  O24  1  0.81071157  0.13887248  0.38886781  1
  O  O25  1  0.93998179  0.77525445  0.10671728  1
