# generated using pymatgen
data_KCr12Si8ClO28
_symmetry_space_group_name_H-M   'P 1'
_cell_length_a   9.95710014
_cell_length_b   9.95710014
_cell_length_c   9.95710014
_cell_angle_alpha   64.02910038
_cell_angle_beta   64.02910038
_cell_angle_gamma   97.13287363
_symmetry_Int_Tables_number   1
_chemical_formula_structural   KCr12Si8ClO28
_chemical_formula_sum   'K1 Cr12 Si8 Cl1 O28'
_cell_volume   734.38811419
_cell_formula_units_Z   1
loop_
 _symmetry_equiv_pos_site_id
 _symmetry_equiv_pos_as_xyz
  1  'x, y, z'
loop_
 _atom_site_type_symbol
 _atom_site_label
 _atom_site_symmetry_multiplicity
 _atom_site_fract_x
 _atom_site_fract_y
 _atom_site_fract_z
 _atom_site_occupancy
  K  K0  1  0.04308886  0.04308886  -0.00000000  1
  Cr  Cr1  1  0.50950574  0.28317861  0.77367287  1
  Cr  Cr2  1  0.05685148  0.28317861  0.22632713  1
  Cr  Cr3  1  0.28317861  0.05685148  0.22632713  1
  Cr  Cr4  1  0.28317861  0.50950574  0.77367287  1
  Cr  Cr5  1  0.48915083  0.71960603  0.23045520  1
  Cr  Cr6  1  0.95006123  0.71960603  0.76954480  1
  Cr  Cr7  1  0.71960603  0.95006123  0.76954480  1
  Cr  Cr8  1  0.71960603  0.48915083  0.23045520  1
  Cr  Cr9  1  0.81821432  0.49975047  0.68153615  1
  Cr  Cr10  1  0.18128662  0.49975047  0.31846385  1
  Cr  Cr11  1  0.49975047  0.18128662  0.31846385  1
  Cr  Cr12  1  0.49975047  0.81821432  0.68153615  1
  Si  Si13  1  0.33430457  0.33430457  0.55506047  1
  Si  Si14  1  0.88936503  0.88936503  0.44493953  1
  Si  Si15  1  0.33430457  0.88936503  0.00000000  1
  Si  Si16  1  0.88936503  0.33430457  -0.00000000  1
  Si  Si17  1  0.66669974  0.66669974  0.44247098  1
  Si  Si18  1  0.10917072  0.10917072  0.55752902  1
  Si  Si19  1  0.66669974  0.10917072  0.00000000  1
  Si  Si20  1  0.10917072  0.66669974  0.00000000  1
  Cl  Cl21  1  0.43108552  0.43108552  0.00000000  1
  O  O22  1  0.69154194  0.50792820  0.56331676  1
  O  O23  1  0.07124496  0.25485870  0.43668324  1
  O  O24  1  0.69154194  0.25485870  0.81638625  1
  O  O25  1  0.07124496  0.50792820  0.18361375  1
  O  O26  1  0.50792820  0.07124496  0.18361375  1
  O  O27  1  0.25485870  0.69154194  0.81638625  1
  O  O28  1  0.50792820  0.69154194  0.56331676  1
  O  O29  1  0.25485870  0.07124496  0.43668324  1
  O  O30  1  0.31027387  0.49301866  0.43325459  1
  O  O31  1  0.92627325  0.74352847  0.56674541  1
  O  O32  1  0.31027387  0.74352847  0.18274478  1
  O  O33  1  0.92627325  0.49301866  0.81725522  1
  O  O34  1  0.49301866  0.92627325  0.81725522  1
  O  O35  1  0.74352847  0.31027387  0.18274478  1
  O  O36  1  0.49301866  0.31027387  0.43325459  1
  O  O37  1  0.74352847  0.92627325  0.56674541  1
  O  O38  1  0.17218381  0.17218381  0.65618059  1
  O  O39  1  0.82836440  0.82836440  0.34381941  1
  O  O40  1  0.17218381  0.82836440  -0.00000000  1
  O  O41  1  0.82836440  0.17218381  -0.00000000  1
  O  O42  1  0.34366845  0.34366845  0.71094018  1
  O  O43  1  0.05460862  0.05460862  0.28905982  1
  O  O44  1  0.34366845  0.05460862  0.00000000  1
  O  O45  1  0.05460862  0.34366845  0.00000000  1
  O  O46  1  0.65413221  0.65413221  0.28969479  1
  O  O47  1  0.94382700  0.94382700  0.71030521  1
  O  O48  1  0.65413221  0.94382700  0.00000000  1
  O  O49  1  0.94382700  0.65413221  0.00000000  1
