# generated using pymatgen
data_K7Rb5(Fe2O5)2
_symmetry_space_group_name_H-M   'P 1'
_cell_length_a   7.01437033
_cell_length_b   9.72165346
_cell_length_c   9.72694515
_cell_angle_alpha   73.98093708
_cell_angle_beta   111.05423311
_cell_angle_gamma   111.07048724
_symmetry_Int_Tables_number   1
_chemical_formula_structural   K7Rb5(Fe2O5)2
_chemical_formula_sum   'K7 Rb5 Fe4 O10'
_cell_volume   569.35781043
_cell_formula_units_Z   1
loop_
 _symmetry_equiv_pos_site_id
 _symmetry_equiv_pos_as_xyz
  1  'x, y, z'
loop_
 _atom_site_type_symbol
 _atom_site_label
 _atom_site_symmetry_multiplicity
 _atom_site_fract_x
 _atom_site_fract_y
 _atom_site_fract_z
 _atom_site_occupancy
  K  K0  1  0.50063799  0.71995879  0.27976504  1
  K  K1  1  0.99851502  0.21845218  0.77829629  1
  K  K2  1  0.49872470  0.27840979  0.71876198  1
  K  K3  1  0.00034985  0.77938759  0.21978454  1
  K  K4  1  0.75170774  0.51080196  0.99094634  1
  K  K5  1  0.25169571  0.01054032  0.49111140  1
  K  K6  1  0.75159078  0.99110546  0.51046375  1
  Rb  Rb7  1  0.75267101  0.09257008  0.09357402  1
  Rb  Rb8  1  0.25206129  0.59361998  0.59200191  1
  Rb  Rb9  1  0.74411278  0.40547339  0.40659032  1
  Rb  Rb10  1  0.24451785  0.90701627  0.90543188  1
  Rb  Rb11  1  0.25052556  0.49249467  0.00835148  1
  Fe  Fe12  1  0.15089896  0.34641212  0.34844827  1
  Fe  Fe13  1  0.65335693  0.84895571  0.84716557  1
  Fe  Fe14  1  0.36221613  0.15585015  0.15779444  1
  Fe  Fe15  1  0.85945513  0.65702129  0.65507562  1
  O  O16  1  0.08803409  0.24546535  0.52967111  1
  O  O17  1  0.59653617  0.75193418  0.03055830  1
  O  O18  1  0.08771089  0.52788756  0.24804641  1
  O  O19  1  0.58838258  0.02920023  0.74491891  1
  O  O20  1  0.40938069  0.25038895  0.97041405  1
  O  O21  1  0.90855718  0.75347969  0.46888206  1
  O  O22  1  0.40893843  0.96855245  0.25290682  1
  O  O23  1  0.90028624  0.46791078  0.74638385  1
  O  O24  1  0.29132671  0.26098742  0.26779627  1
  O  O25  1  0.79170963  0.76402364  0.76475938  1
