# generated using pymatgen
data_KCr12Si8BrO28
_symmetry_space_group_name_H-M   'P 1'
_cell_length_a   9.97571026
_cell_length_b   9.97571026
_cell_length_c   9.97571026
_cell_angle_alpha   64.06143585
_cell_angle_beta   64.06143585
_cell_angle_gamma   97.19147915
_symmetry_Int_Tables_number   1
_chemical_formula_structural   KCr12Si8BrO28
_chemical_formula_sum   'K1 Cr12 Si8 Br1 O28'
_cell_volume   738.75191900
_cell_formula_units_Z   1
loop_
 _symmetry_equiv_pos_site_id
 _symmetry_equiv_pos_as_xyz
  1  'x, y, z'
loop_
 _atom_site_type_symbol
 _atom_site_label
 _atom_site_symmetry_multiplicity
 _atom_site_fract_x
 _atom_site_fract_y
 _atom_site_fract_z
 _atom_site_occupancy
  K  K0  1  0.04056422  0.04056422  0.00000000  1
  Cr  Cr1  1  0.81647910  0.49951381  0.68303471  1
  Cr  Cr2  1  0.18254852  0.49951381  0.31696529  1
  Cr  Cr3  1  0.49951381  0.18254852  0.31696529  1
  Cr  Cr4  1  0.49951381  0.81647910  0.68303471  1
  Cr  Cr5  1  0.51038931  0.28132301  0.77093370  1
  Cr  Cr6  1  0.05225671  0.28132301  0.22906630  1
  Cr  Cr7  1  0.28132301  0.05225671  0.22906630  1
  Cr  Cr8  1  0.28132301  0.51038931  0.77093370  1
  Cr  Cr9  1  0.49014071  0.72024491  0.23010420  1
  Cr  Cr10  1  0.95034911  0.72024491  0.76989580  1
  Cr  Cr11  1  0.72024491  0.95034911  0.76989580  1
  Cr  Cr12  1  0.72024491  0.49014071  0.23010420  1
  Si  Si13  1  0.33499131  0.33499131  0.55470860  1
  Si  Si14  1  0.88969992  0.88969992  0.44529140  1
  Si  Si15  1  0.33499131  0.88969992  0.00000000  1
  Si  Si16  1  0.88969992  0.33499131  0.00000000  1
  Si  Si17  1  0.66627958  0.66627958  0.44299199  1
  Si  Si18  1  0.10927157  0.10927157  0.55700801  1
  Si  Si19  1  0.66627958  0.10927157  -0.00000000  1
  Si  Si20  1  0.10927157  0.66627958  0.00000000  1
  Br  Br21  1  0.47377825  0.47377825  0.00000000  1
  O  O22  1  0.17254102  0.17254102  0.65552247  1
  O  O23  1  0.82806349  0.82806349  0.34447753  1
  O  O24  1  0.17254102  0.82806349  0.00000000  1
  O  O25  1  0.82806349  0.17254102  0.00000000  1
  O  O26  1  0.34322642  0.34322642  0.71187801  1
  O  O27  1  0.05510443  0.05510443  0.28812199  1
  O  O28  1  0.34322642  0.05510443  0.00000000  1
  O  O29  1  0.05510443  0.34322642  -0.00000000  1
  O  O30  1  0.65468839  0.65468839  0.28933891  1
  O  O31  1  0.94402730  0.94402730  0.71066109  1
  O  O32  1  0.65468839  0.94402730  0.00000000  1
  O  O33  1  0.94402730  0.65468839  -0.00000000  1
  O  O34  1  0.69085802  0.50724789  0.56365897  1
  O  O35  1  0.07090685  0.25451698  0.43634103  1
  O  O36  1  0.69085802  0.25451698  0.81638987  1
  O  O37  1  0.07090685  0.50724789  0.18361013  1
  O  O38  1  0.50724789  0.07090685  0.18361013  1
  O  O39  1  0.25451698  0.69085802  0.81638987  1
  O  O40  1  0.50724789  0.69085802  0.56365897  1
  O  O41  1  0.25451698  0.07090685  0.43634103  1
  O  O42  1  0.31027453  0.49364353  0.43412800  1
  O  O43  1  0.92777154  0.74440254  0.56587200  1
  O  O44  1  0.31027453  0.74440254  0.18336900  1
  O  O45  1  0.92777154  0.49364353  0.81663100  1
  O  O46  1  0.49364353  0.92777154  0.81663100  1
  O  O47  1  0.74440254  0.31027453  0.18336900  1
  O  O48  1  0.49364353  0.31027453  0.43412800  1
  O  O49  1  0.74440254  0.92777154  0.56587200  1
