# generated using pymatgen
data_HoCu4Ni
_symmetry_space_group_name_H-M   'P 1'
_cell_length_a   4.05402564
_cell_length_b   4.95099890
_cell_length_c   4.95107812
_cell_angle_alpha   59.99076460
_cell_angle_beta   90.00000000
_cell_angle_gamma   90.00000000
_symmetry_Int_Tables_number   1
_chemical_formula_structural   HoCu4Ni
_chemical_formula_sum   'Ho1 Cu4 Ni1'
_cell_volume   86.05365238
_cell_formula_units_Z   1
loop_
 _symmetry_equiv_pos_site_id
 _symmetry_equiv_pos_as_xyz
  1  'x, y, z'
loop_
 _atom_site_type_symbol
 _atom_site_label
 _atom_site_symmetry_multiplicity
 _atom_site_fract_x
 _atom_site_fract_y
 _atom_site_fract_z
 _atom_site_occupancy
  Ho  Ho0  1  0.00000000  0.99999216  0.00000700  1
  Cu  Cu1  1  0.00000000  0.66662455  0.66669496  1
  Cu  Cu2  1  0.50000000  0.49919205  0.49918950  1
  Cu  Cu3  1  0.50000000  0.49918475  0.00162410  1
  Cu  Cu4  1  0.50000000  0.00160528  0.49919383  1
  Ni  Ni5  1  0.00000000  0.33330121  0.33339061  1
