# generated using pymatgen
data_Ho3Sc2S7
_symmetry_space_group_name_H-M   'P 1'
_cell_length_a   3.73314121
_cell_length_b   6.45911817
_cell_length_c   11.38478530
_cell_angle_alpha   103.81431984
_cell_angle_beta   90.00000000
_cell_angle_gamma   73.20296876
_symmetry_Int_Tables_number   1
_chemical_formula_structural   Ho3Sc2S7
_chemical_formula_sum   'Ho3 Sc2 S7'
_cell_volume   254.50081443
_cell_formula_units_Z   1
loop_
 _symmetry_equiv_pos_site_id
 _symmetry_equiv_pos_as_xyz
  1  'x, y, z'
loop_
 _atom_site_type_symbol
 _atom_site_label
 _atom_site_symmetry_multiplicity
 _atom_site_fract_x
 _atom_site_fract_y
 _atom_site_fract_z
 _atom_site_occupancy
  Ho  Ho0  1  0.69874075  0.60251849  0.18748457  1
  Ho  Ho1  1  0.30166948  0.39666104  0.80926201  1
  Ho  Ho2  1  0.88831465  0.22337071  0.42541245  1
  Sc  Sc3  1  0.11204327  0.77591345  0.57948134  1
  Sc  Sc4  1  0.00048289  0.99903423  0.99747263  1
  S  S5  1  0.03462958  0.93074084  0.20904742  1
  S  S6  1  0.96805001  0.06389999  0.78466641  1
  S  S7  1  0.73519118  0.52961764  0.64741760  1
  S  S8  1  0.25422113  0.49155774  0.35681027  1
  S  S9  1  0.34655180  0.30689640  0.04800336  1
  S  S10  1  0.65476151  0.69047699  0.95045682  1
  S  S11  1  0.50534375  0.98931250  0.50448513  1
