# generated using pymatgen
data_Gd2GaSbO7
_symmetry_space_group_name_H-M   'P 1'
_cell_length_a   7.33476077
_cell_length_b   7.27628132
_cell_length_c   7.39613296
_cell_angle_alpha   90.00000000
_cell_angle_beta   59.72282358
_cell_angle_gamma   119.73660650
_symmetry_Int_Tables_number   1
_chemical_formula_structural   Gd2GaSbO7
_chemical_formula_sum   'Gd4 Ga2 Sb2 O14'
_cell_volume   279.05189818
_cell_formula_units_Z   2
loop_
 _symmetry_equiv_pos_site_id
 _symmetry_equiv_pos_as_xyz
  1  'x, y, z'
loop_
 _atom_site_type_symbol
 _atom_site_label
 _atom_site_symmetry_multiplicity
 _atom_site_fract_x
 _atom_site_fract_y
 _atom_site_fract_z
 _atom_site_occupancy
  Gd  Gd0  1  0.50000000  0.50000000  0.00000000  1
  Gd  Gd1  1  0.50000000  0.00000000  0.00000000  1
  Gd  Gd2  1  0.00000000  0.00000000  0.50000000  1
  Gd  Gd3  1  -0.00000000  0.00000000  0.00000000  1
  Ga  Ga4  1  0.50000000  0.00000000  0.50000000  1
  Ga  Ga5  1  0.50000000  0.50000000  0.50000000  1
  Sb  Sb6  1  -0.00000000  0.50000000  0.00000000  1
  Sb  Sb7  1  -0.00000000  0.50000000  0.50000000  1
  O  O8  1  0.66419022  0.83209511  0.41790489  1
  O  O9  1  0.83676746  0.41838373  0.83161627  1
  O  O10  1  0.24934669  0.82927821  0.83449487  1
  O  O11  1  0.24934669  0.42006848  0.41615844  1
  O  O12  1  0.24934669  0.42006848  0.83449487  1
  O  O13  1  0.24934669  0.82927821  0.41615844  1
  O  O14  1  0.33580978  0.16790489  0.58209511  1
  O  O15  1  0.16323254  0.58161627  0.16838373  1
  O  O16  1  0.75065331  0.17072179  0.16550513  1
  O  O17  1  0.75065331  0.57993152  0.58384156  1
  O  O18  1  0.75065331  0.57993152  0.16550513  1
  O  O19  1  0.75065331  0.17072179  0.58384156  1
  O  O20  1  0.25279866  0.12639933  0.12360067  1
  O  O21  1  0.74720134  0.87360067  0.87639933  1
