# generated using pymatgen
data_InSb3(PO4)6
_symmetry_space_group_name_H-M   'P 1'
_cell_length_a   8.53584595
_cell_length_b   8.74227061
_cell_length_c   12.01433057
_cell_angle_alpha   90.00000000
_cell_angle_beta   90.86769627
_cell_angle_gamma   90.00000000
_symmetry_Int_Tables_number   1
_chemical_formula_structural   InSb3(PO4)6
_chemical_formula_sum   'In2 Sb6 P12 O48'
_cell_volume   896.43868061
_cell_formula_units_Z   2
loop_
 _symmetry_equiv_pos_site_id
 _symmetry_equiv_pos_as_xyz
  1  'x, y, z'
loop_
 _atom_site_type_symbol
 _atom_site_label
 _atom_site_symmetry_multiplicity
 _atom_site_fract_x
 _atom_site_fract_y
 _atom_site_fract_z
 _atom_site_occupancy
  In  In0  1  0.74942798  0.46841600  0.62284824  1
  In  In1  1  0.24942798  0.03158400  0.12284824  1
  Sb  Sb2  1  0.24924100  0.46732223  0.88412238  1
  Sb  Sb3  1  0.74924100  0.03267777  0.38412238  1
  Sb  Sb4  1  0.74957753  0.53400433  0.11489496  1
  Sb  Sb5  1  0.24957753  0.96599567  0.61489496  1
  Sb  Sb6  1  0.25170373  0.53409865  0.38407685  1
  Sb  Sb7  1  0.75170373  0.96590135  0.88407685  1
  P  P8  1  0.61726238  0.88263176  0.14469803  1
  P  P9  1  0.11726238  0.61736824  0.64469803  1
  P  P10  1  0.39274666  0.11684444  0.85309302  1
  P  P11  1  0.89274666  0.38315556  0.35309302  1
  P  P12  1  0.89369152  0.11090525  0.65348810  1
  P  P13  1  0.39369152  0.38909475  0.15348810  1
  P  P14  1  0.10298279  0.87818836  0.35830477  1
  P  P15  1  0.60298279  0.62181164  0.85830477  1
  P  P16  1  0.03263357  0.74755326  0.99427550  1
  P  P17  1  0.53263357  0.75244674  0.49427550  1
  P  P18  1  0.95816140  0.25562509  0.00180310  1
  P  P19  1  0.45816140  0.24437491  0.50180310  1
  O  O20  1  0.68770211  0.72832839  0.18887709  1
  O  O21  1  0.18770211  0.77167161  0.68887709  1
  O  O22  1  0.35043798  0.28406398  0.81611189  1
  O  O23  1  0.85043798  0.21593602  0.31611189  1
  O  O24  1  0.72247125  0.93708668  0.04675104  1
  O  O25  1  0.22247125  0.56291332  0.54675104  1
  O  O26  1  0.29203174  0.06669803  0.94787313  1
  O  O27  1  0.79203174  0.43330197  0.44787313  1
  O  O28  1  0.17674887  0.67098981  0.93828122  1
  O  O29  1  0.67674887  0.82901019  0.43828122  1
  O  O30  1  0.80452978  0.33734902  0.04108378  1
  O  O31  1  0.30452978  0.16265098  0.54108378  1
  O  O32  1  0.64233251  0.00271291  0.23900898  1
  O  O33  1  0.14233251  0.49728709  0.73900898  1
  O  O34  1  0.37494565  0.01186616  0.74918928  1
  O  O35  1  0.87494565  0.48813384  0.24918928  1
  O  O36  1  0.78815898  0.99937452  0.72202024  1
  O  O37  1  0.28815898  0.50062548  0.22202024  1
  O  O38  1  0.21872698  0.97520254  0.29654613  1
  O  O39  1  0.71872698  0.52479746  0.79654613  1
  O  O40  1  0.08252690  0.86289582  0.08001274  1
  O  O41  1  0.58252690  0.63710418  0.58001274  1
  O  O42  1  0.90011446  0.13355677  0.91550829  1
  O  O43  1  0.40011446  0.36644323  0.41550829  1
  O  O44  1  0.06716135  0.06581071  0.68034264  1
  O  O45  1  0.56716135  0.43418929  0.18034264  1
  O  O46  1  0.93017386  0.91698172  0.32727927  1
  O  O47  1  0.43017386  0.58301828  0.82727927  1
  O  O48  1  0.44551503  0.87222764  0.11415799  1
  O  O49  1  0.94551503  0.62777236  0.61415799  1
  O  O50  1  0.57319334  0.11560143  0.88098516  1
  O  O51  1  0.07319334  0.38439857  0.38098516  1
  O  O52  1  0.85665348  0.07917147  0.52888447  1
  O  O53  1  0.35665348  0.42082853  0.02888447  1
  O  O54  1  0.12109521  0.89377569  0.48678377  1
  O  O55  1  0.62109521  0.60622431  0.98678377  1
  O  O56  1  0.94261144  0.61621719  0.05211317  1
  O  O57  1  0.44261144  0.88378281  0.55211317  1
  O  O58  1  0.05123383  0.36984685  0.92776575  1
  O  O59  1  0.55123383  0.13015315  0.42776575  1
  O  O60  1  0.87703391  0.27745633  0.68319560  1
  O  O61  1  0.37703391  0.22254367  0.18319560  1
  O  O62  1  0.11358788  0.70260601  0.33152043  1
  O  O63  1  0.61358788  0.79739399  0.83152043  1
  O  O64  1  0.93115681  0.81575984  0.89590002  1
  O  O65  1  0.43115681  0.68424016  0.39590002  1
  O  O66  1  0.05242808  0.19322304  0.09820298  1
  O  O67  1  0.55242808  0.30677696  0.59820298  1
