# generated using pymatgen
data_GdSiPd
_symmetry_space_group_name_H-M   'P 1'
_cell_length_a   4.34862617
_cell_length_b   5.70559755
_cell_length_c   5.56495777
_cell_angle_alpha   95.71766305
_cell_angle_beta   112.99899728
_cell_angle_gamma   67.59914901
_symmetry_Int_Tables_number   1
_chemical_formula_structural   GdSiPd
_chemical_formula_sum   'Gd2 Si2 Pd2'
_cell_volume   117.31169002
_cell_formula_units_Z   2
loop_
 _symmetry_equiv_pos_site_id
 _symmetry_equiv_pos_as_xyz
  1  'x, y, z'
loop_
 _atom_site_type_symbol
 _atom_site_label
 _atom_site_symmetry_multiplicity
 _atom_site_fract_x
 _atom_site_fract_y
 _atom_site_fract_z
 _atom_site_occupancy
  Gd  Gd0  1  0.75996138  0.69564014  0.21556290  1
  Gd  Gd1  1  0.24003862  0.30435986  0.78443710  1
  Si  Si2  1  0.05038981  0.10480091  0.20558054  1
  Si  Si3  1  0.94961019  0.89519909  0.79441946  1
  Pd  Pd4  1  0.55669891  0.25825512  0.37165294  1
  Pd  Pd5  1  0.44330109  0.74174488  0.62834706  1
