# generated using pymatgen
data_Ga4Ni3Pt
_symmetry_space_group_name_H-M   'P 1'
_cell_length_a   4.74685274
_cell_length_b   4.74685274
_cell_length_c   4.74685274
_cell_angle_alpha   90.30256476
_cell_angle_beta   89.69743524
_cell_angle_gamma   90.30256476
_symmetry_Int_Tables_number   1
_chemical_formula_structural   Ga4Ni3Pt
_chemical_formula_sum   'Ga4 Ni3 Pt1'
_cell_volume   106.95452736
_cell_formula_units_Z   1
loop_
 _symmetry_equiv_pos_site_id
 _symmetry_equiv_pos_as_xyz
  1  'x, y, z'
loop_
 _atom_site_type_symbol
 _atom_site_label
 _atom_site_symmetry_multiplicity
 _atom_site_fract_x
 _atom_site_fract_y
 _atom_site_fract_z
 _atom_site_occupancy
  Ga  Ga0  1  0.16676631  0.33323369  0.66676631  1
  Ga  Ga1  1  0.34572850  0.66266101  0.14418479  1
  Ga  Ga2  1  0.64418479  0.15427150  0.33733899  1
  Ga  Ga3  1  0.83733899  0.85581521  0.84572850  1
  Ni  Ni4  1  0.63986659  0.35551707  0.85956868  1
  Ni  Ni5  1  0.35956868  0.86013341  0.64448293  1
  Ni  Ni6  1  0.14448293  0.14043132  0.13986659  1
  Pt  Pt7  1  0.86206321  0.63793679  0.36206321  1
