# generated using pymatgen
data_K4BaNb5O15
_symmetry_space_group_name_H-M   'P 1'
_cell_length_a   5.76536391
_cell_length_b   7.06692411
_cell_length_c   9.11866068
_cell_angle_alpha   104.96100602
_cell_angle_beta   71.57095728
_cell_angle_gamma   90.00000000
_symmetry_Int_Tables_number   1
_chemical_formula_structural   K4BaNb5O15
_chemical_formula_sum   'K4 Ba1 Nb5 O15'
_cell_volume   339.17100304
_cell_formula_units_Z   1
loop_
 _symmetry_equiv_pos_site_id
 _symmetry_equiv_pos_as_xyz
  1  'x, y, z'
loop_
 _atom_site_type_symbol
 _atom_site_label
 _atom_site_symmetry_multiplicity
 _atom_site_fract_x
 _atom_site_fract_y
 _atom_site_fract_z
 _atom_site_occupancy
  K  K0  1  0.39982257  0.40086841  0.20035486  1
  K  K1  1  0.79959270  0.79959884  0.40081459  1
  K  K2  1  0.20040730  0.20040116  0.59918541  1
  K  K3  1  0.60017743  0.59913159  0.79964514  1
  Ba  Ba4  1  0.00000000  -0.00000000  0.00000000  1
  Nb  Nb5  1  0.79838029  0.30354940  0.40323943  1
  Nb  Nb6  1  0.20161971  0.69645060  0.59676057  1
  Nb  Nb7  1  0.60212570  0.09991513  0.79574859  1
  Nb  Nb8  1  0.00000000  0.50000000  0.00000000  1
  Nb  Nb9  1  0.39787430  0.90008487  0.20425141  1
  O  O10  1  0.60198376  0.09927579  0.29858189  1
  O  O11  1  0.00000000  0.50000000  0.50000000  1
  O  O12  1  0.39801624  0.90072421  0.70141811  1
  O  O13  1  0.80127583  0.29838794  0.90041783  1
  O  O14  1  0.19872417  0.70161206  0.09958217  1
  O  O15  1  0.70003654  0.20033418  0.59992691  1
  O  O16  1  0.09944582  0.60223617  0.80110835  1
  O  O17  1  0.50000000  -0.00000000  0.00000000  1
  O  O18  1  0.90055418  0.39776383  0.19889165  1
  O  O19  1  0.29996346  0.79966582  0.40007309  1
  O  O20  1  0.50000000  0.50000000  0.50000000  1
  O  O21  1  0.90056565  0.90072421  0.70141811  1
  O  O22  1  0.29830634  0.29838794  0.90041783  1
  O  O23  1  0.70169366  0.70161206  0.09958217  1
  O  O24  1  0.09943435  0.09927579  0.29858189  1
