# generated using pymatgen
data_Ho2PbS4
_symmetry_space_group_name_H-M   'P 1'
_cell_length_a   7.95583642
_cell_length_b   12.14435951
_cell_length_c   14.93165661
_cell_angle_alpha   90.00000000
_cell_angle_beta   74.54934338
_cell_angle_gamma   90.00000000
_symmetry_Int_Tables_number   1
_chemical_formula_structural   Ho2PbS4
_chemical_formula_sum   'Ho16 Pb8 S32'
_cell_volume   1390.53690889
_cell_formula_units_Z   8
loop_
 _symmetry_equiv_pos_site_id
 _symmetry_equiv_pos_as_xyz
  1  'x, y, z'
loop_
 _atom_site_type_symbol
 _atom_site_label
 _atom_site_symmetry_multiplicity
 _atom_site_fract_x
 _atom_site_fract_y
 _atom_site_fract_z
 _atom_site_occupancy
  Ho  Ho0  1  0.56943212  0.71494721  0.36087467  1
  Ho  Ho1  1  0.06969321  0.71494721  0.36087467  1
  Ho  Ho2  1  0.43056788  0.21494721  0.63912533  1
  Ho  Ho3  1  0.93030679  0.21494721  0.63912533  1
  Ho  Ho4  1  0.93114411  0.58539686  0.13771178  1
  Ho  Ho5  1  0.06885589  0.08539686  0.86228822  1
  Ho  Ho6  1  0.43059807  0.57532793  0.13880385  1
  Ho  Ho7  1  0.56940193  0.07532793  0.86119615  1
  Ho  Ho8  1  0.82343283  0.07064775  0.35313433  1
  Ho  Ho9  1  0.17656717  0.57064775  0.64686567  1
  Ho  Ho10  1  0.32617804  0.06725148  0.34764392  1
  Ho  Ho11  1  0.67382196  0.56725148  0.65235608  1
  Ho  Ho12  1  0.67425209  0.23199021  0.15391368  1
  Ho  Ho13  1  0.17183423  0.23199021  0.15391368  1
  Ho  Ho14  1  0.32574791  0.73199021  0.84608632  1
  Ho  Ho15  1  0.82816577  0.73199021  0.84608632  1
  Pb  Pb16  1  0.95191582  0.93792088  0.09616837  1
  Pb  Pb17  1  0.04808418  0.43792088  0.90383163  1
  Pb  Pb18  1  0.46253734  0.87156435  0.07492533  1
  Pb  Pb19  1  0.53746266  0.37156435  0.92507467  1
  Pb  Pb20  1  0.53963494  0.40512895  0.41957694  1
  Pb  Pb21  1  0.04078812  0.40512895  0.41957694  1
  Pb  Pb22  1  0.46036506  0.90512895  0.58042306  1
  Pb  Pb23  1  0.95921188  0.90512895  0.58042306  1
  S  S24  1  0.86005239  0.27771616  0.27989523  1
  S  S25  1  0.13994761  0.77771616  0.72010477  1
  S  S26  1  0.64063856  0.02218625  0.22575839  1
  S  S27  1  0.13360305  0.02218625  0.22575839  1
  S  S28  1  0.35936144  0.52218625  0.77424161  1
  S  S29  1  0.86639695  0.52218625  0.77424161  1
  S  S30  1  0.36114814  0.27614118  0.27770372  1
  S  S31  1  0.63885186  0.77614118  0.72229628  1
  S  S32  1  0.48362148  0.17908511  0.03275704  1
  S  S33  1  0.51637852  0.67908511  0.96724296  1
  S  S34  1  0.71334689  0.44050063  0.07931916  1
  S  S35  1  0.20733395  0.44050063  0.07931916  1
  S  S36  1  0.28665311  0.94050063  0.92068084  1
  S  S37  1  0.79266605  0.94050063  0.92068084  1
  S  S38  1  0.65942554  0.73028829  0.17391988  1
  S  S39  1  0.16665458  0.73028829  0.17391988  1
  S  S40  1  0.34057446  0.23028829  0.82608012  1
  S  S41  1  0.83334542  0.23028829  0.82608012  1
  S  S42  1  0.98023290  0.16298944  0.03953421  1
  S  S43  1  0.01976710  0.66298944  0.96046579  1
  S  S44  1  0.29051417  0.85524505  0.41897167  1
  S  S45  1  0.70948583  0.35524505  0.58102833  1
  S  S46  1  0.51119377  0.11999994  0.46878735  1
  S  S47  1  0.02001888  0.11999994  0.46878735  1
  S  S48  1  0.48880623  0.61999994  0.53121265  1
  S  S49  1  0.97998112  0.61999994  0.53121265  1
  S  S50  1  0.33626431  0.56098281  0.32747138  1
  S  S51  1  0.66373569  0.06098281  0.67252862  1
  S  S52  1  0.83726787  0.56426829  0.32546425  1
  S  S53  1  0.16273213  0.06426829  0.67453575  1
  S  S54  1  0.78894769  0.85617974  0.42210461  1
  S  S55  1  0.21105231  0.35617974  0.57789539  1
