# generated using pymatgen
data_K2TiCr(PO4)3
_symmetry_space_group_name_H-M   'P 1'
_cell_length_a   9.94820082
_cell_length_b   9.94820082
_cell_length_c   9.94820082
_cell_angle_alpha   90.00000000
_cell_angle_beta   90.00000000
_cell_angle_gamma   90.00000000
_symmetry_Int_Tables_number   1
_chemical_formula_structural   K2TiCr(PO4)3
_chemical_formula_sum   'K8 Ti4 Cr4 P12 O48'
_cell_volume   984.54060167
_cell_formula_units_Z   4
loop_
 _symmetry_equiv_pos_site_id
 _symmetry_equiv_pos_as_xyz
  1  'x, y, z'
loop_
 _atom_site_type_symbol
 _atom_site_label
 _atom_site_symmetry_multiplicity
 _atom_site_fract_x
 _atom_site_fract_y
 _atom_site_fract_z
 _atom_site_occupancy
  K  K0  1  0.18342124  0.81657876  0.31657876  1
  K  K1  1  0.81657876  0.31657876  0.18342124  1
  K  K2  1  0.68342124  0.68342124  0.68342124  1
  K  K3  1  0.31657876  0.18342124  0.81657876  1
  K  K4  1  0.95619860  0.04380140  0.54380140  1
  K  K5  1  0.04380140  0.54380140  0.95619860  1
  K  K6  1  0.45619860  0.45619860  0.45619860  1
  K  K7  1  0.54380140  0.95619860  0.04380140  1
  Ti  Ti8  1  0.16379402  0.16379402  0.16379402  1
  Ti  Ti9  1  0.66379402  0.33620598  0.83620598  1
  Ti  Ti10  1  0.33620598  0.83620598  0.66379402  1
  Ti  Ti11  1  0.83620598  0.66379402  0.33620598  1
  Cr  Cr12  1  0.60520592  0.10520592  0.39479408  1
  Cr  Cr13  1  0.89479408  0.89479408  0.89479408  1
  Cr  Cr14  1  0.39479408  0.60520592  0.10520592  1
  Cr  Cr15  1  0.10520592  0.39479408  0.60520592  1
  P  P16  1  0.87530634  0.97756744  0.20707279  1
  P  P17  1  0.70707279  0.62469366  0.02243256  1
  P  P18  1  0.52243256  0.79292721  0.37530634  1
  P  P19  1  0.62469366  0.02243256  0.70707279  1
  P  P20  1  0.79292721  0.37530634  0.52243256  1
  P  P21  1  0.97756744  0.20707279  0.87530634  1
  P  P22  1  0.37530634  0.52243256  0.79292721  1
  P  P23  1  0.20707279  0.87530634  0.97756744  1
  P  P24  1  0.02243256  0.70707279  0.62469366  1
  P  P25  1  0.12469366  0.47756744  0.29292721  1
  P  P26  1  0.29292721  0.12469366  0.47756744  1
  P  P27  1  0.47756744  0.29292721  0.12469366  1
  O  O28  1  0.01237185  0.05117141  0.22788034  1
  O  O29  1  0.72788034  0.48762815  0.94882859  1
  O  O30  1  0.44882859  0.77211966  0.51237185  1
  O  O31  1  0.48762815  0.94882859  0.72788034  1
  O  O32  1  0.77211966  0.51237185  0.44882859  1
  O  O33  1  0.05117141  0.22788034  0.01237185  1
  O  O34  1  0.51237185  0.44882859  0.77211966  1
  O  O35  1  0.22788034  0.01237185  0.05117141  1
  O  O36  1  0.94882859  0.72788034  0.48762815  1
  O  O37  1  0.98762815  0.55117141  0.27211966  1
  O  O38  1  0.27211966  0.98762815  0.55117141  1
  O  O39  1  0.55117141  0.27211966  0.98762815  1
  O  O40  1  0.89759564  0.82835838  0.24895856  1
  O  O41  1  0.74895856  0.60240436  0.17164162  1
  O  O42  1  0.67164162  0.75104144  0.39759564  1
  O  O43  1  0.60240436  0.17164162  0.74895856  1
  O  O44  1  0.75104144  0.39759564  0.67164162  1
  O  O45  1  0.82835838  0.24895856  0.89759564  1
  O  O46  1  0.39759564  0.67164162  0.75104144  1
  O  O47  1  0.24895856  0.89759564  0.82835838  1
  O  O48  1  0.17164162  0.74895856  0.60240436  1
  O  O49  1  0.10240436  0.32835838  0.25104144  1
  O  O50  1  0.25104144  0.10240436  0.32835838  1
  O  O51  1  0.32835838  0.25104144  0.10240436  1
  O  O52  1  0.77508618  0.04830658  0.29949252  1
  O  O53  1  0.79949252  0.72491382  0.95169342  1
  O  O54  1  0.45169342  0.70050748  0.27508618  1
  O  O55  1  0.72491382  0.95169342  0.79949252  1
  O  O56  1  0.70050748  0.27508618  0.45169342  1
  O  O57  1  0.04830658  0.29949252  0.77508618  1
  O  O58  1  0.27508618  0.45169342  0.70050748  1
  O  O59  1  0.29949252  0.77508618  0.04830658  1
  O  O60  1  0.95169342  0.79949252  0.72491382  1
  O  O61  1  0.22491382  0.54830658  0.20050748  1
  O  O62  1  0.20050748  0.22491382  0.54830658  1
  O  O63  1  0.54830658  0.20050748  0.22491382  1
  O  O64  1  0.82738279  0.98706979  0.05998916  1
  O  O65  1  0.55998916  0.67261721  0.01293021  1
  O  O66  1  0.51293021  0.94001084  0.32738279  1
  O  O67  1  0.67261721  0.01293021  0.55998916  1
  O  O68  1  0.94001084  0.32738279  0.51293021  1
  O  O69  1  0.98706979  0.05998916  0.82738279  1
  O  O70  1  0.32738279  0.51293021  0.94001084  1
  O  O71  1  0.05998916  0.82738279  0.98706979  1
  O  O72  1  0.01293021  0.55998916  0.67261721  1
  O  O73  1  0.17261721  0.48706979  0.44001084  1
  O  O74  1  0.44001084  0.17261721  0.48706979  1
  O  O75  1  0.48706979  0.44001084  0.17261721  1
