# generated using pymatgen
data_Li9Mn2Co5O16
_symmetry_space_group_name_H-M   'P 1'
_cell_length_a   5.09002959
_cell_length_b   9.70947979
_cell_length_c   5.76789990
_cell_angle_alpha   90.00000000
_cell_angle_beta   90.00000000
_cell_angle_gamma   98.86707274
_symmetry_Int_Tables_number   1
_chemical_formula_structural   Li9Mn2Co5O16
_chemical_formula_sum   'Li9 Mn2 Co5 O16'
_cell_volume   281.65164814
_cell_formula_units_Z   1
loop_
 _symmetry_equiv_pos_site_id
 _symmetry_equiv_pos_as_xyz
  1  'x, y, z'
loop_
 _atom_site_type_symbol
 _atom_site_label
 _atom_site_symmetry_multiplicity
 _atom_site_fract_x
 _atom_site_fract_y
 _atom_site_fract_z
 _atom_site_occupancy
  Li  Li0  1  0.26222815  0.26161555  0.25247216  1
  Li  Li1  1  0.73777185  0.73838445  0.25247216  1
  Li  Li2  1  0.75989423  0.26558955  0.50202207  1
  Li  Li3  1  0.24010577  0.73441045  0.50202207  1
  Li  Li4  1  0.24681480  0.26717759  0.74923339  1
  Li  Li5  1  0.75318520  0.73282241  0.74923339  1
  Li  Li6  1  0.75017496  0.26152032  0.99810809  1
  Li  Li7  1  0.24982504  0.73847968  0.99810809  1
  Li  Li8  1  -0.00000000  0.50000000  0.74964110  1
  Mn  Mn9  1  -0.00000000  0.00000000  0.00618039  1
  Mn  Mn10  1  0.50000000  0.00000000  0.75193415  1
  Co  Co11  1  0.50000000  0.50000000  0.99037906  1
  Co  Co12  1  0.50000000  0.00000000  0.24801547  1
  Co  Co13  1  -0.00000000  0.50000000  0.24929578  1
  Co  Co14  1  -0.00000000  0.00000000  0.49947457  1
  Co  Co15  1  0.50000000  0.50000000  0.49696988  1
  O  O16  1  0.85608417  0.10940016  0.24666527  1
  O  O17  1  0.38089225  0.61571818  0.25482343  1
  O  O18  1  0.36960010  0.10686215  0.49941393  1
  O  O19  1  0.85889438  0.60829065  0.48452747  1
  O  O20  1  0.85596166  0.11077689  0.75704353  1
  O  O21  1  0.39770915  0.61772517  0.74237704  1
  O  O22  1  0.39216856  0.11379784  -0.00284584  1
  O  O23  1  0.87696872  0.61530878  0.02021427  1
  O  O24  1  0.61910775  0.38428182  0.25482343  1
  O  O25  1  0.14391583  0.89059984  0.24666527  1
  O  O26  1  0.14110562  0.39170935  0.48452747  1
  O  O27  1  0.63039990  0.89313785  0.49941393  1
  O  O28  1  0.60229085  0.38227483  0.74237704  1
  O  O29  1  0.14403834  0.88922311  0.75704353  1
  O  O30  1  0.12303128  0.38469122  0.02021427  1
  O  O31  1  0.60783144  0.88620216  -0.00284584  1
