# generated using pymatgen
data_Dy2CrSbO7
_symmetry_space_group_name_H-M   'P 1'
_cell_length_a   7.28266166
_cell_length_b   7.26093137
_cell_length_c   7.33456721
_cell_angle_alpha   90.00000000
_cell_angle_beta   59.76395018
_cell_angle_gamma   119.90134438
_symmetry_Int_Tables_number   1
_chemical_formula_structural   Dy2CrSbO7
_chemical_formula_sum   'Dy4 Cr2 Sb2 O14'
_cell_volume   273.67419313
_cell_formula_units_Z   2
loop_
 _symmetry_equiv_pos_site_id
 _symmetry_equiv_pos_as_xyz
  1  'x, y, z'
loop_
 _atom_site_type_symbol
 _atom_site_label
 _atom_site_symmetry_multiplicity
 _atom_site_fract_x
 _atom_site_fract_y
 _atom_site_fract_z
 _atom_site_occupancy
  Dy  Dy0  1  0.50000000  0.50000000  -0.00000000  1
  Dy  Dy1  1  0.50000000  0.00000000  -0.00000000  1
  Dy  Dy2  1  0.00000000  0.00000000  0.50000000  1
  Dy  Dy3  1  0.00000000  0.00000000  -0.00000000  1
  Cr  Cr4  1  0.50000000  0.00000000  0.50000000  1
  Cr  Cr5  1  0.50000000  0.50000000  0.50000000  1
  Sb  Sb6  1  0.00000000  0.50000000  -0.00000000  1
  Sb  Sb7  1  0.00000000  0.50000000  0.50000000  1
  O  O8  1  0.68021725  0.84010863  0.40989137  1
  O  O9  1  0.83577213  0.41788606  0.83211394  1
  O  O10  1  0.25173260  0.83150545  0.83689177  1
  O  O11  1  0.25173260  0.42022715  0.41137563  1
  O  O12  1  0.25173260  0.42022715  0.83689177  1
  O  O13  1  0.25173260  0.83150545  0.41137563  1
  O  O14  1  0.31978275  0.15989137  0.59010863  1
  O  O15  1  0.16422787  0.58211394  0.16788606  1
  O  O16  1  0.74826740  0.16849455  0.16310823  1
  O  O17  1  0.74826740  0.57977285  0.58862437  1
  O  O18  1  0.74826740  0.57977285  0.16310823  1
  O  O19  1  0.74826740  0.16849455  0.58862437  1
  O  O20  1  0.25511669  0.12755834  0.12244166  1
  O  O21  1  0.74488331  0.87244166  0.87755834  1
