# generated using pymatgen
data_Eu2P3Pt4
_symmetry_space_group_name_H-M   'P 1'
_cell_length_a   4.17127845
_cell_length_b   4.17127845
_cell_length_c   10.07653190
_cell_angle_alpha   78.05457682
_cell_angle_beta   78.05457682
_cell_angle_gamma   90.00000000
_symmetry_Int_Tables_number   1
_chemical_formula_structural   Eu2P3Pt4
_chemical_formula_sum   'Eu2 P3 Pt4'
_cell_volume   167.64794774
_cell_formula_units_Z   1
loop_
 _symmetry_equiv_pos_site_id
 _symmetry_equiv_pos_as_xyz
  1  'x, y, z'
loop_
 _atom_site_type_symbol
 _atom_site_label
 _atom_site_symmetry_multiplicity
 _atom_site_fract_x
 _atom_site_fract_y
 _atom_site_fract_z
 _atom_site_occupancy
  Eu  Eu0  1  0.37084514  0.37084514  0.25830973  1
  Eu  Eu1  1  0.62915486  0.62915486  0.74169027  1
  P  P2  1  0.07308237  0.07308237  0.85383526  1
  P  P3  1  0.92691763  0.92691763  0.14616474  1
  P  P4  1  0.25000000  0.75000000  0.50000000  1
  Pt  Pt5  1  0.99984953  0.49984953  0.00030094  1
  Pt  Pt6  1  0.50015047  0.00015047  0.99969906  1
  Pt  Pt7  1  0.19514883  0.19514883  0.60970233  1
  Pt  Pt8  1  0.80485117  0.80485117  0.39029767  1
