# generated using pymatgen
data_LiVS3
_symmetry_space_group_name_H-M   'P 1'
_cell_length_a   6.48658001
_cell_length_b   7.34507647
_cell_length_c   5.80758501
_cell_angle_alpha   110.97373454
_cell_angle_beta   115.05287732
_cell_angle_gamma   103.85537816
_symmetry_Int_Tables_number   1
_chemical_formula_structural   LiVS3
_chemical_formula_sum   'Li2 V2 S6'
_cell_volume   207.54722138
_cell_formula_units_Z   2
loop_
 _symmetry_equiv_pos_site_id
 _symmetry_equiv_pos_as_xyz
  1  'x, y, z'
loop_
 _atom_site_type_symbol
 _atom_site_label
 _atom_site_symmetry_multiplicity
 _atom_site_fract_x
 _atom_site_fract_y
 _atom_site_fract_z
 _atom_site_occupancy
  Li  Li0  1  0.14254786  0.82776523  0.29847595  1
  Li  Li1  1  0.85745214  0.17223477  0.70152405  1
  V  V2  1  0.49907332  0.56619133  0.78031672  1
  V  V3  1  0.50092668  0.43380867  0.21968328  1
  S  S4  1  0.42905105  0.86634231  0.79055923  1
  S  S5  1  0.27098297  0.24179657  0.70609204  1
  S  S6  1  0.18696116  0.44629883  0.27272397  1
  S  S7  1  0.81303884  0.55370117  0.72727603  1
  S  S8  1  0.72901703  0.75820343  0.29390796  1
  S  S9  1  0.57094895  0.13365769  0.20944077  1
