# generated using pymatgen
data_Fe11Si4(H4O9)3
_symmetry_space_group_name_H-M   'P 1'
_cell_length_a   5.55369778
_cell_length_b   9.17458679
_cell_length_c   12.14790388
_cell_angle_alpha   87.16979468
_cell_angle_beta   89.97210229
_cell_angle_gamma   72.27593325
_symmetry_Int_Tables_number   1
_chemical_formula_structural   Fe11Si4(H4O9)3
_chemical_formula_sum   'Fe11 Si4 H12 O27'
_cell_volume   588.80248122
_cell_formula_units_Z   1
loop_
 _symmetry_equiv_pos_site_id
 _symmetry_equiv_pos_as_xyz
  1  'x, y, z'
loop_
 _atom_site_type_symbol
 _atom_site_label
 _atom_site_symmetry_multiplicity
 _atom_site_fract_x
 _atom_site_fract_y
 _atom_site_fract_z
 _atom_site_occupancy
  Fe  Fe0  1  0.58792735  0.82637890  0.07969665  1
  Fe  Fe1  1  0.80945000  0.38204855  0.52446947  1
  Fe  Fe2  1  0.94147226  0.45013502  0.05872577  1
  Fe  Fe3  1  0.61103766  0.11469726  0.39021174  1
  Fe  Fe4  1  0.27567629  0.78028373  0.72527901  1
  Fe  Fe5  1  0.83007647  0.66943614  0.83490345  1
  Fe  Fe6  1  0.50099919  0.33762531  0.16939387  1
  Fe  Fe7  1  0.16316724  0.00383957  0.50091556  1
  Fe  Fe8  1  0.39083748  0.55962432  0.94630493  1
  Fe  Fe9  1  0.05299282  0.22596194  0.28094469  1
  Fe  Fe10  1  0.71827699  0.89380000  0.61100855  1
  Si  Si11  1  0.26274103  0.48857978  0.40731073  1
  Si  Si12  1  0.91486040  0.14886275  0.74416840  1
  Si  Si13  1  0.15510262  0.70671914  0.18984879  1
  Si  Si14  1  0.46942824  0.04117127  0.85134057  1
  H  H15  1  0.08368768  0.85070564  0.93719894  1
  H  H16  1  0.73632867  0.52201687  0.26258249  1
  H  H17  1  0.40767262  0.20172901  0.58715409  1
  H  H18  1  0.46481803  0.71212237  0.52444717  1
  H  H19  1  0.15851990  0.37261315  0.86051251  1
  H  H20  1  0.81059057  0.02682208  0.20105234  1
  H  H21  1  0.91695594  0.82420331  0.40219493  1
  H  H22  1  0.60722085  0.47476261  0.75256870  1
  H  H23  1  0.27134760  0.16468017  0.07598391  1
  H  H24  1  0.03386679  0.60691229  0.62896050  1
  H  H25  1  0.67450927  0.27204050  0.95639212  1
  H  H26  1  0.37050077  0.93694040  0.29430454  1
  O  O27  1  0.98585303  0.00157025  0.66695559  1
  O  O28  1  0.66144559  0.65318598  0.99307922  1
  O  O29  1  0.35176359  0.32750025  0.34077521  1
  O  O30  1  0.54606922  0.88863786  0.77896303  1
  O  O31  1  0.23375533  0.56541870  0.10395179  1
  O  O32  1  0.88274993  0.20709955  0.43950833  1
  O  O33  1  0.12818473  0.76226618  0.89190990  1
  O  O34  1  0.78023745  0.43340644  0.21737957  1
  O  O35  1  0.45140194  0.11162216  0.54337839  1
  O  O36  1  0.17872342  0.15271412  0.81095683  1
  O  O37  1  0.88252925  0.83149878  0.15507118  1
  O  O38  1  0.50345598  0.52133202  0.46743660  1
  O  O39  1  0.45653497  0.00463633  0.98371131  1
  O  O40  1  0.13093325  0.63188231  0.31543768  1
  O  O41  1  0.80095501  0.31360809  0.67590250  1
  O  O42  1  0.68761376  0.13376947  0.83262674  1
  O  O43  1  0.36660568  0.79787233  0.19179925  1
  O  O44  1  0.05603464  0.48285872  0.50183370  1
  O  O45  1  0.42836562  0.80568686  0.56597368  1
  O  O46  1  0.11933799  0.46585064  0.90153502  1
  O  O47  1  0.75810702  0.12542460  0.23765614  1
  O  O48  1  0.86477144  0.91314610  0.44741630  1
  O  O49  1  0.53751775  0.56801165  0.79394387  1
  O  O50  1  0.20789287  0.25047069  0.12443781  1
  O  O51  1  0.98932656  0.69002159  0.68046576  1
  O  O52  1  0.64066704  0.35831266  0.00475315  1
  O  O53  1  0.34120219  0.02328358  0.34316705  1
