# generated using pymatgen
data_Ga(SiNi3)2
_symmetry_space_group_name_H-M   'P 1'
_cell_length_a   3.75124992
_cell_length_b   5.01054576
_cell_length_c   21.49062215
_cell_angle_alpha   90.53513229
_cell_angle_beta   90.00000000
_cell_angle_gamma   90.00000000
_symmetry_Int_Tables_number   1
_chemical_formula_structural   Ga(SiNi3)2
_chemical_formula_sum   'Ga4 Si8 Ni24'
_cell_volume   403.91601942
_cell_formula_units_Z   4
loop_
 _symmetry_equiv_pos_site_id
 _symmetry_equiv_pos_as_xyz
  1  'x, y, z'
loop_
 _atom_site_type_symbol
 _atom_site_label
 _atom_site_symmetry_multiplicity
 _atom_site_fract_x
 _atom_site_fract_y
 _atom_site_fract_z
 _atom_site_occupancy
  Ga  Ga0  1  0.75000000  0.29873237  0.29610756  1
  Ga  Ga1  1  0.75000000  0.29403268  0.62936474  1
  Ga  Ga2  1  0.75000000  0.29444203  0.96176667  1
  Ga  Ga3  1  0.75000000  0.79898094  0.20419596  1
  Si  Si4  1  0.75000000  0.78980759  0.53935730  1
  Si  Si5  1  0.75000000  0.78997740  0.87142747  1
  Si  Si6  1  0.25000000  0.69854486  0.03515364  1
  Si  Si7  1  0.25000000  0.69723074  0.37113444  1
  Si  Si8  1  0.25000000  0.69797719  0.70343455  1
  Si  Si9  1  0.25000000  0.19629552  0.13005914  1
  Si  Si10  1  0.25000000  0.21136828  0.46318455  1
  Si  Si11  1  0.25000000  0.21133409  0.79566761  1
  Ni  Ni12  1  0.75000000  0.45651377  0.06998144  1
  Ni  Ni13  1  0.75000000  0.45727431  0.40550024  1
  Ni  Ni14  1  0.75000000  0.45852642  0.73770435  1
  Ni  Ni15  1  0.75000000  0.95679448  0.09411403  1
  Ni  Ni16  1  0.75000000  0.95593498  0.43422369  1
  Ni  Ni17  1  0.75000000  0.95656044  0.76553531  1
  Ni  Ni18  1  0.25000000  0.56509215  0.26259602  1
  Ni  Ni19  1  0.25000000  0.55893950  0.59507223  1
  Ni  Ni20  1  0.25000000  0.55785849  0.92703413  1
  Ni  Ni21  1  0.25000000  0.06365506  0.23785321  1
  Ni  Ni22  1  0.25000000  0.04769367  0.56694830  1
  Ni  Ni23  1  0.25000000  0.04750532  0.89922979  1
  Ni  Ni24  1  0.75000000  0.32601116  0.18377121  1
  Ni  Ni25  1  0.75000000  0.33577456  0.51909382  1
  Ni  Ni26  1  0.75000000  0.33531322  0.85120516  1
  Ni  Ni27  1  0.75000000  0.82608948  0.31755762  1
  Ni  Ni28  1  0.75000000  0.82193287  0.64786651  1
  Ni  Ni29  1  0.75000000  0.82265320  0.97925626  1
  Ni  Ni30  1  0.25000000  0.65868561  0.14146851  1
  Ni  Ni31  1  0.25000000  0.67103740  0.47939886  1
  Ni  Ni32  1  0.25000000  0.67218503  0.81146352  1
  Ni  Ni33  1  0.25000000  0.15828166  0.02309417  1
  Ni  Ni34  1  0.25000000  0.15577076  0.35859524  1
  Ni  Ni35  1  0.25000000  0.15519279  0.69058274  1
