# generated using pymatgen
data_CsTaWO6
_symmetry_space_group_name_H-M   'P 1'
_cell_length_a   7.44957829
_cell_length_b   7.45522819
_cell_length_c   7.43137284
_cell_angle_alpha   90.00000000
_cell_angle_beta   60.08080814
_cell_angle_gamma   120.02509147
_symmetry_Int_Tables_number   1
_chemical_formula_structural   CsTaWO6
_chemical_formula_sum   'Cs2 Ta2 W2 O12'
_cell_volume   292.08660849
_cell_formula_units_Z   2
loop_
 _symmetry_equiv_pos_site_id
 _symmetry_equiv_pos_as_xyz
  1  'x, y, z'
loop_
 _atom_site_type_symbol
 _atom_site_label
 _atom_site_symmetry_multiplicity
 _atom_site_fract_x
 _atom_site_fract_y
 _atom_site_fract_z
 _atom_site_occupancy
  Cs  Cs0  1  0.75146863  0.37573432  0.37426568  1
  Cs  Cs1  1  0.24853137  0.62426568  0.62573432  1
  Ta  Ta2  1  0.50000000  0.50000000  -0.00000000  1
  Ta  Ta3  1  0.50000000  -0.00000000  -0.00000000  1
  W  W4  1  0.00000000  -0.00000000  0.50000000  1
  W  W5  1  -0.00000000  -0.00000000  -0.00000000  1
  O  O6  1  0.88212104  0.94106052  0.30893948  1
  O  O7  1  0.62584570  0.31292285  0.93707715  1
  O  O8  1  0.24593539  0.94018334  0.93827585  1
  O  O9  1  0.24593539  0.30575205  0.31578876  1
  O  O10  1  0.24593539  0.30575205  0.93827585  1
  O  O11  1  0.24593539  0.94018334  0.31578876  1
  O  O12  1  0.11787896  0.05893948  0.69106052  1
  O  O13  1  0.37415430  0.68707715  0.06292285  1
  O  O14  1  0.75406461  0.05981666  0.06172415  1
  O  O15  1  0.75406461  0.69424795  0.68421124  1
  O  O16  1  0.75406461  0.69424795  0.06172415  1
  O  O17  1  0.75406461  0.05981666  0.68421124  1
