# generated using pymatgen
data_Er4TaV7B24
_symmetry_space_group_name_H-M   'P 1'
_cell_length_a   3.33300358
_cell_length_b   8.89754582
_cell_length_c   11.23958267
_cell_angle_alpha   90.02346154
_cell_angle_beta   90.00000000
_cell_angle_gamma   90.00000000
_symmetry_Int_Tables_number   1
_chemical_formula_structural   Er4TaV7B24
_chemical_formula_sum   'Er4 Ta1 V7 B24'
_cell_volume   333.31600122
_cell_formula_units_Z   1
loop_
 _symmetry_equiv_pos_site_id
 _symmetry_equiv_pos_as_xyz
  1  'x, y, z'
loop_
 _atom_site_type_symbol
 _atom_site_label
 _atom_site_symmetry_multiplicity
 _atom_site_fract_x
 _atom_site_fract_y
 _atom_site_fract_z
 _atom_site_occupancy
  Er  Er0  1  0.50000000  0.82026144  0.58524295  1
  Er  Er1  1  0.50000000  0.17996667  0.41570517  1
  Er  Er2  1  0.50000000  0.67833862  0.08484227  1
  Er  Er3  1  0.50000000  0.32155843  0.91414682  1
  Ta  Ta4  1  0.50000000  0.05408385  0.12767836  1
  V  V5  1  0.50000000  0.85279261  0.31731381  1
  V  V6  1  0.50000000  0.14517772  0.68441058  1
  V  V7  1  0.50000000  0.64546373  0.81524053  1
  V  V8  1  0.50000000  0.35716066  0.18531503  1
  V  V9  1  0.50000000  0.94565931  0.87110913  1
  V  V10  1  0.50000000  0.44559955  0.62885814  1
  V  V11  1  0.50000000  0.55432102  0.37122205  1
  B  B12  1  0.00000000  0.86870001  0.18020034  1
  B  B13  1  0.00000000  0.12711646  0.81992911  1
  B  B14  1  0.00000000  0.62682280  0.67894185  1
  B  B15  1  -0.00000000  0.37394960  0.32127919  1
  B  B16  1  -0.00000000  0.01856076  0.28636888  1
  B  B17  1  0.00000000  0.98072196  0.71554493  1
  B  B18  1  0.00000000  0.48064426  0.78419171  1
  B  B19  1  -0.00000000  0.51942457  0.21587727  1
  B  B20  1  0.00000000  0.69904251  0.26443755  1
  B  B21  1  0.00000000  0.30035257  0.73592671  1
  B  B22  1  0.00000000  0.80012529  0.76357043  1
  B  B23  1  0.00000000  0.20208476  0.23762959  1
  B  B24  1  0.00000000  0.73910822  0.41862732  1
  B  B25  1  0.00000000  0.26038068  0.58188104  1
  B  B26  1  -0.00000000  0.75929156  0.91743419  1
  B  B27  1  0.00000000  0.24407233  0.08090897  1
  B  B28  1  0.00000000  0.40588369  0.47538464  1
  B  B29  1  0.00000000  0.59427475  0.52491179  1
  B  B30  1  0.00000000  0.09542397  0.97218791  1
  B  B31  1  0.00000000  0.90246690  0.02297351  1
  B  B32  1  0.00000000  0.94487704  0.43403987  1
  B  B33  1  0.00000000  0.05470487  0.56707511  1
  B  B34  1  0.00000000  0.55506519  0.93286009  1
  B  B35  1  0.00000000  0.44652166  0.06673321  1
