# generated using pymatgen
data_Cs3Tl2Br9
_symmetry_space_group_name_H-M   'P 1'
_cell_length_a   8.12167467
_cell_length_b   9.99251842
_cell_length_c   14.40306516
_cell_angle_alpha   93.65339604
_cell_angle_beta   90.00000000
_cell_angle_gamma   90.00000000
_symmetry_Int_Tables_number   1
_chemical_formula_structural   Cs3Tl2Br9
_chemical_formula_sum   'Cs6 Tl4 Br18'
_cell_volume   1166.51946875
_cell_formula_units_Z   2
loop_
 _symmetry_equiv_pos_site_id
 _symmetry_equiv_pos_as_xyz
  1  'x, y, z'
loop_
 _atom_site_type_symbol
 _atom_site_label
 _atom_site_symmetry_multiplicity
 _atom_site_fract_x
 _atom_site_fract_y
 _atom_site_fract_z
 _atom_site_occupancy
  Cs  Cs0  1  0.74964979  0.32488115  0.42427167  1
  Cs  Cs1  1  0.24964979  0.67511885  0.57572833  1
  Cs  Cs2  1  0.25009685  0.36176902  0.88634663  1
  Cs  Cs3  1  0.75009685  0.63823098  0.11365337  1
  Cs  Cs4  1  0.25036601  0.97274931  0.27496306  1
  Cs  Cs5  1  0.75036601  0.02725069  0.72503694  1
  Tl  Tl6  1  0.74707496  0.20260731  0.07016871  1
  Tl  Tl7  1  0.24707496  0.79739269  0.92983129  1
  Tl  Tl8  1  0.75000398  0.80709311  0.41486581  1
  Tl  Tl9  1  0.25000398  0.19290689  0.58513419  1
  Br  Br10  1  0.49534346  0.29915400  0.16756152  1
  Br  Br11  1  0.99534346  0.70084600  0.83243848  1
  Br  Br12  1  0.50287971  0.70492865  0.83445693  1
  Br  Br13  1  0.00287971  0.29507135  0.16554307  1
  Br  Br14  1  0.75025849  0.96951307  0.26744563  1
  Br  Br15  1  0.25025849  0.03048693  0.73255437  1
  Br  Br16  1  0.50022841  0.65124409  0.33930973  1
  Br  Br17  1  0.00022841  0.34875591  0.66069027  1
  Br  Br18  1  0.49973581  0.34905518  0.66080924  1
  Br  Br19  1  0.99973581  0.65094482  0.33919076  1
  Br  Br20  1  0.75161678  0.34706351  0.91979382  1
  Br  Br21  1  0.25161678  0.65293649  0.08020618  1
  Br  Br22  1  0.74995755  0.68946792  0.57923917  1
  Br  Br23  1  0.24995755  0.31053208  0.42076083  1
  Br  Br24  1  0.00007297  0.99995061  0.49992725  1
  Br  Br25  1  0.50007297  0.00004939  0.50007275  1
  Br  Br26  1  0.71601522  0.96046594  0.99337469  1
  Br  Br27  1  0.21601522  0.03953406  0.00662531  1
