# generated using pymatgen
data_Cs2Ti(WO4)3
_symmetry_space_group_name_H-M   'P 1'
_cell_length_a   7.34814566
_cell_length_b   7.34814566
_cell_length_c   7.41337026
_cell_angle_alpha   90.00000000
_cell_angle_beta   59.70593624
_cell_angle_gamma   119.41187249
_symmetry_Int_Tables_number   1
_chemical_formula_structural   Cs2Ti(WO4)3
_chemical_formula_sum   'Cs2 Ti1 W3 O12'
_cell_volume   284.28204635
_cell_formula_units_Z   1
loop_
 _symmetry_equiv_pos_site_id
 _symmetry_equiv_pos_as_xyz
  1  'x, y, z'
loop_
 _atom_site_type_symbol
 _atom_site_label
 _atom_site_symmetry_multiplicity
 _atom_site_fract_x
 _atom_site_fract_y
 _atom_site_fract_z
 _atom_site_occupancy
  Cs  Cs0  1  0.23314736  0.63342632  0.13342632  1
  Cs  Cs1  1  0.76685264  0.36657368  0.86657368  1
  Ti  Ti2  1  0.50000000  0.00000000  0.50000000  1
  W  W3  1  0.50000000  0.50000000  0.50000000  1
  W  W4  1  0.00000000  0.00000000  0.50000000  1
  W  W5  1  0.00000000  0.00000000  -0.00000000  1
  O  O6  1  0.87524870  0.94060200  0.81237565  1
  O  O7  1  0.61765606  0.31237038  0.44117197  1
  O  O8  1  0.24702235  0.31237565  0.81237565  1
  O  O9  1  0.24645765  0.94117197  0.44117197  1
  O  O10  1  0.24645765  0.94117197  0.81237038  1
  O  O11  1  0.24702235  0.31237565  0.44060200  1
  O  O12  1  0.12475130  0.05939800  0.18762435  1
  O  O13  1  0.38234394  0.68762962  0.55882803  1
  O  O14  1  0.75297765  0.68762435  0.18762435  1
  O  O15  1  0.75354235  0.05882803  0.55882803  1
  O  O16  1  0.75354235  0.05882803  0.18762962  1
  O  O17  1  0.75297765  0.68762435  0.55939800  1
