# generated using pymatgen
data_CrAgSnSe4
_symmetry_space_group_name_H-M   'P 1'
_cell_length_a   7.86267269
_cell_length_b   7.79283508
_cell_length_c   7.96194428
_cell_angle_alpha   90.00000000
_cell_angle_beta   59.58145955
_cell_angle_gamma   119.70661253
_symmetry_Int_Tables_number   1
_chemical_formula_structural   CrAgSnSe4
_chemical_formula_sum   'Cr2 Ag2 Sn2 Se8'
_cell_volume   344.29397953
_cell_formula_units_Z   2
loop_
 _symmetry_equiv_pos_site_id
 _symmetry_equiv_pos_as_xyz
  1  'x, y, z'
loop_
 _atom_site_type_symbol
 _atom_site_label
 _atom_site_symmetry_multiplicity
 _atom_site_fract_x
 _atom_site_fract_y
 _atom_site_fract_z
 _atom_site_occupancy
  Cr  Cr0  1  0.50000000  0.50000000  0.00000000  1
  Cr  Cr1  1  0.50000000  -0.00000000  0.00000000  1
  Ag  Ag2  1  0.73490581  0.36745291  0.38254709  1
  Ag  Ag3  1  0.26509419  0.63254709  0.61745291  1
  Sn  Sn4  1  -0.00000000  -0.00000000  0.50000000  1
  Sn  Sn5  1  -0.00000000  -0.00000000  0.00000000  1
  Se  Se6  1  0.04011809  0.77824248  0.22994095  1
  Se  Se7  1  0.04011809  0.26187561  0.22994095  1
  Se  Se8  1  0.49377560  0.24688780  0.78903904  1
  Se  Se9  1  0.49377560  0.24688780  0.21718536  1
  Se  Se10  1  0.95988191  0.22175752  0.77005905  1
  Se  Se11  1  0.95988191  0.73812439  0.77005905  1
  Se  Se12  1  0.50622440  0.75311220  0.21096096  1
  Se  Se13  1  0.50622440  0.75311220  0.78281464  1
