# generated using pymatgen
data_Eu2As7Pd12
_symmetry_space_group_name_H-M   'P 1'
_cell_length_a   4.16728455
_cell_length_b   10.19032286
_cell_length_c   10.18817461
_cell_angle_alpha   119.96924744
_cell_angle_beta   90.03047885
_cell_angle_gamma   90.01418279
_symmetry_Int_Tables_number   1
_chemical_formula_structural   Eu2As7Pd12
_chemical_formula_sum   'Eu2 As7 Pd12'
_cell_volume   374.80249253
_cell_formula_units_Z   1
loop_
 _symmetry_equiv_pos_site_id
 _symmetry_equiv_pos_as_xyz
  1  'x, y, z'
loop_
 _atom_site_type_symbol
 _atom_site_label
 _atom_site_symmetry_multiplicity
 _atom_site_fract_x
 _atom_site_fract_y
 _atom_site_fract_z
 _atom_site_occupancy
  Eu  Eu0  1  0.75107976  0.33337260  0.66655892  1
  Eu  Eu1  1  0.24965784  0.66662022  0.33340584  1
  As  As2  1  0.52599729  -0.00003546  0.99994745  1
  As  As3  1  0.74888025  0.88299772  0.59082837  1
  As  As4  1  0.74874554  0.40922294  0.29220260  1
  As  As5  1  0.74915115  0.70794449  0.11714128  1
  As  As6  1  0.25381334  0.11583901  0.40920084  1
  As  As7  1  0.25397879  0.59082533  0.70668517  1
  As  As8  1  0.25352646  0.29321385  0.88397957  1
  Pd  Pd9  1  0.75005890  0.62004516  0.56372366  1
  Pd  Pd10  1  0.74939900  0.43621201  0.05649406  1
  Pd  Pd11  1  0.74956765  0.94363472  0.37957875  1
  Pd  Pd12  1  0.25224028  0.38028027  0.43454435  1
  Pd  Pd13  1  0.25283164  0.56546102  0.94557032  1
  Pd  Pd14  1  0.25271829  0.05433659  0.62009547  1
  Pd  Pd15  1  0.76947101  0.11066239  0.85384527  1
  Pd  Pd16  1  0.76978376  0.14613126  0.25645765  1
  Pd  Pd17  1  0.76971774  0.74337053  0.88954638  1
  Pd  Pd18  1  0.23278616  0.89355512  0.14255134  1
  Pd  Pd19  1  0.23215396  0.85752464  0.75137867  1
  Pd  Pd20  1  0.23254121  0.24878558  0.10626405  1
