# generated using pymatgen
data_CsTlAgF6
_symmetry_space_group_name_H-M   'P 1'
_cell_length_a   8.17581874
_cell_length_b   7.86652262
_cell_length_c   8.31478526
_cell_angle_alpha   90.00000000
_cell_angle_beta   59.43612411
_cell_angle_gamma   118.75626956
_symmetry_Int_Tables_number   1
_chemical_formula_structural   CsTlAgF6
_chemical_formula_sum   'Cs2 Tl2 Ag2 F12'
_cell_volume   381.89545794
_cell_formula_units_Z   2
loop_
 _symmetry_equiv_pos_site_id
 _symmetry_equiv_pos_as_xyz
  1  'x, y, z'
loop_
 _atom_site_type_symbol
 _atom_site_label
 _atom_site_symmetry_multiplicity
 _atom_site_fract_x
 _atom_site_fract_y
 _atom_site_fract_z
 _atom_site_occupancy
  Cs  Cs0  1  0.75201730  0.37600865  0.37399135  1
  Cs  Cs1  1  0.24798270  0.62399135  0.62600865  1
  Tl  Tl2  1  0.00000000  -0.00000000  0.50000000  1
  Tl  Tl3  1  0.00000000  -0.00000000  -0.00000000  1
  Ag  Ag4  1  0.50000000  0.50000000  -0.00000000  1
  Ag  Ag5  1  0.50000000  -0.00000000  -0.00000000  1
  F  F6  1  0.84925066  0.92462533  0.32537467  1
  F  F7  1  0.60732765  0.30366382  0.94633618  1
  F  F8  1  0.24247251  0.91504200  0.92114001  1
  F  F9  1  0.24247251  0.32743051  0.33638748  1
  F  F10  1  0.24247251  0.32743051  0.92114001  1
  F  F11  1  0.24247251  0.91504200  0.33638748  1
  F  F12  1  0.15074934  0.07537467  0.67462533  1
  F  F13  1  0.39267235  0.69633618  0.05366382  1
  F  F14  1  0.75752749  0.08495800  0.07885999  1
  F  F15  1  0.75752749  0.67256949  0.66361252  1
  F  F16  1  0.75752749  0.67256949  0.07885999  1
  F  F17  1  0.75752749  0.08495800  0.66361252  1
