# generated using pymatgen
data_Cs2MnNiF6
_symmetry_space_group_name_H-M   'P 1'
_cell_length_a   6.29339965
_cell_length_b   6.29339900
_cell_length_c   10.78681063
_cell_angle_alpha   73.03919935
_cell_angle_beta   106.96080018
_cell_angle_gamma   120.00000244
_symmetry_Int_Tables_number   1
_chemical_formula_structural   Cs2MnNiF6
_chemical_formula_sum   'Cs4 Mn2 Ni2 F12'
_cell_volume   348.37109082
_cell_formula_units_Z   2
loop_
 _symmetry_equiv_pos_site_id
 _symmetry_equiv_pos_as_xyz
  1  'x, y, z'
loop_
 _atom_site_type_symbol
 _atom_site_label
 _atom_site_symmetry_multiplicity
 _atom_site_fract_x
 _atom_site_fract_y
 _atom_site_fract_z
 _atom_site_occupancy
  Cs  Cs0  1  0.86715067  0.13284933  0.60145202  1
  Cs  Cs1  1  0.13161339  0.86838661  0.39484018  1
  Cs  Cs2  1  0.71486553  0.28513447  0.14459659  1
  Cs  Cs3  1  0.28684969  0.71315031  0.86054908  1
  Mn  Mn4  1  0.00184968  0.99815032  0.00554903  1
  Mn  Mn5  1  0.59282195  0.40717805  0.77846586  1
  Ni  Ni6  1  0.49928703  0.50071297  0.49786110  1
  Ni  Ni7  1  0.40900213  0.59099787  0.22700640  1
  F  F8  1  0.39860634  0.60139366  0.62602534  1
  F  F9  1  0.82881266  0.60139366  0.62602534  1
  F  F10  1  0.39860634  0.17118734  0.62602534  1
  F  F11  1  0.59575726  0.40424274  0.36553311  1
  F  F12  1  0.17401860  0.40424274  0.36553311  1
  F  F13  1  0.59575726  0.82598140  0.36553311  1
  F  F14  1  0.21186436  0.78813564  0.12208221  1
  F  F15  1  0.69835349  0.78813564  0.12208221  1
  F  F16  1  0.21186436  0.30164651  0.12208221  1
  F  F17  1  0.79706453  0.20293547  0.88291926  1
  F  F18  1  0.28879019  0.20293547  0.88291926  1
  F  F19  1  0.79706453  0.71120981  0.88291926  1
