# generated using pymatgen
data_LiMnCoO4
_symmetry_space_group_name_H-M   'P 1'
_cell_length_a   5.88726359
_cell_length_b   5.88726353
_cell_length_c   5.92005368
_cell_angle_alpha   59.85316090
_cell_angle_beta   59.85315480
_cell_angle_gamma   90.51951677
_symmetry_Int_Tables_number   1
_chemical_formula_structural   LiMnCoO4
_chemical_formula_sum   'Li2 Mn2 Co2 O8'
_cell_volume   143.76341245
_cell_formula_units_Z   2
loop_
 _symmetry_equiv_pos_site_id
 _symmetry_equiv_pos_as_xyz
  1  'x, y, z'
loop_
 _atom_site_type_symbol
 _atom_site_label
 _atom_site_symmetry_multiplicity
 _atom_site_fract_x
 _atom_site_fract_y
 _atom_site_fract_z
 _atom_site_occupancy
  Li  Li0  1  0.50000000  0.50000000  0.50000000  1
  Li  Li1  1  0.50000000  0.50000000  -0.00000000  1
  Mn  Mn2  1  -0.00000000  0.50000000  0.50000000  1
  Mn  Mn3  1  0.50000000  0.00000000  -0.00000000  1
  Co  Co4  1  -0.00000000  0.00000000  0.50000000  1
  Co  Co5  1  -0.00000000  0.00000000  -0.00000000  1
  O  O6  1  0.74661451  0.78537273  0.98366342  1
  O  O7  1  0.24683483  0.75387642  0.46506811  1
  O  O8  1  0.21462727  0.25338549  0.51633658  1
  O  O9  1  0.24612358  0.75316517  0.03493189  1
  O  O10  1  0.75387642  0.24683483  0.96506811  1
  O  O11  1  0.78537273  0.74661451  0.48366342  1
  O  O12  1  0.75316517  0.24612358  0.53493189  1
  O  O13  1  0.25338549  0.21462727  0.01633658  1
