# generated using pymatgen
data_SmB7ClO18
_symmetry_space_group_name_H-M   'P 1'
_cell_length_a   8.31945700
_cell_length_b   9.92179248
_cell_length_c   16.74330563
_cell_angle_alpha   89.99907358
_cell_angle_beta   89.96427836
_cell_angle_gamma   90.10224348
_symmetry_Int_Tables_number   1
_chemical_formula_structural   SmB7ClO18
_chemical_formula_sum   'Sm4 B28 Cl4 O72'
_cell_volume   1382.05570960
_cell_formula_units_Z   4
loop_
 _symmetry_equiv_pos_site_id
 _symmetry_equiv_pos_as_xyz
  1  'x, y, z'
loop_
 _atom_site_type_symbol
 _atom_site_label
 _atom_site_symmetry_multiplicity
 _atom_site_fract_x
 _atom_site_fract_y
 _atom_site_fract_z
 _atom_site_occupancy
  Sm  Sm0  1  0.74185142  0.71891976  0.70719777  1
  Sm  Sm1  1  0.24176491  0.21896687  0.79285307  1
  Sm  Sm2  1  0.25814858  0.28108024  0.29280223  1
  Sm  Sm3  1  0.75823509  0.78103313  0.20714693  1
  B  B4  1  0.83853144  0.33942085  0.69843358  1
  B  B5  1  0.33839053  0.83940137  0.80157696  1
  B  B6  1  0.16146856  0.66057915  0.30156642  1
  B  B7  1  0.66160947  0.16059863  0.19842304  1
  B  B8  1  0.11701257  0.72012569  0.71056774  1
  B  B9  1  0.61694087  0.22012246  0.78945737  1
  B  B10  1  0.88298743  0.27987431  0.28943226  1
  B  B11  1  0.38305913  0.77987754  0.21054263  1
  B  B12  1  0.84253495  0.07983167  0.71447308  1
  B  B13  1  0.34245471  0.57981613  0.78553862  1
  B  B14  1  0.15746505  0.92016833  0.28552692  1
  B  B15  1  0.65754529  0.42018387  0.21446138  1
  B  B16  1  0.57554456  0.97889630  0.75817988  1
  B  B17  1  0.07555583  0.47890593  0.74186461  1
  B  B18  1  0.42445544  0.02110370  0.24182012  1
  B  B19  1  0.92444417  0.52109407  0.25813539  1
  B  B20  1  0.57415881  0.44838689  0.73562579  1
  B  B21  1  0.07410031  0.94839484  0.76439139  1
  B  B22  1  0.42584119  0.55161311  0.26437421  1
  B  B23  1  0.92589969  0.05160516  0.23560861  1
  B  B24  1  0.05598914  0.76889430  0.56611345  1
  B  B25  1  0.55583832  0.26897712  0.93393637  1
  B  B26  1  0.94401086  0.23110570  0.43388655  1
  B  B27  1  0.44416168  0.73102288  0.06606363  1
  B  B28  1  0.88286511  0.18981570  0.58431683  1
  B  B29  1  0.38268697  0.68979051  0.91568143  1
  B  B30  1  0.11713489  0.81018430  0.41568317  1
  B  B31  1  0.61731303  0.31020949  0.08431857  1
  Cl  Cl32  1  0.85937312  0.68955874  0.91990891  1
  Cl  Cl33  1  0.35942762  0.18951275  0.58008556  1
  Cl  Cl34  1  0.14062688  0.31044126  0.08009109  1
  Cl  Cl35  1  0.64057238  0.81048725  0.41991444  1
  O  O36  1  0.73273701  0.96660634  0.73336234  1
  O  O37  1  0.23270052  0.46659680  0.76666962  1
  O  O38  1  0.26726299  0.03339366  0.26663766  1
  O  O39  1  0.76729948  0.53340320  0.23333038  1
  O  O40  1  0.73123569  0.45696036  0.71044557  1
  O  O41  1  0.23113161  0.95695377  0.78957434  1
  O  O42  1  0.26876431  0.54303964  0.28955443  1
  O  O43  1  0.76886839  0.04304623  0.21042566  1
  O  O44  1  0.01425533  0.60005720  0.71843526  1
  O  O45  1  0.51418744  0.10005828  0.78163738  1
  O  O46  1  0.98574467  0.39994280  0.28156474  1
  O  O47  1  0.48581256  0.89994172  0.21836262  1
  O  O48  1  0.01022274  0.82940773  0.73760679  1
  O  O49  1  0.51020570  0.32939625  0.76242057  1
  O  O50  1  0.98977726  0.17059227  0.26239321  1
  O  O51  1  0.48979430  0.67060375  0.23757943  1
  O  O52  1  0.86368914  0.31644552  0.61526046  1
  O  O53  1  0.36334571  0.81639933  0.88475431  1
  O  O54  1  0.13631086  0.68355448  0.38473954  1
  O  O55  1  0.63665429  0.18360067  0.11524569  1
  O  O56  1  0.49168714  0.56793424  0.73558860  1
  O  O57  1  0.99164695  0.06794892  0.76441987  1
  O  O58  1  0.50831286  0.43206576  0.26441140  1
  O  O59  1  0.00835305  0.93205108  0.23558013  1
  O  O60  1  0.76206972  0.21274110  0.73751381  1
  O  O61  1  0.26204839  0.71273225  0.76249238  1
  O  O62  1  0.23793028  0.78725890  0.26248619  1
  O  O63  1  0.73795161  0.28726775  0.23750762  1
  O  O64  1  0.49239306  0.86020880  0.75871330  1
  O  O65  1  0.99241686  0.36020613  0.74131109  1
  O  O66  1  0.50760694  0.13979120  0.24128670  1
  O  O67  1  0.00758314  0.63979387  0.25868891  1
  O  O68  1  0.90025997  0.73767367  0.58920611  1
  O  O69  1  0.40004205  0.23803088  0.91088737  1
  O  O70  1  0.09974003  0.26232633  0.41079389  1
  O  O71  1  0.59995795  0.76196912  0.08911263  1
  O  O72  1  0.16269175  0.73931786  0.62668495  1
  O  O73  1  0.66250824  0.23932936  0.87332068  1
  O  O74  1  0.83730825  0.26068214  0.37331505  1
  O  O75  1  0.33749176  0.76067064  0.12667932  1
  O  O76  1  0.68047991  0.59473850  0.55402215  1
  O  O77  1  0.18090200  0.09466994  0.94561535  1
  O  O78  1  0.31952009  0.40526150  0.44597785  1
  O  O79  1  0.81909800  0.90533006  0.05438465  1
  O  O80  1  0.74520248  0.68568838  0.85081720  1
  O  O81  1  0.24527474  0.18566122  0.64925630  1
  O  O82  1  0.25479752  0.31431162  0.14918280  1
  O  O83  1  0.75472526  0.81433878  0.35074370  1
  O  O84  1  0.57040204  0.77275554  0.59769649  1
  O  O85  1  0.07001708  0.27278466  0.90230962  1
  O  O86  1  0.42959796  0.22724446  0.40230351  1
  O  O87  1  0.92998292  0.72721534  0.09769038  1
  O  O88  1  0.77429134  0.63147338  0.98772868  1
  O  O89  1  0.27425311  0.13149101  0.51234854  1
  O  O90  1  0.22570866  0.36852662  0.01227132  1
  O  O91  1  0.72574689  0.86850899  0.48765146  1
  O  O92  1  0.00168889  0.61429487  0.90058146  1
  O  O93  1  0.50180883  0.11441417  0.59931343  1
  O  O94  1  0.99831111  0.38570513  0.09941854  1
  O  O95  1  0.49819117  0.88558583  0.40068657  1
  O  O96  1  0.89900517  0.83237902  0.93462405  1
  O  O97  1  0.39900363  0.33242512  0.56536742  1
  O  O98  1  0.10099483  0.16762098  0.06537595  1
  O  O99  1  0.60099637  0.66757488  0.43463258  1
  O  O100  1  0.88069385  0.07732905  0.63144490  1
  O  O101  1  0.38047476  0.57730069  0.86856308  1
  O  O102  1  0.11930615  0.92267095  0.36855510  1
  O  O103  1  0.61952524  0.42269931  0.13143692  1
  O  O104  1  0.09855730  0.82649278  0.49701756  1
  O  O105  1  0.59846470  0.32650843  0.00305110  1
  O  O106  1  0.90144270  0.17350722  0.50298244  1
  O  O107  1  0.40153530  0.67349157  0.99694890  1
