# generated using pymatgen
data_LiCu2PO4
_symmetry_space_group_name_H-M   'P 1'
_cell_length_a   6.27816337
_cell_length_b   5.46718180
_cell_length_c   10.35286336
_cell_angle_alpha   89.88343225
_cell_angle_beta   90.15938233
_cell_angle_gamma   87.99861064
_symmetry_Int_Tables_number   1
_chemical_formula_structural   LiCu2PO4
_chemical_formula_sum   'Li4 Cu8 P4 O16'
_cell_volume   355.13128534
_cell_formula_units_Z   4
loop_
 _symmetry_equiv_pos_site_id
 _symmetry_equiv_pos_as_xyz
  1  'x, y, z'
loop_
 _atom_site_type_symbol
 _atom_site_label
 _atom_site_symmetry_multiplicity
 _atom_site_fract_x
 _atom_site_fract_y
 _atom_site_fract_z
 _atom_site_occupancy
  Li  Li0  1  0.00001218  0.15640557  0.24675182  1
  Li  Li1  1  0.24546831  0.32506308  0.49536650  1
  Li  Li2  1  0.25711996  0.32792399  0.00314932  1
  Li  Li3  1  0.25461187  0.67391257  0.24903029  1
  Cu  Cu4  1  0.99845130  0.23424323  0.75221543  1
  Cu  Cu5  1  0.22342862  0.65312431  0.76093348  1
  Cu  Cu6  1  0.51434895  0.76848743  0.98887390  1
  Cu  Cu7  1  0.50535092  0.76808223  0.48868474  1
  Cu  Cu8  1  0.77087509  0.64996747  0.74830248  1
  Cu  Cu9  1  0.70801862  0.65068770  0.23040777  1
  Cu  Cu10  1  0.74504716  0.34382282  0.49625763  1
  Cu  Cu11  1  0.72491730  0.35323311  0.99547686  1
  P  P12  1  0.01404732  0.84528040  0.01039561  1
  P  P13  1  0.00977313  0.83747802  0.49399492  1
  P  P14  1  0.49051690  0.17987684  0.25134858  1
  P  P15  1  0.49467633  0.16348649  0.74755957  1
  O  O16  1  0.00745145  0.84518938  0.64424044  1
  O  O17  1  0.01277710  0.10143711  0.43785737  1
  O  O18  1  0.00571691  0.83019340  0.15957830  1
  O  O19  1  0.01939787  0.11386508  0.96264724  1
  O  O20  1  0.20809015  0.68290258  0.44337251  1
  O  O21  1  0.21471151  0.68983578  0.96151129  1
  O  O22  1  0.29097061  0.32259277  0.19648233  1
  O  O23  1  0.29452095  0.30351081  0.68783990  1
  O  O24  1  0.48962036  0.17799650  0.89757094  1
  O  O25  1  0.50002653  0.89514306  0.69934489  1
  O  O26  1  0.49035566  0.18667065  0.40120553  1
  O  O27  1  0.48196716  0.91030417  0.20280233  1
  O  O28  1  0.69604582  0.29657101  0.69586721  1
  O  O29  1  0.70572302  0.29049890  0.20105274  1
  O  O30  1  0.80892888  0.70411035  0.44248983  1
  O  O31  1  0.81703408  0.71810417  0.94998127  1
