# generated using pymatgen
data_Cr4InAgSe8
_symmetry_space_group_name_H-M   'P 1'
_cell_length_a   7.67412731
_cell_length_b   7.67412731
_cell_length_c   7.67412731
_cell_angle_alpha   60.00000000
_cell_angle_beta   120.00000000
_cell_angle_gamma   120.00000000
_symmetry_Int_Tables_number   1
_chemical_formula_structural   Cr4InAgSe8
_chemical_formula_sum   'Cr4 In1 Ag1 Se8'
_cell_volume   319.57441382
_cell_formula_units_Z   1
loop_
 _symmetry_equiv_pos_site_id
 _symmetry_equiv_pos_as_xyz
  1  'x, y, z'
loop_
 _atom_site_type_symbol
 _atom_site_label
 _atom_site_symmetry_multiplicity
 _atom_site_fract_x
 _atom_site_fract_y
 _atom_site_fract_z
 _atom_site_occupancy
  Cr  Cr0  1  0.62105281  0.37894719  0.86315843  1
  Cr  Cr1  1  0.62105281  0.37894719  0.37894719  1
  Cr  Cr2  1  0.62105281  0.86315843  0.37894719  1
  Cr  Cr3  1  0.13684157  0.37894719  0.37894719  1
  In  In4  1  0.00000000  -0.00000000  -0.00000000  1
  Ag  Ag5  1  0.25000000  0.75000000  0.75000000  1
  Se  Se6  1  0.85967364  0.14032636  0.57902091  1
  Se  Se7  1  0.85967364  0.14032636  0.14032636  1
  Se  Se8  1  0.85967364  0.57902091  0.14032636  1
  Se  Se9  1  0.42097909  0.14032636  0.14032636  1
  Se  Se10  1  0.38970918  0.61029082  0.16912755  1
  Se  Se11  1  0.38970918  0.61029082  0.61029082  1
  Se  Se12  1  0.38970918  0.16912755  0.61029082  1
  Se  Se13  1  0.83087245  0.61029082  0.61029082  1
