# generated using pymatgen
data_Ca2NdRuO6
_symmetry_space_group_name_H-M   'P 1'
_cell_length_a   5.61089487
_cell_length_b   5.90082578
_cell_length_c   8.11438529
_cell_angle_alpha   90.00000000
_cell_angle_beta   90.06092614
_cell_angle_gamma   90.00000000
_symmetry_Int_Tables_number   1
_chemical_formula_structural   Ca2NdRuO6
_chemical_formula_sum   'Ca4 Nd2 Ru2 O12'
_cell_volume   268.65832554
_cell_formula_units_Z   2
loop_
 _symmetry_equiv_pos_site_id
 _symmetry_equiv_pos_as_xyz
  1  'x, y, z'
loop_
 _atom_site_type_symbol
 _atom_site_label
 _atom_site_symmetry_multiplicity
 _atom_site_fract_x
 _atom_site_fract_y
 _atom_site_fract_z
 _atom_site_occupancy
  Ca  Ca0  1  0.50043174  0.00371221  0.49963697  1
  Ca  Ca1  1  0.00043174  0.49628779  0.99963697  1
  Ca  Ca2  1  0.98522573  0.05907880  0.24538305  1
  Ca  Ca3  1  0.48522573  0.44092120  0.74538305  1
  Nd  Nd4  1  0.01643303  0.93985317  0.75420953  1
  Nd  Nd5  1  0.51643303  0.56014683  0.25420953  1
  Ru  Ru6  1  0.00015653  0.49944127  0.50080814  1
  Ru  Ru7  1  0.50015653  0.00055873  0.00080814  1
  O  O8  1  0.16978219  0.21617649  0.56867609  1
  O  O9  1  0.66978219  0.28382351  0.06867609  1
  O  O10  1  0.82610608  0.78013729  0.43235556  1
  O  O11  1  0.32610608  0.71986271  0.93235556  1
  O  O12  1  0.11637391  0.44891777  0.27046178  1
  O  O13  1  0.61637391  0.05108223  0.77046178  1
  O  O14  1  0.88706333  0.55157998  0.72943141  1
  O  O15  1  0.38706333  0.94842002  0.22943141  1
  O  O16  1  0.28803218  0.67940906  0.55178461  1
  O  O17  1  0.78803218  0.82059094  0.05178461  1
  O  O18  1  0.71039527  0.32347358  0.44725286  1
  O  O19  1  0.21039527  0.17652642  0.94725286  1
