# generated using pymatgen
data_Cs3Er5(PS4)6
_symmetry_space_group_name_H-M   'P 1'
_cell_length_a   10.39362274
_cell_length_b   10.39362274
_cell_length_c   20.86577801
_cell_angle_alpha   79.67882232
_cell_angle_beta   79.67882232
_cell_angle_gamma   77.98851288
_symmetry_Int_Tables_number   1
_chemical_formula_structural   Cs3Er5(PS4)6
_chemical_formula_sum   'Cs6 Er10 P12 S48'
_cell_volume   2145.34365511
_cell_formula_units_Z   2
loop_
 _symmetry_equiv_pos_site_id
 _symmetry_equiv_pos_as_xyz
  1  'x, y, z'
loop_
 _atom_site_type_symbol
 _atom_site_label
 _atom_site_symmetry_multiplicity
 _atom_site_fract_x
 _atom_site_fract_y
 _atom_site_fract_z
 _atom_site_occupancy
  Cs  Cs0  1  0.79990740  0.56341579  0.20910690  1
  Cs  Cs1  1  0.43682957  0.19981957  0.29055875  1
  Cs  Cs2  1  0.19981957  0.43682957  0.79055875  1
  Cs  Cs3  1  0.56341579  0.79990740  0.70910690  1
  Cs  Cs4  1  0.01222570  0.50119162  0.47103296  1
  Cs  Cs5  1  0.50119162  0.01222570  0.97103296  1
  Er  Er6  1  0.05521750  0.94579799  0.24958260  1
  Er  Er7  1  0.94579799  0.05521750  0.74958260  1
  Er  Er8  1  0.28937110  0.51020522  0.07264428  1
  Er  Er9  1  0.48942802  0.71047545  0.42777185  1
  Er  Er10  1  0.71047545  0.48942802  0.92777185  1
  Er  Er11  1  0.51020522  0.28937110  0.57264428  1
  Er  Er12  1  0.93060062  0.17286141  0.06726108  1
  Er  Er13  1  0.82730668  0.06903380  0.43313645  1
  Er  Er14  1  0.06903380  0.82730668  0.93313645  1
  Er  Er15  1  0.17286141  0.93060062  0.56726108  1
  P  P16  1  0.65011510  0.38916621  0.40563579  1
  P  P17  1  0.61105982  0.34937226  0.09452207  1
  P  P18  1  0.34937226  0.61105982  0.59452207  1
  P  P19  1  0.38916621  0.65011510  0.90563579  1
  P  P20  1  0.14831085  0.24493500  0.16139757  1
  P  P21  1  0.75429665  0.85205190  0.33875875  1
  P  P22  1  0.85205190  0.75429665  0.83875875  1
  P  P23  1  0.24493500  0.14831085  0.66139757  1
  P  P24  1  0.08703364  0.82717289  0.10145648  1
  P  P25  1  0.17265133  0.91315019  0.39867700  1
  P  P26  1  0.91315019  0.17265133  0.89867700  1
  P  P27  1  0.82717289  0.08703364  0.60145648  1
  S  S28  1  0.95689389  0.21190419  0.19331262  1
  S  S29  1  0.78833355  0.04281330  0.30663853  1
  S  S30  1  0.04281330  0.78833355  0.80663853  1
  S  S31  1  0.21190419  0.95689389  0.69331262  1
  S  S32  1  0.77721392  0.43500140  0.05786644  1
  S  S33  1  0.56514521  0.22276301  0.44198295  1
  S  S34  1  0.22276301  0.56514521  0.94198295  1
  S  S35  1  0.43500140  0.77721392  0.55786644  1
  S  S36  1  0.52761412  0.51606336  0.34771635  1
  S  S37  1  0.48387593  0.47234015  0.15215274  1
  S  S38  1  0.47234015  0.48387593  0.65215274  1
  S  S39  1  0.51606336  0.52761412  0.84771635  1
  S  S40  1  0.66613390  0.47666001  0.48523338  1
  S  S41  1  0.52340537  0.33411309  0.01468937  1
  S  S42  1  0.33411309  0.52340537  0.51468937  1
  S  S43  1  0.47666001  0.66613390  0.98523338  1
  S  S44  1  0.17544825  0.40481192  0.19748990  1
  S  S45  1  0.59534340  0.82441871  0.30248144  1
  S  S46  1  0.82441871  0.59534340  0.80248144  1
  S  S47  1  0.40481192  0.17544825  0.69748990  1
  S  S48  1  0.16322434  0.29932369  0.06008460  1
  S  S49  1  0.70101263  0.83650075  0.43998225  1
  S  S50  1  0.83650075  0.70101263  0.93998225  1
  S  S51  1  0.29932369  0.16322434  0.56008460  1
  S  S52  1  0.22029706  0.74353365  0.16316610  1
  S  S53  1  0.25639824  0.77945446  0.33692084  1
  S  S54  1  0.77945446  0.25639824  0.83692084  1
  S  S55  1  0.74353365  0.22029706  0.66316610  1
  S  S56  1  0.83561349  0.32282520  0.36037100  1
  S  S57  1  0.67746569  0.16459454  0.13961051  1
  S  S58  1  0.16459454  0.67746569  0.63961051  1
  S  S59  1  0.32282520  0.83561349  0.86037100  1
  S  S60  1  0.93286824  0.73064387  0.31514427  1
  S  S61  1  0.26917292  0.06710386  0.18473430  1
  S  S62  1  0.06710386  0.26917292  0.68473430  1
  S  S63  1  0.73064387  0.93286824  0.81514427  1
  S  S64  1  0.03407442  0.68124668  0.06293569  1
  S  S65  1  0.31879605  0.96599364  0.43698370  1
  S  S66  1  0.96599364  0.31879605  0.93698370  1
  S  S67  1  0.68124668  0.03407442  0.56293569  1
  S  S68  1  0.07271056  0.08345235  0.35018858  1
  S  S69  1  0.91666508  0.92731667  0.14978826  1
  S  S70  1  0.92731667  0.91666508  0.64978826  1
  S  S71  1  0.08345235  0.07271056  0.85018858  1
  S  S72  1  0.03896947  0.84321928  0.47643219  1
  S  S73  1  0.15647753  0.96104568  0.02353145  1
  S  S74  1  0.96104568  0.15647753  0.52353145  1
  S  S75  1  0.84321928  0.03896947  0.97643219  1
