# generated using pymatgen
data_Cr2H2Pb4ClO10F
_symmetry_space_group_name_H-M   'P 1'
_cell_length_a   7.00394866
_cell_length_b   7.71716228
_cell_length_c   11.95305131
_cell_angle_alpha   90.00000000
_cell_angle_beta   90.00000000
_cell_angle_gamma   90.00000000
_symmetry_Int_Tables_number   1
_chemical_formula_structural   Cr2H2Pb4ClO10F
_chemical_formula_sum   'Cr4 H4 Pb8 Cl2 O20 F2'
_cell_volume   646.06969566
_cell_formula_units_Z   2
loop_
 _symmetry_equiv_pos_site_id
 _symmetry_equiv_pos_as_xyz
  1  'x, y, z'
loop_
 _atom_site_type_symbol
 _atom_site_label
 _atom_site_symmetry_multiplicity
 _atom_site_fract_x
 _atom_site_fract_y
 _atom_site_fract_z
 _atom_site_occupancy
  Cr  Cr0  1  0.35292423  0.75000000  0.99792330  1
  Cr  Cr1  1  0.35244508  0.75000000  0.50189729  1
  Cr  Cr2  1  0.64755492  0.25000000  0.00189729  1
  Cr  Cr3  1  0.64707577  0.25000000  0.49792330  1
  H  H4  1  0.84434261  0.04586085  0.24901403  1
  H  H5  1  0.84434261  0.45413915  0.24901403  1
  H  H6  1  0.15565739  0.95413915  0.74901403  1
  H  H7  1  0.15565739  0.54586085  0.74901403  1
  Pb  Pb8  1  0.58035946  0.00033727  0.74967801  1
  Pb  Pb9  1  0.58035946  0.49966273  0.74967801  1
  Pb  Pb10  1  0.41964054  0.99966273  0.24967801  1
  Pb  Pb11  1  0.41964054  0.50033727  0.24967801  1
  Pb  Pb12  1  0.87644065  0.75000000  0.10104580  1
  Pb  Pb13  1  0.87596786  0.75000000  0.40102853  1
  Pb  Pb14  1  0.12403214  0.25000000  0.90102853  1
  Pb  Pb15  1  0.12355935  0.25000000  0.60104580  1
  Cl  Cl16  1  0.92308508  0.75000000  0.73058391  1
  Cl  Cl17  1  0.07691492  0.25000000  0.23058391  1
  O  O18  1  0.21819887  0.92362068  0.01089711  1
  O  O19  1  0.21819887  0.57637932  0.01089711  1
  O  O20  1  0.21839903  0.92419324  0.48805857  1
  O  O21  1  0.21839903  0.57580676  0.48805857  1
  O  O22  1  0.78160097  0.07580676  0.98805857  1
  O  O23  1  0.78160097  0.42419324  0.98805857  1
  O  O24  1  0.78180113  0.07637932  0.51089711  1
  O  O25  1  0.78180113  0.42362068  0.51089711  1
  O  O26  1  0.50835561  0.75000000  0.10812740  1
  O  O27  1  0.50876101  0.75000000  0.39219954  1
  O  O28  1  0.49123899  0.25000000  0.89219954  1
  O  O29  1  0.49164439  0.25000000  0.60812740  1
  O  O30  1  0.76735764  0.93841827  0.25028208  1
  O  O31  1  0.76735764  0.56158173  0.25028208  1
  O  O32  1  0.23264236  0.06158173  0.75028208  1
  O  O33  1  0.23264236  0.43841827  0.75028208  1
  O  O34  1  0.47286482  0.75000000  0.87579325  1
  O  O35  1  0.47124460  0.75000000  0.62413282  1
  O  O36  1  0.52875540  0.25000000  0.12413282  1
  O  O37  1  0.52713518  0.25000000  0.37579325  1
  F  F38  1  0.87139371  0.25000000  0.74980857  1
  F  F39  1  0.12860629  0.75000000  0.24980857  1
