# generated using pymatgen
data_Cs3Sb5Se9
_symmetry_space_group_name_H-M   'P 1'
_cell_length_a   9.79477486
_cell_length_b   9.77453629
_cell_length_c   14.17328625
_cell_angle_alpha   84.41204896
_cell_angle_beta   69.78545215
_cell_angle_gamma   73.63208955
_symmetry_Int_Tables_number   1
_chemical_formula_structural   Cs3Sb5Se9
_chemical_formula_sum   'Cs6 Sb10 Se18'
_cell_volume   1221.75443692
_cell_formula_units_Z   2
loop_
 _symmetry_equiv_pos_site_id
 _symmetry_equiv_pos_as_xyz
  1  'x, y, z'
loop_
 _atom_site_type_symbol
 _atom_site_label
 _atom_site_symmetry_multiplicity
 _atom_site_fract_x
 _atom_site_fract_y
 _atom_site_fract_z
 _atom_site_occupancy
  Cs  Cs0  1  0.41592487  0.50000000  0.16815026  1
  Cs  Cs1  1  0.58407513  0.50000000  0.83184974  1
  Cs  Cs2  1  0.01233819  0.24118383  0.43147925  1
  Cs  Cs3  1  0.44381744  0.24118383  0.56852075  1
  Cs  Cs4  1  0.98766181  0.75881617  0.56852075  1
  Cs  Cs5  1  0.55618256  0.75881617  0.43147925  1
  Sb  Sb6  1  0.03740740  0.84046298  0.24393547  1
  Sb  Sb7  1  0.28134287  0.84046298  0.75606453  1
  Sb  Sb8  1  0.96259260  0.15953702  0.75606453  1
  Sb  Sb9  1  0.71865713  0.15953702  0.24393547  1
  Sb  Sb10  1  0.42260262  0.00000000  0.15479476  1
  Sb  Sb11  1  0.57739738  0.00000000  0.84520524  1
  Sb  Sb12  1  0.92713570  0.50000000  0.14572859  1
  Sb  Sb13  1  0.07286430  0.50000000  0.85427141  1
  Sb  Sb14  1  0.13287277  0.10896276  0.00000000  1
  Sb  Sb15  1  0.86712723  0.89103724  0.00000000  1
  Se  Se16  1  0.99977138  0.59642294  0.31560092  1
  Se  Se17  1  0.31537230  0.59642294  0.68439908  1
  Se  Se18  1  0.00022862  0.40357706  0.68439908  1
  Se  Se19  1  0.68462770  0.40357706  0.31560092  1
  Se  Se20  1  0.24677031  0.84789647  0.31561406  1
  Se  Se21  1  0.56238438  0.84789647  0.68438594  1
  Se  Se22  1  0.75322969  0.15210353  0.68438594  1
  Se  Se23  1  0.43761562  0.15210353  0.31561406  1
  Se  Se24  1  0.12479213  0.62987911  0.00000000  1
  Se  Se25  1  0.87520787  0.37012089  0.00000000  1
  Se  Se26  1  0.37228813  0.87180099  0.00000000  1
  Se  Se27  1  0.62771187  0.12819901  0.00000000  1
  Se  Se28  1  0.80670925  0.00000000  0.38658150  1
  Se  Se29  1  0.19329075  0.00000000  0.61341850  1
  Se  Se30  1  0.15281144  0.22629685  0.15252768  1
  Se  Se31  1  0.30533912  0.22629685  0.84747232  1
  Se  Se32  1  0.84718856  0.77370315  0.84747232  1
  Se  Se33  1  0.69466088  0.77370315  0.15252768  1
