# generated using pymatgen
data_BiSb3F20
_symmetry_space_group_name_H-M   'P 1'
_cell_length_a   5.62089748
_cell_length_b   9.00442787
_cell_length_c   9.00442787
_cell_angle_alpha   110.88766513
_cell_angle_beta   91.13257777
_cell_angle_gamma   91.13257777
_symmetry_Int_Tables_number   1
_chemical_formula_structural   BiSb3F20
_chemical_formula_sum   'Bi1 Sb3 F20'
_cell_volume   425.53148083
_cell_formula_units_Z   1
loop_
 _symmetry_equiv_pos_site_id
 _symmetry_equiv_pos_as_xyz
  1  'x, y, z'
loop_
 _atom_site_type_symbol
 _atom_site_label
 _atom_site_symmetry_multiplicity
 _atom_site_fract_x
 _atom_site_fract_y
 _atom_site_fract_z
 _atom_site_occupancy
  Bi  Bi0  1  -0.00000000  0.79531803  0.20468197  1
  Sb  Sb1  1  -0.00000000  0.19892138  0.80107862  1
  Sb  Sb2  1  0.75783703  0.25216427  0.25023503  1
  Sb  Sb3  1  0.24216297  0.74976497  0.74783573  1
  F  F4  1  0.65898883  0.26025850  0.45107442  1
  F  F5  1  0.65983898  0.45337862  0.25789074  1
  F  F6  1  0.34016102  0.74210926  0.54662138  1
  F  F7  1  0.34101117  0.54892558  0.73974150  1
  F  F8  1  0.07292423  0.32079197  0.31766216  1
  F  F9  1  0.92707577  0.68233784  0.67920803  1
  F  F10  1  0.85373685  0.83957011  0.41669468  1
  F  F11  1  0.86862000  0.39874089  0.83708188  1
  F  F12  1  0.13138000  0.16291812  0.60125911  1
  F  F13  1  0.14626315  0.58330532  0.16042989  1
  F  F14  1  0.88149053  0.03043629  0.20690352  1
  F  F15  1  0.88306777  0.20852931  0.02216177  1
  F  F16  1  0.11693223  0.97783823  0.79147069  1
  F  F17  1  0.11850947  0.79309648  0.96956371  1
  F  F18  1  0.48449569  0.14223021  0.13906476  1
  F  F19  1  0.51550431  0.86093524  0.85776979  1
  F  F20  1  0.30481215  0.91891524  0.28692535  1
  F  F21  1  0.28696033  0.27953038  0.91309088  1
  F  F22  1  0.71303967  0.08690912  0.72046962  1
  F  F23  1  0.69518785  0.71307465  0.08108476  1
