# generated using pymatgen
data_BeTlAsO4
_symmetry_space_group_name_H-M   'P 1'
_cell_length_a   5.02056846
_cell_length_b   8.37158049
_cell_length_c   9.95971701
_cell_angle_alpha   90.00000000
_cell_angle_beta   90.00000000
_cell_angle_gamma   90.00000000
_symmetry_Int_Tables_number   1
_chemical_formula_structural   BeTlAsO4
_chemical_formula_sum   'Be4 Tl4 As4 O16'
_cell_volume   418.60783187
_cell_formula_units_Z   4
loop_
 _symmetry_equiv_pos_site_id
 _symmetry_equiv_pos_as_xyz
  1  'x, y, z'
loop_
 _atom_site_type_symbol
 _atom_site_label
 _atom_site_symmetry_multiplicity
 _atom_site_fract_x
 _atom_site_fract_y
 _atom_site_fract_z
 _atom_site_occupancy
  Be  Be0  1  0.96822731  0.12527617  0.14320034  1
  Be  Be1  1  0.46822731  0.87472383  0.85679966  1
  Be  Be2  1  0.46822731  0.62527617  0.35679966  1
  Be  Be3  1  0.96822731  0.37472383  0.64320034  1
  Tl  Tl4  1  0.97835865  0.85675954  0.45330642  1
  Tl  Tl5  1  0.47835865  0.14324046  0.54669358  1
  Tl  Tl6  1  0.47835865  0.35675954  0.04669358  1
  Tl  Tl7  1  0.97835865  0.64324046  0.95330642  1
  As  As8  1  0.46786311  0.92466298  0.16718650  1
  As  As9  1  0.96786311  0.07533702  0.83281350  1
  As  As10  1  0.96786311  0.42466298  0.33281350  1
  As  As11  1  0.46786311  0.57533702  0.66718650  1
  O  O12  1  0.56669635  0.79775601  0.29238398  1
  O  O13  1  0.06669635  0.20224399  0.70761602  1
  O  O14  1  0.06669635  0.29775601  0.20761602  1
  O  O15  1  0.56669635  0.70224399  0.79238398  1
  O  O16  1  0.13836458  0.97078500  0.19413530  1
  O  O17  1  0.63836458  0.02921500  0.80586470  1
  O  O18  1  0.63836458  0.47078500  0.30586470  1
  O  O19  1  0.13836458  0.52921500  0.69413530  1
  O  O20  1  0.51855809  0.83049944  0.01668408  1
  O  O21  1  0.01855809  0.16950056  0.98331592  1
  O  O22  1  0.01855809  0.33049944  0.48331592  1
  O  O23  1  0.51855809  0.66950056  0.51668408  1
  O  O24  1  0.65293191  0.09769437  0.17930849  1
  O  O25  1  0.15293191  0.90230563  0.82069151  1
  O  O26  1  0.15293191  0.59769437  0.32069151  1
  O  O27  1  0.65293191  0.40230563  0.67930849  1
