# generated using pymatgen
data_Cs3Sm7Te12
_symmetry_space_group_name_H-M   'P 1'
_cell_length_a   4.52920585
_cell_length_b   13.96572491
_cell_length_c   28.66373756
_cell_angle_alpha   90.00000000
_cell_angle_beta   90.00000000
_cell_angle_gamma   90.00000000
_symmetry_Int_Tables_number   1
_chemical_formula_structural   Cs3Sm7Te12
_chemical_formula_sum   'Cs6 Sm14 Te24'
_cell_volume   1813.08582157
_cell_formula_units_Z   2
loop_
 _symmetry_equiv_pos_site_id
 _symmetry_equiv_pos_as_xyz
  1  'x, y, z'
loop_
 _atom_site_type_symbol
 _atom_site_label
 _atom_site_symmetry_multiplicity
 _atom_site_fract_x
 _atom_site_fract_y
 _atom_site_fract_z
 _atom_site_occupancy
  Cs  Cs0  1  0.50000000  0.28236574  0.36943949  1
  Cs  Cs1  1  0.50000000  0.71070999  0.63352619  1
  Cs  Cs2  1  -0.00000000  0.78929001  0.13352619  1
  Cs  Cs3  1  0.00000000  0.21763426  0.86943949  1
  Cs  Cs4  1  0.50000000  0.56078115  0.02889021  1
  Cs  Cs5  1  0.00000000  0.93921885  0.52889021  1
  Sm  Sm6  1  0.50000000  0.91975212  0.31806316  1
  Sm  Sm7  1  0.50000000  0.08183688  0.68266228  1
  Sm  Sm8  1  0.00000000  0.41816312  0.18266228  1
  Sm  Sm9  1  -0.00000000  0.58024788  0.81806316  1
  Sm  Sm10  1  0.50000000  0.58920435  0.28751689  1
  Sm  Sm11  1  0.50000000  0.41114529  0.71258858  1
  Sm  Sm12  1  -0.00000000  0.08885471  0.21258858  1
  Sm  Sm13  1  -0.00000000  0.91079565  0.78751689  1
  Sm  Sm14  1  0.50000000  0.50014465  0.50017444  1
  Sm  Sm15  1  0.00000000  0.99985535  0.00017444  1
  Sm  Sm16  1  0.50000000  0.78452011  0.91503337  1
  Sm  Sm17  1  0.50000000  0.21552268  0.08374103  1
  Sm  Sm18  1  0.00000000  0.28447732  0.58374103  1
  Sm  Sm19  1  0.00000000  0.71547989  0.41503337  1
  Te  Te20  1  0.50000000  0.87081692  0.42419975  1
  Te  Te21  1  0.50000000  0.13009139  0.57627835  1
  Te  Te22  1  -0.00000000  0.36990861  0.07627835  1
  Te  Te23  1  0.00000000  0.62918308  0.92419975  1
  Te  Te24  1  0.50000000  0.57191022  0.17677339  1
  Te  Te25  1  0.50000000  0.42870447  0.82166856  1
  Te  Te26  1  -0.00000000  0.07129553  0.32166856  1
  Te  Te27  1  -0.00000000  0.92808978  0.67677339  1
  Te  Te28  1  0.50000000  0.84353174  0.01967103  1
  Te  Te29  1  0.50000000  0.15249403  0.98086408  1
  Te  Te30  1  -0.00000000  0.34750597  0.48086408  1
  Te  Te31  1  -0.00000000  0.65646826  0.51967103  1
  Te  Te32  1  0.50000000  0.56211724  0.39572469  1
  Te  Te33  1  0.50000000  0.43666408  0.60421085  1
  Te  Te34  1  0.00000000  0.06333592  0.10421085  1
  Te  Te35  1  0.00000000  0.93788276  0.89572469  1
  Te  Te36  1  0.50000000  0.74732731  0.80217890  1
  Te  Te37  1  0.50000000  0.25240713  0.19751077  1
  Te  Te38  1  0.00000000  0.24759287  0.69751077  1
  Te  Te39  1  0.00000000  0.75267269  0.30217890  1
  Te  Te40  1  0.50000000  0.93890929  0.21035520  1
  Te  Te41  1  0.50000000  0.06072057  0.78992880  1
  Te  Te42  1  0.00000000  0.43927943  0.28992880  1
  Te  Te43  1  -0.00000000  0.56109071  0.71035520  1
