# generated using pymatgen
data_Ca3Hf2AlFeSiO12
_symmetry_space_group_name_H-M   'P 1'
_cell_length_a   10.93064953
_cell_length_b   10.93064953
_cell_length_c   10.93064953
_cell_angle_alpha   69.85396654
_cell_angle_beta   70.86512838
_cell_angle_gamma   109.13487162
_symmetry_Int_Tables_number   1
_chemical_formula_structural   Ca3Hf2AlFeSiO12
_chemical_formula_sum   'Ca12 Hf8 Al4 Fe4 Si4 O48'
_cell_volume   1005.24233941
_cell_formula_units_Z   4
loop_
 _symmetry_equiv_pos_site_id
 _symmetry_equiv_pos_as_xyz
  1  'x, y, z'
loop_
 _atom_site_type_symbol
 _atom_site_label
 _atom_site_symmetry_multiplicity
 _atom_site_fract_x
 _atom_site_fract_y
 _atom_site_fract_z
 _atom_site_occupancy
  Ca  Ca0  1  0.37483197  0.62483197  0.25000000  1
  Ca  Ca1  1  0.12516803  0.87516803  0.75000000  1
  Ca  Ca2  1  0.37592836  0.75000000  0.87407164  1
  Ca  Ca3  1  0.12407164  0.25000000  0.62592836  1
  Ca  Ca4  1  0.25000000  0.62401206  0.62598794  1
  Ca  Ca5  1  0.75000000  0.87598794  0.87401206  1
  Ca  Ca6  1  0.62407164  0.37407164  0.75000000  1
  Ca  Ca7  1  0.87592836  0.12592836  0.25000000  1
  Ca  Ca8  1  0.62516803  0.25000000  0.12483197  1
  Ca  Ca9  1  0.87483197  0.75000000  0.37516803  1
  Ca  Ca10  1  0.75000000  0.37401206  0.37598794  1
  Ca  Ca11  1  0.25000000  0.12598794  0.12401206  1
  Hf  Hf12  1  0.50185200  0.00180011  0.99751279  1
  Hf  Hf13  1  0.49931290  0.49936479  0.50248721  1
  Hf  Hf14  1  0.00068710  0.49819989  -0.00005189  1
  Hf  Hf15  1  0.99814800  0.00063521  0.50005189  1
  Hf  Hf16  1  0.49814800  0.49994811  0.99936479  1
  Hf  Hf17  1  0.50068710  0.00005189  0.50180011  1
  Hf  Hf18  1  0.99931290  0.49751279  0.50063521  1
  Hf  Hf19  1  0.00185200  0.00248721  0.99819989  1
  Al  Al20  1  0.37452068  0.12452068  0.75000000  1
  Al  Al21  1  0.12547932  0.37547932  0.25000000  1
  Al  Al22  1  0.87452068  0.25000000  0.87547932  1
  Al  Al23  1  0.62547932  0.75000000  0.62452068  1
  Fe  Fe24  1  0.62576692  0.87576692  0.25000000  1
  Fe  Fe25  1  0.87423308  0.62423308  0.75000000  1
  Fe  Fe26  1  0.12576692  0.75000000  0.12423308  1
  Fe  Fe27  1  0.37423308  0.25000000  0.37576692  1
  Si  Si28  1  0.75000000  0.62500000  0.12500000  1
  Si  Si29  1  0.25000000  0.87500000  0.37500000  1
  Si  Si30  1  0.25000000  0.37500000  0.87500000  1
  Si  Si31  1  0.75000000  0.12500000  0.62500000  1
  O  O32  1  0.58594802  0.87542458  0.09282160  1
  O  O33  1  0.46824618  0.67876962  0.40717840  1
  O  O34  1  0.03175382  0.62457542  0.78947656  1
  O  O35  1  0.91405198  0.82123038  0.71052344  1
  O  O36  1  0.12661323  0.70382507  0.97170169  1
  O  O37  1  0.32447324  0.79617493  0.07721184  1
  O  O38  1  0.37338677  0.40168508  0.42278816  1
  O  O39  1  0.17552676  0.09831492  0.52829831  1
  O  O40  1  0.29824089  0.41156777  0.70071413  1
  O  O41  1  0.20175911  0.50104498  0.88667312  1
  O  O42  1  0.61228189  0.99895502  0.79928587  1
  O  O43  1  0.88771811  0.08843223  0.61332688  1
  O  O44  1  0.41471114  0.12066230  0.89796127  1
  O  O45  1  0.51862357  0.31267241  0.60203873  1
  O  O46  1  0.98137643  0.37933770  0.20595116  1
  O  O47  1  0.08528886  0.18732759  0.29404884  1
  O  O48  1  0.87947471  0.29825475  0.01565446  1
  O  O49  1  0.68609078  0.20174525  0.91878004  1
  O  O50  1  0.62052529  0.60487083  0.58121996  1
  O  O51  1  0.81390922  0.89512917  0.48434554  1
  O  O52  1  0.69859728  0.58670483  0.30071795  1
  O  O53  1  0.80140272  0.50068477  0.11189245  1
  O  O54  1  0.38742278  0.99931523  0.19928205  1
  O  O55  1  0.11257722  0.91329517  0.38810755  1
  O  O56  1  0.41405198  0.28947656  0.17876962  1
  O  O57  1  0.53175382  0.21052344  0.37542458  1
  O  O58  1  0.96824618  0.59282160  0.32123038  1
  O  O59  1  0.08594802  0.90717840  0.12457542  1
  O  O60  1  0.87338677  0.57721184  0.59831492  1
  O  O61  1  0.67552676  0.47170169  0.90168508  1
  O  O62  1  0.62661323  0.02829831  0.29617493  1
  O  O63  1  0.82447324  0.92278816  0.20382507  1
  O  O64  1  0.70175911  0.11332688  0.49895502  1
  O  O65  1  0.79824089  0.29928587  0.58843223  1
  O  O66  1  0.38771811  0.38667312  0.91156777  1
  O  O67  1  0.11228189  0.20071413  0.00104498  1
  O  O68  1  0.58528886  0.70595116  0.81267241  1
  O  O69  1  0.48137643  0.79404884  0.62066230  1
  O  O70  1  0.01862357  0.39796127  0.68732759  1
  O  O71  1  0.91471114  0.10203873  0.87933770  1
  O  O72  1  0.12052529  0.41878004  0.39512917  1
  O  O73  1  0.31390922  0.51565446  0.10487083  1
  O  O74  1  0.37947471  0.98434554  0.70174525  1
  O  O75  1  0.18609078  0.08121996  0.79825475  1
  O  O76  1  0.30140272  0.88810755  0.49931523  1
  O  O77  1  0.19859728  0.69928205  0.41329517  1
  O  O78  1  0.61257722  0.61189245  0.08670483  1
  O  O79  1  0.88742278  0.80071795  0.00068477  1
