# generated using pymatgen
data_Ba4Re2NiO12
_symmetry_space_group_name_H-M   'P 1'
_cell_length_a   5.84144341
_cell_length_b   5.84144337
_cell_length_c   10.08814159
_cell_angle_alpha   90.00000000
_cell_angle_beta   73.17075946
_cell_angle_gamma   119.99999973
_symmetry_Int_Tables_number   1
_chemical_formula_structural   Ba4Re2NiO12
_chemical_formula_sum   'Ba4 Re2 Ni1 O12'
_cell_volume   280.96139635
_cell_formula_units_Z   1
loop_
 _symmetry_equiv_pos_site_id
 _symmetry_equiv_pos_as_xyz
  1  'x, y, z'
loop_
 _atom_site_type_symbol
 _atom_site_label
 _atom_site_symmetry_multiplicity
 _atom_site_fract_x
 _atom_site_fract_y
 _atom_site_fract_z
 _atom_site_occupancy
  Ba  Ba0  1  0.57230734  0.28615367  0.14153899  1
  Ba  Ba1  1  0.42545347  0.71272673  0.86181980  1
  Ba  Ba2  1  0.24987674  0.12493837  0.62518489  1
  Ba  Ba3  1  0.74587085  0.87293542  0.38119373  1
  Re  Re4  1  0.99659851  0.99829926  0.00510223  1
  Re  Re5  1  0.01260963  0.50630482  0.48108555  1
  Ni  Ni6  1  0.81919314  0.40959657  0.77121029  1
  O  O7  1  0.77238720  0.61209879  0.61551400  1
  O  O8  1  0.22419759  0.61209879  0.61551400  1
  O  O9  1  0.77238720  0.16028841  0.61551400  1
  O  O10  1  0.23474590  0.38101713  0.38423697  1
  O  O11  1  0.76203425  0.38101713  0.38423697  1
  O  O12  1  0.23474590  0.85372878  0.38423697  1
  O  O13  1  0.07687181  0.81071285  0.11241534  1
  O  O14  1  0.62142571  0.81071285  0.11241534  1
  O  O15  1  0.07687181  0.26615896  0.11241534  1
  O  O16  1  0.92181526  0.19639621  0.88178853  1
  O  O17  1  0.39279242  0.19639621  0.88178853  1
  O  O18  1  0.92181526  0.72541905  0.88178853  1
