# generated using pymatgen
data_BiP3(PbO4)3
_symmetry_space_group_name_H-M   'P 1'
_cell_length_a   9.14819719
_cell_length_b   9.16329802
_cell_length_c   9.13296027
_cell_angle_alpha   70.48710913
_cell_angle_beta   70.78014762
_cell_angle_gamma   109.58008089
_symmetry_Int_Tables_number   1
_chemical_formula_structural   BiP3(PbO4)3
_chemical_formula_sum   'Bi2 P6 Pb6 O24'
_cell_volume   590.08239866
_cell_formula_units_Z   2
loop_
 _symmetry_equiv_pos_site_id
 _symmetry_equiv_pos_as_xyz
  1  'x, y, z'
loop_
 _atom_site_type_symbol
 _atom_site_label
 _atom_site_symmetry_multiplicity
 _atom_site_fract_x
 _atom_site_fract_y
 _atom_site_fract_z
 _atom_site_occupancy
  Bi  Bi0  1  0.83368492  0.33184788  0.16563589  1
  Bi  Bi1  1  0.50183704  0.66815212  0.99748377  1
  P  P2  1  0.75105710  0.12573416  0.62404469  1
  P  P3  1  0.24912964  0.37990259  0.88083045  1
  P  P4  1  0.62532294  0.87426584  0.24977885  1
  P  P5  1  0.86922705  0.62009741  0.76073304  1
  P  P6  1  0.38110455  0.25645752  0.36373736  1
  P  P7  1  0.12464703  0.74354248  0.12019488  1
  Pb  Pb8  1  0.49483065  0.14592725  0.99774713  1
  Pb  Pb9  1  0.64572670  0.50043060  0.50685696  1
  Pb  Pb10  1  0.00404109  0.99449695  0.35182395  1
  Pb  Pb11  1  0.34890341  0.85407275  0.64367438  1
  Pb  Pb12  1  0.14529610  0.49956940  0.50728756  1
  Pb  Pb13  1  0.00954414  0.00550305  0.84632090  1
  O  O14  1  0.79899657  0.15199681  0.43174422  1
  O  O15  1  0.40184128  0.33574129  0.85900013  1
  O  O16  1  0.68492295  0.25232310  0.65594085  1
  O  O17  1  0.08052445  0.24977563  0.07210811  1
  O  O18  1  0.64699976  0.84800319  0.08374104  1
  O  O19  1  0.06609999  0.66425871  0.69474142  1
  O  O20  1  0.43259985  0.74767690  0.40826396  1
  O  O21  1  0.83074882  0.75022437  0.82188373  1
  O  O22  1  0.34601290  0.18782235  0.23881603  1
  O  O23  1  0.93632114  0.57262351  0.25155027  1
  O  O24  1  0.57559046  0.30857800  0.33309372  1
  O  O25  1  0.14451153  0.89524260  0.16574834  1
  O  O26  1  0.19443992  0.36144140  0.74140201  1
  O  O27  1  0.59319473  0.92770932  0.75908817  1
  O  O28  1  0.32164749  0.57460682  0.85036930  1
  O  O29  1  0.91696248  0.15642333  0.64592185  1
  O  O30  1  0.83299852  0.63855860  0.60284341  1
  O  O31  1  0.66548541  0.07229068  0.18679750  1
  O  O32  1  0.74704067  0.42539318  0.92497612  1
  O  O33  1  0.76053915  0.84357667  0.30234518  1
  O  O34  1  0.15819055  0.81217765  0.92663838  1
  O  O35  1  0.36369763  0.42737649  0.32417378  1
  O  O36  1  0.26701246  0.69142200  0.14167172  1
  O  O37  1  0.24926893  0.10475740  0.56099093  1
