# generated using pymatgen
data_LiCrP2O7
_symmetry_space_group_name_H-M   'P 1'
_cell_length_a   6.27539225
_cell_length_b   6.27416159
_cell_length_c   13.63717774
_cell_angle_alpha   77.08607740
_cell_angle_beta   80.52693827
_cell_angle_gamma   98.87389732
_symmetry_Int_Tables_number   1
_chemical_formula_structural   LiCrP2O7
_chemical_formula_sum   'Li4 Cr4 P8 O28'
_cell_volume   505.92236351
_cell_formula_units_Z   4
loop_
 _symmetry_equiv_pos_site_id
 _symmetry_equiv_pos_as_xyz
  1  'x, y, z'
loop_
 _atom_site_type_symbol
 _atom_site_label
 _atom_site_symmetry_multiplicity
 _atom_site_fract_x
 _atom_site_fract_y
 _atom_site_fract_z
 _atom_site_occupancy
  Li  Li0  1  0.21292960  0.60792234  0.66324798  1
  Li  Li1  1  0.77198366  0.87808336  0.83670833  1
  Li  Li2  1  0.23316201  0.12678491  0.15971662  1
  Li  Li3  1  0.78814664  0.39244260  0.33638210  1
  Cr  Cr4  1  0.41530075  0.99671301  0.35901514  1
  Cr  Cr5  1  0.14406424  0.22885368  0.85817738  1
  Cr  Cr6  1  0.85493213  0.77422779  0.13984853  1
  Cr  Cr7  1  0.58783528  0.00419234  0.63921204  1
  P  P8  1  0.26779059  0.76303565  0.86556869  1
  P  P9  1  0.34878521  0.67286912  0.08975908  1
  P  P10  1  0.26305294  0.44161536  0.40817410  1
  P  P11  1  0.87450082  0.86619785  0.36605324  1
  P  P12  1  0.12882665  0.13617857  0.63212436  1
  P  P13  1  0.74004751  0.56052877  0.58961710  1
  P  P14  1  0.64989561  0.33082562  0.90831019  1
  P  P15  1  0.73141156  0.23900405  0.13232619  1
  O  O16  1  0.08336297  0.89639759  0.88530146  1
  O  O17  1  0.18517495  0.82233166  0.11955546  1
  O  O18  1  0.28246230  0.97225952  0.61191860  1
  O  O19  1  0.47272306  0.91203746  0.78788963  1
  O  O20  1  0.08246172  0.44257022  0.35120340  1
  O  O21  1  0.18012686  0.55809688  0.83033587  1
  O  O22  1  0.34407018  0.68117228  0.96901994  1
  O  O23  1  0.37459289  0.67381620  0.41585013  1
  O  O24  1  0.58843923  0.79044856  0.08342528  1
  O  O25  1  0.29111506  0.43497306  0.14604188  1
  O  O26  1  0.14775584  0.31443142  0.52850744  1
  O  O27  1  0.55985118  0.69371850  0.61902779  1
  O  O28  1  0.88886770  0.01337659  0.66865079  1
  O  O29  1  0.20203071  0.26481556  0.70928655  1
  O  O30  1  0.80107804  0.73894382  0.28853405  1
  O  O31  1  0.11444577  0.98868035  0.33029206  1
  O  O32  1  0.44228388  0.30785359  0.37816165  1
  O  O33  1  0.85467950  0.68617475  0.46922799  1
  O  O34  1  0.70671769  0.56933891  0.85299789  1
  O  O35  1  0.41099368  0.21259400  0.91383440  1
  O  O36  1  0.63063209  0.32712178  0.58251482  1
  O  O37  1  0.65156653  0.32011013  0.02963926  1
  O  O38  1  0.81568429  0.44364918  0.16853071  1
  O  O39  1  0.92047355  0.56263978  0.64674148  1
  O  O40  1  0.52841579  0.08624405  0.21020561  1
  O  O41  1  0.72098916  0.03019742  0.38650746  1
  O  O42  1  0.81423965  0.18257862  0.87802726  1
  O  O43  1  0.91701155  0.10781608  0.11110110  1
