# generated using pymatgen
data_Ba3SmIrRuO9
_symmetry_space_group_name_H-M   'P 1'
_cell_length_a   6.00375188
_cell_length_b   6.00369082
_cell_length_c   14.84284362
_cell_angle_alpha   90.00000000
_cell_angle_beta   90.00000000
_cell_angle_gamma   60.00033642
_symmetry_Int_Tables_number   1
_chemical_formula_structural   Ba3SmIrRuO9
_chemical_formula_sum   'Ba6 Sm2 Ir2 Ru2 O18'
_cell_volume   463.32983880
_cell_formula_units_Z   2
loop_
 _symmetry_equiv_pos_site_id
 _symmetry_equiv_pos_as_xyz
  1  'x, y, z'
loop_
 _atom_site_type_symbol
 _atom_site_label
 _atom_site_symmetry_multiplicity
 _atom_site_fract_x
 _atom_site_fract_y
 _atom_site_fract_z
 _atom_site_occupancy
  Ba  Ba0  1  0.33339586  0.33330207  0.40258932  1
  Ba  Ba1  1  0.66661956  0.66669022  0.59800837  1
  Ba  Ba2  1  0.66660414  0.66669793  0.90258932  1
  Ba  Ba3  1  0.33338044  0.33330978  0.09800837  1
  Ba  Ba4  1  0.99997481  0.00001260  0.74968454  1
  Ba  Ba5  1  0.00002519  0.99998740  0.24968454  1
  Sm  Sm6  1  0.00000339  -0.00000169  0.50108958  1
  Sm  Sm7  1  -0.00000339  0.00000169  0.00108958  1
  Ir  Ir8  1  0.33333377  0.33333312  0.66565973  1
  Ir  Ir9  1  0.66666623  0.66666688  0.16565973  1
  Ru  Ru10  1  0.66666216  0.66666892  0.33555087  1
  Ru  Ru11  1  0.33333784  0.33333108  0.83555087  1
  O  O12  1  0.64334524  0.17832738  0.91042146  1
  O  O13  1  0.17834792  0.17834157  0.91042772  1
  O  O14  1  0.17834792  0.64331051  0.91042772  1
  O  O15  1  0.35531645  0.82234178  0.08836335  1
  O  O16  1  0.82232732  0.82235935  0.08836635  1
  O  O17  1  0.82232732  0.35531333  0.08836635  1
  O  O18  1  0.35665476  0.82167262  0.41042146  1
  O  O19  1  0.82165208  0.82165843  0.41042772  1
  O  O20  1  0.82165208  0.35668949  0.41042772  1
  O  O21  1  0.64468355  0.17765822  0.58836335  1
  O  O22  1  0.17767268  0.17764065  0.58836635  1
  O  O23  1  0.17767268  0.64468667  0.58836635  1
  O  O24  1  0.48933805  0.02133574  0.75035005  1
  O  O25  1  0.02135415  0.48932293  0.75034454  1
  O  O26  1  0.48933805  0.48932621  0.75035005  1
  O  O27  1  0.51066195  0.97866426  0.25035005  1
  O  O28  1  0.97864585  0.51067707  0.25034454  1
  O  O29  1  0.51066195  0.51067379  0.25035005  1
