# generated using pymatgen
data_Ba3UIn2O9
_symmetry_space_group_name_H-M   'P 1'
_cell_length_a   6.08488122
_cell_length_b   8.62897212
_cell_length_c   10.57394650
_cell_angle_alpha   65.91886905
_cell_angle_beta   73.27789778
_cell_angle_gamma   90.00000000
_symmetry_Int_Tables_number   1
_chemical_formula_structural   Ba3UIn2O9
_chemical_formula_sum   'Ba6 U2 In4 O18'
_cell_volume   481.04773768
_cell_formula_units_Z   2
loop_
 _symmetry_equiv_pos_site_id
 _symmetry_equiv_pos_as_xyz
  1  'x, y, z'
loop_
 _atom_site_type_symbol
 _atom_site_label
 _atom_site_symmetry_multiplicity
 _atom_site_fract_x
 _atom_site_fract_y
 _atom_site_fract_z
 _atom_site_occupancy
  Ba  Ba0  1  0.50000000  0.22775534  0.00000000  1
  Ba  Ba1  1  0.84358663  0.60626929  0.31282574  1
  Ba  Ba2  1  0.15641337  0.91909604  0.68717426  1
  Ba  Ba3  1  0.50000000  0.77224466  1.00000000  1
  Ba  Ba4  1  0.84358663  0.08090396  0.31282574  1
  Ba  Ba5  1  0.15641337  0.39373071  0.68717426  1
  U  U6  1  0.33185949  0.33185949  0.33628003  1
  U  U7  1  0.66814051  0.66814051  0.66371997  1
  In  In8  1  -0.00000000  0.50000000  -0.00000000  1
  In  In9  1  0.33331020  0.83331020  0.33337860  1
  In  In10  1  0.66668980  0.16668980  0.66662140  1
  In  In11  1  -0.00000000  -0.00000000  -0.00000000  1
  O  O12  1  0.00000000  0.25554424  1.00000000  1
  O  O13  1  0.33157189  0.57375233  0.33685523  1
  O  O14  1  0.66842811  0.91060855  0.66314477  1
  O  O15  1  0.16970112  0.41226400  0.17547300  1
  O  O16  1  0.50475147  0.74837738  0.50324524  1
  O  O17  1  0.83617912  0.08533802  0.82932295  1
  O  O18  1  0.34517312  0.58773600  0.82452700  1
  O  O19  1  0.66550307  0.91466198  0.17067705  1
  O  O20  1  0.00799671  0.25162262  0.49675476  1
  O  O21  1  1.00000000  0.74445576  0.00000000  1
  O  O22  1  0.33157189  0.08939145  0.33685523  1
  O  O23  1  0.66842811  0.42624767  0.66314477  1
  O  O24  1  0.83029888  0.58773600  0.82452700  1
  O  O25  1  0.16382088  0.91466198  0.17067705  1
  O  O26  1  0.49524853  0.25162262  0.49675476  1
  O  O27  1  0.65482688  0.41226400  0.17547300  1
  O  O28  1  0.99200329  0.74837738  0.50324524  1
  O  O29  1  0.33449693  0.08533802  0.82932295  1
