# generated using pymatgen
data_Ba3LuIrRuO9
_symmetry_space_group_name_H-M   'P 1'
_cell_length_a   5.91302111
_cell_length_b   5.91246246
_cell_length_c   14.57048947
_cell_angle_alpha   90.00000000
_cell_angle_beta   90.00000000
_cell_angle_gamma   60.00313071
_symmetry_Int_Tables_number   1
_chemical_formula_structural   Ba3LuIrRuO9
_chemical_formula_sum   'Ba6 Lu2 Ir2 Ru2 O18'
_cell_volume   441.16017300
_cell_formula_units_Z   2
loop_
 _symmetry_equiv_pos_site_id
 _symmetry_equiv_pos_as_xyz
  1  'x, y, z'
loop_
 _atom_site_type_symbol
 _atom_site_label
 _atom_site_symmetry_multiplicity
 _atom_site_fract_x
 _atom_site_fract_y
 _atom_site_fract_z
 _atom_site_occupancy
  Ba  Ba0  1  0.33334965  0.33332517  0.40837832  1
  Ba  Ba1  1  0.66666533  0.66666734  0.59329509  1
  Ba  Ba2  1  0.66665035  0.66667483  0.90837832  1
  Ba  Ba3  1  0.33333467  0.33333266  0.09329509  1
  Ba  Ba4  1  0.00004073  0.99997963  0.74985211  1
  Ba  Ba5  1  0.99995927  0.00002037  0.24985211  1
  Lu  Lu6  1  0.00002460  -0.00001230  0.50105370  1
  Lu  Lu7  1  -0.00002460  0.00001230  0.00105370  1
  Ir  Ir8  1  0.33333086  0.33333457  0.66332307  1
  Ir  Ir9  1  0.66666914  0.66666543  0.16332307  1
  Ru  Ru10  1  0.66664842  0.66667579  0.33802784  1
  Ru  Ru11  1  0.33335158  0.33332421  0.83802784  1
  O  O12  1  0.17402520  0.65192647  0.91313213  1
  O  O13  1  0.65203069  0.17398465  0.91314876  1
  O  O14  1  0.17402520  0.17404833  0.91313213  1
  O  O15  1  0.82620488  0.34755312  0.08476717  1
  O  O16  1  0.34756404  0.82621798  0.08476534  1
  O  O17  1  0.82620488  0.82624200  0.08476717  1
  O  O18  1  0.82597480  0.34807353  0.41313213  1
  O  O19  1  0.34796931  0.82601535  0.41314876  1
  O  O20  1  0.82597480  0.82595167  0.41313213  1
  O  O21  1  0.17379512  0.65244688  0.58476717  1
  O  O22  1  0.65243596  0.17378202  0.58476534  1
  O  O23  1  0.17379512  0.17375800  0.58476717  1
  O  O24  1  0.48977648  0.02049465  0.75079010  1
  O  O25  1  0.02047551  0.48976225  0.75077696  1
  O  O26  1  0.48977648  0.48972887  0.75079010  1
  O  O27  1  0.51022352  0.97950535  0.25079010  1
  O  O28  1  0.97952449  0.51023775  0.25077696  1
  O  O29  1  0.51022352  0.51027113  0.25079010  1
