# generated using pymatgen
data_Ho48In7Co17
_symmetry_space_group_name_H-M   'P 1'
_cell_length_a   8.35780622
_cell_length_b   8.35780622
_cell_length_c   27.51594205
_cell_angle_alpha   87.99733735
_cell_angle_beta   92.00266265
_cell_angle_gamma   111.65834868
_symmetry_Int_Tables_number   1
_chemical_formula_structural   Ho48In7Co17
_chemical_formula_sum   'Ho48 In7 Co17'
_cell_volume   1784.77893474
_cell_formula_units_Z   1
loop_
 _symmetry_equiv_pos_site_id
 _symmetry_equiv_pos_as_xyz
  1  'x, y, z'
loop_
 _atom_site_type_symbol
 _atom_site_label
 _atom_site_symmetry_multiplicity
 _atom_site_fract_x
 _atom_site_fract_y
 _atom_site_fract_z
 _atom_site_occupancy
  Ho  Ho0  1  0.53659294  0.85526214  0.07832802  1
  Ho  Ho1  1  0.04007898  0.35448518  0.32911749  1
  Ho  Ho2  1  0.54054090  0.85378952  0.57918490  1
  Ho  Ho3  1  0.03988608  0.35062285  0.82998872  1
  Ho  Ho4  1  0.35062285  0.03988608  0.17001128  1
  Ho  Ho5  1  0.85378952  0.54054090  0.42081510  1
  Ho  Ho6  1  0.35448518  0.04007898  0.67088251  1
  Ho  Ho7  1  0.85526214  0.53659294  0.92167198  1
  Ho  Ho8  1  0.96011392  0.64937715  0.17001128  1
  Ho  Ho9  1  0.45945910  0.14621048  0.42081510  1
  Ho  Ho10  1  0.95992102  0.64551482  0.67088251  1
  Ho  Ho11  1  0.46340706  0.14473786  0.92167198  1
  Ho  Ho12  1  0.14473786  0.46340706  0.07832802  1
  Ho  Ho13  1  0.64551482  0.95992102  0.32911749  1
  Ho  Ho14  1  0.14621048  0.45945910  0.57918490  1
  Ho  Ho15  1  0.64937715  0.96011392  0.82998872  1
  Ho  Ho16  1  0.11721132  0.30451124  0.20216535  1
  Ho  Ho17  1  0.61924008  0.80708269  0.45340641  1
  Ho  Ho18  1  0.11928600  0.30649340  0.70365130  1
  Ho  Ho19  1  0.62761574  0.80990821  0.95572468  1
  Ho  Ho20  1  0.80990821  0.62761574  0.04427532  1
  Ho  Ho21  1  0.30649340  0.11928600  0.29634870  1
  Ho  Ho22  1  0.80708269  0.61924008  0.54659359  1
  Ho  Ho23  1  0.30451124  0.11721132  0.79783465  1
  Ho  Ho24  1  0.69548876  0.88278868  0.20216535  1
  Ho  Ho25  1  0.19291731  0.38075992  0.45340641  1
  Ho  Ho26  1  0.69350660  0.88071400  0.70365130  1
  Ho  Ho27  1  0.19009179  0.37238426  0.95572468  1
  Ho  Ho28  1  0.37238426  0.19009179  0.04427532  1
  Ho  Ho29  1  0.88071400  0.69350660  0.29634870  1
  Ho  Ho30  1  0.38075992  0.19291731  0.54659359  1
  Ho  Ho31  1  0.88278868  0.69548876  0.79783465  1
  Ho  Ho32  1  0.79441903  0.20558097  0.00544539  1
  Ho  Ho33  1  0.27832816  0.72167184  0.25494034  1
  Ho  Ho34  1  0.77828272  0.22171728  0.50518049  1
  Ho  Ho35  1  0.27850241  0.72149759  0.75537386  1
  Ho  Ho36  1  0.72149759  0.27850241  0.24462614  1
  Ho  Ho37  1  0.22171728  0.77828272  0.49481951  1
  Ho  Ho38  1  0.72167184  0.27832816  0.74505966  1
  Ho  Ho39  1  0.20558097  0.79441903  0.99455461  1
  Ho  Ho40  1  0.51190086  0.48809914  0.13767964  1
  Ho  Ho41  1  0.01183759  0.98816241  0.38898350  1
  Ho  Ho42  1  0.51153937  0.48846063  0.63918291  1
  Ho  Ho43  1  0.01143121  0.98856879  0.89878313  1
  Ho  Ho44  1  0.98856879  0.01143121  0.10121687  1
  Ho  Ho45  1  0.48846063  0.51153937  0.36081709  1
  Ho  Ho46  1  0.98816241  0.01183759  0.61101650  1
  Ho  Ho47  1  0.48809914  0.51190086  0.86232036  1
  In  In48  1  0.75021737  0.24978263  0.12539374  1
  In  In49  1  0.25005311  0.74994689  0.37494805  1
  In  In50  1  0.74994689  0.25005311  0.62505195  1
  In  In51  1  0.24978263  0.75021737  0.87460626  1
  In  In52  1  0.49982516  0.50017484  0.24957124  1
  In  In53  1  0.00000000  -0.00000000  0.50000000  1
  In  In54  1  0.50017484  0.49982516  0.75042876  1
  Co  Co55  1  0.18864606  0.81135394  0.09416572  1
  Co  Co56  1  0.68778387  0.31221613  0.34432559  1
  Co  Co57  1  0.18727844  0.81272156  0.59425206  1
  Co  Co58  1  0.68733563  0.31266437  0.84451518  1
  Co  Co59  1  0.31266437  0.68733563  0.15548482  1
  Co  Co60  1  0.81272156  0.18727844  0.40574794  1
  Co  Co61  1  0.31221613  0.68778387  0.65567441  1
  Co  Co62  1  0.81135394  0.18864606  0.90583428  1
  Co  Co63  1  0.00000000  -0.00000000  0.00000000  1
  Co  Co64  1  0.44652703  0.55347297  0.02902194  1
  Co  Co65  1  0.94194383  0.05805617  0.27760860  1
  Co  Co66  1  0.44258063  0.55741937  0.52747268  1
  Co  Co67  1  0.94168190  0.05831810  0.77643244  1
  Co  Co68  1  0.05831810  0.94168190  0.22356756  1
  Co  Co69  1  0.55741937  0.44258063  0.47252732  1
  Co  Co70  1  0.05805617  0.94194383  0.72239140  1
  Co  Co71  1  0.55347297  0.44652703  0.97097806  1
