# generated using pymatgen
data_CsVFeF6
_symmetry_space_group_name_H-M   'P 1'
_cell_length_a   7.55844121
_cell_length_b   7.42617971
_cell_length_c   7.62182879
_cell_angle_alpha   90.00000000
_cell_angle_beta   59.72219259
_cell_angle_gamma   119.42282243
_symmetry_Int_Tables_number   1
_chemical_formula_structural   CsVFeF6
_chemical_formula_sum   'Cs2 V2 Fe2 F12'
_cell_volume   303.85829391
_cell_formula_units_Z   2
loop_
 _symmetry_equiv_pos_site_id
 _symmetry_equiv_pos_as_xyz
  1  'x, y, z'
loop_
 _atom_site_type_symbol
 _atom_site_label
 _atom_site_symmetry_multiplicity
 _atom_site_fract_x
 _atom_site_fract_y
 _atom_site_fract_z
 _atom_site_occupancy
  Cs  Cs0  1  0.75213225  0.37606612  0.37393388  1
  Cs  Cs1  1  0.24786775  0.62393388  0.62606612  1
  V  V2  1  -0.00000000  0.00000000  0.50000000  1
  V  V3  1  -0.00000000  0.00000000  -0.00000000  1
  Fe  Fe4  1  0.50000000  0.50000000  -0.00000000  1
  Fe  Fe5  1  0.50000000  0.00000000  -0.00000000  1
  F  F6  1  0.86736257  0.93368128  0.31631872  1
  F  F7  1  0.64990822  0.32495411  0.92504589  1
  F  F8  1  0.24247178  0.93205736  0.92554295  1
  F  F9  1  0.24247178  0.31041442  0.33198527  1
  F  F10  1  0.24247178  0.31041442  0.92554295  1
  F  F11  1  0.24247178  0.93205736  0.33198527  1
  F  F12  1  0.13263743  0.06631872  0.68368128  1
  F  F13  1  0.35009178  0.67504589  0.07495411  1
  F  F14  1  0.75752822  0.06794264  0.07445705  1
  F  F15  1  0.75752822  0.68958558  0.66801473  1
  F  F16  1  0.75752822  0.68958558  0.07445705  1
  F  F17  1  0.75752822  0.06794264  0.66801473  1
