# generated using pymatgen
data_Ba5As2(SO6)2
_symmetry_space_group_name_H-M   'P 1'
_cell_length_a   7.84953900
_cell_length_b   10.70101272
_cell_length_c   10.70552601
_cell_angle_alpha   119.91329820
_cell_angle_beta   90.00000000
_cell_angle_gamma   90.00000000
_symmetry_Int_Tables_number   1
_chemical_formula_structural   Ba5As2(SO6)2
_chemical_formula_sum   'Ba10 As4 S4 O24'
_cell_volume   779.44673073
_cell_formula_units_Z   2
loop_
 _symmetry_equiv_pos_site_id
 _symmetry_equiv_pos_as_xyz
  1  'x, y, z'
loop_
 _atom_site_type_symbol
 _atom_site_label
 _atom_site_symmetry_multiplicity
 _atom_site_fract_x
 _atom_site_fract_y
 _atom_site_fract_z
 _atom_site_occupancy
  Ba  Ba0  1  0.75000000  0.99362387  0.22879483  1
  Ba  Ba1  1  0.75000000  0.76689371  0.76969268  1
  Ba  Ba2  1  0.75000000  0.24452047  0.01550313  1
  Ba  Ba3  1  0.25000000  0.01081920  0.77171486  1
  Ba  Ba4  1  0.25000000  0.22801492  0.23611077  1
  Ba  Ba5  1  0.25000000  0.76539963  0.99898974  1
  Ba  Ba6  1  0.50037880  0.66659565  0.32581680  1
  Ba  Ba7  1  0.00060379  0.33727820  0.66620448  1
  Ba  Ba8  1  0.49939621  0.33727820  0.66620448  1
  Ba  Ba9  1  0.99962120  0.66659565  0.32581680  1
  As  As10  1  0.75000000  0.38120479  0.41549776  1
  As  As11  1  0.75000000  0.58300489  0.96367688  1
  As  As12  1  0.25000000  0.96621133  0.38274044  1
  As  As13  1  0.25000000  0.41438909  0.03445752  1
  S  S14  1  0.49985388  0.99813545  0.99223339  1
  S  S15  1  0.00014612  0.99813545  0.99223339  1
  S  S16  1  0.75000000  0.03594621  0.62066513  1
  S  S17  1  0.25000000  0.62095629  0.58354051  1
  O  O18  1  0.90549199  0.08143599  0.71316846  1
  O  O19  1  0.92727687  0.27140893  0.36542542  1
  O  O20  1  0.92803165  0.63484731  0.90639274  1
  O  O21  1  0.42805713  0.90858352  0.27379085  1
  O  O22  1  0.40535520  0.71383934  0.63112802  1
  O  O23  1  0.42743855  0.36495376  0.09420989  1
  O  O24  1  0.07194287  0.90858352  0.27379085  1
  O  O25  1  0.09464480  0.71383934  0.63112802  1
  O  O26  1  0.07256145  0.36495376  0.09420989  1
  O  O27  1  0.59450801  0.08143599  0.71316846  1
  O  O28  1  0.57272313  0.27140893  0.36542542  1
  O  O29  1  0.57196835  0.63484731  0.90639274  1
  O  O30  1  0.75000000  0.87549524  0.52348264  1
  O  O31  1  0.75000000  0.49444856  0.34383194  1
  O  O32  1  0.75000000  0.65813202  0.14877041  1
  O  O33  1  0.25000000  0.15109681  0.49417095  1
  O  O34  1  0.25000000  0.52326889  0.64648196  1
  O  O35  1  0.25000000  0.33929047  0.84903065  1
  O  O36  1  0.75000000  0.47690605  0.60226525  1
  O  O37  1  0.75000000  0.39599983  0.87318266  1
  O  O38  1  0.75000000  0.11066264  0.53328037  1
  O  O39  1  0.25000000  0.53333036  0.42205055  1
  O  O40  1  0.25000000  0.60115764  0.12614341  1
  O  O41  1  0.25000000  0.87507076  0.47918487  1
