# generated using pymatgen
data_Ca4Mg13Zn29
_symmetry_space_group_name_H-M   'P 1'
_cell_length_a   8.62404326
_cell_length_b   14.81712430
_cell_length_c   14.83448737
_cell_angle_alpha   59.96159035
_cell_angle_beta   90.00000000
_cell_angle_gamma   90.00000000
_symmetry_Int_Tables_number   1
_chemical_formula_structural   Ca4Mg13Zn29
_chemical_formula_sum   'Ca8 Mg26 Zn58'
_cell_volume   1641.00462660
_cell_formula_units_Z   2
loop_
 _symmetry_equiv_pos_site_id
 _symmetry_equiv_pos_as_xyz
  1  'x, y, z'
loop_
 _atom_site_type_symbol
 _atom_site_label
 _atom_site_symmetry_multiplicity
 _atom_site_fract_x
 _atom_site_fract_y
 _atom_site_fract_z
 _atom_site_occupancy
  Ca  Ca0  1  0.25000000  0.66649408  0.66674383  1
  Ca  Ca1  1  0.75000000  0.33372064  0.33315361  1
  Ca  Ca2  1  0.75000000  0.54554087  0.54624300  1
  Ca  Ca3  1  0.75000000  0.54550074  0.90822174  1
  Ca  Ca4  1  0.75000000  0.90815064  0.54592590  1
  Ca  Ca5  1  0.25000000  0.45421096  0.45432999  1
  Ca  Ca6  1  0.25000000  0.45424632  0.09145359  1
  Ca  Ca7  1  0.25000000  0.09128091  0.45434919  1
  Mg  Mg8  1  0.06805961  0.88319038  0.88277630  1
  Mg  Mg9  1  0.06804748  0.88324214  0.23400027  1
  Mg  Mg10  1  0.06381397  0.23311557  0.88343299  1
  Mg  Mg11  1  0.93927129  0.11972015  0.11570573  1
  Mg  Mg12  1  0.93927749  0.11968377  0.76458503  1
  Mg  Mg13  1  0.94074189  0.76397361  0.11802716  1
  Mg  Mg14  1  0.56072871  0.11972015  0.11570573  1
  Mg  Mg15  1  0.56072251  0.11968377  0.76458503  1
  Mg  Mg16  1  0.55925811  0.76397361  0.11802716  1
  Mg  Mg17  1  0.43194039  0.88319038  0.88277630  1
  Mg  Mg18  1  0.43195252  0.88324214  0.23400027  1
  Mg  Mg19  1  0.43618603  0.23311557  0.88343299  1
  Mg  Mg20  1  0.54608719  0.77019068  0.77012710  1
  Mg  Mg21  1  0.54606120  0.77025182  0.45965580  1
  Mg  Mg22  1  0.54731240  0.45881738  0.77057231  1
  Mg  Mg23  1  0.45258674  0.22961459  0.22969562  1
  Mg  Mg24  1  0.45256225  0.22956347  0.54070849  1
  Mg  Mg25  1  0.45210413  0.54021686  0.22991362  1
  Mg  Mg26  1  0.04741326  0.22961459  0.22969562  1
  Mg  Mg27  1  0.04743775  0.22956347  0.54070849  1
  Mg  Mg28  1  0.04789587  0.54021686  0.22991362  1
  Mg  Mg29  1  0.95391281  0.77019068  0.77012710  1
  Mg  Mg30  1  0.95393880  0.77025182  0.45965580  1
  Mg  Mg31  1  0.95268760  0.45881738  0.77057231  1
  Mg  Mg32  1  0.75000000  0.93881925  0.93410637  1
  Mg  Mg33  1  0.75000000  0.93883505  0.12706643  1
  Zn  Zn34  1  0.75000000  0.58979035  0.29059269  1
  Zn  Zn35  1  0.75000000  0.29074391  0.11967491  1
  Zn  Zn36  1  0.75000000  0.11984163  0.58974565  1
  Zn  Zn37  1  0.75000000  0.29057632  0.58972924  1
  Zn  Zn38  1  0.75000000  0.11983840  0.29025849  1
  Zn  Zn39  1  0.75000000  0.58994152  0.11963587  1
  Zn  Zn40  1  0.25000000  0.40962559  0.70992426  1
  Zn  Zn41  1  0.25000000  0.70965100  0.88057934  1
  Zn  Zn42  1  0.25000000  0.88062700  0.40960279  1
  Zn  Zn43  1  0.25000000  0.70980971  0.40961959  1
  Zn  Zn44  1  0.25000000  0.88061790  0.70991145  1
  Zn  Zn45  1  0.25000000  0.40948222  0.88045004  1
  Zn  Zn46  1  0.58506928  0.43865133  0.43873910  1
  Zn  Zn47  1  0.58507227  0.43879928  0.12262299  1
  Zn  Zn48  1  0.58465500  0.12329969  0.43827729  1
  Zn  Zn49  1  0.41452463  0.56146286  0.56155624  1
  Zn  Zn50  1  0.41452002  0.56131777  0.87697030  1
  Zn  Zn51  1  0.41388251  0.87687646  0.56163982  1
  Zn  Zn52  1  0.08547537  0.56146286  0.56155624  1
  Zn  Zn53  1  0.08547998  0.56131777  0.87697030  1
  Zn  Zn54  1  0.08611749  0.87687646  0.56163982  1
  Zn  Zn55  1  0.91493072  0.43865133  0.43873910  1
  Zn  Zn56  1  0.91492773  0.43879928  0.12262299  1
  Zn  Zn57  1  0.91534500  0.12329969  0.43827729  1
  Zn  Zn58  1  0.60258803  0.66641561  0.66677403  1
  Zn  Zn59  1  0.39713899  0.33327692  0.33337075  1
  Zn  Zn60  1  0.10286101  0.33327692  0.33337075  1
  Zn  Zn61  1  0.89741197  0.66641561  0.66677403  1
  Zn  Zn62  1  0.75000000  0.93343743  0.75653067  1
  Zn  Zn63  1  0.75000000  0.75695365  0.30987156  1
  Zn  Zn64  1  0.75000000  0.30349838  0.93609668  1
  Zn  Zn65  1  0.75000000  0.75696973  0.93312800  1
  Zn  Zn66  1  0.75000000  0.30351878  0.76042778  1
  Zn  Zn67  1  0.75000000  0.93339276  0.31005251  1
  Zn  Zn68  1  0.25000000  0.06412883  0.23947072  1
  Zn  Zn69  1  0.25000000  0.23926684  0.69688667  1
  Zn  Zn70  1  0.25000000  0.69634497  0.06424948  1
  Zn  Zn71  1  0.25000000  0.23924989  0.06389506  1
  Zn  Zn72  1  0.25000000  0.69632671  0.23938238  1
  Zn  Zn73  1  0.25000000  0.06415546  0.69639884  1
  Zn  Zn74  1  0.49945006  0.64136888  0.35817373  1
  Zn  Zn75  1  0.49988214  0.35780266  -0.00003428  1
  Zn  Zn76  1  0.49937198  0.00039261  0.64117142  1
  Zn  Zn77  1  0.49989697  0.35779725  0.64224155  1
  Zn  Zn78  1  0.49938341  0.00039133  0.35843957  1
  Zn  Zn79  1  0.49947121  0.64136660  0.00045195  1
  Zn  Zn80  1  0.00010303  0.35779725  0.64224155  1
  Zn  Zn81  1  0.00052879  0.64136660  0.00045195  1
  Zn  Zn82  1  0.00061659  0.00039133  0.35843957  1
  Zn  Zn83  1  0.00054994  0.64136888  0.35817373  1
  Zn  Zn84  1  0.00062802  0.00039261  0.64117142  1
  Zn  Zn85  1  0.00011786  0.35780266  -0.00003428  1
  Zn  Zn86  1  0.49438770  0.00263098  0.99868464  1
  Zn  Zn87  1  0.00561230  0.00263098  0.99868464  1
  Zn  Zn88  1  0.75000000  0.12747658  0.93626413  1
  Zn  Zn89  1  0.25000000  0.06274426  0.06247271  1
  Zn  Zn90  1  0.25000000  0.06273977  0.87479192  1
  Zn  Zn91  1  0.25000000  0.87558965  0.06220393  1
