# generated using pymatgen
data_Ba2Na(FeAs)6
_symmetry_space_group_name_H-M   'P 1'
_cell_length_a   5.50215965
_cell_length_b   6.99761060
_cell_length_c   8.80283655
_cell_angle_alpha   112.20381690
_cell_angle_beta   71.78871795
_cell_angle_gamma   90.00000000
_symmetry_Int_Tables_number   1
_chemical_formula_structural   Ba2Na(FeAs)6
_chemical_formula_sum   'Ba2 Na1 Fe6 As6'
_cell_volume   295.37594999
_cell_formula_units_Z   1
loop_
 _symmetry_equiv_pos_site_id
 _symmetry_equiv_pos_as_xyz
  1  'x, y, z'
loop_
 _atom_site_type_symbol
 _atom_site_label
 _atom_site_symmetry_multiplicity
 _atom_site_fract_x
 _atom_site_fract_y
 _atom_site_fract_z
 _atom_site_occupancy
  Ba  Ba0  1  0.33800061  0.00032827  0.32399777  1
  Ba  Ba1  1  0.66199939  0.99967173  0.67600223  1
  Na  Na2  1  0.00000000  0.00000000  0.00000000  1
  Fe  Fe3  1  0.25126404  0.50000000  0.00000000  1
  Fe  Fe4  1  0.91663908  0.49900621  0.66661840  1
  Fe  Fe5  1  0.58325647  0.50099379  0.33338160  1
  Fe  Fe6  1  0.41674353  0.49900621  0.66661840  1
  Fe  Fe7  1  0.08336092  0.50099379  0.33338160  1
  Fe  Fe8  1  0.74873596  0.50000000  0.00000000  1
  As  As9  1  0.11658115  0.30123915  0.76683870  1
  As  As10  1  0.78312502  0.30443541  0.43374895  1
  As  As11  1  0.44906436  0.30108743  0.10187128  1
  As  As12  1  0.55093564  0.69891257  0.89812872  1
  As  As13  1  0.21687498  0.69556459  0.56625105  1
  As  As14  1  0.88341885  0.69876085  0.23316130  1
