# generated using pymatgen
data_Ba4Ta10FeO30
_symmetry_space_group_name_H-M   'P 1'
_cell_length_a   7.92257850
_cell_length_b   10.03342034
_cell_length_c   10.03342034
_cell_angle_alpha   117.80263396
_cell_angle_beta   113.25408826
_cell_angle_gamma   66.74591174
_symmetry_Int_Tables_number   1
_chemical_formula_structural   Ba4Ta10FeO30
_chemical_formula_sum   'Ba4 Ta10 Fe1 O30'
_cell_volume   626.02528729
_cell_formula_units_Z   1
loop_
 _symmetry_equiv_pos_site_id
 _symmetry_equiv_pos_as_xyz
  1  'x, y, z'
loop_
 _atom_site_type_symbol
 _atom_site_label
 _atom_site_symmetry_multiplicity
 _atom_site_fract_x
 _atom_site_fract_y
 _atom_site_fract_z
 _atom_site_occupancy
  Ba  Ba0  1  0.74371811  0.00628189  0.99371811  1
  Ba  Ba1  1  0.24582693  0.00417307  0.99582693  1
  Ba  Ba2  1  0.83519116  0.41480884  0.58519116  1
  Ba  Ba3  1  0.34491843  0.40508157  0.59491843  1
  Ta  Ta4  1  0.92263661  0.39558076  0.23542994  1
  Ta  Ta5  1  0.41721257  0.39558076  0.23542994  1
  Ta  Ta6  1  0.92263661  0.76457006  0.60441924  1
  Ta  Ta7  1  0.41721257  0.76457006  0.60441924  1
  Ta  Ta8  1  0.16664395  0.65015099  0.98416044  1
  Ta  Ta9  1  0.66736550  0.65015099  0.98416044  1
  Ta  Ta10  1  0.16664395  0.01583956  0.34984901  1
  Ta  Ta11  1  0.66736550  0.01583956  0.34984901  1
  Ta  Ta12  1  0.79088532  0.20877914  0.79122086  1
  Ta  Ta13  1  0.29155641  0.20877914  0.79122086  1
  Fe  Fe14  1  0.56141579  0.68858421  0.31141579  1
  O  O15  1  0.39743813  0.67587904  0.97075529  1
  O  O16  1  0.91563736  0.65531084  0.98658557  1
  O  O17  1  0.39743813  0.02924471  0.32412096  1
  O  O18  1  0.91563736  0.01341443  0.34468916  1
  O  O19  1  0.19569971  0.43500896  0.82631906  1
  O  O20  1  0.69561039  0.43500896  0.82631906  1
  O  O21  1  0.69561039  0.17368094  0.56499104  1
  O  O22  1  0.19569971  0.17368094  0.56499104  1
  O  O23  1  0.75561491  0.57513838  0.15463614  1
  O  O24  1  0.32388285  0.57513838  0.15463614  1
  O  O25  1  0.32388285  0.84536386  0.42486162  1
  O  O26  1  0.75561491  0.84536386  0.42486162  1
  O  O27  1  0.02986875  0.70833994  0.78708885  1
  O  O28  1  0.54888015  0.70833994  0.78708885  1
  O  O29  1  0.02986875  0.21291115  0.29166006  1
  O  O30  1  0.54888015  0.21291115  0.29166006  1
  O  O31  1  0.11467561  0.88067407  0.11932593  1
  O  O32  1  0.62397626  0.88067407  0.11932593  1
  O  O33  1  0.87664661  0.24502910  0.01664416  1
  O  O34  1  0.39496844  0.24502910  0.01664416  1
  O  O35  1  0.87664661  0.98335584  0.75497090  1
  O  O36  1  0.39496844  0.98335584  0.75497090  1
  O  O37  1  0.43890960  0.53906728  0.46093272  1
  O  O38  1  0.98295583  0.53906728  0.46093272  1
  O  O39  1  0.16394172  0.39838858  0.22627203  1
  O  O40  1  0.67282275  0.42769516  0.27334065  1
  O  O41  1  0.16394172  0.77372797  0.60161142  1
  O  O42  1  0.67282275  0.72665935  0.57230484  1
  O  O43  1  0.53742291  0.21257709  0.78742291  1
  O  O44  1  0.04400679  0.20599321  0.79400679  1
