# generated using pymatgen
data_Ce8Co(Si4Au)3
_symmetry_space_group_name_H-M   'P 1'
_cell_length_a   4.20885025
_cell_length_b   8.21976721
_cell_length_c   14.16192453
_cell_angle_alpha   90.04125404
_cell_angle_beta   90.00000000
_cell_angle_gamma   90.00000000
_symmetry_Int_Tables_number   1
_chemical_formula_structural   Ce8Co(Si4Au)3
_chemical_formula_sum   'Ce8 Co1 Si12 Au3'
_cell_volume   489.94254664
_cell_formula_units_Z   1
loop_
 _symmetry_equiv_pos_site_id
 _symmetry_equiv_pos_as_xyz
  1  'x, y, z'
loop_
 _atom_site_type_symbol
 _atom_site_label
 _atom_site_symmetry_multiplicity
 _atom_site_fract_x
 _atom_site_fract_y
 _atom_site_fract_z
 _atom_site_occupancy
  Ce  Ce0  1  -0.00000000  0.99995478  0.00163736  1
  Ce  Ce1  1  -0.00000000  0.50000072  0.49854134  1
  Ce  Ce2  1  -0.00000000  0.00012071  0.48952298  1
  Ce  Ce3  1  -0.00000000  0.50007370  0.00182466  1
  Ce  Ce4  1  -0.00000000  0.23749422  0.25355865  1
  Ce  Ce5  1  0.00000000  0.75093120  0.75007784  1
  Ce  Ce6  1  0.00000000  0.76330132  0.25370734  1
  Ce  Ce7  1  0.00000000  0.24904312  0.75000383  1
  Co  Co8  1  0.50000000  0.99921506  0.33354063  1
  Si  Si9  1  0.50000000  0.00008319  0.17397176  1
  Si  Si10  1  0.50000000  0.50044129  0.66116332  1
  Si  Si11  1  0.50000000  0.75862500  0.41311646  1
  Si  Si12  1  0.50000000  0.24458875  0.92000209  1
  Si  Si13  1  0.50000000  0.24050565  0.41301963  1
  Si  Si14  1  0.50000000  0.75523679  0.92000051  1
  Si  Si15  1  0.50000000  0.49960086  0.33967953  1
  Si  Si16  1  0.50000000  0.99976174  0.83708777  1
  Si  Si17  1  0.50000000  0.24130323  0.08347897  1
  Si  Si18  1  0.50000000  0.74500017  0.57794784  1
  Si  Si19  1  0.50000000  0.75875468  0.08349600  1
  Si  Si20  1  0.50000000  0.25544528  0.57794765  1
  Au  Au21  1  0.50000000  0.49983486  0.83282854  1
  Au  Au22  1  0.50000000  0.50026898  0.16917114  1
  Au  Au23  1  0.50000000  0.00021472  0.66467420  1
