# generated using pymatgen
data_CsVCoF6
_symmetry_space_group_name_H-M   'P 1'
_cell_length_a   7.54585880
_cell_length_b   7.47583580
_cell_length_c   7.50118101
_cell_angle_alpha   90.00000000
_cell_angle_beta   60.19566721
_cell_angle_gamma   119.69350318
_symmetry_Int_Tables_number   1
_chemical_formula_structural   CsVCoF6
_chemical_formula_sum   'Cs2 V2 Co2 F12'
_cell_volume   301.47133745
_cell_formula_units_Z   2
loop_
 _symmetry_equiv_pos_site_id
 _symmetry_equiv_pos_as_xyz
  1  'x, y, z'
loop_
 _atom_site_type_symbol
 _atom_site_label
 _atom_site_symmetry_multiplicity
 _atom_site_fract_x
 _atom_site_fract_y
 _atom_site_fract_z
 _atom_site_occupancy
  Cs  Cs0  1  0.75880837  0.37940418  0.37059582  1
  Cs  Cs1  1  0.24119163  0.62059582  0.62940418  1
  V  V2  1  0.00000000  0.00000000  0.50000000  1
  V  V3  1  0.00000000  0.00000000  0.00000000  1
  Co  Co4  1  0.50000000  0.50000000  0.00000000  1
  Co  Co5  1  0.50000000  0.00000000  0.00000000  1
  F  F6  1  0.87187513  0.93593756  0.31406244  1
  F  F7  1  0.64321537  0.32160768  0.92839232  1
  F  F8  1  0.24402806  0.93201008  0.92911645  1
  F  F9  1  0.24402806  0.31201798  0.32685549  1
  F  F10  1  0.24402806  0.31201798  0.92911645  1
  F  F11  1  0.24402806  0.93201008  0.32685549  1
  F  F12  1  0.12812487  0.06406244  0.68593756  1
  F  F13  1  0.35678463  0.67839232  0.07160768  1
  F  F14  1  0.75597194  0.06798992  0.07088355  1
  F  F15  1  0.75597194  0.68798202  0.67314451  1
  F  F16  1  0.75597194  0.68798202  0.07088355  1
  F  F17  1  0.75597194  0.06798992  0.67314451  1
