# generated using pymatgen
data_Ba6La2Co4O15
_symmetry_space_group_name_H-M   'P 1'
_cell_length_a   7.13476966
_cell_length_b   11.93698752
_cell_length_c   11.93698752
_cell_angle_alpha   119.48678887
_cell_angle_beta   90.62961804
_cell_angle_gamma   90.62961804
_symmetry_Int_Tables_number   1
_chemical_formula_structural   Ba6La2Co4O15
_chemical_formula_sum   'Ba12 La4 Co8 O30'
_cell_volume   884.74792151
_cell_formula_units_Z   2
loop_
 _symmetry_equiv_pos_site_id
 _symmetry_equiv_pos_as_xyz
  1  'x, y, z'
loop_
 _atom_site_type_symbol
 _atom_site_label
 _atom_site_symmetry_multiplicity
 _atom_site_fract_x
 _atom_site_fract_y
 _atom_site_fract_z
 _atom_site_occupancy
  Ba  Ba0  1  0.50329060  0.99872180  0.99966750  1
  Ba  Ba1  1  0.00329060  0.99966750  0.99872180  1
  Ba  Ba2  1  0.02573421  0.33463529  0.66577040  1
  Ba  Ba3  1  0.52573421  0.66577040  0.33463529  1
  Ba  Ba4  1  0.17312276  0.95317890  0.47831660  1
  Ba  Ba5  1  0.67312276  0.47831660  0.95317890  1
  Ba  Ba6  1  0.83750320  0.35352890  0.18030163  1
  Ba  Ba7  1  0.83937450  0.82337657  0.64644806  1
  Ba  Ba8  1  0.83586568  0.82349743  0.18064497  1
  Ba  Ba9  1  0.33937450  0.64644806  0.82337657  1
  Ba  Ba10  1  0.33750320  0.18030163  0.35352890  1
  Ba  Ba11  1  0.33586568  0.18064497  0.82349743  1
  La  La12  1  0.17905956  0.52454721  0.04829892  1
  La  La13  1  0.16946701  0.52198645  0.47651429  1
  La  La14  1  0.67905956  0.04829892  0.52454721  1
  La  La15  1  0.66946701  0.47651429  0.52198645  1
  Co  Co16  1  0.98801524  0.66985325  0.33725666  1
  Co  Co17  1  0.48801524  0.33725666  0.66985325  1
  Co  Co18  1  0.83810851  0.18377526  0.83077414  1
  Co  Co19  1  0.84473661  0.64590741  0.82491524  1
  Co  Co20  1  0.83755141  0.17692353  0.35079524  1
  Co  Co21  1  0.33810851  0.83077414  0.18377526  1
  Co  Co22  1  0.33755141  0.35079524  0.17692353  1
  Co  Co23  1  0.34473661  0.82491524  0.64590741  1
  O  O24  1  0.33845545  0.41355715  0.58435955  1
  O  O25  1  0.34790872  0.18215906  0.58975880  1
  O  O26  1  0.32154896  0.41808680  0.83527280  1
  O  O27  1  0.83845545  0.58435955  0.41355715  1
  O  O28  1  0.82154896  0.83527280  0.41808680  1
  O  O29  1  0.84790872  0.58975880  0.18215906  1
  O  O30  1  0.45749618  0.67472262  0.07163286  1
  O  O31  1  0.47005936  0.39614935  0.33507390  1
  O  O32  1  0.48723485  0.92848137  0.60791619  1
  O  O33  1  0.46149746  0.39452737  0.07163900  1
  O  O34  1  0.48629652  0.93289612  0.32390351  1
  O  O35  1  0.47202872  0.66628632  0.59928083  1
  O  O36  1  0.98629652  0.32390351  0.93289612  1
  O  O37  1  0.97202872  0.59928083  0.66628632  1
  O  O38  1  0.96149746  0.07163900  0.39452737  1
  O  O39  1  0.98723485  0.60791619  0.92848137  1
  O  O40  1  0.95749618  0.07163286  0.67472262  1
  O  O41  1  0.97005936  0.33507390  0.39614935  1
  O  O42  1  0.73872990  0.80186229  0.89694399  1
  O  O43  1  0.74300322  0.10170077  0.18764105  1
  O  O44  1  0.73565443  0.09582200  0.90211925  1
  O  O45  1  0.24300322  0.18764105  0.10170077  1
  O  O46  1  0.23872990  0.89694399  0.80186229  1
  O  O47  1  0.23565443  0.90211925  0.09582200  1
  O  O48  1  0.16101918  0.74089475  0.24171957  1
  O  O49  1  0.16652220  0.49120805  0.24885434  1
  O  O50  1  0.16031560  0.73788965  0.49800503  1
  O  O51  1  0.66101918  0.24171957  0.74089475  1
  O  O52  1  0.66031560  0.49800503  0.73788965  1
  O  O53  1  0.66652220  0.24885434  0.49120805  1
