# generated using pymatgen
data_Ba5Fe3W2O15
_symmetry_space_group_name_H-M   'P 1'
_cell_length_a   8.24568273
_cell_length_b   10.05815273
_cell_length_c   10.05815273
_cell_angle_alpha   99.67262356
_cell_angle_beta   114.19858164
_cell_angle_gamma   65.80141836
_symmetry_Int_Tables_number   1
_chemical_formula_structural   Ba5Fe3W2O15
_chemical_formula_sum   'Ba10 Fe6 W4 O30'
_cell_volume   694.02769755
_cell_formula_units_Z   2
loop_
 _symmetry_equiv_pos_site_id
 _symmetry_equiv_pos_as_xyz
  1  'x, y, z'
loop_
 _atom_site_type_symbol
 _atom_site_label
 _atom_site_symmetry_multiplicity
 _atom_site_fract_x
 _atom_site_fract_y
 _atom_site_fract_z
 _atom_site_occupancy
  Ba  Ba0  1  0.25000000  0.50000000  0.50000000  1
  Ba  Ba1  1  0.85487921  0.70877445  0.90343297  1
  Ba  Ba2  1  0.43634634  0.90343297  0.29122555  1
  Ba  Ba3  1  0.04855376  0.09656703  0.70877445  1
  Ba  Ba4  1  0.66022069  0.29122555  0.09656703  1
  Ba  Ba5  1  0.14512079  0.29122555  0.09656703  1
  Ba  Ba6  1  0.75000000  0.50000000  0.50000000  1
  Ba  Ba7  1  0.33977931  0.70877445  0.90343297  1
  Ba  Ba8  1  0.95144624  0.90343297  0.29122555  1
  Ba  Ba9  1  0.56365366  0.09656703  0.70877445  1
  Fe  Fe10  1  0.70399957  0.39680473  0.80480388  1
  Fe  Fe11  1  0.29600043  0.60319527  0.19519612  1
  Fe  Fe12  1  0.89919570  0.80480388  0.60319527  1
  Fe  Fe13  1  0.50000000  0.00000000  0.00000000  1
  Fe  Fe14  1  0.10080430  0.19519612  0.39680473  1
  Fe  Fe15  1  -0.00000000  0.00000000  0.00000000  1
  W  W16  1  0.59935887  0.20067884  0.39939657  1
  W  W17  1  0.19996229  0.39939657  0.79932116  1
  W  W18  1  0.80003771  0.60060343  0.20067884  1
  W  W19  1  0.40064113  0.79932116  0.60060343  1
  O  O20  1  0.43757093  0.40025854  0.79883043  1
  O  O21  1  0.03899903  0.59974146  0.20116957  1
  O  O22  1  0.63874049  0.79883043  0.59974146  1
  O  O23  1  0.25995558  0.00000000  0.00000000  1
  O  O24  1  0.83782947  0.20116957  0.40025854  1
  O  O25  1  0.75104906  0.50652872  0.00862683  1
  O  O26  1  0.35367494  0.70297406  0.41032395  1
  O  O27  1  0.94992686  0.89892091  0.79877463  1
  O  O28  1  0.55128558  0.10457203  0.20714319  1
  O  O29  1  0.15187342  0.30274788  0.60649472  1
  O  O30  1  0.84884777  0.20122537  0.89892091  1
  O  O31  1  0.45462130  0.39350528  0.30274788  1
  O  O32  1  0.05664901  0.58967605  0.70297406  1
  O  O33  1  0.65585761  0.79285681  0.10457203  1
  O  O34  1  0.25757778  0.99137317  0.50652872  1
  O  O35  1  0.96100097  0.40025854  0.79883043  1
  O  O36  1  0.56242907  0.59974146  0.20116957  1
  O  O37  1  0.16217053  0.79883043  0.59974146  1
  O  O38  1  0.74004442  0.00000000  0.00000000  1
  O  O39  1  0.36125951  0.20116957  0.40025854  1
  O  O40  1  0.64632506  0.29702594  0.58967605  1
  O  O41  1  0.24895094  0.49347128  0.99137317  1
  O  O42  1  0.84812658  0.69725212  0.39350528  1
  O  O43  1  0.44871442  0.89542797  0.79285681  1
  O  O44  1  0.05007314  0.10107909  0.20122537  1
  O  O45  1  0.54537870  0.60649472  0.69725212  1
  O  O46  1  0.15115223  0.79877463  0.10107909  1
  O  O47  1  0.74242222  0.00862683  0.49347128  1
  O  O48  1  0.34414239  0.20714319  0.89542797  1
  O  O49  1  0.94335099  0.41032395  0.29702594  1
