# generated using pymatgen
data_Li6SbS2
_symmetry_space_group_name_H-M   'P 1'
_cell_length_a   5.04483610
_cell_length_b   10.82906290
_cell_length_c   6.52469876
_cell_angle_alpha   91.27041615
_cell_angle_beta   90.00000000
_cell_angle_gamma   76.53034120
_symmetry_Int_Tables_number   1
_chemical_formula_structural   Li6SbS2
_chemical_formula_sum   'Li12 Sb2 S4'
_cell_volume   346.55500429
_cell_formula_units_Z   2
loop_
 _symmetry_equiv_pos_site_id
 _symmetry_equiv_pos_as_xyz
  1  'x, y, z'
loop_
 _atom_site_type_symbol
 _atom_site_label
 _atom_site_symmetry_multiplicity
 _atom_site_fract_x
 _atom_site_fract_y
 _atom_site_fract_z
 _atom_site_occupancy
  Li  Li0  1  0.46800659  0.87093962  0.87372442  1
  Li  Li1  1  0.66105280  0.87093962  0.37372442  1
  Li  Li2  1  0.15293603  0.75278859  0.57694721  1
  Li  Li3  1  0.09427538  0.75278859  0.07694721  1
  Li  Li4  1  0.79561288  0.55306836  0.63213993  1
  Li  Li5  1  0.65131876  0.55306836  0.13213993  1
  Li  Li6  1  0.34868124  0.44693164  0.86786007  1
  Li  Li7  1  0.20438712  0.44693164  0.36786007  1
  Li  Li8  1  0.90572462  0.24721141  0.92305279  1
  Li  Li9  1  0.84706397  0.24721141  0.42305279  1
  Li  Li10  1  0.33894720  0.12906038  0.62627558  1
  Li  Li11  1  0.53199341  0.12906038  0.12627558  1
  Sb  Sb12  1  0.90808153  0.00000000  0.75000000  1
  Sb  Sb13  1  0.09191847  0.00000000  0.25000000  1
  S  S14  1  0.43427371  0.65452877  0.84125640  1
  S  S15  1  0.91119853  0.65452877  0.34125640  1
  S  S16  1  0.08880147  0.34547123  0.65874360  1
  S  S17  1  0.56572629  0.34547123  0.15874360  1
