# generated using pymatgen
data_B3Pb10Br3O13
_symmetry_space_group_name_H-M   'P 1'
_cell_length_a   9.11137717
_cell_length_b   9.63424142
_cell_length_c   16.30199435
_cell_angle_alpha   93.43679737
_cell_angle_beta   73.77226779
_cell_angle_gamma   118.22038049
_symmetry_Int_Tables_number   1
_chemical_formula_structural   B3Pb10Br3O13
_chemical_formula_sum   'B6 Pb20 Br6 O26'
_cell_volume   1206.25941759
_cell_formula_units_Z   2
loop_
 _symmetry_equiv_pos_site_id
 _symmetry_equiv_pos_as_xyz
  1  'x, y, z'
loop_
 _atom_site_type_symbol
 _atom_site_label
 _atom_site_symmetry_multiplicity
 _atom_site_fract_x
 _atom_site_fract_y
 _atom_site_fract_z
 _atom_site_occupancy
  B  B0  1  0.08582738  0.20666980  0.18723403  1
  B  B1  1  0.57587471  0.29994961  0.30624028  1
  B  B2  1  0.91783462  0.79994961  0.80624028  1
  B  B3  1  0.43360840  0.70666980  0.68723403  1
  B  B4  1  0.99451740  0.49830958  0.00552751  1
  B  B5  1  0.99826467  0.99830958  0.50552751  1
  Pb  Pb6  1  0.14155809  0.20993068  0.00242166  1
  Pb  Pb7  1  0.43972234  0.28907607  0.49482635  1
  Pb  Pb8  1  0.85452738  0.78907607  0.99482635  1
  Pb  Pb9  1  0.56595093  0.70993068  0.50242166  1
  Pb  Pb10  1  0.32770722  0.98278722  0.83673760  1
  Pb  Pb11  1  0.68178660  0.51869056  0.66427891  1
  Pb  Pb12  1  0.67262505  0.01869056  0.16427891  1
  Pb  Pb13  1  0.31834240  0.48278722  0.33673760  1
  Pb  Pb14  1  0.25568929  0.88986074  0.06581289  1
  Pb  Pb15  1  0.93913172  0.61117484  0.44218523  1
  Pb  Pb16  1  0.72985790  0.11117484  0.94218523  1
  Pb  Pb17  1  0.06835856  0.38986074  0.56581289  1
  Pb  Pb18  1  0.05554972  0.52642235  0.80077009  1
  Pb  Pb19  1  0.81022151  0.98167692  0.70908248  1
  Pb  Pb20  1  0.96237293  0.48167692  0.20908248  1
  Pb  Pb21  1  0.17010254  0.02642236  0.30077009  1
  Pb  Pb22  1  0.42841436  0.66344475  0.89747771  1
  Pb  Pb23  1  0.15971630  0.83509438  0.59998107  1
  Pb  Pb24  1  0.57539702  0.33509438  0.09998107  1
  Pb  Pb25  1  0.83755267  0.16344475  0.39747771  1
  Br  Br26  1  0.57232622  0.33558595  0.88968968  1
  Br  Br27  1  0.63240844  0.16188550  0.60706101  1
  Br  Br28  1  0.42241606  0.66188550  0.10706101  1
  Br  Br29  1  0.37357005  0.83558595  0.38968968  1
  Br  Br30  1  0.20029314  0.25182430  0.75316018  1
  Br  Br31  1  0.79837099  0.75182430  0.25316018  1
  O  O32  1  0.02929173  0.75738073  0.82856497  1
  O  O33  1  0.61060831  0.75025046  0.66155626  1
  O  O34  1  0.97808589  0.25025046  0.16155626  1
  O  O35  1  0.39952403  0.25738073  0.32856497  1
  O  O36  1  0.15016433  0.97644849  0.96804547  1
  O  O37  1  0.64591984  0.51969816  0.53140645  1
  O  O38  1  0.84237187  0.01969816  0.03140645  1
  O  O39  1  0.35823869  0.47644849  0.46804547  1
  O  O40  1  0.43664839  0.89714279  0.92922873  1
  O  O41  1  0.96781456  0.58717288  0.57843733  1
  O  O42  1  0.54092100  0.08717288  0.07843733  1
  O  O43  1  0.03126567  0.39714279  0.42922873  1
  O  O44  1  0.19386983  0.16250314  0.12766083  1
  O  O45  1  0.66081037  0.33551631  0.36880507  1
  O  O46  1  0.80590087  0.83551631  0.86880507  1
  O  O47  1  0.34097248  0.66250314  0.62766083  1
  O  O48  1  0.34958553  0.70588048  0.77332067  1
  O  O49  1  0.91920307  0.80861021  0.72019894  1
  O  O50  1  0.66920819  0.30861021  0.22019894  1
  O  O51  1  0.08297428  0.20588048  0.27332067  1
  O  O52  1  0.12332286  0.54761280  0.92693412  1
  O  O53  1  0.99735582  0.04761280  0.42693412  1
  O  O54  1  0.98247275  0.08488615  0.57489827  1
  O  O55  1  0.02751513  0.58488615  0.07489827  1
  O  O56  1  0.01899412  0.86731414  0.51085620  1
  O  O57  1  0.83746382  0.36731414  0.01085620  1
