# generated using pymatgen
data_Al79(Fe13Si9)2
_symmetry_space_group_name_H-M   'P 1'
_cell_length_a   8.80130163
_cell_length_b   8.80592226
_cell_length_c   24.49414038
_cell_angle_alpha   97.09829833
_cell_angle_beta   97.07866781
_cell_angle_gamma   70.88597116
_symmetry_Int_Tables_number   1
_chemical_formula_structural   Al79(Fe13Si9)2
_chemical_formula_sum   'Al79 Fe26 Si18'
_cell_volume   1773.02681671
_cell_formula_units_Z   1
loop_
 _symmetry_equiv_pos_site_id
 _symmetry_equiv_pos_as_xyz
  1  'x, y, z'
loop_
 _atom_site_type_symbol
 _atom_site_label
 _atom_site_symmetry_multiplicity
 _atom_site_fract_x
 _atom_site_fract_y
 _atom_site_fract_z
 _atom_site_occupancy
  Al  Al0  1  0.15327650  0.15412582  0.03857094  1
  Al  Al1  1  0.48631204  0.48630009  0.37151966  1
  Al  Al2  1  0.81958447  0.82047650  0.70489314  1
  Al  Al3  1  0.18031704  0.18037689  0.29512390  1
  Al  Al4  1  0.51345287  0.51259051  0.62815494  1
  Al  Al5  1  0.84702794  0.84607357  0.96172711  1
  Al  Al6  1  0.20196149  0.28672155  0.14315386  1
  Al  Al7  1  0.53500394  0.61996043  0.47614837  1
  Al  Al8  1  0.86854760  0.95617925  0.81060416  1
  Al  Al9  1  0.16205589  0.45092427  0.02032701  1
  Al  Al10  1  0.49703918  0.78173923  0.35295442  1
  Al  Al11  1  0.83318367  0.11608589  0.68480770  1
  Al  Al12  1  0.47998668  0.10491547  0.04934179  1
  Al  Al13  1  0.81085547  0.43972665  0.38152032  1
  Al  Al14  1  0.14371083  0.77466608  0.71382767  1
  Al  Al15  1  0.13165017  0.04636781  0.19038298  1
  Al  Al16  1  0.46457144  0.38032800  0.52357591  1
  Al  Al17  1  0.79826685  0.71044202  0.85613096  1
  Al  Al18  1  0.16968957  0.88499760  0.31368179  1
  Al  Al19  1  0.50463442  0.21579122  0.64630208  1
  Al  Al20  1  0.83338750  0.55044569  0.98180265  1
  Al  Al21  1  0.85592180  0.22694787  0.28516305  1
  Al  Al22  1  0.18659642  0.56172250  0.61731239  1
  Al  Al23  1  0.52282388  0.89195691  0.95283272  1
  Al  Al24  1  0.90590087  0.40212379  0.19795335  1
  Al  Al25  1  0.23859130  0.73443002  0.53138079  1
  Al  Al26  1  0.58712183  0.05821102  0.86686658  1
  Al  Al27  1  0.43986345  0.82995674  0.23592345  1
  Al  Al28  1  0.77413590  0.16358656  0.56987221  1
  Al  Al29  1  0.09678187  0.50825402  0.90734264  1
  Al  Al30  1  0.66267325  0.77624919  0.06828732  1
  Al  Al31  1  0.99519438  0.11019717  0.40106815  1
  Al  Al32  1  0.32991761  0.44964036  0.72945742  1
  Al  Al33  1  0.42789626  0.93200009  0.13523572  1
  Al  Al34  1  0.76095256  0.26465681  0.46871384  1
  Al  Al35  1  0.07953557  0.60868340  0.79985958  1
  Al  Al36  1  0.89253023  0.50304284  0.09678595  1
  Al  Al37  1  0.22692151  0.83664972  0.43069619  1
  Al  Al38  1  0.56992248  0.15834691  0.75929366  1
  Al  Al39  1  0.67152501  0.55655280  0.26556592  1
  Al  Al40  1  0.00392400  0.89041668  0.59845198  1
  Al  Al41  1  0.33672172  0.21703347  0.93720004  1
  Al  Al42  1  0.65954419  0.95262518  0.21688312  1
  Al  Al43  1  0.99255389  0.28646041  0.54974775  1
  Al  Al44  1  0.32568575  0.63279055  0.88805087  1
  Al  Al45  1  0.88385456  0.79744823  0.14750327  1
  Al  Al46  1  0.21711403  0.13160783  0.48053170  1
  Al  Al47  1  0.55717653  0.47485365  0.81282195  1
  Al  Al48  1  0.89551361  0.68770191  0.24537888  1
  Al  Al49  1  0.22968944  0.01976185  0.57756194  1
  Al  Al50  1  0.57612065  0.35496787  0.91636547  1
  Al  Al51  1  0.67396311  0.38034478  0.11695132  1
  Al  Al52  1  0.00730025  0.71384230  0.44980608  1
  Al  Al53  1  0.34096200  0.03394555  0.77857909  1
  Al  Al54  1  0.44968009  0.53503398  0.18607828  1
  Al  Al55  1  0.78277711  0.86918053  0.51920073  1
  Al  Al56  1  0.10937521  0.19187840  0.85393154  1
  Al  Al57  1  0.43701278  0.64689292  0.08915913  1
  Al  Al58  1  0.77106089  0.97903726  0.42126165  1
  Al  Al59  1  0.09044539  0.31176378  0.75027323  1
  Al  Al60  1  0.33336007  0.33336485  0.83334741  1
  Al  Al61  1  0.80849681  0.01735551  0.05980703  1
  Al  Al62  1  0.14099550  0.35070140  0.39299795  1
  Al  Al63  1  0.47457718  0.68701460  0.72503940  1
  Al  Al64  1  0.20775879  0.42819355  0.24962184  1
  Al  Al65  1  0.54128879  0.76018663  0.58231050  1
  Al  Al66  1  0.87662842  0.09449514  0.91693962  1
  Al  Al67  1  0.49843325  0.06810317  0.31930222  1
  Al  Al68  1  0.83093555  0.40058762  0.65182036  1
  Al  Al69  1  0.16482344  0.73522329  0.98807332  1
  Al  Al70  1  0.52581076  0.31587614  0.27366746  1
  Al  Al71  1  0.85810920  0.64929595  0.60682297  1
  Al  Al72  1  0.19194188  0.97975915  0.94165986  1
  Al  Al73  1  0.12564581  0.90632769  0.08441319  1
  Al  Al74  1  0.45875915  0.23862836  0.41697304  1
  Al  Al75  1  0.78999957  0.57221527  0.74973227  1
  Al  Al76  1  0.83565990  0.26610673  0.01484311  1
  Al  Al77  1  0.16829009  0.59852428  0.34738361  1
  Al  Al78  1  0.50184960  0.93153006  0.67857282  1
  Fe  Fe79  1  0.94280821  0.94289690  0.23553378  1
  Fe  Fe80  1  0.27721784  0.27585756  0.56913264  1
  Fe  Fe81  1  0.60855106  0.60964999  0.90197185  1
  Fe  Fe82  1  0.38945235  0.39086054  0.09749214  1
  Fe  Fe83  1  0.72368708  0.72377010  0.43113374  1
  Fe  Fe84  1  0.05816518  0.05702853  0.76476792  1
  Fe  Fe85  1  0.95533010  0.20643658  0.11213592  1
  Fe  Fe86  1  0.28746181  0.54028014  0.44554762  1
  Fe  Fe87  1  0.62021724  0.87234411  0.77922551  1
  Fe  Fe88  1  0.37477919  0.61753126  0.28077942  1
  Fe  Fe89  1  0.70831079  0.94971545  0.61426860  1
  Fe  Fe90  1  0.04102216  0.28447963  0.94693036  1
  Fe  Fe91  1  0.36774567  0.87269827  0.03157615  1
  Fe  Fe92  1  0.70091869  0.20759486  0.36509003  1
  Fe  Fe93  1  0.03514709  0.53989514  0.69773715  1
  Fe  Fe94  1  0.37939261  0.12631592  0.22109795  1
  Fe  Fe95  1  0.71144973  0.46019886  0.55447007  1
  Fe  Fe96  1  0.04647114  0.79437042  0.88751529  1
  Fe  Fe97  1  0.95815304  0.71694284  0.05245327  1
  Fe  Fe98  1  0.29183027  0.04921463  0.38583064  1
  Fe  Fe99  1  0.62577468  0.38198654  0.71983627  1
  Fe  Fe100  1  0.96577274  0.45909034  0.30155110  1
  Fe  Fe101  1  0.29920381  0.79373908  0.63512355  1
  Fe  Fe102  1  0.63135741  0.12686704  0.96892840  1
  Fe  Fe103  1  0.66643560  0.66669388  0.16643036  1
  Fe  Fe104  1  0.00021916  0.00003440  0.50023671  1
  Si  Si105  1  0.81647957  0.12421352  0.17251534  1
  Si  Si106  1  0.14961703  0.45746045  0.50589701  1
  Si  Si107  1  0.48078824  0.79567544  0.84052964  1
  Si  Si108  1  0.16571589  0.73233871  0.21473340  1
  Si  Si109  1  0.50026148  0.06460297  0.54769235  1
  Si  Si110  1  0.83542921  0.40280595  0.88038936  1
  Si  Si111  1  0.83465248  0.96176956  0.31719059  1
  Si  Si112  1  0.16937962  0.29368804  0.64975422  1
  Si  Si113  1  0.50717587  0.62572742  0.98600870  1
  Si  Si114  1  0.51709943  0.20925585  0.16072600  1
  Si  Si115  1  0.85017592  0.54255072  0.49415318  1
  Si  Si116  1  0.18585682  0.87080142  0.82615030  1
  Si  Si117  1  0.16644749  0.60186028  0.11902616  1
  Si  Si118  1  0.50094513  0.93445761  0.45186544  1
  Si  Si119  1  0.83121643  0.26390028  0.78627350  1
  Si  Si120  1  0.49716485  0.37308070  0.01693229  1
  Si  Si121  1  0.83210568  0.70492726  0.34945831  1
  Si  Si122  1  0.15955349  0.04087096  0.68067950  1
