# generated using pymatgen
data_Ce19Ga13
_symmetry_space_group_name_H-M   'P 1'
_cell_length_a   8.29186392
_cell_length_b   8.29186392
_cell_length_c   11.60307458
_cell_angle_alpha   90.00000000
_cell_angle_beta   90.00000000
_cell_angle_gamma   90.00000000
_symmetry_Int_Tables_number   1
_chemical_formula_structural   Ce19Ga13
_chemical_formula_sum   'Ce19 Ga13'
_cell_volume   797.76947708
_cell_formula_units_Z   1
loop_
 _symmetry_equiv_pos_site_id
 _symmetry_equiv_pos_as_xyz
  1  'x, y, z'
loop_
 _atom_site_type_symbol
 _atom_site_label
 _atom_site_symmetry_multiplicity
 _atom_site_fract_x
 _atom_site_fract_y
 _atom_site_fract_z
 _atom_site_occupancy
  Ce  Ce0  1  0.91608954  0.41727140  0.41357266  1
  Ce  Ce1  1  0.56565209  0.40778025  0.90985935  1
  Ce  Ce2  1  0.93434791  0.09221975  0.90985935  1
  Ce  Ce3  1  0.58391046  0.08272860  0.41357266  1
  Ce  Ce4  1  0.40778025  0.93434791  0.90985935  1
  Ce  Ce5  1  0.08272860  0.91608954  0.41357266  1
  Ce  Ce6  1  0.41727140  0.58391046  0.41357266  1
  Ce  Ce7  1  0.09221975  0.56565209  0.90985935  1
  Ce  Ce8  1  0.09160980  0.56664359  0.58873020  1
  Ce  Ce9  1  0.41743099  0.58375969  0.08571691  1
  Ce  Ce10  1  0.08256901  0.91624031  0.08571691  1
  Ce  Ce11  1  0.40839020  0.93335641  0.58873020  1
  Ce  Ce12  1  0.58375969  0.08256901  0.08571691  1
  Ce  Ce13  1  0.93335641  0.09160980  0.58873020  1
  Ce  Ce14  1  0.56664359  0.40839020  0.58873020  1
  Ce  Ce15  1  0.91624031  0.41743099  0.08571691  1
  Ce  Ce16  1  0.25000000  0.25000000  0.25253717  1
  Ce  Ce17  1  0.75000000  0.75000000  0.25142168  1
  Ce  Ce18  1  0.75000000  0.75000000  0.75166522  1
  Ga  Ga19  1  0.12260059  0.62064929  0.24990106  1
  Ga  Ga20  1  0.38331060  0.63606797  0.74939932  1
  Ga  Ga21  1  0.11668940  0.86393203  0.74939932  1
  Ga  Ga22  1  0.37739941  0.87935071  0.24990106  1
  Ga  Ga23  1  0.63606797  0.11668940  0.74939932  1
  Ga  Ga24  1  0.87935071  0.12260059  0.24990106  1
  Ga  Ga25  1  0.62064929  0.37739941  0.24990106  1
  Ga  Ga26  1  0.86393203  0.38331060  0.74939932  1
  Ga  Ga27  1  0.25000000  0.25000000  0.51130464  1
  Ga  Ga28  1  0.25000000  0.25000000  0.99175703  1
  Ga  Ga29  1  0.75000000  0.75000000  0.50136199  1
  Ga  Ga30  1  0.75000000  0.75000000  0.00153602  1
  Ga  Ga31  1  0.25000000  0.25000000  0.74969827  1
