# generated using pymatgen
data_Ag4Hg4S4BrCl3
_symmetry_space_group_name_H-M   'P 1'
_cell_length_a   4.53884277
_cell_length_b   6.98100266
_cell_length_c   13.28504711
_cell_angle_alpha   89.73046979
_cell_angle_beta   90.05074334
_cell_angle_gamma   90.11130968
_symmetry_Int_Tables_number   1
_chemical_formula_structural   Ag4Hg4S4BrCl3
_chemical_formula_sum   'Ag4 Hg4 S4 Br1 Cl3'
_cell_volume   420.94005144
_cell_formula_units_Z   1
loop_
 _symmetry_equiv_pos_site_id
 _symmetry_equiv_pos_as_xyz
  1  'x, y, z'
loop_
 _atom_site_type_symbol
 _atom_site_label
 _atom_site_symmetry_multiplicity
 _atom_site_fract_x
 _atom_site_fract_y
 _atom_site_fract_z
 _atom_site_occupancy
  Ag  Ag0  1  0.01202420  0.20990111  0.54263859  1
  Ag  Ag1  1  0.01158823  0.78889847  0.45569890  1
  Ag  Ag2  1  0.98725178  0.70825453  0.95626696  1
  Ag  Ag3  1  0.98755798  0.29484683  0.05022106  1
  Hg  Hg4  1  0.50107740  0.37246864  0.75593857  1
  Hg  Hg5  1  0.50474818  0.62942913  0.24264364  1
  Hg  Hg6  1  0.49542371  0.87126615  0.73790295  1
  Hg  Hg7  1  0.49655847  0.12825539  0.26050445  1
  S  S8  1  0.50930483  0.13884909  0.62137917  1
  S  S9  1  0.50905633  0.86240131  0.37643079  1
  S  S10  1  0.48914405  0.63721061  0.87266853  1
  S  S11  1  0.49176470  0.36446160  0.12721889  1
  Br  Br12  1  0.00481649  0.12582141  0.87223509  1
  Cl  Cl13  1  0.00005967  0.86675306  0.12996990  1
  Cl  Cl14  1  0.99989842  0.62899994  0.62793711  1
  Cl  Cl15  1  0.99972557  0.37218276  0.37034539  1
