# generated using pymatgen
data_Ba5Na2Ru3O14
_symmetry_space_group_name_H-M   'P 1'
_cell_length_a   5.91374745
_cell_length_b   6.00342049
_cell_length_c   24.74095079
_cell_angle_alpha   90.00000000
_cell_angle_beta   90.00000000
_cell_angle_gamma   60.20760114
_symmetry_Int_Tables_number   1
_chemical_formula_structural   Ba5Na2Ru3O14
_chemical_formula_sum   'Ba10 Na4 Ru6 O28'
_cell_volume   762.27779800
_cell_formula_units_Z   2
loop_
 _symmetry_equiv_pos_site_id
 _symmetry_equiv_pos_as_xyz
  1  'x, y, z'
loop_
 _atom_site_type_symbol
 _atom_site_label
 _atom_site_symmetry_multiplicity
 _atom_site_fract_x
 _atom_site_fract_y
 _atom_site_fract_z
 _atom_site_occupancy
  Ba  Ba0  1  0.67730004  0.64237368  0.44120168  1
  Ba  Ba1  1  0.30248262  0.37172554  0.55683283  1
  Ba  Ba2  1  0.32269996  0.35762632  0.94120168  1
  Ba  Ba3  1  0.69751738  0.62827446  0.05683283  1
  Ba  Ba4  1  0.01760114  0.97662349  0.33548444  1
  Ba  Ba5  1  0.99075487  0.02346401  0.66501380  1
  Ba  Ba6  1  0.98239886  0.02337651  0.83548444  1
  Ba  Ba7  1  0.00924513  0.97653599  0.16501380  1
  Ba  Ba8  1  0.34357026  0.31370675  0.25054575  1
  Ba  Ba9  1  0.65642974  0.68629325  0.75054575  1
  Na  Na10  1  0.33615904  0.31831797  0.40263649  1
  Na  Na11  1  0.64100322  0.68134836  0.59894276  1
  Na  Na12  1  0.66384096  0.68168203  0.90263649  1
  Na  Na13  1  0.35899678  0.31865164  0.09894276  1
  Ru  Ru14  1  0.67808900  0.64821015  0.30603389  1
  Ru  Ru15  1  0.32221120  0.35283345  0.69326929  1
  Ru  Ru16  1  0.32191100  0.35178985  0.80603389  1
  Ru  Ru17  1  0.67778880  0.64716655  0.19326929  1
  Ru  Ru18  1  0.99168236  0.01213076  0.49787360  1
  Ru  Ru19  1  0.00831764  0.98786924  0.99787360  1
  O  O20  1  0.11169202  0.12716856  0.44295601  1
  O  O21  1  0.19730278  0.87420845  0.55800096  1
  O  O22  1  0.88830798  0.87283144  0.94295601  1
  O  O23  1  0.80269722  0.12579155  0.05800096  1
  O  O24  1  0.15074909  0.66999148  0.46467108  1
  O  O25  1  0.82765353  0.35404675  0.53301407  1
  O  O26  1  0.84925091  0.33000852  0.96467108  1
  O  O27  1  0.17234647  0.64595325  0.03301407  1
  O  O28  1  0.52147742  0.49247127  0.34804620  1
  O  O29  1  0.00687041  0.51312107  0.65215850  1
  O  O30  1  0.47852258  0.50752873  0.84804620  1
  O  O31  1  0.99312959  0.48687893  0.15215850  1
  O  O32  1  0.83012589  0.79903976  0.24916927  1
  O  O33  1  0.62737587  0.19985469  0.75019820  1
  O  O34  1  0.16987411  0.20096024  0.74916927  1
  O  O35  1  0.37262413  0.80014531  0.25019820  1
  O  O36  1  0.99271570  0.49227501  0.34610836  1
  O  O37  1  0.48028449  0.50900920  0.65393193  1
  O  O38  1  0.00728430  0.50772499  0.84610836  1
  O  O39  1  0.51971551  0.49099080  0.15393193  1
  O  O40  1  0.52919682  0.95934431  0.34726469  1
  O  O41  1  0.48397353  0.04574099  0.65048977  1
  O  O42  1  0.47080318  0.04065569  0.84726469  1
  O  O43  1  0.51602647  0.95425901  0.15048977  1
  O  O44  1  0.82790589  0.34736254  0.25002277  1
  O  O45  1  0.17209411  0.65263746  0.75002277  1
  O  O46  1  0.66737092  0.04544067  0.48913365  1
  O  O47  1  0.33262908  0.95455933  0.98913365  1
