# generated using pymatgen
data_CsVCuF6
_symmetry_space_group_name_H-M   'P 1'
_cell_length_a   7.50269394
_cell_length_b   7.23442861
_cell_length_c   7.61995668
_cell_angle_alpha   90.00000000
_cell_angle_beta   59.48162208
_cell_angle_gamma   118.82408953
_symmetry_Int_Tables_number   1
_chemical_formula_structural   CsVCuF6
_chemical_formula_sum   'Cs2 V2 Cu2 F12'
_cell_volume   295.27307294
_cell_formula_units_Z   2
loop_
 _symmetry_equiv_pos_site_id
 _symmetry_equiv_pos_as_xyz
  1  'x, y, z'
loop_
 _atom_site_type_symbol
 _atom_site_label
 _atom_site_symmetry_multiplicity
 _atom_site_fract_x
 _atom_site_fract_y
 _atom_site_fract_z
 _atom_site_occupancy
  Cs  Cs0  1  0.75687311  0.37843656  0.37156344  1
  Cs  Cs1  1  0.24312689  0.62156344  0.62843656  1
  V  V2  1  0.00000000  0.00000000  0.50000000  1
  V  V3  1  0.00000000  0.00000000  -0.00000000  1
  Cu  Cu4  1  0.50000000  0.50000000  -0.00000000  1
  Cu  Cu5  1  0.50000000  0.00000000  -0.00000000  1
  F  F6  1  0.87534972  0.93767486  0.31232514  1
  F  F7  1  0.63261183  0.31630592  0.93369408  1
  F  F8  1  0.24353792  0.92885093  0.92474221  1
  F  F9  1  0.24353792  0.31468699  0.33171986  1
  F  F10  1  0.24353792  0.31468699  0.92474221  1
  F  F11  1  0.24353792  0.92885093  0.33171986  1
  F  F12  1  0.12465028  0.06232514  0.68767486  1
  F  F13  1  0.36738817  0.68369408  0.06630592  1
  F  F14  1  0.75646208  0.07114907  0.07525779  1
  F  F15  1  0.75646208  0.68531301  0.66828014  1
  F  F16  1  0.75646208  0.68531301  0.07525779  1
  F  F17  1  0.75646208  0.07114907  0.66828014  1
