# generated using pymatgen
data_Cs(Ti3Se4)2
_symmetry_space_group_name_H-M   'P 1'
_cell_length_a   3.59559874
_cell_length_b   10.05827212
_cell_length_c   10.05533646
_cell_angle_alpha   60.03002814
_cell_angle_beta   89.99709829
_cell_angle_gamma   89.98289869
_symmetry_Int_Tables_number   1
_chemical_formula_structural   Cs(Ti3Se4)2
_chemical_formula_sum   'Cs1 Ti6 Se8'
_cell_volume   315.03089530
_cell_formula_units_Z   1
loop_
 _symmetry_equiv_pos_site_id
 _symmetry_equiv_pos_as_xyz
  1  'x, y, z'
loop_
 _atom_site_type_symbol
 _atom_site_label
 _atom_site_symmetry_multiplicity
 _atom_site_fract_x
 _atom_site_fract_y
 _atom_site_fract_z
 _atom_site_occupancy
  Cs  Cs0  1  0.50000000  0.00000000  0.00000000  1
  Ti  Ti1  1  0.74910605  0.35961854  0.50788467  1
  Ti  Ti2  1  0.74923261  0.13131578  0.36056148  1
  Ti  Ti3  1  0.74915922  0.50779596  0.13175985  1
  Ti  Ti4  1  0.25089395  0.64038146  0.49211533  1
  Ti  Ti5  1  0.25076739  0.86868422  0.63943852  1
  Ti  Ti6  1  0.25084078  0.49220404  0.86824015  1
  Se  Se7  1  0.75022999  0.66729931  0.66671019  1
  Se  Se8  1  0.24977001  0.33270069  0.33328981  1
  Se  Se9  1  0.75301041  0.05098669  0.64368410  1
  Se  Se10  1  0.75318524  0.30527460  0.05088662  1
  Se  Se11  1  0.75324036  0.64332096  0.30555817  1
  Se  Se12  1  0.24698959  0.94901331  0.35631590  1
  Se  Se13  1  0.24681476  0.69472540  0.94911338  1
  Se  Se14  1  0.24675964  0.35667904  0.69444183  1
