# generated using pymatgen
data_AgSO3F
_symmetry_space_group_name_H-M   'P 1'
_cell_length_a   5.48741910
_cell_length_b   7.82550488
_cell_length_c   8.32893661
_cell_angle_alpha   90.00000000
_cell_angle_beta   90.00000000
_cell_angle_gamma   94.34685817
_symmetry_Int_Tables_number   1
_chemical_formula_structural   AgSO3F
_chemical_formula_sum   'Ag4 S4 O12 F4'
_cell_volume   356.63092223
_cell_formula_units_Z   4
loop_
 _symmetry_equiv_pos_site_id
 _symmetry_equiv_pos_as_xyz
  1  'x, y, z'
loop_
 _atom_site_type_symbol
 _atom_site_label
 _atom_site_symmetry_multiplicity
 _atom_site_fract_x
 _atom_site_fract_y
 _atom_site_fract_z
 _atom_site_occupancy
  Ag  Ag0  1  0.78995452  0.79579616  0.51555862  1
  Ag  Ag1  1  0.21004548  0.20420384  0.01555862  1
  Ag  Ag2  1  0.21073267  0.21191998  0.48896238  1
  Ag  Ag3  1  0.78926733  0.78808002  0.98896238  1
  S  S4  1  0.27218576  0.65186539  0.73446749  1
  S  S5  1  0.72781424  0.34813461  0.23446749  1
  S  S6  1  0.31706118  0.82459817  0.25083533  1
  S  S7  1  0.68293882  0.17540183  0.75083533  1
  O  O8  1  0.21134297  0.88505141  0.39893188  1
  O  O9  1  0.78865703  0.11494859  0.89893188  1
  O  O10  1  0.78636889  0.11418570  0.60219200  1
  O  O11  1  0.21363111  0.88581430  0.10219200  1
  O  O12  1  0.50725703  0.75205428  0.75283054  1
  O  O13  1  0.49274297  0.24794572  0.25283054  1
  O  O14  1  0.05868397  0.75156485  0.75258391  1
  O  O15  1  0.94131603  0.24843515  0.25258391  1
  O  O16  1  0.58486605  0.82845133  0.25188900  1
  O  O17  1  0.41513395  0.17154867  0.75188900  1
  O  O18  1  0.25981298  0.52917028  0.60489723  1
  O  O19  1  0.74018702  0.47082972  0.10489723  1
  F  F20  1  0.23411782  0.62322459  0.24972760  1
  F  F21  1  0.76588218  0.37677541  0.74972760  1
  F  F22  1  0.73999978  0.46479165  0.39712401  1
  F  F23  1  0.26000022  0.53520835  0.89712401  1
