# generated using pymatgen
data_Cs4Na2ScGaF12
_symmetry_space_group_name_H-M   'P 1'
_cell_length_a   6.42729195
_cell_length_b   6.42729195
_cell_length_c   11.07370309
_cell_angle_alpha   89.99999927
_cell_angle_beta   106.87024051
_cell_angle_gamma   60.00000221
_symmetry_Int_Tables_number   1
_chemical_formula_structural   Cs4Na2ScGaF12
_chemical_formula_sum   'Cs4 Na2 Sc1 Ga1 F12'
_cell_volume   373.26272438
_cell_formula_units_Z   1
loop_
 _symmetry_equiv_pos_site_id
 _symmetry_equiv_pos_as_xyz
  1  'x, y, z'
loop_
 _atom_site_type_symbol
 _atom_site_label
 _atom_site_symmetry_multiplicity
 _atom_site_fract_x
 _atom_site_fract_y
 _atom_site_fract_z
 _atom_site_occupancy
  Cs  Cs0  1  0.44032292  0.27983854  0.16048437  1
  Cs  Cs1  1  0.55967708  0.72016146  0.83951563  1
  Cs  Cs2  1  0.74185845  0.12907078  0.61278767  1
  Cs  Cs3  1  0.25814155  0.87092922  0.38721233  1
  Na  Na4  1  0.19202526  0.40398737  0.78803789  1
  Na  Na5  1  0.80797474  0.59601263  0.21196211  1
  Sc  Sc6  1  -0.00000000  0.00000000  -0.00000000  1
  Ga  Ga7  1  -0.00000000  0.50000000  0.50000000  1
  F  F8  1  0.79529906  0.60235047  0.61093138  1
  F  F9  1  0.21328185  0.60235047  0.61093138  1
  F  F10  1  0.21328185  0.18436768  0.61093138  1
  F  F11  1  0.20470094  0.39764953  0.38906862  1
  F  F12  1  0.78671815  0.39764953  0.38906862  1
  F  F13  1  0.78671815  0.81563232  0.38906862  1
  F  F14  1  0.37627094  0.81186453  0.11173745  1
  F  F15  1  0.92360198  0.81186453  0.11173745  1
  F  F16  1  0.92360198  0.26453349  0.11173745  1
  F  F17  1  0.62372906  0.18813547  0.88826255  1
  F  F18  1  0.07639802  0.18813547  0.88826255  1
  F  F19  1  0.07639802  0.73546651  0.88826255  1
