# generated using pymatgen
data_Al27(FeNi2)2
_symmetry_space_group_name_H-M   'P 1'
_cell_length_a   6.21352479
_cell_length_b   6.27248017
_cell_length_c   25.76432591
_cell_angle_alpha   90.10470490
_cell_angle_beta   95.04257631
_cell_angle_gamma   90.00216219
_symmetry_Int_Tables_number   1
_chemical_formula_structural   Al27(FeNi2)2
_chemical_formula_sum   'Al54 Fe4 Ni8'
_cell_volume   1000.25620246
_cell_formula_units_Z   2
loop_
 _symmetry_equiv_pos_site_id
 _symmetry_equiv_pos_as_xyz
  1  'x, y, z'
loop_
 _atom_site_type_symbol
 _atom_site_label
 _atom_site_symmetry_multiplicity
 _atom_site_fract_x
 _atom_site_fract_y
 _atom_site_fract_z
 _atom_site_occupancy
  Al  Al0  1  0.08634831  0.79050366  0.24342741  1
  Al  Al1  1  0.09053367  0.79152768  0.57687590  1
  Al  Al2  1  0.09085509  0.79121631  0.91027550  1
  Al  Al3  1  0.91333209  0.29037378  0.25654792  1
  Al  Al4  1  0.91387050  0.28627235  0.59010709  1
  Al  Al5  1  0.91432264  0.28641294  0.92341573  1
  Al  Al6  1  0.91021487  0.21083100  0.09041309  1
  Al  Al7  1  0.91022421  0.21174318  0.42349071  1
  Al  Al8  1  0.91024771  0.21173009  0.75690426  1
  Al  Al9  1  0.09065297  0.71138490  0.07656285  1
  Al  Al10  1  0.08944091  0.71073757  0.40968189  1
  Al  Al11  1  0.09026983  0.71114679  0.74328042  1
  Al  Al12  1  0.40593378  0.46824316  0.25564628  1
  Al  Al13  1  0.40194389  0.46884948  0.58954408  1
  Al  Al14  1  0.40163313  0.46903857  0.92287896  1
  Al  Al15  1  0.59409611  0.96848173  0.24429841  1
  Al  Al16  1  0.59348003  0.97400800  0.57760522  1
  Al  Al17  1  0.59359998  0.97396868  0.91092929  1
  Al  Al18  1  0.59683758  0.52791544  0.07738666  1
  Al  Al19  1  0.59619679  0.52839199  0.41028869  1
  Al  Al20  1  0.59612673  0.52758410  0.74388373  1
  Al  Al21  1  0.40341898  0.02797171  0.08969149  1
  Al  Al22  1  0.40296023  0.02658520  0.42279273  1
  Al  Al23  1  0.40309378  0.02624285  0.75622432  1
  Al  Al24  1  0.61157591  0.30674909  0.16878349  1
  Al  Al25  1  0.61121337  0.30377934  0.50154453  1
  Al  Al26  1  0.61121185  0.30361690  0.83491287  1
  Al  Al27  1  0.38884201  0.80695564  0.33126570  1
  Al  Al28  1  0.38919573  0.80657758  0.66461224  1
  Al  Al29  1  0.38863261  0.80682264  0.99799605  1
  Al  Al30  1  0.39281996  0.69410500  0.16628293  1
  Al  Al31  1  0.38992437  0.69547643  0.49873683  1
  Al  Al32  1  0.38974929  0.69547588  0.83197978  1
  Al  Al33  1  0.60660657  0.19520303  0.00055202  1
  Al  Al34  1  0.60690992  0.19409005  0.33372975  1
  Al  Al35  1  0.60643769  0.19585341  0.66725444  1
  Al  Al36  1  0.21269651  0.11290636  0.18211570  1
  Al  Al37  1  0.21175601  0.11252097  0.51546451  1
  Al  Al38  1  0.21139990  0.11293766  0.84881150  1
  Al  Al39  1  0.78745187  0.61297454  0.31786908  1
  Al  Al40  1  0.78759725  0.61199473  0.65215703  1
  Al  Al41  1  0.78747578  0.61165971  0.98553189  1
  Al  Al42  1  0.78633238  0.88708790  0.15318419  1
  Al  Al43  1  0.78788554  0.88827150  0.48563783  1
  Al  Al44  1  0.78773562  0.88858092  0.81900293  1
  Al  Al45  1  0.21269659  0.38581645  0.01366808  1
  Al  Al46  1  0.21380512  0.38721071  0.34692061  1
  Al  Al47  1  0.21306506  0.38625863  0.68041451  1
  Al  Al48  1  -0.00029721  0.50241506  0.16754214  1
  Al  Al49  1  0.00104499  0.50124073  0.50009741  1
  Al  Al50  1  0.00110246  0.50104711  0.83354822  1
  Al  Al51  1  0.00184800  0.00129270  0.99957709  1
  Al  Al52  1  -0.00039377  0.00248244  0.33240098  1
  Al  Al53  1  0.00094991  0.00134701  0.66607126  1
  Fe  Fe54  1  0.26414686  0.11901030  0.27848730  1
  Fe  Fe55  1  0.26459008  0.11959737  0.61137450  1
  Fe  Fe56  1  0.26469569  0.11936584  0.94444679  1
  Fe  Fe57  1  0.73560898  0.61962777  0.22171301  1
  Ni  Ni58  1  0.73571713  0.62062497  0.55535238  1
  Ni  Ni59  1  0.73517336  0.62070711  0.88871970  1
  Ni  Ni60  1  0.73616495  0.87961263  0.05546783  1
  Ni  Ni61  1  0.73635764  0.88027754  0.38927350  1
  Ni  Ni62  1  0.73643302  0.88022193  0.72226705  1
  Ni  Ni63  1  0.26323583  0.37983420  0.11066168  1
  Ni  Ni64  1  0.26584955  0.37857043  0.44469294  1
  Ni  Ni65  1  0.26512182  0.37863866  0.77772515  1
