# generated using pymatgen
data_Li4Ni3Sb(PO4)4
_symmetry_space_group_name_H-M   'P 1'
_cell_length_a   4.76555414
_cell_length_b   10.46369376
_cell_length_c   6.19115219
_cell_angle_alpha   90.00000000
_cell_angle_beta   90.00000000
_cell_angle_gamma   89.33713183
_symmetry_Int_Tables_number   1
_chemical_formula_structural   Li4Ni3Sb(PO4)4
_chemical_formula_sum   'Li4 Ni3 Sb1 P4 O16'
_cell_volume   308.70299506
_cell_formula_units_Z   1
loop_
 _symmetry_equiv_pos_site_id
 _symmetry_equiv_pos_as_xyz
  1  'x, y, z'
loop_
 _atom_site_type_symbol
 _atom_site_label
 _atom_site_symmetry_multiplicity
 _atom_site_fract_x
 _atom_site_fract_y
 _atom_site_fract_z
 _atom_site_occupancy
  Li  Li0  1  0.00012791  0.99160099  0.98868803  1
  Li  Li1  1  0.00012791  0.99160099  0.51131197  1
  Li  Li2  1  0.49394668  0.50738884  0.51199607  1
  Li  Li3  1  0.49394668  0.50738884  0.98800393  1
  Ni  Ni4  1  0.02014573  0.72667655  0.75000000  1
  Ni  Ni5  1  0.44749614  0.20895651  0.75000000  1
  Ni  Ni6  1  0.52895634  0.77517748  0.25000000  1
  Sb  Sb7  1  0.97951608  0.28199692  0.25000000  1
  P  P8  1  0.09262710  0.60532687  0.25000000  1
  P  P9  1  0.41560481  0.07690434  0.25000000  1
  P  P10  1  0.58404099  0.89960130  0.75000000  1
  P  P11  1  0.91362244  0.42082109  0.75000000  1
  O  O12  1  0.22354918  0.46526530  0.25000000  1
  O  O13  1  0.22734761  0.67145018  0.04838219  1
  O  O14  1  0.22734761  0.67145018  0.45161781  1
  O  O15  1  0.23316239  0.40957849  0.75000000  1
  O  O16  1  0.26042592  0.89445962  0.75000000  1
  O  O17  1  0.28279413  0.15158641  0.05284240  1
  O  O18  1  0.28279413  0.15158641  0.44715760  1
  O  O19  1  0.29450572  0.94044990  0.25000000  1
  O  O20  1  0.70042979  0.03697055  0.75000000  1
  O  O21  1  0.72150896  0.82900637  0.54943040  1
  O  O22  1  0.72150896  0.82900637  0.95056960  1
  O  O23  1  0.73796971  0.07763151  0.25000000  1
  O  O24  1  0.77158459  0.60511815  0.25000000  1
  O  O25  1  0.77398983  0.35603060  0.54857373  1
  O  O26  1  0.77398983  0.35603060  0.95142627  1
  O  O27  1  0.79693185  0.56093961  0.75000000  1
