# generated using pymatgen
data_Dy6Al43Mo4
_symmetry_space_group_name_H-M   'P 1'
_cell_length_a   11.06204577
_cell_length_b   11.06196083
_cell_length_c   17.60199822
_cell_angle_alpha   90.00000000
_cell_angle_beta   90.00000000
_cell_angle_gamma   120.00024985
_symmetry_Int_Tables_number   1
_chemical_formula_structural   Dy6Al43Mo4
_chemical_formula_sum   'Dy12 Al86 Mo8'
_cell_volume   1865.34461630
_cell_formula_units_Z   2
loop_
 _symmetry_equiv_pos_site_id
 _symmetry_equiv_pos_as_xyz
  1  'x, y, z'
loop_
 _atom_site_type_symbol
 _atom_site_label
 _atom_site_symmetry_multiplicity
 _atom_site_fract_x
 _atom_site_fract_y
 _atom_site_fract_z
 _atom_site_occupancy
  Dy  Dy0  1  0.53100017  0.00000000  0.59522684  1
  Dy  Dy1  1  0.46899587  0.46900387  0.59522612  1
  Dy  Dy2  1  0.99999200  0.53099613  0.59522612  1
  Dy  Dy3  1  0.46899983  1.00000000  0.40477316  1
  Dy  Dy4  1  0.53100413  0.53099613  0.40477388  1
  Dy  Dy5  1  0.00000800  0.46900387  0.40477388  1
  Dy  Dy6  1  0.46899983  1.00000000  0.09522684  1
  Dy  Dy7  1  0.53100413  0.53099613  0.09522612  1
  Dy  Dy8  1  0.00000800  0.46900387  0.09522612  1
  Dy  Dy9  1  0.53100017  0.00000000  0.90477316  1
  Dy  Dy10  1  0.46899587  0.46900387  0.90477388  1
  Dy  Dy11  1  0.99999200  0.53099613  0.90477388  1
  Al  Al12  1  0.15823128  0.39447968  0.66356588  1
  Al  Al13  1  0.23624074  0.84177660  0.66356759  1
  Al  Al14  1  0.60551662  0.76374979  0.66356678  1
  Al  Al15  1  0.76375160  0.60552032  0.66356588  1
  Al  Al16  1  0.39446414  0.15822340  0.66356759  1
  Al  Al17  1  0.84176684  0.23625021  0.66356678  1
  Al  Al18  1  0.84176872  0.60552032  0.33643412  1
  Al  Al19  1  0.76375926  0.15822340  0.33643241  1
  Al  Al20  1  0.39448338  0.23625021  0.33643322  1
  Al  Al21  1  0.23624840  0.39447968  0.33643412  1
  Al  Al22  1  0.60553586  0.84177660  0.33643241  1
  Al  Al23  1  0.15823316  0.76374979  0.33643322  1
  Al  Al24  1  0.84176872  0.60552032  0.16356588  1
  Al  Al25  1  0.76375926  0.15822340  0.16356759  1
  Al  Al26  1  0.39448338  0.23625021  0.16356678  1
  Al  Al27  1  0.23624840  0.39447968  0.16356588  1
  Al  Al28  1  0.60553586  0.84177660  0.16356759  1
  Al  Al29  1  0.15823316  0.76374979  0.16356678  1
  Al  Al30  1  0.15823128  0.39447968  0.83643412  1
  Al  Al31  1  0.23624074  0.84177660  0.83643241  1
  Al  Al32  1  0.60551662  0.76374979  0.83643322  1
  Al  Al33  1  0.76375160  0.60552032  0.83643412  1
  Al  Al34  1  0.39446414  0.15822340  0.83643241  1
  Al  Al35  1  0.84176684  0.23625021  0.83643322  1
  Al  Al36  1  0.15904416  0.00000000  0.11488293  1
  Al  Al37  1  0.84095567  0.84095483  0.11487997  1
  Al  Al38  1  0.00000084  0.15904517  0.11487997  1
  Al  Al39  1  0.84095584  1.00000000  0.88511707  1
  Al  Al40  1  0.15904433  0.15904517  0.88512003  1
  Al  Al41  1  -0.00000084  0.84095483  0.88512003  1
  Al  Al42  1  0.84095584  1.00000000  0.61488293  1
  Al  Al43  1  0.15904433  0.15904517  0.61487997  1
  Al  Al44  1  -0.00000084  0.84095483  0.61487997  1
  Al  Al45  1  0.15904416  0.00000000  0.38511707  1
  Al  Al46  1  0.84095567  0.84095483  0.38512003  1
  Al  Al47  1  0.00000084  0.15904517  0.38512003  1
  Al  Al48  1  0.25396047  0.00000000  0.53056167  1
  Al  Al49  1  0.74604024  0.74603863  0.53056019  1
  Al  Al50  1  0.00000161  0.25396137  0.53056019  1
  Al  Al51  1  0.74603953  1.00000000  0.46943833  1
  Al  Al52  1  0.25395976  0.25396137  0.46943981  1
  Al  Al53  1  0.99999839  0.74603863  0.46943981  1
  Al  Al54  1  0.74603953  1.00000000  0.03056167  1
  Al  Al55  1  0.25395976  0.25396137  0.03056019  1
  Al  Al56  1  0.99999839  0.74603863  0.03056019  1
  Al  Al57  1  0.25396047  0.00000000  0.96943833  1
  Al  Al58  1  0.74604024  0.74603863  0.96943981  1
  Al  Al59  1  0.00000161  0.25396137  0.96943981  1
  Al  Al60  1  0.14739503  0.59600021  0.75000000  1
  Al  Al61  1  0.44860047  0.85259982  0.75000000  1
  Al  Al62  1  0.40399739  0.55140271  0.75000000  1
  Al  Al63  1  0.55139482  0.40399979  0.75000000  1
  Al  Al64  1  0.59600065  0.14740018  0.75000000  1
  Al  Al65  1  0.85259468  0.44859729  0.75000000  1
  Al  Al66  1  0.85260497  0.40399979  0.25000000  1
  Al  Al67  1  0.55139953  0.14740018  0.25000000  1
  Al  Al68  1  0.59600261  0.44859729  0.25000000  1
  Al  Al69  1  0.44860518  0.59600021  0.25000000  1
  Al  Al70  1  0.40399935  0.85259982  0.25000000  1
  Al  Al71  1  0.14740532  0.55140271  0.25000000  1
  Al  Al72  1  0.24714370  0.49428739  0.50000000  1
  Al  Al73  1  0.24713833  0.75285703  0.49999609  1
  Al  Al74  1  0.50571870  0.75285703  0.50000391  1
  Al  Al75  1  0.75285630  0.50571261  0.50000000  1
  Al  Al76  1  0.49428130  0.24714297  0.49999609  1
  Al  Al77  1  0.75286167  0.24714297  0.50000391  1
  Al  Al78  1  0.75285630  0.50571261  0.00000000  1
  Al  Al79  1  0.75286167  0.24714297  0.99999609  1
  Al  Al80  1  0.49428130  0.24714297  0.00000391  1
  Al  Al81  1  0.24714370  0.49428739  0.00000000  1
  Al  Al82  1  0.50571870  0.75285703  0.99999609  1
  Al  Al83  1  0.24713833  0.75285703  0.00000391  1
  Al  Al84  1  0.33332519  0.66667123  0.62624165  1
  Al  Al85  1  0.66665396  0.33332877  0.62624165  1
  Al  Al86  1  0.66667481  0.33332877  0.37375835  1
  Al  Al87  1  0.33334604  0.66667123  0.37375835  1
  Al  Al88  1  0.66667481  0.33332877  0.12624165  1
  Al  Al89  1  0.33334604  0.66667123  0.12624165  1
  Al  Al90  1  0.33332519  0.66667123  0.87375835  1
  Al  Al91  1  0.66665396  0.33332877  0.87375835  1
  Al  Al92  1  0.14707650  0.00000000  0.75000000  1
  Al  Al93  1  0.85291884  0.85292561  0.75000000  1
  Al  Al94  1  -0.00000677  0.14707439  0.75000000  1
  Al  Al95  1  0.85292350  1.00000000  0.25000000  1
  Al  Al96  1  0.14708116  0.14707439  0.25000000  1
  Al  Al97  1  0.00000677  0.85292561  0.25000000  1
  Mo  Mo98  1  0.72943892  1.00000000  0.75000000  1
  Mo  Mo99  1  0.27057128  0.27057184  0.75000000  1
  Mo  Mo100  1  0.99999944  0.72942816  0.75000000  1
  Mo  Mo101  1  0.27056108  0.00000000  0.25000000  1
  Mo  Mo102  1  0.72942872  0.72942816  0.25000000  1
  Mo  Mo103  1  0.00000056  0.27057184  0.25000000  1
  Mo  Mo104  1  -0.00000000  0.00000000  0.50000000  1
  Mo  Mo105  1  -0.00000000  0.00000000  0.00000000  1
