# generated using pymatgen
data_Tl3PS4
_symmetry_space_group_name_H-M   'P 1'
_cell_length_a   9.11052482
_cell_length_b   9.23742085
_cell_length_c   11.14442909
_cell_angle_alpha   90.00000000
_cell_angle_beta   90.00000000
_cell_angle_gamma   90.00000000
_symmetry_Int_Tables_number   1
_chemical_formula_structural   Tl3PS4
_chemical_formula_sum   'Tl12 P4 S16'
_cell_volume   937.89009872
_cell_formula_units_Z   4
loop_
 _symmetry_equiv_pos_site_id
 _symmetry_equiv_pos_as_xyz
  1  'x, y, z'
loop_
 _atom_site_type_symbol
 _atom_site_label
 _atom_site_symmetry_multiplicity
 _atom_site_fract_x
 _atom_site_fract_y
 _atom_site_fract_z
 _atom_site_occupancy
  P  P0  1  0.27868107  0.02745947  0.25000000  1
  P  P1  1  0.77868107  0.47254053  0.25000000  1
  P  P2  1  0.22131893  0.52745947  0.75000000  1
  P  P3  1  0.72131893  0.97254053  0.75000000  1
  S  S4  1  0.30357506  0.25167780  0.25000000  1
  S  S5  1  0.80357506  0.24832220  0.25000000  1
  S  S6  1  0.19642494  0.75167780  0.75000000  1
  S  S7  1  0.69642494  0.74832220  0.75000000  1
  S  S8  1  0.48569172  0.93947631  0.25000000  1
  S  S9  1  0.98569172  0.56052369  0.25000000  1
  S  S10  1  0.01430828  0.43947631  0.75000000  1
  S  S11  1  0.51430828  0.06052369  0.75000000  1
  S  S12  1  0.83529982  0.03215118  0.90145798  1
  S  S13  1  0.33529982  0.46784882  0.59854202  1
  S  S14  1  0.66470018  0.53215118  0.09854202  1
  S  S15  1  0.16470018  0.96784882  0.40145798  1
  S  S16  1  0.16470018  0.96784882  0.09854202  1
  S  S17  1  0.66470018  0.53215118  0.40145798  1
  S  S18  1  0.33529982  0.46784882  0.90145798  1
  S  S19  1  0.83529982  0.03215118  0.59854202  1
  Tl  Tl20  1  0.39973118  0.60984283  0.25000000  1
  Tl  Tl21  1  0.89973118  0.89015717  0.25000000  1
  Tl  Tl22  1  0.10026882  0.10984283  0.75000000  1
  Tl  Tl23  1  0.60026882  0.39015717  0.75000000  1
  Tl  Tl24  1  0.43351389  0.80257267  0.55548181  1
  Tl  Tl25  1  0.93351389  0.69742733  0.94451819  1
  Tl  Tl26  1  0.06648611  0.30257267  0.44451819  1
  Tl  Tl27  1  0.56648611  0.19742733  0.05548181  1
  Tl  Tl28  1  0.56648611  0.19742733  0.44451819  1
  Tl  Tl29  1  0.06648611  0.30257267  0.05548181  1
  Tl  Tl30  1  0.93351389  0.69742733  0.55548181  1
  Tl  Tl31  1  0.43351389  0.80257267  0.94451819  1
