# generated using pymatgen
data_Nb4SiTe4
_symmetry_space_group_name_H-M   'P 1'
_cell_length_a   4.87530044
_cell_length_b   10.98191000
_cell_length_c   19.11941603
_cell_angle_alpha   90.00000000
_cell_angle_beta   90.00000000
_cell_angle_gamma   90.00000000
_symmetry_Int_Tables_number   1
_chemical_formula_structural   Nb4SiTe4
_chemical_formula_sum   'Nb16 Si4 Te16'
_cell_volume   1023.65564991
_cell_formula_units_Z   4
loop_
 _symmetry_equiv_pos_site_id
 _symmetry_equiv_pos_as_xyz
  1  'x, y, z'
loop_
 _atom_site_type_symbol
 _atom_site_label
 _atom_site_symmetry_multiplicity
 _atom_site_fract_x
 _atom_site_fract_y
 _atom_site_fract_z
 _atom_site_occupancy
  Nb  Nb0  1  0.50000000  0.56350364  0.38359425  1
  Nb  Nb1  1  0.50000000  0.43649636  0.61640575  1
  Nb  Nb2  1  0.50000000  0.06350364  0.11640575  1
  Nb  Nb3  1  0.50000000  0.93649636  0.88359425  1
  Nb  Nb4  1  0.50000000  0.70303078  0.53622151  1
  Nb  Nb5  1  0.50000000  0.29696922  0.46377849  1
  Nb  Nb6  1  0.50000000  0.20303078  0.96377849  1
  Nb  Nb7  1  0.50000000  0.79696922  0.03622151  1
  Nb  Nb8  1  0.00000000  0.68848479  0.44304075  1
  Nb  Nb9  1  0.00000000  0.31151521  0.55695925  1
  Nb  Nb10  1  0.00000000  0.18848479  0.05695925  1
  Nb  Nb11  1  0.00000000  0.81151521  0.94304075  1
  Nb  Nb12  1  0.00000000  0.40138178  0.39195271  1
  Nb  Nb13  1  0.00000000  0.59861822  0.60804729  1
  Nb  Nb14  1  0.00000000  0.90138178  0.10804729  1
  Nb  Nb15  1  0.00000000  0.09861822  0.89195271  1
  Si  Si16  1  0.24994591  0.50000000  0.50000000  1
  Si  Si17  1  0.75005409  0.00000000  0.00000000  1
  Si  Si18  1  0.75005409  0.50000000  0.50000000  1
  Si  Si19  1  0.24994591  0.00000000  0.00000000  1
  Te  Te20  1  0.00000000  0.84549992  0.56180887  1
  Te  Te21  1  0.00000000  0.15450008  0.43819113  1
  Te  Te22  1  0.00000000  0.34549992  0.93819113  1
  Te  Te23  1  0.00000000  0.65450008  0.06180887  1
  Te  Te24  1  0.50000000  0.33232145  0.31605062  1
  Te  Te25  1  0.50000000  0.66767855  0.68394938  1
  Te  Te26  1  0.50000000  0.83232145  0.18394938  1
  Te  Te27  1  0.50000000  0.16767855  0.81605062  1
  Te  Te28  1  0.50000000  0.82138972  0.40326609  1
  Te  Te29  1  0.50000000  0.17861028  0.59673391  1
  Te  Te30  1  0.50000000  0.32138972  0.09673391  1
  Te  Te31  1  0.50000000  0.67861028  0.90326609  1
  Te  Te32  1  0.00000000  0.60770567  0.30156539  1
  Te  Te33  1  0.00000000  0.39229433  0.69843461  1
  Te  Te34  1  0.00000000  0.10770567  0.19843461  1
  Te  Te35  1  0.00000000  0.89229433  0.80156539  1
