# generated using pymatgen
data_Ba6Gd(ReO6)3
_symmetry_space_group_name_H-M   'P 1'
_cell_length_a   10.10972681
_cell_length_b   10.22819201
_cell_length_c   10.22819224
_cell_angle_alpha   119.99281726
_cell_angle_beta   99.70299842
_cell_angle_gamma   99.70299559
_symmetry_Int_Tables_number   1
_chemical_formula_structural   Ba6Gd(ReO6)3
_chemical_formula_sum   'Ba12 Gd2 Re6 O36'
_cell_volume   862.41087529
_cell_formula_units_Z   2
loop_
 _symmetry_equiv_pos_site_id
 _symmetry_equiv_pos_as_xyz
  1  'x, y, z'
loop_
 _atom_site_type_symbol
 _atom_site_label
 _atom_site_symmetry_multiplicity
 _atom_site_fract_x
 _atom_site_fract_y
 _atom_site_fract_z
 _atom_site_occupancy
  Ba  Ba0  1  0.12468582  0.71977710  0.71977710  1
  Ba  Ba1  1  0.12428771  0.36306002  0.04140367  1
  Ba  Ba2  1  0.12428771  0.04140367  0.36306002  1
  Ba  Ba3  1  0.87571229  0.63693998  0.95859633  1
  Ba  Ba4  1  0.87531418  0.28022290  0.28022290  1
  Ba  Ba5  1  0.87571229  0.95859633  0.63693998  1
  Ba  Ba6  1  0.61409297  0.87071292  0.87071292  1
  Ba  Ba7  1  0.60618690  0.53619465  0.20216407  1
  Ba  Ba8  1  0.60618690  0.20216407  0.53619465  1
  Ba  Ba9  1  0.39381310  0.46380535  0.79783593  1
  Ba  Ba10  1  0.38590703  0.12928708  0.12928708  1
  Ba  Ba11  1  0.39381310  0.79783593  0.46380535  1
  Gd  Gd12  1  0.00000000  0.66677251  0.33322749  1
  Gd  Gd13  1  1.00000000  0.33322749  0.66677251  1
  Re  Re14  1  0.73145304  0.24074523  0.91080737  1
  Re  Re15  1  0.73145304  0.91080737  0.24074523  1
  Re  Re16  1  0.73163352  0.58021079  0.58021079  1
  Re  Re17  1  0.26854696  0.08919263  0.75925477  1
  Re  Re18  1  0.26854696  0.75925477  0.08919263  1
  Re  Re19  1  0.26836648  0.41978921  0.41978921  1
  O  O20  1  0.63801598  0.36928256  0.87908202  1
  O  O21  1  0.63032840  0.03298099  0.21115569  1
  O  O22  1  0.63132534  0.69925417  0.54297084  1
  O  O23  1  0.63136347  0.05543695  0.72063235  1
  O  O24  1  0.63136347  0.72063235  0.05543695  1
  O  O25  1  0.63715450  0.38927965  0.38927965  1
  O  O26  1  0.63032840  0.21115569  0.03298099  1
  O  O27  1  0.63801598  0.87908202  0.36928256  1
  O  O28  1  0.63132534  0.54297084  0.69925417  1
  O  O29  1  0.36967160  0.96701901  0.78884431  1
  O  O30  1  0.36198402  0.63071744  0.12091798  1
  O  O31  1  0.36867466  0.30074583  0.45702916  1
  O  O32  1  0.36863653  0.27936765  0.94456305  1
  O  O33  1  0.36863653  0.94456305  0.27936765  1
  O  O34  1  0.36284550  0.61072035  0.61072035  1
  O  O35  1  0.36198402  0.12091798  0.63071744  1
  O  O36  1  0.36967160  0.78884431  0.96701901  1
  O  O37  1  0.36867466  0.45702916  0.30074583  1
  O  O38  1  0.13881550  0.20018170  0.71235849  1
  O  O39  1  0.14095206  0.85729768  0.04679272  1
  O  O40  1  0.13897415  0.53424455  0.38045839  1
  O  O41  1  0.13908104  0.89240892  0.55868733  1
  O  O42  1  0.13908104  0.55868733  0.89240892  1
  O  O43  1  0.14079464  0.23656623  0.23656623  1
  O  O44  1  0.14095206  0.04679272  0.85729768  1
  O  O45  1  0.13881550  0.71235849  0.20018170  1
  O  O46  1  0.13897415  0.38045839  0.53424455  1
  O  O47  1  0.85904794  0.14270232  0.95320728  1
  O  O48  1  0.86118450  0.79981830  0.28764151  1
  O  O49  1  0.86102585  0.46575545  0.61954161  1
  O  O50  1  0.86091896  0.44131267  0.10759108  1
  O  O51  1  0.86091896  0.10759108  0.44131267  1
  O  O52  1  0.85920536  0.76343377  0.76343377  1
  O  O53  1  0.86118450  0.28764151  0.79981830  1
  O  O54  1  0.85904794  0.95320728  0.14270232  1
  O  O55  1  0.86102585  0.61954161  0.46575545  1
