# generated using pymatgen
data_Gd2ReO5
_symmetry_space_group_name_H-M   'P 1'
_cell_length_a   5.77725130
_cell_length_b   8.64164343
_cell_length_c   8.64164343
_cell_angle_alpha   90.00000000
_cell_angle_beta   90.00000000
_cell_angle_gamma   90.00000000
_symmetry_Int_Tables_number   1
_chemical_formula_structural   Gd2ReO5
_chemical_formula_sum   'Gd8 Re4 O20'
_cell_volume   431.43357935
_cell_formula_units_Z   4
loop_
 _symmetry_equiv_pos_site_id
 _symmetry_equiv_pos_as_xyz
  1  'x, y, z'
loop_
 _atom_site_type_symbol
 _atom_site_label
 _atom_site_symmetry_multiplicity
 _atom_site_fract_x
 _atom_site_fract_y
 _atom_site_fract_z
 _atom_site_occupancy
  O  O0  1  0.00000000  0.75000000  0.25000000  1
  O  O1  1  0.00000000  0.25000000  0.75000000  1
  O  O2  1  0.50000000  0.75000000  0.25000000  1
  O  O3  1  0.50000000  0.25000000  0.75000000  1
  O  O4  1  0.90478525  0.65579532  0.54954442  1
  O  O5  1  0.90478525  0.95045558  0.65579532  1
  O  O6  1  0.90478525  0.54954442  0.84420468  1
  O  O7  1  0.90478525  0.84420468  0.95045558  1
  O  O8  1  0.09521475  0.34420468  0.45045558  1
  O  O9  1  0.09521475  0.04954442  0.34420468  1
  O  O10  1  0.09521475  0.45045558  0.15579532  1
  O  O11  1  0.09521475  0.15579532  0.04954442  1
  O  O12  1  0.60071373  0.04896022  0.15817743  1
  O  O13  1  0.60071373  0.34182257  0.04896022  1
  O  O14  1  0.60071373  0.15817743  0.45103978  1
  O  O15  1  0.60071373  0.45103978  0.34182257  1
  O  O16  1  0.39928627  0.95103978  0.84182257  1
  O  O17  1  0.39928627  0.65817743  0.95103978  1
  O  O18  1  0.39928627  0.84182257  0.54896022  1
  O  O19  1  0.39928627  0.54896022  0.65817743  1
  Gd  Gd20  1  0.24977385  0.09968183  0.60885576  1
  Gd  Gd21  1  0.24977385  0.89114424  0.09968183  1
  Gd  Gd22  1  0.24977385  0.60885576  0.40031817  1
  Gd  Gd23  1  0.24977385  0.40031817  0.89114424  1
  Gd  Gd24  1  0.75022615  0.59968183  0.10885576  1
  Gd  Gd25  1  0.75022615  0.39114424  0.59968183  1
  Gd  Gd26  1  0.75022615  0.10885576  0.90031817  1
  Gd  Gd27  1  0.75022615  0.90031817  0.39114424  1
  Re  Re28  1  0.14760218  0.25000000  0.25000000  1
  Re  Re29  1  0.85239782  0.75000000  0.75000000  1
  Re  Re30  1  0.54038633  0.25000000  0.25000000  1
  Re  Re31  1  0.45961367  0.75000000  0.75000000  1
