# generated using pymatgen
data_Na3Sb3(AsO7)2
_symmetry_space_group_name_H-M   'P 1'
_cell_length_a   6.56692539
_cell_length_b   7.38225097
_cell_length_c   12.48089002
_cell_angle_alpha   90.00000000
_cell_angle_beta   103.03266076
_cell_angle_gamma   90.00000000
_symmetry_Int_Tables_number   1
_chemical_formula_structural   Na3Sb3(AsO7)2
_chemical_formula_sum   'Na6 Sb6 As4 O28'
_cell_volume   589.47195476
_cell_formula_units_Z   2
loop_
 _symmetry_equiv_pos_site_id
 _symmetry_equiv_pos_as_xyz
  1  'x, y, z'
loop_
 _atom_site_type_symbol
 _atom_site_label
 _atom_site_symmetry_multiplicity
 _atom_site_fract_x
 _atom_site_fract_y
 _atom_site_fract_z
 _atom_site_occupancy
  Na  Na0  1  0.00000000  0.00000000  0.00000000  1
  Na  Na1  1  0.89711972  0.71321874  0.43274728  1
  Na  Na2  1  0.10288028  0.28678126  0.56725272  1
  Na  Na3  1  0.39711972  0.78678126  0.93274728  1
  Na  Na4  1  0.50000000  0.50000000  0.50000000  1
  Na  Na5  1  0.60288028  0.21321874  0.06725272  1
  Sb  Sb6  1  0.23018083  0.24072936  0.25328437  1
  Sb  Sb7  1  0.73018083  0.25927064  0.75328437  1
  Sb  Sb8  1  0.76981917  0.75927064  0.74671563  1
  Sb  Sb9  1  0.26981917  0.74072936  0.24671563  1
  Sb  Sb10  1  0.50000000  0.00000000  0.50000000  1
  Sb  Sb11  1  0.00000000  0.50000000  0.00000000  1
  As  As12  1  0.24477146  0.76513061  0.66045337  1
  As  As13  1  0.74477146  0.73486939  0.16045337  1
  As  As14  1  0.25522854  0.26513061  0.83954663  1
  As  As15  1  0.75522854  0.23486939  0.33954663  1
  O  O16  1  0.26337849  0.99417393  0.19659233  1
  O  O17  1  0.77493897  0.53133490  0.09205332  1
  O  O18  1  0.53208970  0.27370762  0.23720627  1
  O  O19  1  0.31930415  0.09512132  0.92934430  1
  O  O20  1  0.07423726  0.81213552  0.74430793  1
  O  O21  1  0.37225741  0.79553328  0.40534817  1
  O  O22  1  0.27493897  0.96866510  0.59205332  1
  O  O23  1  0.72506103  0.03133490  0.40794668  1
  O  O24  1  0.18069585  0.59512132  0.57065570  1
  O  O25  1  0.68509111  0.81023800  0.58424137  1
  O  O26  1  0.42576274  0.31213552  0.75569207  1
  O  O27  1  0.57423726  0.68786448  0.24430793  1
  O  O28  1  0.96791030  0.77370762  0.26279373  1
  O  O29  1  0.68069585  0.90487868  0.07065570  1
  O  O30  1  0.73662151  0.00582607  0.80340767  1
  O  O31  1  0.22506103  0.46866510  0.90794668  1
  O  O32  1  0.62774259  0.20446672  0.59465183  1
  O  O33  1  0.23662151  0.49417393  0.30340767  1
  O  O34  1  0.18509111  0.68976200  0.08424137  1
  O  O35  1  0.81930415  0.40487868  0.42934430  1
  O  O36  1  0.03208970  0.22629238  0.73720627  1
  O  O37  1  0.81490889  0.31023800  0.91575863  1
  O  O38  1  0.46791030  0.72629238  0.76279373  1
  O  O39  1  0.12774259  0.29553328  0.09465183  1
  O  O40  1  0.76337849  0.50582607  0.69659233  1
  O  O41  1  0.87225741  0.70446672  0.90534817  1
  O  O42  1  0.31490889  0.18976200  0.41575863  1
  O  O43  1  0.92576274  0.18786448  0.25569207  1
