# generated using pymatgen
data_Pr2SiTeO4
_symmetry_space_group_name_H-M   'P 1'
_cell_length_a   6.40156175
_cell_length_b   7.32151522
_cell_length_c   11.35593319
_cell_angle_alpha   90.00000000
_cell_angle_beta   90.00000000
_cell_angle_gamma   90.00000000
_symmetry_Int_Tables_number   1
_chemical_formula_structural   Pr2SiTeO4
_chemical_formula_sum   'Pr8 Si4 Te4 O16'
_cell_volume   532.24272922
_cell_formula_units_Z   4
loop_
 _symmetry_equiv_pos_site_id
 _symmetry_equiv_pos_as_xyz
  1  'x, y, z'
loop_
 _atom_site_type_symbol
 _atom_site_label
 _atom_site_symmetry_multiplicity
 _atom_site_fract_x
 _atom_site_fract_y
 _atom_site_fract_z
 _atom_site_occupancy
  O  O0  1  0.26851524  0.42151606  0.03581924  1
  O  O1  1  0.26851524  0.07848394  0.96418076  1
  O  O2  1  0.73148476  0.92151606  0.46418076  1
  O  O3  1  0.73148476  0.57848394  0.53581924  1
  O  O4  1  0.73148476  0.57848394  0.96418076  1
  O  O5  1  0.73148476  0.92151606  0.03581924  1
  O  O6  1  0.26851524  0.07848394  0.53581924  1
  O  O7  1  0.26851524  0.42151606  0.46418076  1
  O  O8  1  0.04664674  0.72943135  0.11455716  1
  O  O9  1  0.04664674  0.72943135  0.38544284  1
  O  O10  1  0.95335326  0.22943135  0.38544284  1
  O  O11  1  0.95335326  0.27056865  0.61455716  1
  O  O12  1  0.95335326  0.27056865  0.88544284  1
  O  O13  1  0.95335326  0.22943135  0.11455716  1
  O  O14  1  0.04664674  0.77056865  0.61455716  1
  O  O15  1  0.04664674  0.77056865  0.88544284  1
  Si  Si16  1  0.11426466  0.25000000  0.00000000  1
  Si  Si17  1  0.88573534  0.75000000  0.00000000  1
  Si  Si18  1  0.88573534  0.75000000  0.50000000  1
  Si  Si19  1  0.11426466  0.25000000  0.50000000  1
  Te  Te20  1  0.59659503  0.92439730  0.75000000  1
  Te  Te21  1  0.59659503  0.57560270  0.25000000  1
  Te  Te22  1  0.40340497  0.42439730  0.75000000  1
  Te  Te23  1  0.40340497  0.07560270  0.25000000  1
  Pr  Pr24  1  0.38799943  0.75000000  0.50000000  1
  Pr  Pr25  1  0.38799943  0.75000000  0.00000000  1
  Pr  Pr26  1  0.61200057  0.25000000  0.50000000  1
  Pr  Pr27  1  0.61200057  0.25000000  0.00000000  1
  Pr  Pr28  1  0.88707797  0.54037162  0.75000000  1
  Pr  Pr29  1  0.88707797  0.95962838  0.25000000  1
  Pr  Pr30  1  0.11292203  0.04037162  0.75000000  1
  Pr  Pr31  1  0.11292203  0.45962838  0.25000000  1
