# generated using pymatgen
data_Li4NbFe5(PO4)6
_symmetry_space_group_name_H-M   'P 1'
_cell_length_a   8.49821364
_cell_length_b   9.06817517
_cell_length_c   9.01609996
_cell_angle_alpha   59.99416680
_cell_angle_beta   59.05604324
_cell_angle_gamma   58.76165119
_symmetry_Int_Tables_number   1
_chemical_formula_structural   Li4NbFe5(PO4)6
_chemical_formula_sum   'Li4 Nb1 Fe5 P6 O24'
_cell_volume   483.01861863
_cell_formula_units_Z   1
loop_
 _symmetry_equiv_pos_site_id
 _symmetry_equiv_pos_as_xyz
  1  'x, y, z'
loop_
 _atom_site_type_symbol
 _atom_site_label
 _atom_site_symmetry_multiplicity
 _atom_site_fract_x
 _atom_site_fract_y
 _atom_site_fract_z
 _atom_site_occupancy
  Li  Li0  1  0.25048787  0.85169283  0.64466457  1
  Li  Li1  1  0.78042243  0.15783328  0.35571207  1
  Li  Li2  1  0.78238299  0.70447462  0.15361577  1
  Li  Li3  1  0.78322417  0.36079114  0.70051706  1
  Nb  Nb4  1  0.54712575  0.15339428  0.15031184  1
  Fe  Fe5  1  0.01871121  0.99452275  0.00058686  1
  Fe  Fe6  1  0.05502633  0.64352720  0.65209283  1
  Fe  Fe7  1  0.49403322  0.49811404  0.49913300  1
  Fe  Fe8  1  0.44856964  0.84963284  0.84964723  1
  Fe  Fe9  1  0.96506227  0.34650429  0.34207408  1
  P  P10  1  0.24240896  0.25372204  0.56058320  1
  P  P11  1  0.24085346  0.94528851  0.25275789  1
  P  P12  1  0.24152950  0.56216068  0.94316583  1
  P  P13  1  0.74519171  0.45222220  0.05161437  1
  P  P14  1  0.76223014  0.04826971  0.74888095  1
  P  P15  1  0.73236083  0.75334489  0.45361016  1
  O  O16  1  0.05345386  0.09820529  0.31725066  1
  O  O17  1  0.05358293  0.53081927  0.09464025  1
  O  O18  1  0.05215088  0.32578898  0.52526647  1
  O  O19  1  0.22929283  0.08936136  0.73770931  1
  O  O20  1  0.42287167  0.18726176  0.39509048  1
  O  O21  1  0.27939391  0.39815080  0.56731281  1
  O  O22  1  0.22520806  0.92321126  0.10282479  1
  O  O23  1  0.27988612  0.76517541  0.41077424  1
  O  O24  1  0.56095627  0.59681883  0.01240420  1
  O  O25  1  0.27925153  0.56984876  0.75173552  1
  O  O26  1  0.76207290  0.24985880  0.09205898  1
  O  O27  1  0.59163933  -0.00902405  0.82085804  1
  O  O28  1  0.42347025  0.00097455  0.17691132  1
  O  O29  1  0.22488473  0.75077979  0.91906750  1
  O  O30  1  0.72620495  0.43745077  0.24305332  1
  O  O31  1  0.42458153  0.39981194  0.99253377  1
  O  O32  1  0.73174430  0.23831927  0.59258674  1
  O  O33  1  0.76863954  0.09272334  0.89883030  1
  O  O34  1  0.73019564  0.59346218  0.43019842  1
  O  O35  1  0.53335906  0.82163213  0.59300378  1
  O  O36  1  0.75816419  0.90149131  0.25221761  1
  O  O37  1  0.90449870  0.70725554  0.49837975  1
  O  O38  1  0.93304479  0.47587512  0.89933008  1
  O  O39  1  0.96183655  0.90225029  0.69399694  1
