# generated using pymatgen
data_LiHSeO3
_symmetry_space_group_name_H-M   'P 1'
_cell_length_a   5.15510233
_cell_length_b   5.37071933
_cell_length_c   11.39260763
_cell_angle_alpha   90.00000000
_cell_angle_beta   90.00000000
_cell_angle_gamma   90.00000000
_symmetry_Int_Tables_number   1
_chemical_formula_structural   LiHSeO3
_chemical_formula_sum   'Li4 H4 Se4 O12'
_cell_volume   315.42265849
_cell_formula_units_Z   4
loop_
 _symmetry_equiv_pos_site_id
 _symmetry_equiv_pos_as_xyz
  1  'x, y, z'
loop_
 _atom_site_type_symbol
 _atom_site_label
 _atom_site_symmetry_multiplicity
 _atom_site_fract_x
 _atom_site_fract_y
 _atom_site_fract_z
 _atom_site_occupancy
  H  H0  1  0.23131682  0.17867235  0.33380522  1
  H  H1  1  0.73131682  0.82132765  0.16619478  1
  H  H2  1  0.26868318  0.67867235  0.66619478  1
  H  H3  1  0.76868318  0.32132765  0.83380522  1
  Li  Li4  1  0.24393030  0.18818952  0.91802706  1
  Li  Li5  1  0.74393030  0.81181048  0.58197294  1
  Li  Li6  1  0.25606970  0.68818952  0.08197294  1
  Li  Li7  1  0.75606970  0.31181048  0.41802706  1
  O  O8  1  0.00321928  0.71535921  0.21291336  1
  O  O9  1  0.11037344  0.84274718  0.94095130  1
  O  O10  1  0.38962656  0.34274718  0.05904870  1
  O  O11  1  0.88962656  0.65725282  0.44095130  1
  O  O12  1  0.93189510  0.40030811  0.86917425  1
  O  O13  1  0.43189510  0.59969189  0.63082575  1
  O  O14  1  0.56810490  0.90030811  0.13082575  1
  O  O15  1  0.06810490  0.09969189  0.36917425  1
  O  O16  1  0.49678072  0.21535921  0.78708664  1
  O  O17  1  0.99678072  0.78464079  0.71291336  1
  O  O18  1  0.61037344  0.15725282  0.55904870  1
  O  O19  1  0.50321928  0.28464079  0.28708664  1
  Se  Se20  1  0.12410556  0.76282657  0.35014293  1
  Se  Se21  1  0.62410556  0.23717343  0.14985707  1
  Se  Se22  1  0.37589444  0.26282657  0.64985707  1
  Se  Se23  1  0.87589444  0.73717343  0.85014293  1
