# generated using pymatgen
data_K2CdSiO4
_symmetry_space_group_name_H-M   'P 1'
_cell_length_a   5.69067729
_cell_length_b   11.44143633
_cell_length_c   16.22446670
_cell_angle_alpha   90.00000000
_cell_angle_beta   90.00000000
_cell_angle_gamma   90.00000000
_symmetry_Int_Tables_number   1
_chemical_formula_structural   K2CdSiO4
_chemical_formula_sum   'K16 Cd8 Si8 O32'
_cell_volume   1056.36726973
_cell_formula_units_Z   8
loop_
 _symmetry_equiv_pos_site_id
 _symmetry_equiv_pos_as_xyz
  1  'x, y, z'
loop_
 _atom_site_type_symbol
 _atom_site_label
 _atom_site_symmetry_multiplicity
 _atom_site_fract_x
 _atom_site_fract_y
 _atom_site_fract_z
 _atom_site_occupancy
  K  K0  1  0.48952275  0.99124458  0.05975942  1
  K  K1  1  0.51047725  0.00875542  0.55975942  1
  K  K2  1  0.51047725  0.49124458  0.05975942  1
  K  K3  1  0.48952275  0.50875542  0.55975942  1
  K  K4  1  0.46106596  0.73918427  0.17973209  1
  K  K5  1  0.53893404  0.26081573  0.67973209  1
  K  K6  1  0.53893404  0.23918427  0.17973209  1
  K  K7  1  0.46106596  0.76081573  0.67973209  1
  K  K8  1  0.00524589  0.01456590  0.94005798  1
  K  K9  1  0.99475411  0.98543410  0.44005798  1
  K  K10  1  0.99475411  0.51456590  0.94005798  1
  K  K11  1  0.00524589  0.48543410  0.44005798  1
  K  K12  1  0.04751134  0.27198099  0.81291900  1
  K  K13  1  0.95248866  0.72801901  0.31291900  1
  K  K14  1  0.95248866  0.77198099  0.81291900  1
  K  K15  1  0.04751134  0.22801901  0.31291900  1
  Cd  Cd16  1  0.99014680  0.98860657  0.18817606  1
  Cd  Cd17  1  0.00985320  0.01139343  0.68817606  1
  Cd  Cd18  1  0.00985320  0.48860657  0.18817606  1
  Cd  Cd19  1  0.99014680  0.51139343  0.68817606  1
  Cd  Cd20  1  0.53514425  0.25814654  0.93561082  1
  Cd  Cd21  1  0.46485575  0.74185346  0.43561082  1
  Cd  Cd22  1  0.46485575  0.75814654  0.93561082  1
  Cd  Cd23  1  0.53514425  0.24185346  0.43561082  1
  Si  Si24  1  0.51465686  0.00790163  0.81001095  1
  Si  Si25  1  0.48534314  0.99209837  0.31001095  1
  Si  Si26  1  0.48534314  0.50790163  0.81001095  1
  Si  Si27  1  0.51465686  0.49209837  0.31001095  1
  Si  Si28  1  0.97693014  0.73230016  0.06653650  1
  Si  Si29  1  0.02306986  0.26769984  0.56653650  1
  Si  Si30  1  0.02306986  0.23230016  0.06653650  1
  Si  Si31  1  0.97693014  0.76769984  0.56653650  1
  O  O32  1  0.72278268  0.69320914  0.02510882  1
  O  O33  1  0.27721732  0.30679086  0.52510882  1
  O  O34  1  0.27721732  0.19320914  0.02510882  1
  O  O35  1  0.72278268  0.80679086  0.52510882  1
  O  O36  1  0.12262542  0.61042281  0.08973038  1
  O  O37  1  0.87737458  0.38957719  0.58973038  1
  O  O38  1  0.87737458  0.11042281  0.08973038  1
  O  O39  1  0.12262542  0.88957719  0.58973038  1
  O  O40  1  0.92927344  0.80619171  0.15270027  1
  O  O41  1  0.07072656  0.19380829  0.65270027  1
  O  O42  1  0.07072656  0.30619171  0.15270027  1
  O  O43  1  0.92927344  0.69380829  0.65270027  1
  O  O44  1  0.35560982  0.03068690  0.22228826  1
  O  O45  1  0.64439018  0.96931310  0.72228826  1
  O  O46  1  0.64439018  0.53068690  0.22228826  1
  O  O47  1  0.35560982  0.46931310  0.72228826  1
  O  O48  1  0.86047356  0.30909190  1.00120186  1
  O  O49  1  0.13952644  0.69090810  0.50120186  1
  O  O50  1  0.13952644  0.80909190  1.00120186  1
  O  O51  1  0.86047356  0.19090810  0.50120186  1
  O  O52  1  0.39508264  0.42663947  0.88864908  1
  O  O53  1  0.60491736  0.57336053  0.38864908  1
  O  O54  1  0.60491736  0.92663947  0.88864908  1
  O  O55  1  0.39508264  0.07336053  0.38864908  1
  O  O56  1  0.58833564  0.14646347  0.82809625  1
  O  O57  1  0.41166436  0.85353653  0.32809625  1
  O  O58  1  0.41166436  0.64646347  0.82809625  1
  O  O59  1  0.58833564  0.35353653  0.32809625  1
  O  O60  1  0.22757545  0.98848152  0.79942226  1
  O  O61  1  0.77242455  0.01151848  0.29942226  1
  O  O62  1  0.77242455  0.48848152  0.79942226  1
  O  O63  1  0.22757545  0.51151848  0.29942226  1
