# generated using pymatgen
data_K2(TcS2)3
_symmetry_space_group_name_H-M   'P 1'
_cell_length_a   9.68896371
_cell_length_b   9.68896388
_cell_length_c   12.02862877
_cell_angle_alpha   88.71927108
_cell_angle_beta   88.71927103
_cell_angle_gamma   61.11128999
_symmetry_Int_Tables_number   1
_chemical_formula_structural   K2(TcS2)3
_chemical_formula_sum   'K8 Tc12 S24'
_cell_volume   988.34878879
_cell_formula_units_Z   4
loop_
 _symmetry_equiv_pos_site_id
 _symmetry_equiv_pos_as_xyz
  1  'x, y, z'
loop_
 _atom_site_type_symbol
 _atom_site_label
 _atom_site_symmetry_multiplicity
 _atom_site_fract_x
 _atom_site_fract_y
 _atom_site_fract_z
 _atom_site_occupancy
  K  K0  1  0.40145273  0.59854727  0.75000000  1
  K  K1  1  0.59854727  0.40145273  0.25000000  1
  K  K2  1  0.79057394  0.20942606  0.75000000  1
  K  K3  1  0.20942606  0.79057394  0.25000000  1
  K  K4  1  0.64292380  0.12066691  0.02093992  1
  K  K5  1  0.87933309  0.35707620  0.47906008  1
  K  K6  1  0.35707620  0.87933309  0.97906008  1
  K  K7  1  0.12066691  0.64292380  0.52093992  1
  Tc  Tc8  1  0.31000954  0.00329129  0.52560574  1
  Tc  Tc9  1  0.99670871  0.68999046  0.97439426  1
  Tc  Tc10  1  0.68999046  0.99670871  0.47439426  1
  Tc  Tc11  1  0.00329129  0.31000954  0.02560574  1
  Tc  Tc12  1  0.46988408  0.11447341  0.62978249  1
  Tc  Tc13  1  0.88552659  0.53011592  0.87021751  1
  Tc  Tc14  1  0.53011592  0.88552659  0.37021751  1
  Tc  Tc15  1  0.11447341  0.46988408  0.12978249  1
  Tc  Tc16  1  0.60279549  0.81258861  0.58264439  1
  Tc  Tc17  1  0.18741139  0.39720451  0.91735561  1
  Tc  Tc18  1  0.39720451  0.18741139  0.41735561  1
  Tc  Tc19  1  0.81258861  0.60279549  0.08264439  1
  S  S20  1  0.25782822  0.07236516  0.33317310  1
  S  S21  1  0.92763484  0.74217178  0.16682690  1
  S  S22  1  0.74217178  0.92763484  0.66682690  1
  S  S23  1  0.07236516  0.25782822  0.83317310  1
  S  S24  1  0.72148511  0.79333353  0.93108952  1
  S  S25  1  0.20666647  0.27851489  0.56891048  1
  S  S26  1  0.27851489  0.20666647  0.06891048  1
  S  S27  1  0.79333353  0.72148511  0.43108952  1
  S  S28  1  0.61027718  0.06140922  0.28430710  1
  S  S29  1  0.93859078  0.38972282  0.21569290  1
  S  S30  1  0.38972282  0.93859078  0.71569290  1
  S  S31  1  0.06140922  0.61027718  0.78430710  1
  S  S32  1  0.55424744  0.27497001  0.52014284  1
  S  S33  1  0.72502999  0.44575256  0.97985716  1
  S  S34  1  0.44575256  0.72502999  0.47985716  1
  S  S35  1  0.27497001  0.55424744  0.02014284  1
  S  S36  1  0.99968885  0.05968659  0.07297926  1
  S  S37  1  0.94031341  0.00031115  0.42702074  1
  S  S38  1  0.00031115  0.94031341  0.92702074  1
  S  S39  1  0.05968659  0.99968885  0.57297926  1
  S  S40  1  0.43832332  0.26372794  0.80473205  1
  S  S41  1  0.73627206  0.56167668  0.69526795  1
  S  S42  1  0.56167668  0.73627206  0.19526795  1
  S  S43  1  0.26372794  0.43832332  0.30473205  1
