# generated using pymatgen
data_Li4Mn3NbFe2(PO4)6
_symmetry_space_group_name_H-M   'P 1'
_cell_length_a   8.56257047
_cell_length_b   8.65939372
_cell_length_c   8.65382168
_cell_angle_alpha   63.46259327
_cell_angle_beta   63.61341937
_cell_angle_gamma   63.92245338
_symmetry_Int_Tables_number   1
_chemical_formula_structural   Li4Mn3NbFe2(PO4)6
_chemical_formula_sum   'Li4 Mn3 Nb1 Fe2 P6 O24'
_cell_volume   490.43586162
_cell_formula_units_Z   1
loop_
 _symmetry_equiv_pos_site_id
 _symmetry_equiv_pos_as_xyz
  1  'x, y, z'
loop_
 _atom_site_type_symbol
 _atom_site_label
 _atom_site_symmetry_multiplicity
 _atom_site_fract_x
 _atom_site_fract_y
 _atom_site_fract_z
 _atom_site_occupancy
  Li  Li0  1  0.74753384  0.14967935  0.35332690  1
  Li  Li1  1  0.29166834  0.84703569  0.64623474  1
  Li  Li2  1  0.64136016  0.29111848  0.85106445  1
  Li  Li3  1  0.84967383  0.63942477  0.29346217  1
  Mn  Mn4  1  0.15093593  0.15325546  0.15241919  1
  Mn  Mn5  1  0.34926601  0.35415476  0.34839760  1
  Mn  Mn6  1  0.65539850  0.65574583  0.65962059  1
  Nb  Nb7  1  0.84986419  0.84573351  0.84927446  1
  Fe  Fe8  1  0.01508569  0.00197863  0.99593756  1
  Fe  Fe9  1  0.49046380  0.50383159  0.50072519  1
  P  P10  1  0.74801074  0.43556928  0.05819984  1
  P  P11  1  0.24798816  0.55316757  0.94427956  1
  P  P12  1  0.56377408  0.94755587  0.25181585  1
  P  P13  1  0.93340672  0.24569765  0.54975832  1
  P  P14  1  0.05921913  0.74581780  0.43645943  1
  P  P15  1  0.43690736  0.05730578  0.74903469  1
  O  O16  1  0.10166605  0.29447046  0.50296656  1
  O  O17  1  0.30799824  0.52709780  0.09669407  1
  O  O18  1  0.05992395  0.90672480  0.25940964  1
  O  O19  1  0.56117141  0.09255186  0.30916576  1
  O  O20  1  0.00108904  0.81351022  0.60404355  1
  O  O21  1  0.24874882  0.60458004  0.43370962  1
  O  O22  1  0.25124830  0.07653782  0.89924956  1
  O  O23  1  0.45426913  0.23735746  0.59517214  1
  O  O24  1  0.16937963  0.40955385  0.98324935  1
  O  O25  1  0.60689858  0.42728613  0.25039349  1
  O  O26  1  0.10044824  0.75399156  0.90875551  1
  O  O27  1  0.40598176  0.00572968  0.18363495  1
  O  O28  1  0.60113758  0.99675068  0.82406122  1
  O  O29  1  0.89562799  0.24793878  0.07892472  1
  O  O30  1  0.40039135  0.57255490  0.75239942  1
  O  O31  1  0.81704065  0.59985154  0.00468482  1
  O  O32  1  0.57232206  0.75664050  0.40226369  1
  O  O33  1  0.76004383  0.90826030  0.09806604  1
  O  O34  1  0.74637287  0.40220279  0.57574880  1
  O  O35  1  0.94370499  0.17592997  0.41057838  1
  O  O36  1  0.46636681  0.90797837  0.67982518  1
  O  O37  1  0.90946854  0.09776936  0.74931708  1
  O  O38  1  0.67601709  0.46633287  0.91033999  1
  O  O39  1  0.91212760  0.66832922  0.47033492  1
