# generated using pymatgen
data_RbZnH2Se2ClO6
_symmetry_space_group_name_H-M   'P 1'
_cell_length_a   6.53671797
_cell_length_b   6.10784505
_cell_length_c   10.94837892
_cell_angle_alpha   90.00000000
_cell_angle_beta   103.17252533
_cell_angle_gamma   90.00000000
_symmetry_Int_Tables_number   1
_chemical_formula_structural   RbZnH2Se2ClO6
_chemical_formula_sum   'Rb2 Zn2 H4 Se4 Cl2 O12'
_cell_volume   425.61558812
_cell_formula_units_Z   2
loop_
 _symmetry_equiv_pos_site_id
 _symmetry_equiv_pos_as_xyz
  1  'x, y, z'
loop_
 _atom_site_type_symbol
 _atom_site_label
 _atom_site_symmetry_multiplicity
 _atom_site_fract_x
 _atom_site_fract_y
 _atom_site_fract_z
 _atom_site_occupancy
  Rb  Rb0  1  0.00000000  0.16494800  0.25000000  1
  Rb  Rb1  1  0.00000000  0.83505300  0.75000000  1
  Zn  Zn2  1  0.49999900  0.56648194  0.25000000  1
  Zn  Zn3  1  0.49999900  0.43351606  0.75000000  1
  H  H4  1  0.06778244  0.66137223  0.08999449  1
  H  H5  1  0.93221756  0.66137223  0.41000651  1
  H  H6  1  0.06778244  0.33862677  0.58999449  1
  H  H7  1  0.93221756  0.33862677  0.91000551  1
  Se  Se8  1  0.70321758  0.68784688  0.01002949  1
  Se  Se9  1  0.29678342  0.68784688  0.48997051  1
  Se  Se10  1  0.70321658  0.31215412  0.51002849  1
  Se  Se11  1  0.29678342  0.31215412  0.98997151  1
  Cl  Cl12  1  0.49999900  0.94428312  0.25000000  1
  Cl  Cl13  1  0.49999900  0.05571788  0.75000000  1
  O  O14  1  0.96364733  0.78713629  0.07633653  1
  O  O15  1  0.67997251  0.48474416  0.11417401  1
  O  O16  1  0.24264545  0.45661108  0.11568912  1
  O  O17  1  0.75735455  0.45661108  0.38431088  1
  O  O18  1  0.32002749  0.48474416  0.38582599  1
  O  O19  1  0.03635267  0.78713629  0.42366247  1
  O  O20  1  0.96364833  0.21286471  0.57633653  1
  O  O21  1  0.67997251  0.51525684  0.61417401  1
  O  O22  1  0.24264645  0.54338792  0.61568912  1
  O  O23  1  0.75735455  0.54338792  0.88430988  1
  O  O24  1  0.32002749  0.51525684  0.88582599  1
  O  O25  1  0.03635267  0.21286471  0.92366347  1
