# generated using pymatgen
data_CoCl2
_symmetry_space_group_name_H-M   'P 1'
_cell_length_a   13.78903603
_cell_length_b   6.20524518
_cell_length_c   7.12697234
_cell_angle_alpha   150.38281937
_cell_angle_beta   165.60524443
_cell_angle_gamma   26.15188549
_symmetry_Int_Tables_number   1
_chemical_formula_structural   CoCl2
_chemical_formula_sum   'Co1 Cl2'
_cell_volume   66.81831458
_cell_formula_units_Z   1
loop_
 _symmetry_equiv_pos_site_id
 _symmetry_equiv_pos_as_xyz
  1  'x, y, z'
loop_
 _atom_site_type_symbol
 _atom_site_label
 _atom_site_symmetry_multiplicity
 _atom_site_fract_x
 _atom_site_fract_y
 _atom_site_fract_z
 _atom_site_occupancy
  Co  Co0  1  -0.00000014  0.00000044  -0.00000046  1
  Cl  Cl1  1  0.33085187  0.12335861  0.00029355  1
  Cl  Cl2  1  0.66914827  0.87664195  -0.00029308  1
