# generated using pymatgen
data_PmHgAu2
_symmetry_space_group_name_H-M   'P 1'
_cell_length_a   5.04113046
_cell_length_b   5.04112930
_cell_length_c   5.04112822
_cell_angle_alpha   59.99998589
_cell_angle_beta   59.99995462
_cell_angle_gamma   59.99997151
_symmetry_Int_Tables_number   1
_chemical_formula_structural   PmHgAu2
_chemical_formula_sum   'Pm1 Hg1 Au2'
_cell_volume   90.58749078
_cell_formula_units_Z   1
loop_
 _symmetry_equiv_pos_site_id
 _symmetry_equiv_pos_as_xyz
  1  'x, y, z'
loop_
 _atom_site_type_symbol
 _atom_site_label
 _atom_site_symmetry_multiplicity
 _atom_site_fract_x
 _atom_site_fract_y
 _atom_site_fract_z
 _atom_site_occupancy
  Pm  Pm0  1  0.75000004  0.75000007  0.75000009  1
  Hg  Hg1  1  0.25000002  0.25000004  0.25000003  1
  Au  Au2  1  0.99999996  0.00000000  0.00000008  1
  Au  Au3  1  0.50000097  0.50000088  0.50000080  1
