# generated using pymatgen
data_Ba4Na(SbO4)3
_symmetry_space_group_name_H-M   'P 1'
_cell_length_a   7.28599648
_cell_length_b   7.28599649
_cell_length_c   7.28599649
_cell_angle_alpha   109.47122067
_cell_angle_beta   109.47122068
_cell_angle_gamma   109.47122058
_symmetry_Int_Tables_number   1
_chemical_formula_structural   Ba4Na(SbO4)3
_chemical_formula_sum   'Ba4 Na1 Sb3 O12'
_cell_volume   297.74534585
_cell_formula_units_Z   1
loop_
 _symmetry_equiv_pos_site_id
 _symmetry_equiv_pos_as_xyz
  1  'x, y, z'
loop_
 _atom_site_type_symbol
 _atom_site_label
 _atom_site_symmetry_multiplicity
 _atom_site_fract_x
 _atom_site_fract_y
 _atom_site_fract_z
 _atom_site_occupancy
  O  O0  1  0.00000000  0.72783892  0.72783892  1
  O  O1  1  0.27216108  0.27216108  0.00000000  1
  O  O2  1  0.72783892  0.72783892  0.00000000  1
  O  O3  1  0.72783892  0.00000000  0.72783892  1
  O  O4  1  0.27216108  0.00000000  0.27216108  1
  O  O5  1  0.00000000  0.27216108  0.27216108  1
  O  O6  1  0.50000000  0.25000000  0.75000000  1
  O  O7  1  0.25000000  0.75000000  0.50000000  1
  O  O8  1  0.50000000  0.75000000  0.25000000  1
  O  O9  1  0.75000000  0.50000000  0.25000000  1
  O  O10  1  0.25000000  0.50000000  0.75000000  1
  O  O11  1  0.75000000  0.25000000  0.50000000  1
  Na  Na12  1  0.00000000  0.00000000  0.00000000  1
  Sb  Sb13  1  0.50000000  0.00000000  0.50000000  1
  Sb  Sb14  1  0.00000000  0.50000000  0.50000000  1
  Sb  Sb15  1  0.50000000  0.50000000  0.00000000  1
  Ba  Ba16  1  0.00000000  0.00000000  0.50000000  1
  Ba  Ba17  1  0.00000000  0.50000000  0.00000000  1
  Ba  Ba18  1  0.50000000  0.00000000  0.00000000  1
  Ba  Ba19  1  0.50000000  0.50000000  0.50000000  1
