# generated using pymatgen
data_Nb3Fe(PO4)6
_symmetry_space_group_name_H-M   'P 1'
_cell_length_a   8.98225708
_cell_length_b   8.98225769
_cell_length_c   8.98225709
_cell_angle_alpha   58.55029578
_cell_angle_beta   58.55029859
_cell_angle_gamma   58.55029934
_symmetry_Int_Tables_number   1
_chemical_formula_structural   Nb3Fe(PO4)6
_chemical_formula_sum   'Nb3 Fe1 P6 O24'
_cell_volume   495.44889998
_cell_formula_units_Z   1
loop_
 _symmetry_equiv_pos_site_id
 _symmetry_equiv_pos_as_xyz
  1  'x, y, z'
loop_
 _atom_site_type_symbol
 _atom_site_label
 _atom_site_symmetry_multiplicity
 _atom_site_fract_x
 _atom_site_fract_y
 _atom_site_fract_z
 _atom_site_occupancy
  Nb  Nb0  1  0.14063573  0.14063573  0.14063573  1
  Nb  Nb1  1  0.35855538  0.35855538  0.35855538  1
  Nb  Nb2  1  0.63985649  0.63985649  0.63985649  1
  Fe  Fe3  1  0.85809276  0.85809276  0.85809276  1
  P  P4  1  0.03260632  0.75063179  0.47081686  1
  P  P5  1  0.47081686  0.03260632  0.75063179  1
  P  P6  1  0.75063179  0.47081686  0.03260632  1
  P  P7  1  0.24287709  0.54016966  0.96516812  1
  P  P8  1  0.54016966  0.96516812  0.24287709  1
  P  P9  1  0.96516812  0.24287709  0.54016966  1
  O  O10  1  0.13301025  0.28341442  0.50075091  1
  O  O11  1  0.28341442  0.50075091  0.13301025  1
  O  O12  1  0.06271184  0.91988392  0.28847071  1
  O  O13  1  0.50075091  0.13301025  0.28341442  1
  O  O14  1  0.21061193  0.58026392  0.43430329  1
  O  O15  1  0.00824379  0.77841887  0.63442906  1
  O  O16  1  0.28847071  0.06271184  0.91988392  1
  O  O17  1  0.43430329  0.21061193  0.58026392  1
  O  O18  1  0.58026392  0.43430329  0.21061193  1
  O  O19  1  0.22038701  0.36458247  0.99662466  1
  O  O20  1  0.07820732  0.71418475  0.93905626  1
  O  O21  1  0.36458247  0.99662466  0.22038701  1
  O  O22  1  0.63442906  0.00824379  0.77841887  1
  O  O23  1  0.91988392  0.28847071  0.06271184  1
  O  O24  1  0.77841887  0.63442906  0.00824379  1
  O  O25  1  0.42108815  0.56093482  0.78998935  1
  O  O26  1  0.56093482  0.78998935  0.42108815  1
  O  O27  1  0.71418475  0.93905626  0.07820732  1
  O  O28  1  0.99662466  0.22038701  0.36458247  1
  O  O29  1  0.78998935  0.42108815  0.56093482  1
  O  O30  1  0.49636956  0.86559363  0.71906190  1
  O  O31  1  0.93905626  0.07820732  0.71418475  1
  O  O32  1  0.71906190  0.49636956  0.86559363  1
  O  O33  1  0.86559363  0.71906190  0.49636956  1
