# generated using pymatgen
data_Li3Mn3P8O29
_symmetry_space_group_name_H-M   'P 1'
_cell_length_a   9.78399008
_cell_length_b   9.78721901
_cell_length_c   14.11035106
_cell_angle_alpha   90.80050544
_cell_angle_beta   90.81595295
_cell_angle_gamma   59.56713254
_symmetry_Int_Tables_number   1
_chemical_formula_structural   Li3Mn3P8O29
_chemical_formula_sum   'Li6 Mn6 P16 O58'
_cell_volume   1164.86466935
_cell_formula_units_Z   2
loop_
 _symmetry_equiv_pos_site_id
 _symmetry_equiv_pos_as_xyz
  1  'x, y, z'
loop_
 _atom_site_type_symbol
 _atom_site_label
 _atom_site_symmetry_multiplicity
 _atom_site_fract_x
 _atom_site_fract_y
 _atom_site_fract_z
 _atom_site_occupancy
  Li  Li0  1  0.99974253  -0.00018568  0.50022117  1
  Li  Li1  1  0.00157224  0.99820672  0.99910491  1
  Li  Li2  1  0.09511246  0.22792052  0.56478713  1
  Li  Li3  1  0.22872458  0.09462040  0.06431935  1
  Li  Li4  1  0.77157133  0.90514880  0.93523513  1
  Li  Li5  1  0.90543443  0.77116255  0.43548074  1
  Mn  Mn6  1  0.00290565  0.43871493  0.75059741  1
  Mn  Mn7  1  0.99740932  0.56119904  0.24953590  1
  Mn  Mn8  1  0.43846093  0.00300213  0.25064782  1
  Mn  Mn9  1  0.56108555  0.99718595  0.74932466  1
  Mn  Mn10  1  0.43610142  0.56374869  0.75006461  1
  Mn  Mn11  1  0.56407338  0.43568845  0.25016074  1
  P  P12  1  0.09344202  0.22580602  0.34473218  1
  P  P13  1  0.22566057  0.09363864  0.84460095  1
  P  P14  1  0.09282828  0.69179439  0.83481213  1
  P  P15  1  0.33449592  0.33373255  0.13717524  1
  P  P16  1  0.33358268  0.33482383  0.63720499  1
  P  P17  1  0.22249884  0.68993999  0.34036229  1
  P  P18  1  0.31005626  0.77765781  0.15978138  1
  P  P19  1  0.69141673  0.09283553  0.33475900  1
  P  P20  1  0.30786379  0.90743578  0.66513503  1
  P  P21  1  0.68943155  0.22278941  0.84025149  1
  P  P22  1  0.77714775  0.31053331  0.65967918  1
  P  P23  1  0.66512379  0.66647676  0.86267313  1
  P  P24  1  0.66673627  0.66466814  0.36251798  1
  P  P25  1  0.90731017  0.30836688  0.16509988  1
  P  P26  1  0.77406429  0.90627992  0.15549149  1
  P  P27  1  0.90632074  0.77427654  0.65543285  1
  O  O28  1  0.98667685  0.21156186  0.26176039  1
  O  O29  1  0.99985001  0.20223126  0.08384666  1
  O  O30  1  0.08192151  0.26258959  0.83452976  1
  O  O31  1  0.21149009  0.98734335  0.76166047  1
  O  O32  1  0.20264236  0.00031670  0.58390423  1
  O  O33  1  0.26211655  0.08151205  0.33456792  1
  O  O34  1  0.09754476  0.37984051  0.32894367  1
  O  O35  1  0.18017195  0.33200857  0.66259557  1
  O  O36  1  0.09426058  0.53243873  0.82869390  1
  O  O37  1  0.97429769  0.78225518  0.56222301  1
  O  O38  1  0.01286867  0.78856146  0.73824570  1
  O  O39  1  0.08003591  0.66149310  0.33668646  1
  O  O40  1  0.33159274  0.18035379  0.16262433  1
  O  O41  1  0.37985787  0.09751617  0.82881830  1
  O  O42  1  0.18858742  0.48489591  0.17623023  1
  O  O43  1  0.31915715  0.35180582  0.02919348  1
  O  O44  1  0.35209465  0.31908028  0.52915896  1
  O  O45  1  0.32251673  0.48609364  0.67781430  1
  O  O46  1  0.53231992  0.09395346  0.32896188  1
  O  O47  1  0.48486850  0.18856472  0.67594530  1
  O  O48  1  0.26392491  0.66009867  0.83595762  1
  O  O49  1  0.20018877  0.79954717  0.25001055  1
  O  O50  1  0.21051414  0.79685793  0.07327698  1
  O  O51  1  0.20188990  0.79006684  0.42690883  1
  O  O52  1  0.38186208  0.53445499  0.33034637  1
  O  O53  1  0.48576446  0.32272748  0.17798457  1
  O  O54  1  0.34016933  0.73610229  0.66413649  1
  O  O55  1  0.53347837  0.38154642  0.83004146  1
  O  O56  1  0.66189540  0.07984433  0.83645021  1
  O  O57  1  0.21791263  0.02561646  0.93765727  1
  O  O58  1  0.78171625  0.97424946  0.06212907  1
  O  O59  1  0.78864676  0.01296230  0.23823298  1
  O  O60  1  0.33670126  0.92132881  0.16349089  1
  O  O61  1  0.46709510  0.61999241  0.17074503  1
  O  O62  1  0.66053955  0.26386134  0.33588020  1
  O  O63  1  0.51378912  0.67752291  0.82220011  1
  O  O64  1  0.61869920  0.46663623  0.67002959  1
  O  O65  1  0.79776982  0.21081261  0.57229191  1
  O  O66  1  0.78923304  0.20206032  0.92767675  1
  O  O67  1  0.79970560  0.20019228  0.74996574  1
  O  O68  1  0.73518852  0.34171008  0.16403387  1
  O  O69  1  0.51507304  0.81088248  0.32408054  1
  O  O70  1  0.46764455  0.90554984  0.67140542  1
  O  O71  1  0.67847072  0.51303274  0.32251892  1
  O  O72  1  0.68140715  0.64758513  0.97074216  1
  O  O73  1  0.64712833  0.68221993  0.47059927  1
  O  O74  1  0.81135412  0.51525184  0.82400167  1
  O  O75  1  0.62004468  0.90219123  0.17129093  1
  O  O76  1  0.66781754  0.81992858  0.83733328  1
  O  O77  1  0.92041250  0.33772273  0.66350039  1
  O  O78  1  0.02545864  0.21824155  0.43787900  1
  O  O79  1  0.90784767  0.46674844  0.17037461  1
  O  O80  1  0.81989476  0.66788170  0.33712309  1
  O  O81  1  0.90253614  0.62013824  0.67105612  1
  O  O82  1  0.73747289  0.91816737  0.66547609  1
  O  O83  1  0.79815832  0.99889118  0.41593228  1
  O  O84  1  0.91846253  0.73769647  0.16572967  1
  O  O85  1  0.99930184  0.79779108  0.91591877  1
