# generated using pymatgen
data_CaHoV2O6
_symmetry_space_group_name_H-M   'P 1'
_cell_length_a   5.34993048
_cell_length_b   5.58104288
_cell_length_c   7.64260846
_cell_angle_alpha   89.99989514
_cell_angle_beta   90.74383678
_cell_angle_gamma   89.99959240
_symmetry_Int_Tables_number   1
_chemical_formula_structural   CaHoV2O6
_chemical_formula_sum   'Ca2 Ho2 V4 O12'
_cell_volume   228.17523653
_cell_formula_units_Z   2
loop_
 _symmetry_equiv_pos_site_id
 _symmetry_equiv_pos_as_xyz
  1  'x, y, z'
loop_
 _atom_site_type_symbol
 _atom_site_label
 _atom_site_symmetry_multiplicity
 _atom_site_fract_x
 _atom_site_fract_y
 _atom_site_fract_z
 _atom_site_occupancy
  Ca  Ca0  1  0.48617245  0.44684338  0.75154308  1
  Ca  Ca1  1  0.98616044  0.05316237  0.25154610  1
  Ho  Ho2  1  0.02160222  0.93372672  0.74886517  1
  Ho  Ho3  1  0.52159955  0.56626151  0.24885565  1
  V  V4  1  0.99846338  0.49650685  -0.00005666  1
  V  V5  1  0.00073100  0.49622768  0.49989708  1
  V  V6  1  0.49845376  0.00349491  0.49993825  1
  V  V7  1  0.50073959  0.00377138  0.99988829  1
  O  O8  1  0.11142611  0.47010073  0.23866233  1
  O  O9  1  0.18919475  0.19623138  0.94438780  1
  O  O10  1  0.19448560  0.19305790  0.55299278  1
  O  O11  1  0.29269210  0.70922657  0.95030272  1
  O  O12  1  0.29398190  0.71092038  0.55228909  1
  O  O13  1  0.41124852  0.96571262  0.26112452  1
  O  O14  1  0.61142507  0.02991078  0.73866962  1
  O  O15  1  0.68918688  0.30377649  0.44438572  1
  O  O16  1  0.69450314  0.30694781  0.05299501  1
  O  O17  1  0.79400645  0.78908157  0.05227814  1
  O  O18  1  0.79268256  0.79076147  0.45029804  1
  O  O19  1  0.91124152  0.53427749  0.76113628  1
