# generated using pymatgen
data_Pr3SiAgS7
_symmetry_space_group_name_H-M   'P 1'
_cell_length_a   10.37726730
_cell_length_b   10.37713175
_cell_length_c   5.80916816
_cell_angle_alpha   90.00002634
_cell_angle_beta   90.00000215
_cell_angle_gamma   120.00363976
_symmetry_Int_Tables_number   1
_chemical_formula_structural   Pr3SiAgS7
_chemical_formula_sum   'Pr6 Si2 Ag2 S14'
_cell_volume   541.73760646
_cell_formula_units_Z   2
loop_
 _symmetry_equiv_pos_site_id
 _symmetry_equiv_pos_as_xyz
  1  'x, y, z'
loop_
 _atom_site_type_symbol
 _atom_site_label
 _atom_site_symmetry_multiplicity
 _atom_site_fract_x
 _atom_site_fract_y
 _atom_site_fract_z
 _atom_site_occupancy
  Pr  Pr0  1  0.12545352  0.36000104  0.24676369  1
  Pr  Pr1  1  0.87454825  0.63999979  0.74676249  1
  Pr  Pr2  1  0.64001150  0.76544010  0.24677443  1
  Pr  Pr3  1  0.23454928  0.87456118  0.24677902  1
  Pr  Pr4  1  0.76545151  0.12543949  0.74677814  1
  Pr  Pr5  1  0.35998959  0.23456112  0.74677282  1
  Si  Si6  1  0.33333017  0.66666846  0.66092180  1
  Si  Si7  1  0.66666991  0.33333217  0.16092164  1
  Ag  Ag8  1  0.00001118  0.00001041  0.30997240  1
  Ag  Ag9  1  0.99998943  0.99998897  0.80997328  1
  S  S10  1  0.33333700  0.66667699  0.02562843  1
  S  S11  1  0.66666258  0.33332395  0.52562846  1
  S  S12  1  0.41004040  0.52596677  0.51701646  1
  S  S13  1  0.58996009  0.47403398  0.01701600  1
  S  S14  1  0.47403861  0.88408308  0.51698882  1
  S  S15  1  0.11591242  0.58994327  0.51701005  1
  S  S16  1  0.88408771  0.41005676  0.01700968  1
  S  S17  1  0.52596055  0.11591741  0.01698886  1
  S  S18  1  0.09258882  0.26816530  0.76273445  1
  S  S19  1  0.90741240  0.73183358  0.26273599  1
  S  S20  1  0.73182291  0.82440405  0.76270066  1
  S  S21  1  0.17557971  0.90743031  0.76270827  1
  S  S22  1  0.82442121  0.09257001  0.26270803  1
  S  S23  1  0.26817725  0.17559681  0.26270013  1
