# generated using pymatgen
data_CaMo2P2O9
_symmetry_space_group_name_H-M   'P 1'
_cell_length_a   6.74183586
_cell_length_b   7.47425212
_cell_length_c   15.04679100
_cell_angle_alpha   90.00000000
_cell_angle_beta   90.00000000
_cell_angle_gamma   90.00000000
_symmetry_Int_Tables_number   1
_chemical_formula_structural   CaMo2P2O9
_chemical_formula_sum   'Ca4 Mo8 P8 O36'
_cell_volume   758.21052150
_cell_formula_units_Z   4
loop_
 _symmetry_equiv_pos_site_id
 _symmetry_equiv_pos_as_xyz
  1  'x, y, z'
loop_
 _atom_site_type_symbol
 _atom_site_label
 _atom_site_symmetry_multiplicity
 _atom_site_fract_x
 _atom_site_fract_y
 _atom_site_fract_z
 _atom_site_occupancy
  Ca  Ca0  1  0.75000000  0.89959277  0.77811707  1
  Ca  Ca1  1  0.75000000  0.60040723  0.27811707  1
  Ca  Ca2  1  0.25000100  0.39959177  0.72188293  1
  Ca  Ca3  1  0.25000100  0.10040723  0.22188293  1
  Mo  Mo4  1  0.75000000  0.36375505  0.87661212  1
  Mo  Mo5  1  0.25000100  0.63624495  0.12338788  1
  Mo  Mo6  1  0.25000100  0.86375505  0.62338788  1
  Mo  Mo7  1  0.75000000  0.13624495  0.37661212  1
  Mo  Mo8  1  0.50000000  -0.00000000  -0.00000000  1
  Mo  Mo9  1  0.50000000  0.50000000  0.50000000  1
  Mo  Mo10  1  -0.00000000  0.50000000  0.50000000  1
  Mo  Mo11  1  -0.00000000  -0.00000000  -0.00000000  1
  P  P12  1  0.25000100  0.36829124  0.92784841  1
  P  P13  1  0.75000000  0.63170876  0.07215259  1
  P  P14  1  0.75000000  0.86829124  0.57215159  1
  P  P15  1  0.25000100  0.13170976  0.42784841  1
  P  P16  1  0.75000000  0.39587446  0.69055112  1
  P  P17  1  0.75000000  0.10412554  0.19055112  1
  P  P18  1  0.25000100  0.89587446  0.80944888  1
  P  P19  1  0.25000100  0.60412454  0.30944888  1
  O  O20  1  0.05750505  0.60313622  0.36614958  1
  O  O21  1  0.55750405  0.39686278  0.63385042  1
  O  O22  1  0.94249495  0.10313622  0.13385042  1
  O  O23  1  0.44249495  0.89686378  0.86614958  1
  O  O24  1  0.94249495  0.39686278  0.63385042  1
  O  O25  1  0.44249495  0.60313622  0.36614958  1
  O  O26  1  0.05750505  0.89686378  0.86614958  1
  O  O27  1  0.55750405  0.10313622  0.13385042  1
  O  O28  1  0.25000100  0.31753523  0.47815362  1
  O  O29  1  0.75000000  0.68246577  0.52184638  1
  O  O30  1  0.75000000  0.81753423  0.02184538  1
  O  O31  1  0.25000100  0.18246577  0.97815362  1
  O  O32  1  0.75000000  0.11669481  0.93749347  1
  O  O33  1  0.25000100  0.88330519  0.06250553  1
  O  O34  1  0.25000100  0.61669481  0.56250553  1
  O  O35  1  0.75000000  0.38330619  0.43749447  1
  O  O36  1  0.75000000  0.22366550  0.74979300  1
  O  O37  1  0.25000100  0.77633450  0.25020800  1
  O  O38  1  0.25000100  0.72366550  0.75020700  1
  O  O39  1  0.75000000  0.27633550  0.24979200  1
  O  O40  1  0.43012979  0.12606437  0.36384042  1
  O  O41  1  0.93012979  0.87393563  0.63615958  1
  O  O42  1  0.56987021  0.62606337  0.13615958  1
  O  O43  1  0.06987021  0.37393563  0.86384042  1
  O  O44  1  0.56987021  0.87393563  0.63615958  1
  O  O45  1  0.06987021  0.12606437  0.36384042  1
  O  O46  1  0.43012979  0.37393563  0.86384042  1
  O  O47  1  0.93012979  0.62606337  0.13615958  1
  O  O48  1  0.75000000  0.48357329  0.00392612  1
  O  O49  1  0.25000100  0.05448489  0.74091323  1
  O  O50  1  0.25000100  0.44551411  0.24091323  1
  O  O51  1  0.75000000  0.55448489  0.75908677  1
  O  O52  1  0.75000000  0.01642671  0.50392612  1
  O  O53  1  0.25000100  0.98357329  0.49607388  1
  O  O54  1  0.25000100  0.51642571  0.99607288  1
  O  O55  1  0.75000000  0.94551511  0.25908677  1
