# generated using pymatgen
data_CaV(PO3)4
_symmetry_space_group_name_H-M   'P 1'
_cell_length_a   7.60614619
_cell_length_b   7.60095276
_cell_length_c   10.19225010
_cell_angle_alpha   98.60869829
_cell_angle_beta   110.34796728
_cell_angle_gamma   109.48031521
_symmetry_Int_Tables_number   1
_chemical_formula_structural   CaV(PO3)4
_chemical_formula_sum   'Ca2 V2 P8 O24'
_cell_volume   496.77981111
_cell_formula_units_Z   2
loop_
 _symmetry_equiv_pos_site_id
 _symmetry_equiv_pos_as_xyz
  1  'x, y, z'
loop_
 _atom_site_type_symbol
 _atom_site_label
 _atom_site_symmetry_multiplicity
 _atom_site_fract_x
 _atom_site_fract_y
 _atom_site_fract_z
 _atom_site_occupancy
  Ca  Ca0  1  0.70651694  0.95563830  0.75101967  1
  Ca  Ca1  1  0.29662745  0.04614776  0.25081941  1
  V  V2  1  0.50187010  0.50133754  0.50123825  1
  V  V3  1  0.50172616  0.00056986  0.00074529  1
  P  P4  1  0.50483448  0.31978255  0.80819220  1
  P  P5  1  0.01375056  0.69671615  0.69391009  1
  P  P6  1  0.49776542  0.68199429  0.19402003  1
  P  P7  1  0.98970013  0.30412359  0.30789945  1
  P  P8  1  0.75420486  0.71913566  0.02489900  1
  P  P9  1  0.19649132  0.73020890  0.47736993  1
  P  P10  1  0.24888405  0.28197842  0.97761821  1
  P  P11  1  0.80570560  0.27097303  0.52380869  1
  O  O12  1  0.31785694  0.32279939  0.84780944  1
  O  O13  1  0.97682850  0.46994956  0.65336839  1
  O  O14  1  0.68465496  0.67856020  0.15453785  1
  O  O15  1  0.02583573  0.53064419  0.34815708  1
  O  O16  1  0.70482326  0.50262693  0.93578618  1
  O  O17  1  0.07030926  0.77057379  0.56720548  1
  O  O18  1  0.29790286  0.49812379  0.06712973  1
  O  O19  1  0.93175473  0.22991195  0.43407289  1
  O  O20  1  0.46649099  0.35085478  0.66220510  1
  O  O21  1  0.19029841  0.80337027  0.84031355  1
  O  O22  1  0.53630717  0.65248744  0.34047505  1
  O  O23  1  0.81410526  0.19676031  0.16112713  1
  O  O24  1  0.53803505  0.13842065  0.83139093  1
  O  O25  1  0.80935941  0.70695829  0.67044081  1
  O  O26  1  0.46416250  0.86283644  0.16977787  1
  O  O27  1  0.19474324  0.29483948  0.33237197  1
  O  O28  1  0.62031045  0.80105419  0.92765417  1
  O  O29  1  0.37596236  0.69364930  0.57419032  1
  O  O30  1  0.38325082  0.20001634  0.07438482  1
  O  O31  1  0.62712366  0.30886682  0.42722378  1
  O  O32  1  0.98077415  0.83137910  0.08993647  1
  O  O33  1  0.24283726  0.89155636  0.41193476  1
  O  O34  1  0.02235293  0.16930389  0.91286013  1
  O  O35  1  0.75783600  0.10925847  0.58873687  1
