# generated using pymatgen
data_CaLaTiFeO6
_symmetry_space_group_name_H-M   'P 1'
_cell_length_a   5.56980732
_cell_length_b   5.51302363
_cell_length_c   7.80931400
_cell_angle_alpha   90.03667328
_cell_angle_beta   90.00000000
_cell_angle_gamma   90.00000000
_symmetry_Int_Tables_number   1
_chemical_formula_structural   CaLaTiFeO6
_chemical_formula_sum   'Ca2 La2 Ti2 Fe2 O12'
_cell_volume   239.79649028
_cell_formula_units_Z   2
loop_
 _symmetry_equiv_pos_site_id
 _symmetry_equiv_pos_as_xyz
  1  'x, y, z'
loop_
 _atom_site_type_symbol
 _atom_site_label
 _atom_site_symmetry_multiplicity
 _atom_site_fract_x
 _atom_site_fract_y
 _atom_site_fract_z
 _atom_site_occupancy
  Ca  Ca0  1  0.53997603  0.51171286  0.25007364  1
  Ca  Ca1  1  0.96002397  0.01171286  0.75007364  1
  La  La2  1  0.03123459  0.99204641  0.24930157  1
  La  La3  1  0.46876541  0.49204641  0.74930157  1
  Ti  Ti4  1  0.50027809  0.00013409  0.49837251  1
  Ti  Ti5  1  0.99972191  0.50013409  0.99837251  1
  Fe  Fe6  1  0.50000670  0.99976284  0.00025992  1
  Fe  Fe7  1  -0.00000670  0.49976284  0.50025992  1
  O  O8  1  0.01766592  0.58463261  0.75460016  1
  O  O9  1  0.21097082  0.21903728  0.95630211  1
  O  O10  1  0.21985149  0.21055176  0.54556294  1
  O  O11  1  0.28014851  0.71055176  0.04556294  1
  O  O12  1  0.28902918  0.71903728  0.45630211  1
  O  O13  1  0.48233408  0.08463261  0.25459916  1
  O  O14  1  0.52082406  0.92082052  0.74615822  1
  O  O15  1  0.71574418  0.27648934  0.54255815  1
  O  O16  1  0.72131449  0.28481130  0.95681178  1
  O  O17  1  0.77868551  0.78481130  0.45681178  1
  O  O18  1  0.78425582  0.77648934  0.04255815  1
  O  O19  1  0.97917594  0.42082052  0.24615822  1
