# generated using pymatgen
data_CaPr(FeO3)2
_symmetry_space_group_name_H-M   'P 1'
_cell_length_a   5.47764632
_cell_length_b   5.54056356
_cell_length_c   7.76342203
_cell_angle_alpha   90.00152222
_cell_angle_beta   89.99735374
_cell_angle_gamma   90.00027295
_symmetry_Int_Tables_number   1
_chemical_formula_structural   CaPr(FeO3)2
_chemical_formula_sum   'Ca2 Pr2 Fe4 O12'
_cell_volume   235.61401721
_cell_formula_units_Z   2
loop_
 _symmetry_equiv_pos_site_id
 _symmetry_equiv_pos_as_xyz
  1  'x, y, z'
loop_
 _atom_site_type_symbol
 _atom_site_label
 _atom_site_symmetry_multiplicity
 _atom_site_fract_x
 _atom_site_fract_y
 _atom_site_fract_z
 _atom_site_occupancy
  Ca  Ca0  1  0.49112116  0.45830433  0.74999014  1
  Ca  Ca1  1  0.99110364  0.04171461  0.25000047  1
  Pr  Pr2  1  0.00987091  0.95900497  0.74999662  1
  Pr  Pr3  1  0.50983895  0.54096385  0.24999961  1
  Fe  Fe4  1  0.00050111  0.49794992  0.99966713  1
  Fe  Fe5  1  0.00047916  0.49794642  0.50032857  1
  Fe  Fe6  1  0.50049000  0.00207257  0.49969944  1
  Fe  Fe7  1  0.50046030  0.00207131  0.00035006  1
  O  O8  1  0.07757560  0.48072165  0.24998207  1
  O  O9  1  0.21406280  0.21299891  0.95918165  1
  O  O10  1  0.21408989  0.21293585  0.54082060  1
  O  O11  1  0.28632192  0.71284070  0.54332374  1
  O  O12  1  0.28639773  0.71289531  0.95667646  1
  O  O13  1  0.41967070  0.98177668  0.25001243  1
  O  O14  1  0.57757978  0.01927606  0.75000008  1
  O  O15  1  0.71404446  0.28700342  0.04081249  1
  O  O16  1  0.71405992  0.28699924  0.45916487  1
  O  O17  1  0.78632471  0.78716496  0.04332000  1
  O  O18  1  0.78633240  0.78715769  0.45667375  1
  O  O19  1  0.91967185  0.51820254  0.74999983  1
