# generated using pymatgen
data_Li2VO2F
_symmetry_space_group_name_H-M   'P 1'
_cell_length_a   3.01985745
_cell_length_b   10.38798052
_cell_length_c   7.91577854
_cell_angle_alpha   72.01630369
_cell_angle_beta   101.11791695
_cell_angle_gamma   89.97823548
_symmetry_Int_Tables_number   1
_chemical_formula_structural   Li2VO2F
_chemical_formula_sum   'Li8 V4 O8 F4'
_cell_volume   231.27717277
_cell_formula_units_Z   4
loop_
 _symmetry_equiv_pos_site_id
 _symmetry_equiv_pos_as_xyz
  1  'x, y, z'
loop_
 _atom_site_type_symbol
 _atom_site_label
 _atom_site_symmetry_multiplicity
 _atom_site_fract_x
 _atom_site_fract_y
 _atom_site_fract_z
 _atom_site_occupancy
  Li  Li0  1  0.42094308  0.13046862  0.83434510  1
  Li  Li1  1  0.07683495  0.13822459  0.15705267  1
  Li  Li2  1  0.06737074  0.61454773  0.14259297  1
  Li  Li3  1  0.43626660  0.59342556  0.87686801  1
  Li  Li4  1  0.92739266  0.37445761  0.86674432  1
  Li  Li5  1  0.56467330  0.89765049  0.13682663  1
  Li  Li6  1  0.56847183  0.39762507  0.13458326  1
  Li  Li7  1  0.91883589  0.86973692  0.84590176  1
  V  V8  1  0.25540981  0.37315385  0.49858258  1
  V  V9  1  0.24918496  0.88203510  0.50065430  1
  V  V10  1  0.74643259  0.12635047  0.50013109  1
  V  V11  1  0.75992475  0.61070628  0.52386275  1
  O  O12  1  0.32219247  0.00485371  0.65447130  1
  O  O13  1  0.33434638  0.50221293  0.65520434  1
  O  O14  1  0.17468987  0.24109909  0.35320398  1
  O  O15  1  0.00034781  0.49888972  0.00112308  1
  O  O16  1  0.82802418  0.25458037  0.65174003  1
  O  O17  1  0.81790495  0.76221095  0.63067130  1
  O  O18  1  0.68841632  0.49956828  0.35805856  1
  O  O19  1  0.66518773  0.99511773  0.34364056  1
  F  F20  1  0.16986858  0.74373638  0.34185793  1
  F  F21  1  0.99583231  0.00130000  0.00073202  1
  F  F22  1  0.49934706  0.23959967  0.00100142  1
  F  F23  1  0.49932520  0.76299789  0.00546605  1
