# generated using pymatgen
data_Sr2La2FeCu3O10
_symmetry_space_group_name_H-M   'P 1'
_cell_length_a   3.99096099
_cell_length_b   10.70172502
_cell_length_c   10.78159673
_cell_angle_alpha   90.00000000
_cell_angle_beta   90.00000000
_cell_angle_gamma   90.00000000
_symmetry_Int_Tables_number   1
_chemical_formula_structural   Sr2La2FeCu3O10
_chemical_formula_sum   'Sr4 La4 Fe2 Cu6 O20'
_cell_volume   460.48379773
_cell_formula_units_Z   2
loop_
 _symmetry_equiv_pos_site_id
 _symmetry_equiv_pos_as_xyz
  1  'x, y, z'
loop_
 _atom_site_type_symbol
 _atom_site_label
 _atom_site_symmetry_multiplicity
 _atom_site_fract_x
 _atom_site_fract_y
 _atom_site_fract_z
 _atom_site_occupancy
  Sr  Sr0  1  0.50000000  0.51841758  0.25146435  1
  Sr  Sr1  1  0.50000000  0.48158242  0.74853565  1
  Sr  Sr2  1  0.50000000  0.01841758  0.24853565  1
  Sr  Sr3  1  0.50000000  0.98158242  0.75146435  1
  La  La4  1  0.50000000  0.25503006  0.47149085  1
  La  La5  1  0.50000000  0.74496994  0.52850915  1
  La  La6  1  0.50000000  0.24496994  0.97149085  1
  La  La7  1  0.50000000  0.75503006  0.02850915  1
  Fe  Fe8  1  0.00000000  -0.00000000  0.00000000  1
  Fe  Fe9  1  -0.00000000  0.50000000  0.50000000  1
  Cu  Cu10  1  -0.00000000  -0.00000000  0.50000000  1
  Cu  Cu11  1  -0.00000000  0.50000000  -0.00000000  1
  Cu  Cu12  1  0.00000000  0.23196456  0.72871895  1
  Cu  Cu13  1  -0.00000000  0.73196456  0.77128105  1
  Cu  Cu14  1  -0.00000000  0.26803544  0.22871895  1
  Cu  Cu15  1  0.00000000  0.76803544  0.27128105  1
  O  O16  1  0.00000000  0.39720510  0.34653887  1
  O  O17  1  0.00000000  0.33519898  0.58930165  1
  O  O18  1  0.00000000  0.10279490  0.84653887  1
  O  O19  1  0.00000000  0.66480102  0.41069835  1
  O  O20  1  0.00000000  0.60279490  0.65346113  1
  O  O21  1  0.00000000  0.37155319  0.88357731  1
  O  O22  1  0.00000000  0.87155319  0.61642269  1
  O  O23  1  0.00000000  0.83519898  0.91069835  1
  O  O24  1  0.50000000  0.00000000  -0.00000000  1
  O  O25  1  0.50000000  0.26786651  0.22805076  1
  O  O26  1  0.50000000  -0.00000000  0.50000000  1
  O  O27  1  0.50000000  0.23213349  0.72805076  1
  O  O28  1  0.50000000  0.50000000  -0.00000000  1
  O  O29  1  0.50000000  0.76786651  0.27194924  1
  O  O30  1  0.50000000  0.73213349  0.77194924  1
  O  O31  1  0.50000000  0.50000000  0.50000000  1
  O  O32  1  0.00000000  0.12844681  0.38357731  1
  O  O33  1  0.00000000  0.16480102  0.08930165  1
  O  O34  1  0.00000000  0.62844681  0.11642269  1
  O  O35  1  0.00000000  0.89720510  0.15346113  1
