# generated using pymatgen
data_Li2VO2F
_symmetry_space_group_name_H-M   'P 1'
_cell_length_a   3.03469534
_cell_length_b   10.34370928
_cell_length_c   7.89694546
_cell_angle_alpha   72.55223373
_cell_angle_beta   101.14226574
_cell_angle_gamma   89.87674879
_symmetry_Int_Tables_number   1
_chemical_formula_structural   Li2VO2F
_chemical_formula_sum   'Li8 V4 O8 F4'
_cell_volume   231.54390749
_cell_formula_units_Z   4
loop_
 _symmetry_equiv_pos_site_id
 _symmetry_equiv_pos_as_xyz
  1  'x, y, z'
loop_
 _atom_site_type_symbol
 _atom_site_label
 _atom_site_symmetry_multiplicity
 _atom_site_fract_x
 _atom_site_fract_y
 _atom_site_fract_z
 _atom_site_occupancy
  Li  Li0  1  0.42028056  0.11992882  0.83966342  1
  Li  Li1  1  0.08016087  0.12863412  0.15995197  1
  Li  Li2  1  0.06040435  0.64704022  0.12207196  1
  Li  Li3  1  0.43070496  0.62797284  0.86075975  1
  Li  Li4  1  0.92523793  0.36506946  0.85193704  1
  Li  Li5  1  0.56126668  0.88457879  0.12038372  1
  Li  Li6  1  0.58065320  0.38270437  0.15848273  1
  Li  Li7  1  0.93112806  0.85012958  0.86783680  1
  V  V8  1  0.25303812  0.37226209  0.50117972  1
  V  V9  1  0.25197592  0.88202924  0.50632042  1
  V  V10  1  0.75382085  0.12762679  0.49783519  1
  V  V11  1  0.74604561  0.61051741  0.51717457  1
  O  O12  1  0.33977104  0.01190002  0.64698682  1
  O  O13  1  0.33218911  0.50320133  0.65835968  1
  O  O14  1  0.16572338  0.24619388  0.34561730  1
  O  O15  1  0.82174014  0.25499379  0.65371465  1
  O  O16  1  0.80674709  0.75773548  0.63266337  1
  O  O17  1  0.68966913  0.49152066  0.35904028  1
  O  O18  1  0.68716927  0.99513030  0.34704813  1
  O  O19  1  0.49831988  0.75074764  0.00017068  1
  F  F20  1  0.16115560  0.73995178  0.35022855  1
  F  F21  1  0.00129144  0.00986970  0.00060155  1
  F  F22  1  0.00178061  0.49072566  0.00116294  1
  F  F23  1  0.49964418  0.24953605  0.00080975  1
