# generated using pymatgen
data_Ca2Al4Si4O17
_symmetry_space_group_name_H-M   'P 1'
_cell_length_a   8.58378117
_cell_length_b   9.40193566
_cell_length_c   11.52477848
_cell_angle_alpha   114.07304381
_cell_angle_beta   99.25600054
_cell_angle_gamma   90.00000000
_symmetry_Int_Tables_number   1
_chemical_formula_structural   Ca2Al4Si4O17
_chemical_formula_sum   'Ca4 Al8 Si8 O34'
_cell_volume   835.92198185
_cell_formula_units_Z   2
loop_
 _symmetry_equiv_pos_site_id
 _symmetry_equiv_pos_as_xyz
  1  'x, y, z'
loop_
 _atom_site_type_symbol
 _atom_site_label
 _atom_site_symmetry_multiplicity
 _atom_site_fract_x
 _atom_site_fract_y
 _atom_site_fract_z
 _atom_site_occupancy
  Ca  Ca0  1  0.55795351  0.48344241  0.33145007  1
  Ca  Ca1  1  0.94204649  0.15199234  0.66854993  1
  Ca  Ca2  1  0.44204649  0.51655759  0.66854993  1
  Ca  Ca3  1  0.05795351  0.84800766  0.33145007  1
  Al  Al4  1  0.14507639  0.78213327  0.81098413  1
  Al  Al5  1  0.35492361  0.97114914  0.18901587  1
  Al  Al6  1  0.85492361  0.21786673  0.18901587  1
  Al  Al7  1  0.64507639  0.02885086  0.81098413  1
  Al  Al8  1  0.78866078  0.48464687  0.59302898  1
  Al  Al9  1  0.71133922  0.89161790  0.40697102  1
  Al  Al10  1  0.21133922  0.51535313  0.40697102  1
  Al  Al11  1  0.28866078  0.10838210  0.59302898  1
  Si  Si12  1  0.80869980  0.74197001  0.87458851  1
  Si  Si13  1  0.69130020  0.86738149  0.12541149  1
  Si  Si14  1  0.19130020  0.25802999  0.12541149  1
  Si  Si15  1  0.30869980  0.13261851  0.87458851  1
  Si  Si16  1  0.94967520  0.70673702  0.51542700  1
  Si  Si17  1  0.55032480  0.19131002  0.48457300  1
  Si  Si18  1  0.05032480  0.29326298  0.48457300  1
  Si  Si19  1  0.44967520  0.80868998  0.51542700  1
  O  O20  1  0.73850392  0.89567499  0.86191977  1
  O  O21  1  0.76149608  0.03375522  0.13808023  1
  O  O22  1  0.26149608  0.10432501  0.13808023  1
  O  O23  1  0.23850392  0.96624478  0.86191977  1
  O  O24  1  0.99930210  0.74518274  0.88625824  1
  O  O25  1  0.50069790  0.85892450  0.11374176  1
  O  O26  1  0.00069790  0.25481726  0.11374176  1
  O  O27  1  0.49930210  0.14107550  0.88625824  1
  O  O28  1  0.72483564  0.58545933  0.74221069  1
  O  O29  1  0.77516436  0.84324864  0.25778931  1
  O  O30  1  0.27516436  0.41454067  0.25778931  1
  O  O31  1  0.22483564  0.15675136  0.74221069  1
  O  O32  1  0.55703988  0.91285416  0.65068073  1
  O  O33  1  0.94296012  0.26217343  0.34931927  1
  O  O34  1  0.44296012  0.08714584  0.34931927  1
  O  O35  1  0.05703988  0.73782657  0.65068073  1
  O  O36  1  0.94851436  0.36959965  0.60447652  1
  O  O37  1  0.55148564  0.76512312  0.39552348  1
  O  O38  1  0.05148564  0.63040035  0.39552348  1
  O  O39  1  0.44851436  0.23487688  0.60447652  1
  O  O40  1  0.79679278  0.58703648  0.49378664  1
  O  O41  1  0.70320722  0.09324984  0.50621336  1
  O  O42  1  0.20320722  0.41296352  0.50621336  1
  O  O43  1  0.29679278  0.90675016  0.49378664  1
  O  O44  1  0.89045254  0.86779030  0.50179904  1
  O  O45  1  0.60954746  0.36599127  0.49820096  1
  O  O46  1  0.10954746  0.13220970  0.49820096  1
  O  O47  1  0.39045254  0.63400873  0.50179904  1
  O  O48  1  0.75000000  0.72933514  0.00000000  1
  O  O49  1  0.25000000  0.27066486  1.00000000  1
  O  O50  1  0.68903345  0.32892002  0.18131037  1
  O  O51  1  0.81096655  0.14760965  0.81868963  1
  O  O52  1  0.31096655  0.67107998  0.81868963  1
  O  O53  1  0.18903345  0.85239035  0.18131037  1
