# generated using pymatgen
data_Li2VBO4
_symmetry_space_group_name_H-M   'P 1'
_cell_length_a   5.03323548
_cell_length_b   5.03323548
_cell_length_c   6.21703215
_cell_angle_alpha   90.00000000
_cell_angle_beta   90.00000000
_cell_angle_gamma   87.05286764
_symmetry_Int_Tables_number   1
_chemical_formula_structural   Li2VBO4
_chemical_formula_sum   'Li4 V2 B2 O8'
_cell_volume   157.29062354
_cell_formula_units_Z   2
loop_
 _symmetry_equiv_pos_site_id
 _symmetry_equiv_pos_as_xyz
  1  'x, y, z'
loop_
 _atom_site_type_symbol
 _atom_site_label
 _atom_site_symmetry_multiplicity
 _atom_site_fract_x
 _atom_site_fract_y
 _atom_site_fract_z
 _atom_site_occupancy
  Li  Li0  1  0.32323286  0.67676714  0.50000000  1
  Li  Li1  1  0.19567919  0.19567919  0.75000000  1
  Li  Li2  1  0.80432081  0.80432081  0.25000000  1
  Li  Li3  1  0.67676714  0.32323286  0.00000000  1
  V  V4  1  0.18663539  0.18663539  0.25000000  1
  V  V5  1  0.81336461  0.81336461  0.75000000  1
  B  B6  1  0.32045289  0.67954711  -0.00000000  1
  B  B7  1  0.67954711  0.32045289  0.50000000  1
  O  O8  1  0.19807192  0.79958522  0.19970510  1
  O  O9  1  0.20041478  0.80192808  0.80029490  1
  O  O10  1  0.28494126  0.38389266  0.00235563  1
  O  O11  1  0.61610734  0.71505874  0.99764437  1
  O  O12  1  0.38389266  0.28494126  0.49764437  1
  O  O13  1  0.71505874  0.61610734  0.50235563  1
  O  O14  1  0.79958522  0.19807192  0.30029490  1
  O  O15  1  0.80192808  0.20041478  0.69970510  1
