# generated using pymatgen
data_Dy3TaO7
_symmetry_space_group_name_H-M   'P 1'
_cell_length_a   6.38570479
_cell_length_b   6.49870237
_cell_length_c   7.60451734
_cell_angle_alpha   73.26369777
_cell_angle_beta   89.63466902
_cell_angle_gamma   82.61183546
_symmetry_Int_Tables_number   1
_chemical_formula_structural   Dy3TaO7
_chemical_formula_sum   'Dy6 Ta2 O14'
_cell_volume   299.54529149
_cell_formula_units_Z   2
loop_
 _symmetry_equiv_pos_site_id
 _symmetry_equiv_pos_as_xyz
  1  'x, y, z'
loop_
 _atom_site_type_symbol
 _atom_site_label
 _atom_site_symmetry_multiplicity
 _atom_site_fract_x
 _atom_site_fract_y
 _atom_site_fract_z
 _atom_site_occupancy
  Dy  Dy0  1  0.26156436  0.46234524  0.88534851  1
  Dy  Dy1  1  0.26799364  0.45337137  0.39254212  1
  Dy  Dy2  1  0.45448386  0.99197710  0.24952817  1
  Dy  Dy3  1  0.54551614  0.00802290  0.75047183  1
  Dy  Dy4  1  0.73200636  0.54662863  0.60745688  1
  Dy  Dy5  1  0.73843564  0.53765476  0.11465149  1
  Ta  Ta6  1  0.00000000  0.00000000  0.00000000  1
  Ta  Ta7  1  0.00000000  0.00000000  0.50000000  1
  O  O8  1  0.29237173  0.06568941  0.51843336  1
  O  O9  1  0.07519487  0.68103253  0.04175107  1
  O  O10  1  0.29268703  0.07091128  0.94939930  1
  O  O11  1  0.06872703  0.67039383  0.61238294  1
  O  O12  1  0.09083940  0.94457617  0.26442075  1
  O  O13  1  0.44104883  0.34858441  0.16587520  1
  O  O14  1  0.45607787  0.36225243  0.65831983  1
  O  O15  1  0.54392213  0.63774757  0.34168017  1
  O  O16  1  0.55895117  0.65141559  0.83412480  1
  O  O17  1  0.90916060  0.05542383  0.73557925  1
  O  O18  1  0.93127297  0.32960617  0.38761706  1
  O  O19  1  0.70731297  0.92908872  0.05060070  1
  O  O20  1  0.92480513  0.31896747  0.95824893  1
  O  O21  1  0.70762827  0.93431059  0.48156664  1
