# generated using pymatgen
data_Pr3CBr5
_symmetry_space_group_name_H-M   'P 1'
_cell_length_a   7.72667683
_cell_length_b   9.21519844
_cell_length_c   9.28340743
_cell_angle_alpha   108.48846702
_cell_angle_beta   97.56764233
_cell_angle_gamma   106.11980053
_symmetry_Int_Tables_number   1
_chemical_formula_structural   Pr3CBr5
_chemical_formula_sum   'Pr6 C2 Br10'
_cell_volume   584.46336367
_cell_formula_units_Z   2
loop_
 _symmetry_equiv_pos_site_id
 _symmetry_equiv_pos_as_xyz
  1  'x, y, z'
loop_
 _atom_site_type_symbol
 _atom_site_label
 _atom_site_symmetry_multiplicity
 _atom_site_fract_x
 _atom_site_fract_y
 _atom_site_fract_z
 _atom_site_occupancy
  Pr  Pr0  1  0.88761935  0.95763788  0.23268951  1
  Pr  Pr1  1  0.11238065  0.04236212  0.76731049  1
  Pr  Pr2  1  0.02522205  0.71716683  0.91506285  1
  Pr  Pr3  1  0.97477795  0.28283317  0.08493715  1
  Pr  Pr4  1  0.60729808  0.84299050  0.79547780  1
  Pr  Pr5  1  0.39270192  0.15700950  0.20452220  1
  C  C6  1  0.90803079  0.96550432  0.95348720  1
  C  C7  1  0.09196921  0.03449568  0.04651280  1
  Br  Br8  1  0.74401353  0.91396801  0.53226435  1
  Br  Br9  1  0.25598647  0.08603199  0.46773565  1
  Br  Br10  1  0.45566107  0.82016704  0.08455699  1
  Br  Br11  1  0.54433893  0.17983296  0.91544301  1
  Br  Br12  1  0.82610297  0.27300987  0.36250887  1
  Br  Br13  1  0.17389703  0.72699013  0.63749113  1
  Br  Br14  1  0.90875165  0.62786982  0.17679145  1
  Br  Br15  1  0.09124835  0.37213018  0.82320855  1
  Br  Br16  1  0.64461750  0.52411866  0.71651014  1
  Br  Br17  1  0.35538250  0.47588134  0.28348986  1
