# generated using pymatgen
data_Na3Mg4CrSi8(O11F)2
_symmetry_space_group_name_H-M   'P 1'
_cell_length_a   10.72090160
_cell_length_b   9.85086660
_cell_length_c   10.26503487
_cell_angle_alpha   61.37555062
_cell_angle_beta   83.74101373
_cell_angle_gamma   76.83593761
_symmetry_Int_Tables_number   1
_chemical_formula_structural   Na3Mg4CrSi8(O11F)2
_chemical_formula_sum   'Na6 Mg8 Cr2 Si16 O44 F4'
_cell_volume   926.58685033
_cell_formula_units_Z   2
loop_
 _symmetry_equiv_pos_site_id
 _symmetry_equiv_pos_as_xyz
  1  'x, y, z'
loop_
 _atom_site_type_symbol
 _atom_site_label
 _atom_site_symmetry_multiplicity
 _atom_site_fract_x
 _atom_site_fract_y
 _atom_site_fract_z
 _atom_site_occupancy
  Na  Na0  1  0.00006650  0.49981084  0.99948739  1
  Na  Na1  1  0.25224307  0.27613846  0.45080822  1
  Na  Na2  1  0.24775693  0.72386154  0.54919178  1
  Na  Na3  1  0.49993350  0.50018916  0.00051261  1
  Na  Na4  1  0.74784578  0.27340600  0.45054731  1
  Na  Na5  1  0.75215422  0.72659400  0.54945269  1
  Mg  Mg6  1  0.99997104  0.99940596  0.00112357  1
  Mg  Mg7  1  0.25198743  0.08925228  0.82073990  1
  Mg  Mg8  1  0.24801257  0.91074772  0.17926010  1
  Mg  Mg9  1  0.50002896  0.00059404  0.99887643  1
  Mg  Mg10  1  0.49993401  0.18072320  0.63899484  1
  Mg  Mg11  1  0.74782641  0.09047408  0.82063843  1
  Mg  Mg12  1  0.75217359  0.90952592  0.17936157  1
  Mg  Mg13  1  0.00006599  0.81927680  0.36100516  1
  Cr  Cr14  1  -0.00005060  0.17838677  0.64363932  1
  Cr  Cr15  1  0.50005060  0.82161323  0.35636068  1
  Si  Si16  1  0.10156201  0.11793805  0.34177352  1
  Si  Si17  1  0.10217369  0.45952450  0.65717551  1
  Si  Si18  1  0.14383075  0.63400448  0.16934476  1
  Si  Si19  1  0.14354058  0.80268209  0.82812491  1
  Si  Si20  1  0.35645942  0.19731791  0.17187509  1
  Si  Si21  1  0.35616925  0.36599552  0.83065524  1
  Si  Si22  1  0.39782631  0.54047550  0.34282449  1
  Si  Si23  1  0.39843799  0.88206195  0.65822648  1
  Si  Si24  1  0.60240887  0.11587827  0.34377658  1
  Si  Si25  1  0.60120984  0.45996383  0.65861966  1
  Si  Si26  1  0.64386618  0.63102026  0.17106076  1
  Si  Si27  1  0.64375699  0.80412679  0.82981701  1
  Si  Si28  1  0.85624301  0.19587321  0.17018299  1
  Si  Si29  1  0.85613382  0.36897974  0.82893924  1
  Si  Si30  1  0.89879016  0.54003617  0.34138034  1
  Si  Si31  1  0.89759113  0.88412173  0.65622342  1
  O  O32  1  0.03571917  0.52421653  0.24910461  1
  O  O33  1  0.09801618  0.11646091  0.50021456  1
  O  O34  1  0.03461252  0.77511328  0.74849838  1
  O  O35  1  0.10121518  0.60863063  0.49900990  1
  O  O36  1  0.13199062  0.28375447  0.66595166  1
  O  O37  1  0.10682255  0.80403173  0.16656082  1
  O  O38  1  0.14851247  0.65591658  0.99863049  1
  O  O39  1  0.21499497  0.22193596  0.24409661  1
  O  O40  1  0.13674849  0.95246814  0.33551558  1
  O  O41  1  0.10411863  0.97472048  0.82583440  1
  O  O42  1  0.21393965  0.46043521  0.75957754  1
  O  O43  1  0.28606035  0.53956479  0.24042246  1
  O  O44  1  0.35148753  0.34408342  0.00136951  1
  O  O45  1  0.39588137  0.02527952  0.17416560  1
  O  O46  1  0.36325151  0.04753186  0.66448442  1
  O  O47  1  0.28500503  0.77806404  0.75590339  1
  O  O48  1  0.39317745  0.19596827  0.83343918  1
  O  O49  1  0.36800938  0.71624553  0.33404834  1
  O  O50  1  0.39878482  0.39136937  0.50099010  1
  O  O51  1  0.46538748  0.22488672  0.25150162  1
  O  O52  1  0.40198382  0.88353909  0.49978544  1
  O  O53  1  0.46428083  0.47578347  0.75089539  1
  O  O54  1  0.53458419  0.52432230  0.25003684  1
  O  O55  1  0.60179678  0.10717715  0.50186990  1
  O  O56  1  0.53554154  0.77411454  0.75003815  1
  O  O57  1  0.59742214  0.61655141  0.50024487  1
  O  O58  1  0.63664770  0.28838663  0.66463137  1
  O  O59  1  0.60446605  0.80042138  0.17390932  1
  O  O60  1  0.64903550  0.65507855  0.00037822  1
  O  O61  1  0.71405670  0.21912145  0.24135850  1
  O  O62  1  0.63207848  0.94900254  0.33466312  1
  O  O63  1  0.60670417  0.97107338  0.83327962  1
  O  O64  1  0.71498430  0.46631133  0.75600331  1
  O  O65  1  0.78501570  0.53368867  0.24399669  1
  O  O66  1  0.85096450  0.34492145  0.99962178  1
  O  O67  1  0.89329583  0.02892662  0.16672038  1
  O  O68  1  0.86792152  0.05099746  0.66533688  1
  O  O69  1  0.78594330  0.78087855  0.75864150  1
  O  O70  1  0.89553395  0.19957862  0.82609068  1
  O  O71  1  0.86335230  0.71161337  0.33536863  1
  O  O72  1  0.90257786  0.38344859  0.49975513  1
  O  O73  1  0.96445846  0.22588546  0.24996185  1
  O  O74  1  0.89820322  0.89282285  0.49813010  1
  O  O75  1  0.96541581  0.47567770  0.74996316  1
  F  F76  1  0.14715293  0.10255655  0.99919139  1
  F  F77  1  0.35284707  0.89744345  0.00080861  1
  F  F78  1  0.64713032  0.10151913  0.00149336  1
  F  F79  1  0.85286968  0.89848087  0.99850664  1
