# generated using pymatgen
data_NdPaO4
_symmetry_space_group_name_H-M   'P 1'
_cell_length_a   7.79941418
_cell_length_b   10.28195980
_cell_length_c   6.69983805
_cell_angle_alpha   29.26445416
_cell_angle_beta   54.40444425
_cell_angle_gamma   40.66317394
_symmetry_Int_Tables_number   1
_chemical_formula_structural   NdPaO4
_chemical_formula_sum   'Nd2 Pa2 O8'
_cell_volume   165.70163546
_cell_formula_units_Z   2
loop_
 _symmetry_equiv_pos_site_id
 _symmetry_equiv_pos_as_xyz
  1  'x, y, z'
loop_
 _atom_site_type_symbol
 _atom_site_label
 _atom_site_symmetry_multiplicity
 _atom_site_fract_x
 _atom_site_fract_y
 _atom_site_fract_z
 _atom_site_occupancy
  Nd  Nd0  1  0.50000000  0.00000000  0.00000000  1
  Nd  Nd1  1  0.25000000  0.50000000  0.00000000  1
  Pa  Pa2  1  0.00000000  0.00000000  0.00000000  1
  Pa  Pa3  1  0.75000000  0.50000000  0.00000000  1
  O  O4  1  0.10552850  0.01947150  0.23052850  1
  O  O5  1  0.64447150  0.98052850  0.26947150  1
  O  O6  1  0.37500000  0.98052850  0.76947150  1
  O  O7  1  0.37500000  0.51947150  0.23052850  1
  O  O8  1  0.10552850  0.51947150  0.73052850  1
  O  O9  1  0.87500000  0.01947150  0.73052850  1
  O  O10  1  0.87500000  0.48052850  0.26947150  1
  O  O11  1  0.64447150  0.48052850  0.76947150  1
