# generated using pymatgen
data_Nd5Te7WCl3O23
_symmetry_space_group_name_H-M   'P 1'
_cell_length_a   7.72288299
_cell_length_b   10.03633950
_cell_length_c   18.52732301
_cell_angle_alpha   92.65490990
_cell_angle_beta   83.08527369
_cell_angle_gamma   112.62797266
_symmetry_Int_Tables_number   1
_chemical_formula_structural   Nd5Te7WCl3O23
_chemical_formula_sum   'Nd10 Te14 W2 Cl6 O46'
_cell_volume   1315.85895201
_cell_formula_units_Z   2
loop_
 _symmetry_equiv_pos_site_id
 _symmetry_equiv_pos_as_xyz
  1  'x, y, z'
loop_
 _atom_site_type_symbol
 _atom_site_label
 _atom_site_symmetry_multiplicity
 _atom_site_fract_x
 _atom_site_fract_y
 _atom_site_fract_z
 _atom_site_occupancy
  Nd  Nd0  1  0.24004196  0.48008392  0.50000000  1
  Nd  Nd1  1  0.75744745  0.51489490  0.50000000  1
  Nd  Nd2  1  0.47732829  0.22275996  0.13769561  1
  Nd  Nd3  1  0.25469957  0.77726105  0.13737427  1
  Nd  Nd4  1  0.52256147  0.77726105  0.86262573  1
  Nd  Nd5  1  0.74543167  0.22275996  0.86230439  1
  Nd  Nd6  1  0.29927547  0.48008371  0.26206551  1
  Nd  Nd7  1  0.81703771  0.51767839  0.26196552  1
  Nd  Nd8  1  0.70064068  0.51767839  0.73803448  1
  Nd  Nd9  1  0.18080825  0.48008371  0.73793449  1
  Te  Te10  1  0.04057488  0.34046275  0.11009030  1
  Te  Te11  1  0.70030768  0.65976481  0.11011225  1
  Te  Te12  1  0.95945714  0.65976481  0.88988775  1
  Te  Te13  1  0.29988787  0.34046275  0.88990970  1
  Te  Te14  1  0.83797735  0.24353367  0.38553119  1
  Te  Te15  1  0.59276953  0.75595312  0.38490254  1
  Te  Te16  1  0.16318360  0.75595312  0.61509746  1
  Te  Te17  1  0.40555632  0.24353367  0.61446881  1
  Te  Te18  1  0.00380624  0.00000957  0.23730384  1
  Te  Te19  1  0.99620334  0.00000957  0.76269616  1
  Te  Te20  1  0.36284697  0.21254338  0.35829185  1
  Te  Te21  1  0.15241878  0.78690689  0.35707623  1
  Te  Te22  1  0.63448811  0.78690689  0.64292377  1
  Te  Te23  1  0.84969641  0.21254338  0.64170815  1
  W  W24  1  0.73432428  0.00003966  0.02211741  1
  W  W25  1  0.26571538  0.00003966  0.97788259  1
  Cl  Cl26  1  0.69715345  0.39430689  -0.00000000  1
  Cl  Cl27  1  0.30285762  0.60571523  0.00000000  1
  Cl  Cl28  1  0.56240210  0.99913345  0.28648705  1
  Cl  Cl29  1  0.43673135  0.99913345  0.71351295  1
  Cl  Cl30  1  0.49947349  0.99894699  0.50000000  1
  Cl  Cl31  1  0.03108588  0.06217177  0.50000000  1
  O  O32  1  0.18313886  0.28030530  0.17013419  1
  O  O33  1  0.90284800  0.71955697  0.17027011  1
  O  O34  1  0.81670897  0.71955697  0.82972989  1
  O  O35  1  0.09716644  0.28030530  0.82986581  1
  O  O36  1  0.48230885  0.30736110  0.26661974  1
  O  O37  1  0.17577071  0.69268970  0.26627512  1
  O  O38  1  0.51691899  0.69268970  0.73372488  1
  O  O39  1  0.82505225  0.30736110  0.73338026  1
  O  O40  1  0.93383203  0.36363492  0.46510767  1
  O  O41  1  0.57357200  0.63939300  0.46542287  1
  O  O42  1  0.06582100  0.63939300  0.53457713  1
  O  O43  1  0.42980289  0.36363492  0.53489233  1
  O  O44  1  0.51251712  0.99999389  0.07646113  1
  O  O45  1  0.48747676  0.99999389  0.92353887  1
  O  O46  1  0.10324311  0.51787918  0.16369826  1
  O  O47  1  0.58561400  0.48215401  0.16364079  1
  O  O48  1  0.89654001  0.48215401  0.83635921  1
  O  O49  1  0.41463608  0.51787918  0.83630174  1
  O  O50  1  0.88806723  0.00001475  0.08660225  1
  O  O51  1  0.11194752  0.00001475  0.91339775  1
  O  O52  1  0.64285115  0.32729120  0.39139725  1
  O  O53  1  0.31511393  0.67278149  0.39115192  1
  O  O54  1  0.35766756  0.67278149  0.60884808  1
  O  O55  1  0.68444005  0.32729120  0.60860275  1
  O  O56  1  0.97255506  0.37785432  0.30911401  1
  O  O57  1  0.59470472  0.62216358  0.30880555  1
  O  O58  1  0.02745886  0.62216358  0.69119445  1
  O  O59  1  0.40529927  0.37785432  0.69088599  1
  O  O60  1  0.69301050  0.83738638  0.96838796  1
  O  O61  1  0.85561093  0.16262275  0.96836513  1
  O  O62  1  0.30701182  0.16262275  0.03163487  1
  O  O63  1  0.14437588  0.83738638  0.03161204  1
  O  O64  1  0.79377798  0.27345877  0.15869541  1
  O  O65  1  0.52032702  0.72658573  0.15862465  1
  O  O66  1  0.20625870  0.72658573  0.84137535  1
  O  O67  1  0.47968079  0.27345877  0.84130459  1
  O  O68  1  0.10837429  0.14750717  0.30763472  1
  O  O69  1  0.96176127  0.85304431  0.30807726  1
  O  O70  1  0.89128305  0.85304431  0.69192274  1
  O  O71  1  0.03913288  0.14750717  0.69236528  1
  O  O72  1  0.29582202  0.37119953  0.38615821  1
  O  O73  1  0.92536582  0.63138838  0.38712108  1
  O  O74  1  0.70602255  0.63138838  0.61287892  1
  O  O75  1  0.07537751  0.37119953  0.61384179  1
  O  O76  1  0.23574595  0.99984328  0.18939997  1
  O  O77  1  0.76409734  0.99984328  0.81060003  1
