# generated using pymatgen
data_Rb2TeH6SeO10
_symmetry_space_group_name_H-M   'P 1'
_cell_length_a   6.79686837
_cell_length_b   11.96142233
_cell_length_c   13.98501163
_cell_angle_alpha   106.82211757
_cell_angle_beta   90.00000000
_cell_angle_gamma   90.00000000
_symmetry_Int_Tables_number   1
_chemical_formula_structural   Rb2TeH6SeO10
_chemical_formula_sum   'Rb8 Te4 H24 Se4 O40'
_cell_volume   1088.33042068
_cell_formula_units_Z   4
loop_
 _symmetry_equiv_pos_site_id
 _symmetry_equiv_pos_as_xyz
  1  'x, y, z'
loop_
 _atom_site_type_symbol
 _atom_site_label
 _atom_site_symmetry_multiplicity
 _atom_site_fract_x
 _atom_site_fract_y
 _atom_site_fract_z
 _atom_site_occupancy
  Rb  Rb0  1  0.48707064  0.34146363  0.64557033  1
  Rb  Rb1  1  0.01292936  0.84146363  0.64557033  1
  Rb  Rb2  1  0.00028724  0.41027321  0.14542033  1
  Rb  Rb3  1  -0.00028724  0.58972679  0.85457967  1
  Rb  Rb4  1  0.98707064  0.15853637  0.35442867  1
  Rb  Rb5  1  0.49971276  0.91027321  0.14542033  1
  Rb  Rb6  1  0.51292936  0.65853637  0.35442867  1
  Rb  Rb7  1  0.50028724  0.08972679  0.85457967  1
  Te  Te8  1  0.00000000  -0.00000000  -0.00000000  1
  Te  Te9  1  0.50000000  0.50000000  -0.00000000  1
  Te  Te10  1  0.00000000  0.50000000  0.50000000  1
  Te  Te11  1  0.50000000  -0.00000000  0.50000000  1
  H  H12  1  0.33150971  0.41906054  0.43996080  1
  H  H13  1  0.47090413  0.67269129  0.93223166  1
  H  H14  1  0.22302176  0.58703584  0.64014715  1
  H  H15  1  0.25182648  0.63246570  0.10687513  1
  H  H16  1  0.43641978  0.13167601  0.39501723  1
  H  H17  1  0.27697824  0.08703584  0.64014715  1
  H  H18  1  0.06358022  0.63167601  0.39501723  1
  H  H19  1  0.02909587  0.17269129  0.93223166  1
  H  H20  1  0.29909259  0.36993319  0.86491098  1
  H  H21  1  0.70090741  0.63006681  0.13508902  1
  H  H22  1  0.66849029  0.58093946  0.56003920  1
  H  H23  1  0.79909259  0.13006681  0.13508902  1
  H  H24  1  0.24817352  0.13246570  0.10687513  1
  H  H25  1  0.83150971  0.08093946  0.56003920  1
  H  H26  1  0.74817352  0.36753430  0.89312487  1
  H  H27  1  0.77697824  0.41296416  0.35985285  1
  H  H28  1  0.16849029  0.91906054  0.43996080  1
  H  H29  1  0.52909587  0.32730871  0.06776834  1
  H  H30  1  0.75182648  0.86753430  0.89312487  1
  H  H31  1  0.56358022  0.86832399  0.60498277  1
  H  H32  1  0.20090741  0.86993319  0.86491098  1
  H  H33  1  0.93641978  0.36832399  0.60498277  1
  H  H34  1  0.72302176  0.91296416  0.35985285  1
  H  H35  1  0.97090413  0.82730871  0.06776834  1
  Se  Se36  1  0.50210866  0.73202712  0.74791982  1
  Se  Se37  1  0.49789134  0.26797288  0.25208018  1
  Se  Se38  1  0.00210866  0.76797288  0.25208018  1
  Se  Se39  1  -0.00210866  0.23202712  0.74791982  1
  O  O40  1  0.11804580  0.94045855  0.86749603  1
  O  O41  1  0.88195420  0.05954145  0.13250397  1
  O  O42  1  0.35756264  0.11172971  0.44899801  1
  O  O43  1  0.38195420  0.44045855  0.86749603  1
  O  O44  1  0.24021812  0.55959731  0.04922084  1
  O  O45  1  0.92457431  0.41137945  0.36431645  1
  O  O46  1  0.02573662  0.10006586  0.66375799  1
  O  O47  1  0.85756164  0.38827029  0.55100199  1
  O  O48  1  0.73759785  0.09581239  0.51060231  1
  O  O49  1  0.73464134  0.74904226  0.78833263  1
  O  O50  1  0.55710370  0.16157125  0.30285897  1
  O  O51  1  0.26240215  0.90418761  0.48939769  1
  O  O52  1  0.52573662  0.39993414  0.33624201  1
  O  O53  1  0.57069940  0.64680323  0.97344201  1
  O  O54  1  0.42930060  0.35319677  0.02655799  1
  O  O55  1  0.23464134  0.75095774  0.21166737  1
  O  O56  1  0.26535866  0.25095774  0.21166737  1
  O  O57  1  0.07069940  0.85319677  0.02655799  1
  O  O58  1  0.92930060  0.14680323  0.97344201  1
  O  O59  1  0.75978188  0.44040269  0.95077916  1
  O  O60  1  0.15392854  0.24307090  0.84415997  1
  O  O61  1  0.64243836  0.88827029  0.55100199  1
  O  O62  1  0.25978188  0.05959731  0.04922084  1
  O  O63  1  0.76240215  0.59581239  0.51060231  1
  O  O64  1  0.57542569  0.91137945  0.36431645  1
  O  O65  1  0.47426338  0.60006586  0.66375799  1
  O  O66  1  0.14243836  0.61172971  0.44899801  1
  O  O67  1  0.76535866  0.24904226  0.78833263  1
  O  O68  1  0.44289630  0.83842875  0.69714103  1
  O  O69  1  0.61804580  0.55954145  0.13250397  1
  O  O70  1  0.42457431  0.08862055  0.63568355  1
  O  O71  1  0.97426338  0.89993414  0.33624201  1
  O  O72  1  0.65392754  0.25692910  0.15584003  1
  O  O73  1  0.23759785  0.40418761  0.48939769  1
  O  O74  1  0.84607246  0.75692910  0.15584003  1
  O  O75  1  0.94289630  0.66157125  0.30285897  1
  O  O76  1  0.34607146  0.74307090  0.84415997  1
  O  O77  1  0.74021812  0.94040269  0.95077916  1
  O  O78  1  0.07542569  0.58862055  0.63568355  1
  O  O79  1  0.05710370  0.33842875  0.69714103  1
