# generated using pymatgen
data_PmPaO4
_symmetry_space_group_name_H-M   'P 1'
_cell_length_a   7.76084379
_cell_length_b   10.23838093
_cell_length_c   6.67785509
_cell_angle_alpha   29.25257298
_cell_angle_beta   54.47289465
_cell_angle_gamma   40.71050791
_symmetry_Int_Tables_number   1
_chemical_formula_structural   PmPaO4
_chemical_formula_sum   'Pm2 Pa2 O8'
_cell_volume   163.66819798
_cell_formula_units_Z   2
loop_
 _symmetry_equiv_pos_site_id
 _symmetry_equiv_pos_as_xyz
  1  'x, y, z'
loop_
 _atom_site_type_symbol
 _atom_site_label
 _atom_site_symmetry_multiplicity
 _atom_site_fract_x
 _atom_site_fract_y
 _atom_site_fract_z
 _atom_site_occupancy
  Pm  Pm0  1  0.00000000  0.00000000  0.00000000  1
  Pm  Pm1  1  0.75000000  0.50000000  0.00000000  1
  Pa  Pa2  1  0.50000000  0.00000000  0.00000000  1
  Pa  Pa3  1  0.25000000  0.50000000  0.00000000  1
  O  O4  1  0.14243864  0.98256136  0.26743864  1
  O  O5  1  0.60756136  0.01743864  0.23256136  1
  O  O6  1  0.37500000  0.01743864  0.73256136  1
  O  O7  1  0.37500000  0.48256136  0.26743864  1
  O  O8  1  0.14243864  0.48256136  0.76743864  1
  O  O9  1  0.87500000  0.98256136  0.76743864  1
  O  O10  1  0.87500000  0.51743864  0.23256136  1
  O  O11  1  0.60756136  0.51743864  0.73256136  1
