# generated using pymatgen
data_PrPaO4
_symmetry_space_group_name_H-M   'P 1'
_cell_length_a   7.84748677
_cell_length_b   10.33548500
_cell_length_c   6.72600814
_cell_angle_alpha   29.28028929
_cell_angle_beta   54.31215939
_cell_angle_gamma   40.59957253
_symmetry_Int_Tables_number   1
_chemical_formula_structural   PrPaO4
_chemical_formula_sum   'Pr2 Pa2 O8'
_cell_volume   168.21144592
_cell_formula_units_Z   2
loop_
 _symmetry_equiv_pos_site_id
 _symmetry_equiv_pos_as_xyz
  1  'x, y, z'
loop_
 _atom_site_type_symbol
 _atom_site_label
 _atom_site_symmetry_multiplicity
 _atom_site_fract_x
 _atom_site_fract_y
 _atom_site_fract_z
 _atom_site_occupancy
  Pr  Pr0  1  0.00000000  -0.00000000  0.00000000  1
  Pr  Pr1  1  0.75000000  0.50000000  0.00000000  1
  Pa  Pa2  1  0.50000000  -0.00000000  0.00000000  1
  Pa  Pa3  1  0.25000000  0.50000000  0.00000000  1
  O  O4  1  0.37500000  0.02148774  0.72851226  1
  O  O5  1  0.14648774  0.47851226  0.77148774  1
  O  O6  1  0.37500000  0.47851226  0.27148774  1
  O  O7  1  0.87500000  0.97851226  0.77148774  1
  O  O8  1  0.14648774  0.97851226  0.27148774  1
  O  O9  1  0.60351226  0.52148774  0.72851226  1
  O  O10  1  0.87500000  0.52148774  0.22851226  1
  O  O11  1  0.60351226  0.02148774  0.22851226  1
