# generated using pymatgen
data_Li2TiNi2O5
_symmetry_space_group_name_H-M   'P 1'
_cell_length_a   5.93116287
_cell_length_b   7.83617255
_cell_length_c   4.10081446
_cell_angle_alpha   74.83004693
_cell_angle_beta   89.99409127
_cell_angle_gamma   78.26624252
_symmetry_Int_Tables_number   1
_chemical_formula_structural   Li2TiNi2O5
_chemical_formula_sum   'Li4 Ti2 Ni4 O10'
_cell_volume   179.82575264
_cell_formula_units_Z   2
loop_
 _symmetry_equiv_pos_site_id
 _symmetry_equiv_pos_as_xyz
  1  'x, y, z'
loop_
 _atom_site_type_symbol
 _atom_site_label
 _atom_site_symmetry_multiplicity
 _atom_site_fract_x
 _atom_site_fract_y
 _atom_site_fract_z
 _atom_site_occupancy
  Li  Li0  1  0.70001266  0.20002978  0.39998607  1
  Li  Li1  1  0.30867102  0.81005011  0.59494430  1
  Li  Li2  1  0.19998771  0.20002226  0.39997321  1
  Li  Li3  1  0.09140469  0.58989752  0.20508696  1
  Ti  Ti4  1  0.38778633  0.40682324  0.79647746  1
  Ti  Ti5  1  0.01224853  0.99315281  0.00275099  1
  Ni  Ni6  1  0.79972204  0.79872751  0.60059530  1
  Ni  Ni7  1  0.89946185  0.39570981  0.80216321  1
  Ni  Ni8  1  0.60041917  0.60124036  0.19943180  1
  Ni  Ni9  1  0.50046034  0.00429298  0.99786146  1
  O  O10  1  0.81261764  0.81182716  0.09407152  1
  O  O11  1  0.88971466  0.41070623  0.29466210  1
  O  O12  1  0.69980838  0.20007202  0.90000243  1
  O  O13  1  0.58740706  0.58816198  0.70600696  1
  O  O14  1  0.28089248  0.81646885  0.09174727  1
  O  O15  1  0.51035683  0.98921019  0.50538582  1
  O  O16  1  0.39952254  0.40106491  0.29968050  1
  O  O17  1  0.19992190  0.20000610  0.90000503  1
  O  O18  1  0.11907224  0.58355223  0.70836086  1
  O  O19  1  0.00051194  0.99898397  0.50080574  1
