# generated using pymatgen
data_Ba3LaIr2O9
_symmetry_space_group_name_H-M   'P 1'
_cell_length_a   6.02557386
_cell_length_b   6.02557295
_cell_length_c   15.16903682
_cell_angle_alpha   90.00000000
_cell_angle_beta   90.00000000
_cell_angle_gamma   120.00077066
_symmetry_Int_Tables_number   1
_chemical_formula_structural   Ba3LaIr2O9
_chemical_formula_sum   'Ba6 La2 Ir4 O18'
_cell_volume   476.96007580
_cell_formula_units_Z   2
loop_
 _symmetry_equiv_pos_site_id
 _symmetry_equiv_pos_as_xyz
  1  'x, y, z'
loop_
 _atom_site_type_symbol
 _atom_site_label
 _atom_site_symmetry_multiplicity
 _atom_site_fract_x
 _atom_site_fract_y
 _atom_site_fract_z
 _atom_site_occupancy
  Ba  Ba0  1  0.00000183  0.00000613  0.75000000  1
  Ba  Ba1  1  -0.00000183  0.99999387  0.25000000  1
  Ba  Ba2  1  0.66668406  0.33336825  0.60259243  1
  Ba  Ba3  1  0.33331594  0.66663175  0.39740757  1
  Ba  Ba4  1  0.33331594  0.66663175  0.10259243  1
  Ba  Ba5  1  0.66668406  0.33336825  0.89740757  1
  La  La6  1  -0.00000000  -0.00000000  0.50000000  1
  La  La7  1  -0.00000000  -0.00000000  0.00000000  1
  Ir  Ir8  1  0.66667224  0.33333915  0.33331619  1
  Ir  Ir9  1  0.33332776  0.66666085  0.66668381  1
  Ir  Ir10  1  0.33332776  0.66666085  0.83331619  1
  Ir  Ir11  1  0.66667224  0.33333915  0.16668381  1
  O  O12  1  0.01867253  0.50937416  0.75000000  1
  O  O13  1  0.49065787  0.50930999  0.75000000  1
  O  O14  1  0.49070103  0.98130481  0.75000000  1
  O  O15  1  0.98132747  0.49062584  0.25000000  1
  O  O16  1  0.50934213  0.49069001  0.25000000  1
  O  O17  1  0.50929897  0.01869519  0.25000000  1
  O  O18  1  0.17889047  0.35781128  0.59241556  1
  O  O19  1  0.64217645  0.82107107  0.59241823  1
  O  O20  1  0.17890153  0.82108935  0.59242117  1
  O  O21  1  0.82110953  0.64218872  0.40758444  1
  O  O22  1  0.35782355  0.17892893  0.40758177  1
  O  O23  1  0.82109847  0.17891065  0.40757883  1
  O  O24  1  0.82110953  0.64218872  0.09241556  1
  O  O25  1  0.35782355  0.17892893  0.09241823  1
  O  O26  1  0.82109847  0.17891065  0.09242117  1
  O  O27  1  0.17889047  0.35781128  0.90758444  1
  O  O28  1  0.64217645  0.82107107  0.90758177  1
  O  O29  1  0.17890153  0.82108935  0.90757883  1
