# generated using pymatgen
data_KH3(SeO3)2
_symmetry_space_group_name_H-M   'P 1'
_cell_length_a   16.51111818
_cell_length_b   6.40526443
_cell_length_c   6.45160196
_cell_angle_alpha   88.07874951
_cell_angle_beta   90.00000000
_cell_angle_gamma   90.00000000
_symmetry_Int_Tables_number   1
_chemical_formula_structural   KH3(SeO3)2
_chemical_formula_sum   'K4 H12 Se8 O24'
_cell_volume   681.92546391
_cell_formula_units_Z   4
loop_
 _symmetry_equiv_pos_site_id
 _symmetry_equiv_pos_as_xyz
  1  'x, y, z'
loop_
 _atom_site_type_symbol
 _atom_site_label
 _atom_site_symmetry_multiplicity
 _atom_site_fract_x
 _atom_site_fract_y
 _atom_site_fract_z
 _atom_site_occupancy
  K  K0  1  0.00120253  0.68801296  0.24522362  1
  K  K1  1  0.99879747  0.31198704  0.75477638  1
  K  K2  1  0.50120253  0.81198704  0.75477638  1
  K  K3  1  0.49879747  0.18801296  0.24522362  1
  H  H4  1  0.32512615  0.93097326  0.46780237  1
  H  H5  1  0.67487385  0.06902674  0.53219763  1
  H  H6  1  0.82512615  0.56902674  0.53219763  1
  H  H7  1  0.17487385  0.43097326  0.46780237  1
  H  H8  1  0.16914180  0.55990209  0.97231610  1
  H  H9  1  0.83085820  0.44009791  0.02768390  1
  H  H10  1  0.66914180  0.94009791  0.02768390  1
  H  H11  1  0.33085820  0.05990209  0.97231610  1
  H  H12  1  0.01112098  0.87895108  0.75722207  1
  H  H13  1  0.98887902  0.12104892  0.24277793  1
  H  H14  1  0.51112098  0.62104892  0.24277793  1
  H  H15  1  0.48887902  0.37895108  0.75722207  1
  Se  Se16  1  0.34960614  0.68683099  0.21514518  1
  Se  Se17  1  0.65039386  0.31316901  0.78485482  1
  Se  Se18  1  0.84960614  0.81316901  0.78485482  1
  Se  Se19  1  0.15039386  0.18683099  0.21514518  1
  Se  Se20  1  0.15058667  0.80526903  0.69776035  1
  Se  Se21  1  0.84941333  0.19473097  0.30223965  1
  Se  Se22  1  0.65058667  0.69473097  0.30223965  1
  Se  Se23  1  0.34941333  0.30526903  0.69776035  1
  O  O24  1  0.38912744  0.89240209  0.07399205  1
  O  O25  1  0.61087256  0.10759791  0.92600795  1
  O  O26  1  0.88912744  0.60759791  0.92600795  1
  O  O27  1  0.11087256  0.39240209  0.07399205  1
  O  O28  1  0.43137648  0.60148526  0.35934541  1
  O  O29  1  0.56862352  0.39851474  0.64065459  1
  O  O30  1  0.93137648  0.89851474  0.64065459  1
  O  O31  1  0.06862352  0.10148526  0.35934541  1
  O  O32  1  0.29007970  0.81698435  0.40935836  1
  O  O33  1  0.70992030  0.18301565  0.59064164  1
  O  O34  1  0.79007970  0.68301565  0.59064164  1
  O  O35  1  0.20992030  0.31698435  0.40935836  1
  O  O36  1  0.11095237  0.60606299  0.56762793  1
  O  O37  1  0.88904763  0.39393701  0.43237207  1
  O  O38  1  0.61095237  0.89393701  0.43237207  1
  O  O39  1  0.38904763  0.10606299  0.56762793  1
  O  O40  1  0.06418439  0.88836700  0.84527507  1
  O  O41  1  0.93581561  0.11163300  0.15472493  1
  O  O42  1  0.56418439  0.61163300  0.15472493  1
  O  O43  1  0.43581561  0.38836700  0.84527507  1
  O  O44  1  0.20280203  0.68321156  0.90848152  1
  O  O45  1  0.79719797  0.31678844  0.09151848  1
  O  O46  1  0.70280203  0.81678844  0.09151848  1
  O  O47  1  0.29719797  0.18321156  0.90848152  1
