# generated using pymatgen
data_HoB2Ru
_symmetry_space_group_name_H-M   'P 1'
_cell_length_a   5.90114208
_cell_length_b   5.30583889
_cell_length_c   6.34561474
_cell_angle_alpha   90.00000000
_cell_angle_beta   90.00000000
_cell_angle_gamma   90.00000000
_symmetry_Int_Tables_number   1
_chemical_formula_structural   HoB2Ru
_chemical_formula_sum   'Ho4 B8 Ru4'
_cell_volume   198.68442834
_cell_formula_units_Z   4
loop_
 _symmetry_equiv_pos_site_id
 _symmetry_equiv_pos_as_xyz
  1  'x, y, z'
loop_
 _atom_site_type_symbol
 _atom_site_label
 _atom_site_symmetry_multiplicity
 _atom_site_fract_x
 _atom_site_fract_y
 _atom_site_fract_z
 _atom_site_occupancy
  Ho  Ho0  1  0.51071829  0.25000000  0.83676722  1
  Ho  Ho1  1  0.01071829  0.25000000  0.66323278  1
  Ho  Ho2  1  0.48928171  0.75000000  0.16323278  1
  Ho  Ho3  1  0.98928171  0.75000000  0.33676722  1
  B  B4  1  0.86857179  0.08369120  0.03807481  1
  B  B5  1  0.36857179  0.41630880  0.46192519  1
  B  B6  1  0.13142821  0.58369120  0.96192519  1
  B  B7  1  0.63142821  0.91630880  0.53807481  1
  B  B8  1  0.13142821  0.91630880  0.96192519  1
  B  B9  1  0.63142821  0.58369120  0.53807481  1
  B  B10  1  0.86857179  0.41630880  0.03807481  1
  B  B11  1  0.36857179  0.08369120  0.46192519  1
  Ru  Ru12  1  0.68104205  0.25000000  0.31861232  1
  Ru  Ru13  1  0.18104205  0.25000000  0.18138768  1
  Ru  Ru14  1  0.31895795  0.75000000  0.68138768  1
  Ru  Ru15  1  0.81895795  0.75000000  0.81861232  1
