# generated using pymatgen
data_Li2Fe3CoO8
_symmetry_space_group_name_H-M   'P 1'
_cell_length_a   8.36714305
_cell_length_b   8.44741464
_cell_length_c   8.39837528
_cell_angle_alpha   89.83946041
_cell_angle_beta   90.08691193
_cell_angle_gamma   89.87239272
_symmetry_Int_Tables_number   1
_chemical_formula_structural   Li2Fe3CoO8
_chemical_formula_sum   'Li8 Fe12 Co4 O32'
_cell_volume   593.59877695
_cell_formula_units_Z   4
loop_
 _symmetry_equiv_pos_site_id
 _symmetry_equiv_pos_as_xyz
  1  'x, y, z'
loop_
 _atom_site_type_symbol
 _atom_site_label
 _atom_site_symmetry_multiplicity
 _atom_site_fract_x
 _atom_site_fract_y
 _atom_site_fract_z
 _atom_site_occupancy
  Li  Li0  1  0.12313954  0.87794291  0.37417029  1
  Li  Li1  1  0.25009956  0.75108785  0.75196429  1
  Li  Li2  1  0.25100139  0.25026977  0.25027156  1
  Li  Li3  1  0.37613924  0.12387652  0.87699886  1
  Li  Li4  1  0.62222529  0.62218469  0.62480357  1
  Li  Li5  1  0.75187524  0.74887151  0.25017023  1
  Li  Li6  1  0.74976621  0.25015717  0.75210228  1
  Li  Li7  1  0.87963842  0.37519820  0.12380447  1
  Fe  Fe8  1  0.12119468  0.62153569  0.12338009  1
  Fe  Fe9  1  0.12424160  0.37399051  0.88290890  1
  Fe  Fe10  1  0.12471506  0.11977936  0.62381718  1
  Fe  Fe11  1  0.37537358  0.88181806  0.12367891  1
  Fe  Fe12  1  0.37752733  0.62510027  0.38116634  1
  Fe  Fe13  1  0.38074180  0.37630507  0.62538955  1
  Fe  Fe14  1  0.61710724  0.87904056  0.87324985  1
  Fe  Fe15  1  0.62301253  0.12385223  0.11834794  1
  Fe  Fe16  1  0.62452496  0.38086393  0.37915826  1
  Fe  Fe17  1  0.87601983  0.61869252  0.87441695  1
  Fe  Fe18  1  0.87651763  0.87496532  0.61925783  1
  Fe  Fe19  1  0.88110910  0.12452956  0.37542748  1
  Co  Co20  1  0.00018505  0.49902821  0.49850128  1
  Co  Co21  1  0.50499959  0.49923424  0.99857267  1
  Co  Co22  1  0.49950558  0.00185023  0.49814340  1
  Co  Co23  1  -0.00062621  -0.00168434  -0.00036506  1
  O  O24  1  0.10712474  0.12774363  0.39005262  1
  O  O25  1  0.10951975  0.89399949  0.62710856  1
  O  O26  1  0.11728256  0.61517272  0.88980308  1
  O  O27  1  0.12741299  0.39142214  0.10990474  1
  O  O28  1  0.12054626  0.14051906  0.86224205  1
  O  O29  1  0.14132225  0.36412927  0.63611004  1
  O  O30  1  0.13510157  0.62155023  0.35419279  1
  O  O31  1  0.14265046  0.85908715  0.12050938  1
  O  O32  1  0.36163907  0.14115718  0.62342741  1
  O  O33  1  0.36443057  0.37860918  0.86487424  1
  O  O34  1  0.36436490  0.63169553  0.13217212  1
  O  O35  1  0.37911848  0.85892804  0.35901540  1
  O  O36  1  0.37060663  0.60568178  0.60848105  1
  O  O37  1  0.38749548  0.38574692  0.38567983  1
  O  O38  1  0.39014941  0.10665530  0.12776804  1
  O  O39  1  0.39021307  0.87871891  0.89304021  1
  O  O40  1  0.60336639  0.37405437  0.61580947  1
  O  O41  1  0.61311906  0.60336581  0.37621253  1
  O  O42  1  0.61235802  0.88343848  0.11333055  1
  O  O43  1  0.62912187  0.11020232  0.89374857  1
  O  O44  1  0.61556231  0.36360828  0.13009951  1
  O  O45  1  0.63639772  0.14288344  0.36107093  1
  O  O46  1  0.63526537  0.87632325  0.63969158  1
  O  O47  1  0.63179701  0.63290159  0.88111800  1
  O  O48  1  0.85843944  0.36060396  0.37689064  1
  O  O49  1  0.86221595  0.12355994  0.14089726  1
  O  O50  1  0.86023512  0.85800336  0.86426634  1
  O  O51  1  0.87884245  0.63916677  0.63779719  1
  O  O52  1  0.87265722  0.89597801  0.39190730  1
  O  O53  1  0.88359467  0.11619705  0.61223902  1
  O  O54  1  0.89153017  0.39580978  0.87251916  1
  O  O55  1  0.89648779  0.62467103  0.10876029  1
