# generated using pymatgen
data_Ge2N2O
_symmetry_space_group_name_H-M   'P 1'
_cell_length_a   6.02655744
_cell_length_b   8.39755409
_cell_length_c   5.33911530
_cell_angle_alpha   90.00000000
_cell_angle_beta   62.18380670
_cell_angle_gamma   90.00000000
_symmetry_Int_Tables_number   1
_chemical_formula_structural   Ge2N2O
_chemical_formula_sum   'Ge8 N8 O4'
_cell_volume   238.98149173
_cell_formula_units_Z   4
loop_
 _symmetry_equiv_pos_site_id
 _symmetry_equiv_pos_as_xyz
  1  'x, y, z'
loop_
 _atom_site_type_symbol
 _atom_site_label
 _atom_site_symmetry_multiplicity
 _atom_site_fract_x
 _atom_site_fract_y
 _atom_site_fract_z
 _atom_site_occupancy
  Ge  Ge0  1  0.28775621  0.27183814  0.18135307  1
  Ge  Ge1  1  0.24366961  0.65306609  0.21361434  1
  Ge  Ge2  1  0.15267350  0.46532730  0.75248687  1
  Ge  Ge3  1  0.20583098  0.94801886  0.84651590  1
  Ge  Ge4  1  0.65267350  0.03467270  0.25248687  1
  Ge  Ge5  1  0.70583098  0.55198114  0.34651590  1
  Ge  Ge6  1  0.78775621  0.22816186  0.68135307  1
  Ge  Ge7  1  0.74366961  0.84693391  0.71361434  1
  N  N8  1  0.24039611  0.46053228  0.03907194  1
  N  N9  1  0.11138341  0.28698553  0.57151845  1
  N  N10  1  0.36952610  0.60063032  0.46163838  1
  N  N11  1  0.61138341  0.21301447  0.07151845  1
  N  N12  1  0.39767448  0.80820287  0.93859218  1
  N  N13  1  0.74039611  0.03946772  0.53907194  1
  N  N14  1  0.89767448  0.69179713  0.43859218  1
  N  N15  1  0.86952610  0.89936968  0.96163838  1
  O  O16  1  0.15590392  0.13508846  0.02825471  1
  O  O17  1  0.33518767  0.95869447  0.46695314  1
  O  O18  1  0.65590392  0.36491154  0.52825471  1
  O  O19  1  0.83518767  0.54130553  0.96695314  1
