# generated using pymatgen
data_Fe5(O4F)2
_symmetry_space_group_name_H-M   'P 1'
_cell_length_a   4.67591401
_cell_length_b   7.60658693
_cell_length_c   9.79893397
_cell_angle_alpha   109.83574078
_cell_angle_beta   90.00000000
_cell_angle_gamma   90.00000000
_symmetry_Int_Tables_number   1
_chemical_formula_structural   Fe5(O4F)2
_chemical_formula_sum   'Fe10 O16 F4'
_cell_volume   327.84770129
_cell_formula_units_Z   2
loop_
 _symmetry_equiv_pos_site_id
 _symmetry_equiv_pos_as_xyz
  1  'x, y, z'
loop_
 _atom_site_type_symbol
 _atom_site_label
 _atom_site_symmetry_multiplicity
 _atom_site_fract_x
 _atom_site_fract_y
 _atom_site_fract_z
 _atom_site_occupancy
  Fe  Fe0  1  0.53208548  0.30225215  0.89828970  1
  Fe  Fe1  1  0.47996079  0.09107294  0.29172350  1
  Fe  Fe2  1  0.49286558  0.91130966  0.70107745  1
  Fe  Fe3  1  0.51985140  0.69912284  0.09367367  1
  Fe  Fe4  1  0.46932165  0.50852164  0.48844968  1
  Fe  Fe5  1  0.03208548  0.59774785  0.80171030  1
  Fe  Fe6  1  0.01985140  0.20087716  0.60632633  1
  Fe  Fe7  1  0.97996079  0.80892706  0.40827650  1
  Fe  Fe8  1  0.96932165  0.39147836  0.21155032  1
  Fe  Fe9  1  0.99286558  0.98869034  -0.00107745  1
  O  O10  1  0.81851533  0.74497861  0.96463805  1
  O  O11  1  0.80324231  0.97606819  0.58585134  1
  O  O12  1  0.79417358  0.56888720  0.38162892  1
  O  O13  1  0.82849068  0.36796501  0.77442430  1
  O  O14  1  0.79804318  0.14906009  0.17539997  1
  O  O15  1  0.69975529  0.06647798  0.88105561  1
  O  O16  1  0.69415444  0.45793724  0.07932568  1
  O  O17  1  0.68470167  0.85591464  0.27301530  1
  O  O18  1  0.31851533  0.15502139  0.73536195  1
  O  O19  1  0.29804418  0.75093991  0.52460003  1
  O  O20  1  0.29417358  0.33111280  0.31837108  1
  O  O21  1  0.30324231  0.92393181  0.11414866  1
  O  O22  1  0.32849068  0.53203499  0.92557570  1
  O  O23  1  0.19415444  0.44206276  0.62067432  1
  O  O24  1  0.18470167  0.04408536  0.42698470  1
  O  O25  1  0.19975529  0.83352202  0.81894439  1
  F  F26  1  0.69697191  0.66223236  0.67374668  1
  F  F27  1  0.68786570  0.26434793  0.47835725  1
  F  F28  1  0.19697191  0.23776764  0.02625332  1
  F  F29  1  0.18786570  0.63565207  0.22164275  1
