# generated using pymatgen
data_MgS2
_symmetry_space_group_name_H-M   'P 1'
_cell_length_a   3.92905492
_cell_length_b   5.12216236
_cell_length_c   10.23287296
_cell_angle_alpha   46.01531681
_cell_angle_beta   89.99999996
_cell_angle_gamma   112.55280127
_symmetry_Int_Tables_number   1
_chemical_formula_structural   MgS2
_chemical_formula_sum   'Mg2 S4'
_cell_volume   125.37250809
_cell_formula_units_Z   2
loop_
 _symmetry_equiv_pos_site_id
 _symmetry_equiv_pos_as_xyz
  1  'x, y, z'
loop_
 _atom_site_type_symbol
 _atom_site_label
 _atom_site_symmetry_multiplicity
 _atom_site_fract_x
 _atom_site_fract_y
 _atom_site_fract_z
 _atom_site_occupancy
  Mg  Mg0  1  0.69439290  0.38878780  0.11110379  1
  Mg  Mg1  1  0.69449410  0.38899020  0.61111921  1
  S  S2  1  0.11272970  0.22545940  0.32844876  1
  S  S3  1  0.27615830  0.55231760  0.39377424  1
  S  S4  1  0.11269069  0.22538137  0.82848781  1
  S  S5  1  0.27619831  0.55239663  0.89373419  1
