# generated using pymatgen
data_Fe5(O4F)2
_symmetry_space_group_name_H-M   'P 1'
_cell_length_a   4.63942077
_cell_length_b   7.60918413
_cell_length_c   9.74552746
_cell_angle_alpha   109.36334724
_cell_angle_beta   91.50674881
_cell_angle_gamma   89.27773962
_symmetry_Int_Tables_number   1
_chemical_formula_structural   Fe5(O4F)2
_chemical_formula_sum   'Fe10 O16 F4'
_cell_volume   324.46308106
_cell_formula_units_Z   2
loop_
 _symmetry_equiv_pos_site_id
 _symmetry_equiv_pos_as_xyz
  1  'x, y, z'
loop_
 _atom_site_type_symbol
 _atom_site_label
 _atom_site_symmetry_multiplicity
 _atom_site_fract_x
 _atom_site_fract_y
 _atom_site_fract_z
 _atom_site_occupancy
  Fe  Fe0  1  0.51430013  0.30611161  0.90918738  1
  Fe  Fe1  1  0.46660186  0.09453022  0.30843822  1
  Fe  Fe2  1  0.50916591  0.88574824  0.70291820  1
  Fe  Fe3  1  0.52629916  0.71044499  0.09352265  1
  Fe  Fe4  1  0.51311080  0.50281771  0.48811910  1
  Fe  Fe5  1  0.00029531  0.59896357  0.80496335  1
  Fe  Fe6  1  0.95789446  0.19372669  0.59897417  1
  Fe  Fe7  1  0.98532966  0.80404580  0.40961531  1
  Fe  Fe8  1  0.00717859  0.40167037  0.19778611  1
  Fe  Fe9  1  0.01760977  0.99881798  0.98928109  1
  O  O10  1  0.81666793  0.77240009  0.97478321  1
  O  O11  1  0.78640219  0.95823884  0.58639932  1
  O  O12  1  0.82029651  0.56062341  0.37106399  1
  O  O13  1  0.80573843  0.35826211  0.77827949  1
  O  O14  1  0.69176879  0.06229758  0.87902567  1
  O  O15  1  0.70104106  0.64400132  0.66916450  1
  O  O16  1  0.71064175  0.47215330  0.08303352  1
  O  O17  1  0.68828720  0.86398222  0.27972696  1
  O  O18  1  0.67857905  0.26288889  0.47376787  1
  O  O19  1  0.30770203  0.73338958  0.51978056  1
  O  O20  1  0.30391821  0.33870327  0.31941727  1
  O  O21  1  0.30504873  0.94173197  0.12379388  1
  O  O22  1  0.31626372  0.54231702  0.92657032  1
  O  O23  1  0.16868407  0.03839633  0.43083712  1
  O  O24  1  0.20567818  0.83436604  0.81522826  1
  O  O25  1  0.19292079  0.24016205  0.02366813  1
  F  F26  1  0.80023772  0.15967095  0.17875053  1
  F  F27  1  0.29737560  0.14250432  0.72256804  1
  F  F28  1  0.19718994  0.43010936  0.61919786  1
  F  F29  1  0.20777348  0.64692515  0.22213790  1
