# generated using pymatgen
data_U2Co12P7
_symmetry_space_group_name_H-M   'P 1'
_cell_length_a   8.95736759
_cell_length_b   8.95632080
_cell_length_c   3.56159625
_cell_angle_alpha   90.00000000
_cell_angle_beta   90.00000000
_cell_angle_gamma   120.00144842
_symmetry_Int_Tables_number   1
_chemical_formula_structural   U2Co12P7
_chemical_formula_sum   'U2 Co12 P7'
_cell_volume   247.44518997
_cell_formula_units_Z   1
loop_
 _symmetry_equiv_pos_site_id
 _symmetry_equiv_pos_as_xyz
  1  'x, y, z'
loop_
 _atom_site_type_symbol
 _atom_site_label
 _atom_site_symmetry_multiplicity
 _atom_site_fract_x
 _atom_site_fract_y
 _atom_site_fract_z
 _atom_site_occupancy
  U  U0  1  0.33336661  0.66678076  -0.00000000  1
  U  U1  1  0.66663601  0.33328420  0.50000100  1
  Co  Co2  1  0.44251286  0.06472183  0.00000000  1
  Co  Co3  1  0.93528512  0.37793901  0.00000000  1
  Co  Co4  1  0.62207652  0.55747678  -0.00000000  1
  Co  Co5  1  0.38192867  0.43969823  0.50000100  1
  Co  Co6  1  0.56019218  0.94207840  0.50000100  1
  Co  Co7  1  0.05812110  0.61820760  0.50000100  1
  Co  Co8  1  0.15173020  0.27303889  0.00000000  1
  Co  Co9  1  0.72714655  0.87871156  0.00000000  1
  Co  Co10  1  0.12132298  0.84830508  0.00000000  1
  Co  Co11  1  0.23164201  0.10342011  0.50000100  1
  Co  Co12  1  0.89642011  0.12862640  0.50000100  1
  Co  Co13  1  0.87139792  0.76747625  0.50000100  1
  P  P14  1  0.10847126  0.39823901  0.50000100  1
  P  P15  1  0.60178341  0.71010422  0.50000100  1
  P  P16  1  0.28989551  0.89185440  0.50000100  1
  P  P17  1  0.00007114  0.00006459  0.00000000  1
  P  P18  1  0.39912213  0.28763504  0.00000000  1
  P  P19  1  0.71240357  0.11147756  0.00000000  1
  P  P20  1  0.88847213  0.60086608  -0.00000000  1
