# generated using pymatgen
data_YbCrTeO6
_symmetry_space_group_name_H-M   'P 1'
_cell_length_a   5.11333010
_cell_length_b   5.18384419
_cell_length_c   10.03486348
_cell_angle_alpha   90.67874887
_cell_angle_beta   89.71959121
_cell_angle_gamma   120.49090304
_symmetry_Int_Tables_number   1
_chemical_formula_structural   YbCrTeO6
_chemical_formula_sum   'Yb2 Cr2 Te2 O12'
_cell_volume   229.19091448
_cell_formula_units_Z   2
loop_
 _symmetry_equiv_pos_site_id
 _symmetry_equiv_pos_as_xyz
  1  'x, y, z'
loop_
 _atom_site_type_symbol
 _atom_site_label
 _atom_site_symmetry_multiplicity
 _atom_site_fract_x
 _atom_site_fract_y
 _atom_site_fract_z
 _atom_site_occupancy
  Yb  Yb0  1  0.00025849  0.00032064  -0.00000273  1
  Yb  Yb1  1  0.00019368  0.99975806  0.50002415  1
  Cr  Cr2  1  0.34636582  0.67276352  0.24996023  1
  Cr  Cr3  1  0.65359907  0.32783695  0.75013806  1
  Te  Te4  1  0.66427199  0.33200354  0.25002519  1
  Te  Te5  1  0.33597605  0.66861375  0.74991026  1
  O  O6  1  0.36824269  0.00209643  0.14154578  1
  O  O7  1  0.62310975  0.62937629  0.14219627  1
  O  O8  1  0.99760225  0.36648783  0.14386221  1
  O  O9  1  0.99825675  0.63114654  0.35631221  1
  O  O10  1  0.62346951  0.99367580  0.35784426  1
  O  O11  1  0.36869002  0.36579673  0.35827302  1
  O  O12  1  0.63187248  0.63461146  0.64191651  1
  O  O13  1  0.37705344  0.00648300  0.64186001  1
  O  O14  1  0.00215204  0.36813192  0.64406745  1
  O  O15  1  0.00219945  0.63302784  0.85650159  1
  O  O16  1  0.37493243  0.36936757  0.85702369  1
  O  O17  1  0.63175210  0.99850113  0.85854084  1
