# generated using pymatgen
data_Fe5(O4F)2
_symmetry_space_group_name_H-M   'P 1'
_cell_length_a   4.65982894
_cell_length_b   7.62048144
_cell_length_c   9.77682219
_cell_angle_alpha   109.89995684
_cell_angle_beta   90.00000000
_cell_angle_gamma   90.00000000
_symmetry_Int_Tables_number   1
_chemical_formula_structural   Fe5(O4F)2
_chemical_formula_sum   'Fe10 O16 F4'
_cell_volume   326.44586463
_cell_formula_units_Z   2
loop_
 _symmetry_equiv_pos_site_id
 _symmetry_equiv_pos_as_xyz
  1  'x, y, z'
loop_
 _atom_site_type_symbol
 _atom_site_label
 _atom_site_symmetry_multiplicity
 _atom_site_fract_x
 _atom_site_fract_y
 _atom_site_fract_z
 _atom_site_occupancy
  Fe  Fe0  1  0.51893830  0.30456512  0.91298548  1
  Fe  Fe1  1  0.46757533  0.09262309  0.30527277  1
  Fe  Fe2  1  0.50000000  0.90000000  0.70000000  1
  Fe  Fe3  1  0.53242467  0.70737691  0.09472723  1
  Fe  Fe4  1  0.48106170  0.49543488  0.48701452  1
  Fe  Fe5  1  0.03242467  0.59262309  0.80527277  1
  Fe  Fe6  1  0.96757533  0.20737691  0.59472723  1
  Fe  Fe7  1  0.98106170  0.80456512  0.41298548  1
  Fe  Fe8  1  -0.00000000  0.40000000  0.20000000  1
  Fe  Fe9  1  0.01893830  0.99543488  0.98701452  1
  O  O10  1  0.82904016  0.75850217  0.96857381  1
  O  O11  1  0.78991323  0.97112094  0.58659758  1
  O  O12  1  0.80815814  0.56001621  0.37634764  1
  O  O13  1  0.81256474  0.36313662  0.77798753  1
  O  O14  1  0.69184186  0.06001621  0.87634764  1
  O  O15  1  0.71008677  0.47112094  0.08659758  1
  O  O16  1  0.68743526  0.86313662  0.27798753  1
  O  O17  1  0.67095984  0.25850217  0.46857381  1
  O  O18  1  0.30815814  0.73998379  0.52365236  1
  O  O19  1  0.28991323  0.32887906  0.31340242  1
  O  O20  1  0.31256474  0.93686338  0.12201247  1
  O  O21  1  0.32904016  0.54149783  0.93142619  1
  O  O22  1  0.18743526  0.43686338  0.62201247  1
  O  O23  1  0.17095984  0.04149783  0.43142619  1
  O  O24  1  0.21008677  0.82887906  0.81340242  1
  O  O25  1  0.19184186  0.23998379  0.02365236  1
  F  F26  1  0.79799949  0.15400654  0.17351155  1
  F  F27  1  0.70200051  0.65400654  0.67351155  1
  F  F28  1  0.29799949  0.14599346  0.72648845  1
  F  F29  1  0.20200051  0.64599346  0.22648845  1
