# generated using pymatgen
data_SiH8
_symmetry_space_group_name_H-M   'P 1'
_cell_length_a   5.22160170
_cell_length_b   5.21346664
_cell_length_c   7.20981712
_cell_angle_alpha   90.00000000
_cell_angle_beta   90.00000000
_cell_angle_gamma   90.00000000
_symmetry_Int_Tables_number   1
_chemical_formula_structural   SiH8
_chemical_formula_sum   'Si2 H16'
_cell_volume   196.27030113
_cell_formula_units_Z   2
loop_
 _symmetry_equiv_pos_site_id
 _symmetry_equiv_pos_as_xyz
  1  'x, y, z'
loop_
 _atom_site_type_symbol
 _atom_site_label
 _atom_site_symmetry_multiplicity
 _atom_site_fract_x
 _atom_site_fract_y
 _atom_site_fract_z
 _atom_site_occupancy
  Si  Si0  1  0.50000000  0.24727500  0.85834630  1
  Si  Si1  1  -0.00000000  0.75272500  0.35834630  1
  H  H2  1  0.50000000  0.48124319  0.97773362  1
  H  H3  1  -0.00000000  0.51875681  0.47773362  1
  H  H4  1  0.50000000  0.01329972  0.97785322  1
  H  H5  1  -0.00000000  0.98670028  0.47785322  1
  H  H6  1  0.73324721  0.24726800  0.73858390  1
  H  H7  1  0.26675279  0.24726800  0.73858390  1
  H  H8  1  0.76675279  0.75273200  0.23858390  1
  H  H9  1  0.23324721  0.75273200  0.23858390  1
  H  H10  1  0.50000000  0.28845373  0.31009865  1
  H  H11  1  -0.00000000  0.71154627  0.81009865  1
  H  H12  1  0.50000000  0.22241280  0.40329821  1
  H  H13  1  -0.00000000  0.77758720  0.90329821  1
  H  H14  1  0.50000000  0.76108408  0.65525912  1
  H  H15  1  0.00000000  0.23891592  0.15525912  1
  H  H16  1  0.50000000  0.70874784  0.55884309  1
  H  H17  1  0.00000000  0.29125216  0.05884309  1
