# generated using pymatgen
data_ZrCoH3
_symmetry_space_group_name_H-M   'P 1'
_cell_length_a   3.54195110
_cell_length_b   4.31328678
_cell_length_c   5.48870677
_cell_angle_alpha   90.00000000
_cell_angle_beta   71.17624345
_cell_angle_gamma   90.00000000
_symmetry_Int_Tables_number   1
_chemical_formula_structural   ZrCoH3
_chemical_formula_sum   'Zr2 Co2 H6'
_cell_volume   79.36859305
_cell_formula_units_Z   2
loop_
 _symmetry_equiv_pos_site_id
 _symmetry_equiv_pos_as_xyz
  1  'x, y, z'
loop_
 _atom_site_type_symbol
 _atom_site_label
 _atom_site_symmetry_multiplicity
 _atom_site_fract_x
 _atom_site_fract_y
 _atom_site_fract_z
 _atom_site_occupancy
  Zr  Zr0  1  0.86683930  0.25000000  0.26632241  1
  Zr  Zr1  1  0.13315970  0.75000000  0.73367759  1
  Co  Co2  1  0.42698543  0.75000000  0.14602614  1
  Co  Co3  1  0.57301357  0.25000000  0.85397286  1
  H  H4  1  0.92571589  0.75000000  0.14856823  1
  H  H5  1  0.31380162  0.00516651  0.37239376  1
  H  H6  1  0.31380162  0.49483349  0.37239376  1
  H  H7  1  0.68619738  0.50516651  0.62760524  1
  H  H8  1  0.68619738  0.99483349  0.62760524  1
  H  H9  1  0.07428311  0.25000000  0.85143177  1
