# generated using pymatgen
data_ZrTl2PbS4
_symmetry_space_group_name_H-M   'P 1'
_cell_length_a   6.88186954
_cell_length_b   8.30813916
_cell_length_c   8.85578787
_cell_angle_alpha   117.97456905
_cell_angle_beta   106.64362911
_cell_angle_gamma   90.00000000
_symmetry_Int_Tables_number   1
_chemical_formula_structural   ZrTl2PbS4
_chemical_formula_sum   'Zr2 Tl4 Pb2 S8'
_cell_volume   423.00259768
_cell_formula_units_Z   2
loop_
 _symmetry_equiv_pos_site_id
 _symmetry_equiv_pos_as_xyz
  1  'x, y, z'
loop_
 _atom_site_type_symbol
 _atom_site_label
 _atom_site_symmetry_multiplicity
 _atom_site_fract_x
 _atom_site_fract_y
 _atom_site_fract_z
 _atom_site_occupancy
  Zr  Zr0  1  0.25000000  0.12307233  0.00000000  1
  Zr  Zr1  1  0.75000000  0.87692767  -0.00000000  1
  Tl  Tl2  1  0.26605675  0.12469881  0.50092264  1
  Tl  Tl3  1  0.23394325  0.62377617  0.49907736  1
  Tl  Tl4  1  0.73394325  0.87530119  0.49907736  1
  Tl  Tl5  1  0.76605675  0.37622383  0.50092264  1
  Pb  Pb6  1  0.25000000  0.62479454  0.00000000  1
  Pb  Pb7  1  0.75000000  0.37520546  -0.00000000  1
  S  S8  1  0.49786544  0.00745150  0.80765102  1
  S  S9  1  0.00213456  0.19980048  0.19234898  1
  S  S10  1  0.50213456  0.99254850  0.19234898  1
  S  S11  1  0.99786544  0.80019952  0.80765102  1
  S  S12  1  0.03666437  0.23324192  0.78831723  1
  S  S13  1  0.46333563  0.44492470  0.21168277  1
  S  S14  1  0.96333563  0.76675808  0.21168277  1
  S  S15  1  0.53666437  0.55507530  0.78831723  1
