# generated using pymatgen
data_Rb2Mn3O4
_symmetry_space_group_name_H-M   'P 1'
_cell_length_a   6.07445805
_cell_length_b   6.81418551
_cell_length_c   8.68142306
_cell_angle_alpha   113.10752165
_cell_angle_beta   101.28220610
_cell_angle_gamma   90.00000000
_symmetry_Int_Tables_number   1
_chemical_formula_structural   Rb2Mn3O4
_chemical_formula_sum   'Rb4 Mn6 O8'
_cell_volume   322.95184665
_cell_formula_units_Z   2
loop_
 _symmetry_equiv_pos_site_id
 _symmetry_equiv_pos_as_xyz
  1  'x, y, z'
loop_
 _atom_site_type_symbol
 _atom_site_label
 _atom_site_symmetry_multiplicity
 _atom_site_fract_x
 _atom_site_fract_y
 _atom_site_fract_z
 _atom_site_occupancy
  Rb  Rb0  1  0.50198067  0.51057325  0.76355547  1
  Rb  Rb1  1  0.99801933  0.74701778  0.23644453  1
  Rb  Rb2  1  0.49801933  0.48942675  0.23644453  1
  Rb  Rb3  1  0.00198067  0.25298222  0.76355547  1
  Mn  Mn4  1  0.25000000  0.98246616  0.00000000  1
  Mn  Mn5  1  0.75000000  0.01753384  0.00000000  1
  Mn  Mn6  1  0.40992417  0.92215074  0.61326574  1
  Mn  Mn7  1  0.09007583  0.30888501  0.38673426  1
  Mn  Mn8  1  0.59007583  0.07784926  0.38673426  1
  Mn  Mn9  1  0.90992417  0.69111499  0.61326574  1
  O  O10  1  0.45495789  0.10067561  0.87581583  1
  O  O11  1  0.04504211  0.22485978  0.12418417  1
  O  O12  1  0.54504211  0.89932439  0.12418417  1
  O  O13  1  0.95495789  0.77514022  0.87581583  1
  O  O14  1  0.21014195  0.63804667  0.52063116  1
  O  O15  1  0.28985805  0.11741551  0.47936884  1
  O  O16  1  0.78985805  0.36195333  0.47936884  1
  O  O17  1  0.71014195  0.88258449  0.52063116  1
