# generated using pymatgen
data_ErZn3
_symmetry_space_group_name_H-M   'P 1'
_cell_length_a   4.37748251
_cell_length_b   6.63745273
_cell_length_c   10.04603787
_cell_angle_alpha   90.00000000
_cell_angle_beta   90.00000000
_cell_angle_gamma   90.00000000
_symmetry_Int_Tables_number   1
_chemical_formula_structural   ErZn3
_chemical_formula_sum   'Er4 Zn12'
_cell_volume   291.89097802
_cell_formula_units_Z   4
loop_
 _symmetry_equiv_pos_site_id
 _symmetry_equiv_pos_as_xyz
  1  'x, y, z'
loop_
 _atom_site_type_symbol
 _atom_site_label
 _atom_site_symmetry_multiplicity
 _atom_site_fract_x
 _atom_site_fract_y
 _atom_site_fract_z
 _atom_site_occupancy
  Er  Er0  1  0.75000000  0.22109834  0.83579064  1
  Er  Er1  1  0.75000000  0.72109834  0.66420936  1
  Er  Er2  1  0.25000000  0.77890166  0.16420936  1
  Er  Er3  1  0.25000000  0.27890166  0.33579064  1
  Zn  Zn4  1  0.75000000  0.96407637  0.39655297  1
  Zn  Zn5  1  0.75000000  0.46407637  0.10344703  1
  Zn  Zn6  1  0.25000000  0.03592363  0.60344703  1
  Zn  Zn7  1  0.25000000  0.53592363  0.89655297  1
  Zn  Zn8  1  0.75000000  0.58048180  0.35241938  1
  Zn  Zn9  1  0.75000000  0.08048180  0.14758062  1
  Zn  Zn10  1  0.25000000  0.41951820  0.64758062  1
  Zn  Zn11  1  0.25000000  0.91951820  0.85241938  1
  Zn  Zn12  1  0.75000000  0.28376246  0.54261017  1
  Zn  Zn13  1  0.75000000  0.78376246  0.95738983  1
  Zn  Zn14  1  0.25000000  0.71623754  0.45738983  1
  Zn  Zn15  1  0.25000000  0.21623754  0.04261017  1
