# generated using pymatgen
data_Fe5(O4F)2
_symmetry_space_group_name_H-M   'P 1'
_cell_length_a   4.66147864
_cell_length_b   7.60707158
_cell_length_c   9.78461691
_cell_angle_alpha   109.78103890
_cell_angle_beta   91.48555238
_cell_angle_gamma   88.98943013
_symmetry_Int_Tables_number   1
_chemical_formula_structural   Fe5(O4F)2
_chemical_formula_sum   'Fe10 O16 F4'
_cell_volume   326.36686838
_cell_formula_units_Z   2
loop_
 _symmetry_equiv_pos_site_id
 _symmetry_equiv_pos_as_xyz
  1  'x, y, z'
loop_
 _atom_site_type_symbol
 _atom_site_label
 _atom_site_symmetry_multiplicity
 _atom_site_fract_x
 _atom_site_fract_y
 _atom_site_fract_z
 _atom_site_occupancy
  Fe  Fe0  1  0.48639105  0.31199962  0.89849082  1
  Fe  Fe1  1  0.52439574  0.10230719  0.29597112  1
  Fe  Fe2  1  0.47863212  0.89447828  0.69348642  1
  Fe  Fe3  1  0.52540747  0.70461899  0.09525041  1
  Fe  Fe4  1  0.51280473  0.49854363  0.49209217  1
  Fe  Fe5  1  0.98726905  0.60940779  0.80590276  1
  Fe  Fe6  1  0.96990204  0.19624920  0.61254656  1
  Fe  Fe7  1  0.97378534  0.79155755  0.40897423  1
  Fe  Fe8  1  -0.00006859  0.39094271  0.19497618  1
  Fe  Fe9  1  0.02920412  0.99966039  0.00355197  1
  O  O10  1  0.81828242  0.77927031  0.98218484  1
  O  O11  1  0.79110928  0.95753307  0.58010781  1
  O  O12  1  0.81176055  0.54810893  0.36860884  1
  O  O13  1  0.80005812  0.37259215  0.78313628  1
  O  O14  1  0.82506167  0.14972146  0.16949433  1
  O  O15  1  0.68461258  0.65616858  0.67398028  1
  O  O16  1  0.69566897  0.46759458  0.07717518  1
  O  O17  1  0.69426256  0.85961491  0.28010190  1
  O  O18  1  0.69169330  0.25920673  0.47769408  1
  O  O19  1  0.29941977  0.14063233  0.72312267  1
  O  O20  1  0.29478004  0.72646103  0.51681776  1
  O  O21  1  0.31654970  0.33426241  0.32025419  1
  O  O22  1  0.32487691  0.93740489  0.12861608  1
  O  O23  1  0.30499261  0.55330279  0.92669716  1
  O  O24  1  0.19054927  0.84540265  0.82492337  1
  O  O25  1  0.19696706  0.23522066  0.01926481  1
  F  F26  1  0.69526440  0.06498054  0.87741275  1
  F  F27  1  0.18921150  0.43695425  0.62130206  1
  F  F28  1  0.18749776  0.03649799  0.42523470  1
  F  F29  1  0.19965948  0.63930539  0.22262625  1
