# generated using pymatgen
data_TmSiPd2
_symmetry_space_group_name_H-M   'P 1'
_cell_length_a   5.50889095
_cell_length_b   6.98463484
_cell_length_c   7.28515717
_cell_angle_alpha   90.00000000
_cell_angle_beta   90.00000000
_cell_angle_gamma   90.00000000
_symmetry_Int_Tables_number   1
_chemical_formula_structural   TmSiPd2
_chemical_formula_sum   'Tm4 Si4 Pd8'
_cell_volume   280.31530276
_cell_formula_units_Z   4
loop_
 _symmetry_equiv_pos_site_id
 _symmetry_equiv_pos_as_xyz
  1  'x, y, z'
loop_
 _atom_site_type_symbol
 _atom_site_label
 _atom_site_symmetry_multiplicity
 _atom_site_fract_x
 _atom_site_fract_y
 _atom_site_fract_z
 _atom_site_occupancy
  Tm  Tm0  1  0.14332152  0.75000000  0.47209406  1
  Tm  Tm1  1  0.35667848  0.75000000  0.97209406  1
  Tm  Tm2  1  0.85667848  0.25000000  0.52790594  1
  Tm  Tm3  1  0.64332152  0.25000000  0.02790594  1
  Si  Si4  1  0.85701214  0.75000000  0.12195326  1
  Si  Si5  1  0.64298786  0.75000000  0.62195326  1
  Si  Si6  1  0.14298786  0.25000000  0.87804674  1
  Si  Si7  1  0.35701214  0.25000000  0.37804674  1
  Pd  Pd8  1  0.59398093  0.94966876  0.32135751  1
  Pd  Pd9  1  0.90601907  0.55033124  0.82135751  1
  Pd  Pd10  1  0.40601907  0.44966876  0.67864249  1
  Pd  Pd11  1  0.09398093  0.05033124  0.17864249  1
  Pd  Pd12  1  0.40601907  0.05033124  0.67864249  1
  Pd  Pd13  1  0.09398093  0.44966876  0.17864249  1
  Pd  Pd14  1  0.59398093  0.55033124  0.32135751  1
  Pd  Pd15  1  0.90601907  0.94966876  0.82135751  1
