# generated using pymatgen
data_Ho3In5
_symmetry_space_group_name_H-M   'P 1'
_cell_length_a   6.39708472
_cell_length_b   6.39708472
_cell_length_c   10.37121515
_cell_angle_alpha   90.00000000
_cell_angle_beta   90.00000000
_cell_angle_gamma   102.01734412
_symmetry_Int_Tables_number   1
_chemical_formula_structural   Ho3In5
_chemical_formula_sum   'Ho6 In10'
_cell_volume   415.11676926
_cell_formula_units_Z   2
loop_
 _symmetry_equiv_pos_site_id
 _symmetry_equiv_pos_as_xyz
  1  'x, y, z'
loop_
 _atom_site_type_symbol
 _atom_site_label
 _atom_site_symmetry_multiplicity
 _atom_site_fract_x
 _atom_site_fract_y
 _atom_site_fract_z
 _atom_site_occupancy
  Ho  Ho0  1  0.62592657  0.62592657  0.25000000  1
  Ho  Ho1  1  0.37407343  0.37407343  0.75000000  1
  Ho  Ho2  1  0.79694120  0.20305880  0.50000000  1
  Ho  Ho3  1  0.79694120  0.20305880  -0.00000000  1
  Ho  Ho4  1  0.20305880  0.79694120  0.50000000  1
  Ho  Ho5  1  0.20305880  0.79694120  -0.00000000  1
  In  In6  1  0.00942685  0.00942685  0.25000000  1
  In  In7  1  0.99057315  0.99057315  0.75000000  1
  In  In8  1  0.30857880  0.30857880  0.04553099  1
  In  In9  1  0.69142120  0.69142120  0.95446901  1
  In  In10  1  0.30857880  0.30857880  0.45446901  1
  In  In11  1  0.69142120  0.69142120  0.54553099  1
  In  In12  1  0.07119899  0.50890117  0.25000000  1
  In  In13  1  0.49109883  0.92880101  0.75000000  1
  In  In14  1  0.92880101  0.49109883  0.75000000  1
  In  In15  1  0.50890117  0.07119899  0.25000000  1
