# generated using pymatgen
data_PrGe2Ir
_symmetry_space_group_name_H-M   'P 1'
_cell_length_a   4.41931923
_cell_length_b   9.09129585
_cell_length_c   9.61187033
_cell_angle_alpha   118.22402252
_cell_angle_beta   103.29051452
_cell_angle_gamma   90.00000000
_symmetry_Int_Tables_number   1
_chemical_formula_structural   PrGe2Ir
_chemical_formula_sum   'Pr4 Ge8 Ir4'
_cell_volume   328.47902209
_cell_formula_units_Z   4
loop_
 _symmetry_equiv_pos_site_id
 _symmetry_equiv_pos_as_xyz
  1  'x, y, z'
loop_
 _atom_site_type_symbol
 _atom_site_label
 _atom_site_symmetry_multiplicity
 _atom_site_fract_x
 _atom_site_fract_y
 _atom_site_fract_z
 _atom_site_occupancy
  Pr  Pr0  1  0.00000000  0.26465106  0.00000000  1
  Pr  Pr1  1  0.00000000  0.73534894  0.00000000  1
  Pr  Pr2  1  0.79230286  0.29230286  0.58460571  1
  Pr  Pr3  1  0.20769714  0.70769714  0.41539429  1
  Ge  Ge4  1  0.42102050  0.92102050  0.84204099  1
  Ge  Ge5  1  0.57897950  0.07897950  0.15795901  1
  Ge  Ge6  1  0.42195118  0.42195118  0.84390236  1
  Ge  Ge7  1  0.57804882  0.57804882  0.15609764  1
  Ge  Ge8  1  0.19919018  0.04211069  0.39838037  1
  Ge  Ge9  1  0.80080982  0.95788931  0.60161963  1
  Ge  Ge10  1  0.19919018  0.35626967  0.39838037  1
  Ge  Ge11  1  0.80080982  0.64373033  0.60161963  1
  Ir  Ir12  1  0.35405858  0.10140119  0.70811716  1
  Ir  Ir13  1  0.64594142  0.89859881  0.29188284  1
  Ir  Ir14  1  0.35405858  0.60671596  0.70811716  1
  Ir  Ir15  1  0.64594142  0.39328404  0.29188284  1
