# generated using pymatgen
data_Tb6RuBr10
_symmetry_space_group_name_H-M   'P 1'
_cell_length_a   7.38210883
_cell_length_b   9.23488076
_cell_length_c   9.28342423
_cell_angle_alpha   108.83180393
_cell_angle_beta   97.11563505
_cell_angle_gamma   105.91514352
_symmetry_Int_Tables_number   1
_chemical_formula_structural   Tb6RuBr10
_chemical_formula_sum   'Tb6 Ru1 Br10'
_cell_volume   560.13798918
_cell_formula_units_Z   1
loop_
 _symmetry_equiv_pos_site_id
 _symmetry_equiv_pos_as_xyz
  1  'x, y, z'
loop_
 _atom_site_type_symbol
 _atom_site_label
 _atom_site_symmetry_multiplicity
 _atom_site_fract_x
 _atom_site_fract_y
 _atom_site_fract_z
 _atom_site_occupancy
  Tb  Tb0  1  0.12218110  0.04382248  0.74985139  1
  Tb  Tb1  1  0.87781890  0.95617752  0.25014861  1
  Tb  Tb2  1  0.97697383  0.29931354  0.09405764  1
  Tb  Tb3  1  0.02302617  0.70068646  0.90594236  1
  Tb  Tb4  1  0.36493312  0.14068763  0.18230425  1
  Tb  Tb5  1  0.63506688  0.85931237  0.81769575  1
  Ru  Ru6  1  -0.00000000  -0.00000000  0.00000000  1
  Br  Br7  1  0.55012249  0.17825863  0.91538441  1
  Br  Br8  1  0.44987751  0.82174137  0.08461559  1
  Br  Br9  1  0.36251077  0.46287650  0.27759359  1
  Br  Br10  1  0.63748923  0.53712350  0.72240641  1
  Br  Br11  1  0.25888650  0.08615885  0.46101802  1
  Br  Br12  1  0.74111350  0.91384115  0.53898198  1
  Br  Br13  1  0.79946954  0.26438435  0.35479426  1
  Br  Br14  1  0.20053046  0.73561565  0.64520574  1
  Br  Br15  1  0.08881263  0.36967692  0.82593366  1
  Br  Br16  1  0.91118737  0.63032308  0.17406634  1
