# generated using pymatgen
data_Zr5CuPb3
_symmetry_space_group_name_H-M   'P 1'
_cell_length_a   5.94310025
_cell_length_b   8.80386821
_cell_length_c   8.80356407
_cell_angle_alpha   120.00437119
_cell_angle_beta   90.00175422
_cell_angle_gamma   89.99868793
_symmetry_Int_Tables_number   1
_chemical_formula_structural   Zr5CuPb3
_chemical_formula_sum   'Zr10 Cu2 Pb6'
_cell_volume   398.89318690
_cell_formula_units_Z   2
loop_
 _symmetry_equiv_pos_site_id
 _symmetry_equiv_pos_as_xyz
  1  'x, y, z'
loop_
 _atom_site_type_symbol
 _atom_site_label
 _atom_site_symmetry_multiplicity
 _atom_site_fract_x
 _atom_site_fract_y
 _atom_site_fract_z
 _atom_site_occupancy
  Zr  Zr0  1  0.49998533  0.33332000  0.66665308  1
  Zr  Zr1  1  0.49998522  0.66667493  0.33336413  1
  Zr  Zr2  1  0.00001522  0.66667064  0.33328706  1
  Zr  Zr3  1  0.00001508  0.33335345  0.66672957  1
  Zr  Zr4  1  0.75006769  0.25859262  0.99998016  1
  Zr  Zr5  1  0.74999076  0.74143496  0.74144679  1
  Zr  Zr6  1  0.75000914  0.99996888  0.25859355  1
  Zr  Zr7  1  0.24992024  0.74138809  0.00001041  1
  Zr  Zr8  1  0.25001668  0.25858753  0.25858278  1
  Zr  Zr9  1  0.24999566  0.00001527  0.74138356  1
  Cu  Cu10  1  0.50000113  -0.00000155  0.99997648  1
  Cu  Cu11  1  0.99999542  -0.00000379  0.99997792  1
  Pb  Pb12  1  0.75003965  0.61321837  0.00000315  1
  Pb  Pb13  1  0.75001300  0.38674687  0.38674778  1
  Pb  Pb14  1  0.75003526  0.00000033  0.61323725  1
  Pb  Pb15  1  0.24994642  0.38676807  0.99999105  1
  Pb  Pb16  1  0.24999718  0.61326936  0.61326315  1
  Pb  Pb17  1  0.24997093  -0.00000404  0.38677214  1
