# generated using pymatgen
data_TmB2Ru
_symmetry_space_group_name_H-M   'P 1'
_cell_length_a   5.28656418
_cell_length_b   5.85784676
_cell_length_c   6.31439019
_cell_angle_alpha   90.00000000
_cell_angle_beta   90.00000000
_cell_angle_gamma   90.00000000
_symmetry_Int_Tables_number   1
_chemical_formula_structural   TmB2Ru
_chemical_formula_sum   'Tm4 B8 Ru4'
_cell_volume   195.54329569
_cell_formula_units_Z   4
loop_
 _symmetry_equiv_pos_site_id
 _symmetry_equiv_pos_as_xyz
  1  'x, y, z'
loop_
 _atom_site_type_symbol
 _atom_site_label
 _atom_site_symmetry_multiplicity
 _atom_site_fract_x
 _atom_site_fract_y
 _atom_site_fract_z
 _atom_site_occupancy
  Tm  Tm0  1  0.75000000  0.48869259  0.16440937  1
  Tm  Tm1  1  0.75000000  0.98869259  0.33559063  1
  Tm  Tm2  1  0.25000000  0.51130741  0.83559063  1
  Tm  Tm3  1  0.25000000  0.01130741  0.66440937  1
  B  B4  1  0.91614941  0.13306099  0.96334781  1
  B  B5  1  0.58385059  0.63306099  0.53665219  1
  B  B6  1  0.41614941  0.86693901  0.03665219  1
  B  B7  1  0.08385059  0.36693901  0.46334781  1
  B  B8  1  0.08385059  0.86693901  0.03665219  1
  B  B9  1  0.41614941  0.36693901  0.46334781  1
  B  B10  1  0.58385059  0.13306099  0.96334781  1
  B  B11  1  0.91614941  0.63306099  0.53665219  1
  Ru  Ru12  1  0.75000000  0.31808946  0.68183797  1
  Ru  Ru13  1  0.75000000  0.81808946  0.81816203  1
  Ru  Ru14  1  0.25000000  0.68191054  0.31816203  1
  Ru  Ru15  1  0.25000000  0.18191054  0.18183797  1
