# generated using pymatgen
data_ErAl
_symmetry_space_group_name_H-M   'P 1'
_cell_length_a   5.82207028
_cell_length_b   5.58738085
_cell_length_c   11.32674428
_cell_angle_alpha   90.00000000
_cell_angle_beta   90.00000000
_cell_angle_gamma   90.00000000
_symmetry_Int_Tables_number   1
_chemical_formula_structural   ErAl
_chemical_formula_sum   'Er8 Al8'
_cell_volume   368.46039583
_cell_formula_units_Z   8
loop_
 _symmetry_equiv_pos_site_id
 _symmetry_equiv_pos_as_xyz
  1  'x, y, z'
loop_
 _atom_site_type_symbol
 _atom_site_label
 _atom_site_symmetry_multiplicity
 _atom_site_fract_x
 _atom_site_fract_y
 _atom_site_fract_z
 _atom_site_occupancy
  Er  Er0  1  0.83904530  0.25000000  0.51587282  1
  Er  Er1  1  0.16095470  0.75000000  0.48412718  1
  Er  Er2  1  0.83904530  0.75000000  0.98412718  1
  Er  Er3  1  0.16095470  0.25000000  0.01587282  1
  Er  Er4  1  0.60159109  0.25000000  0.83279183  1
  Er  Er5  1  0.39840891  0.75000000  0.16720817  1
  Er  Er6  1  0.60159109  0.75000000  0.66720817  1
  Er  Er7  1  0.39840891  0.25000000  0.33279183  1
  Al  Al8  1  0.06634734  0.50000000  0.75000000  1
  Al  Al9  1  0.93365266  0.00000000  0.25000000  1
  Al  Al10  1  0.93365266  0.50000000  0.25000000  1
  Al  Al11  1  0.06634734  -0.00000000  0.75000000  1
  Al  Al12  1  0.33943666  0.25000000  0.59841360  1
  Al  Al13  1  0.66056334  0.75000000  0.40158640  1
  Al  Al14  1  0.33943666  0.75000000  0.90158640  1
  Al  Al15  1  0.66056334  0.25000000  0.09841360  1
