# generated using pymatgen
data_Y6NiBr10
_symmetry_space_group_name_H-M   'P 1'
_cell_length_a   7.34212222
_cell_length_b   9.16107022
_cell_length_c   9.18574983
_cell_angle_alpha   108.38255062
_cell_angle_beta   97.03397418
_cell_angle_gamma   105.77807946
_symmetry_Int_Tables_number   1
_chemical_formula_structural   Y6NiBr10
_chemical_formula_sum   'Y6 Ni1 Br10'
_cell_volume   549.36980011
_cell_formula_units_Z   1
loop_
 _symmetry_equiv_pos_site_id
 _symmetry_equiv_pos_as_xyz
  1  'x, y, z'
loop_
 _atom_site_type_symbol
 _atom_site_label
 _atom_site_symmetry_multiplicity
 _atom_site_fract_x
 _atom_site_fract_y
 _atom_site_fract_z
 _atom_site_occupancy
  Y  Y0  1  0.87840522  0.95697401  0.24552984  1
  Y  Y1  1  0.12159478  0.04302599  0.75447016  1
  Y  Y2  1  0.02603392  0.70283089  0.90592559  1
  Y  Y3  1  0.97396608  0.29716911  0.09407441  1
  Y  Y4  1  0.64143897  0.86418889  0.82257187  1
  Y  Y5  1  0.35856103  0.13581111  0.17742813  1
  Ni  Ni6  1  -0.00000000  -0.00000000  0.00000000  1
  Br  Br7  1  0.63958813  0.53918038  0.72475421  1
  Br  Br8  1  0.36041187  0.46081962  0.27524579  1
  Br  Br9  1  0.74269234  0.91402946  0.53750160  1
  Br  Br10  1  0.25730766  0.08597054  0.46249840  1
  Br  Br11  1  0.91337856  0.62887779  0.17561410  1
  Br  Br12  1  0.08662144  0.37112221  0.82438590  1
  Br  Br13  1  0.54893612  0.17887167  0.91294902  1
  Br  Br14  1  0.45106388  0.82112833  0.08705098  1
  Br  Br15  1  0.21219517  0.73840212  0.64830185  1
  Br  Br16  1  0.78780483  0.26159788  0.35169815  1
