# generated using pymatgen
data_CuAgF3
_symmetry_space_group_name_H-M   'P 1'
_cell_length_a   5.64557332
_cell_length_b   5.66193927
_cell_length_c   8.03958757
_cell_angle_alpha   90.53907162
_cell_angle_beta   90.25823251
_cell_angle_gamma   88.83931565
_symmetry_Int_Tables_number   1
_chemical_formula_structural   CuAgF3
_chemical_formula_sum   'Cu4 Ag4 F12'
_cell_volume   256.91806379
_cell_formula_units_Z   4
loop_
 _symmetry_equiv_pos_site_id
 _symmetry_equiv_pos_as_xyz
  1  'x, y, z'
loop_
 _atom_site_type_symbol
 _atom_site_label
 _atom_site_symmetry_multiplicity
 _atom_site_fract_x
 _atom_site_fract_y
 _atom_site_fract_z
 _atom_site_occupancy
  Cu  Cu0  1  0.00000000  0.50000000  -0.00000000  1
  Cu  Cu1  1  0.50000000  -0.00000000  -0.00000000  1
  Cu  Cu2  1  0.00000000  0.50000000  0.50000000  1
  Cu  Cu3  1  0.50000000  -0.00000000  0.50000000  1
  Ag  Ag4  1  0.52669420  0.49238572  0.74993571  1
  Ag  Ag5  1  0.47330580  0.50761428  0.25006429  1
  Ag  Ag6  1  0.02621112  0.00240278  0.75040995  1
  Ag  Ag7  1  0.97378888  0.99759722  0.24959005  1
  F  F8  1  0.28653230  0.28682365  0.96016269  1
  F  F9  1  0.71346770  0.71317635  0.03983731  1
  F  F10  1  0.20131133  0.77468419  0.03345216  1
  F  F11  1  0.79868867  0.22531581  0.96654784  1
  F  F12  1  0.28439044  0.28343309  0.54177667  1
  F  F13  1  0.71560956  0.71656691  0.45822333  1
  F  F14  1  0.22705234  0.79990038  0.46675952  1
  F  F15  1  0.77294766  0.20009962  0.53324048  1
  F  F16  1  0.98022698  0.57047124  0.73739927  1
  F  F17  1  0.01977302  0.42952876  0.26260073  1
  F  F18  1  0.49503440  0.92551165  0.76221812  1
  F  F19  1  0.50496560  0.07448835  0.23778188  1
