# generated using pymatgen
data_Dy2Si4Mo3
_symmetry_space_group_name_H-M   'P 1'
_cell_length_a   6.86123569
_cell_length_b   6.92245554
_cell_length_c   6.74778325
_cell_angle_alpha   90.00000000
_cell_angle_beta   108.85181845
_cell_angle_gamma   90.00000000
_symmetry_Int_Tables_number   1
_chemical_formula_structural   Dy2Si4Mo3
_chemical_formula_sum   'Dy4 Si8 Mo6'
_cell_volume   303.30448085
_cell_formula_units_Z   2
loop_
 _symmetry_equiv_pos_site_id
 _symmetry_equiv_pos_as_xyz
  1  'x, y, z'
loop_
 _atom_site_type_symbol
 _atom_site_label
 _atom_site_symmetry_multiplicity
 _atom_site_fract_x
 _atom_site_fract_y
 _atom_site_fract_z
 _atom_site_occupancy
  Dy  Dy0  1  0.19060217  0.33116859  0.56071557  1
  Dy  Dy1  1  0.80939783  0.83116859  0.93928443  1
  Dy  Dy2  1  0.80939783  0.66883141  0.43928443  1
  Dy  Dy3  1  0.19060217  0.16883141  0.06071557  1
  Si  Si4  1  0.09078601  0.54453570  0.86895975  1
  Si  Si5  1  0.90921399  0.04453570  0.63104025  1
  Si  Si6  1  0.90921399  0.45546430  0.13104025  1
  Si  Si7  1  0.09078601  0.95546430  0.36895975  1
  Si  Si8  1  0.50491138  0.13207575  0.87071897  1
  Si  Si9  1  0.49508862  0.63207575  0.62928103  1
  Si  Si10  1  0.49508862  0.86792425  0.12928103  1
  Si  Si11  1  0.50491138  0.36792425  0.37071897  1
  Mo  Mo12  1  0.50000000  0.50000000  0.00000000  1
  Mo  Mo13  1  0.50000000  0.00000000  0.50000000  1
  Mo  Mo14  1  0.24895597  0.83736197  0.75024353  1
  Mo  Mo15  1  0.75104403  0.33736197  0.74975647  1
  Mo  Mo16  1  0.75104403  0.16263803  0.24975647  1
  Mo  Mo17  1  0.24895597  0.66263803  0.25024353  1
