# generated using pymatgen
data_La5AsPb3
_symmetry_space_group_name_H-M   'P 1'
_cell_length_a   7.37645480
_cell_length_b   9.71444576
_cell_length_c   9.71439692
_cell_angle_alpha   120.00016629
_cell_angle_beta   90.00000000
_cell_angle_gamma   90.00000000
_symmetry_Int_Tables_number   1
_chemical_formula_structural   La5AsPb3
_chemical_formula_sum   'La10 As2 Pb6'
_cell_volume   602.85304848
_cell_formula_units_Z   2
loop_
 _symmetry_equiv_pos_site_id
 _symmetry_equiv_pos_as_xyz
  1  'x, y, z'
loop_
 _atom_site_type_symbol
 _atom_site_label
 _atom_site_symmetry_multiplicity
 _atom_site_fract_x
 _atom_site_fract_y
 _atom_site_fract_z
 _atom_site_occupancy
  La  La0  1  0.75000741  0.24151829  1.00000000  1
  La  La1  1  0.75000305  0.75844261  0.75841367  1
  La  La2  1  0.75000305  0.00002894  0.24158633  1
  La  La3  1  0.25000741  0.75848171  0.00000000  1
  La  La4  1  0.25000305  0.24155739  0.24158633  1
  La  La5  1  0.25000305  0.99997106  0.75841367  1
  La  La6  1  0.49999214  0.33332053  0.66671411  1
  La  La7  1  0.49999214  0.66660642  0.33328589  1
  La  La8  1  0.99999214  0.66667947  0.33328589  1
  La  La9  1  0.99999214  0.33339358  0.66671411  1
  As  As10  1  0.49999729  0.99999683  -0.00000000  1
  As  As11  1  0.99999729  0.00000317  0.00000000  1
  Pb  Pb12  1  0.75000647  0.59893127  0.00000000  1
  Pb  Pb13  1  0.74999923  0.40108520  0.40109632  1
  Pb  Pb14  1  0.74999923  0.99998888  0.59890368  1
  Pb  Pb15  1  0.25000647  0.40106873  -0.00000000  1
  Pb  Pb16  1  0.24999923  0.59891480  0.59890368  1
  Pb  Pb17  1  0.24999923  0.00001112  0.40109632  1
