# generated using pymatgen
data_Ce5Ge3C
_symmetry_space_group_name_H-M   'P 1'
_cell_length_a   6.26707944
_cell_length_b   8.84874137
_cell_length_c   8.85652293
_cell_angle_alpha   119.97094088
_cell_angle_beta   90.00000000
_cell_angle_gamma   90.00000000
_symmetry_Int_Tables_number   1
_chemical_formula_structural   Ce5Ge3C
_chemical_formula_sum   'Ce10 Ge6 C2'
_cell_volume   425.46876249
_cell_formula_units_Z   2
loop_
 _symmetry_equiv_pos_site_id
 _symmetry_equiv_pos_as_xyz
  1  'x, y, z'
loop_
 _atom_site_type_symbol
 _atom_site_label
 _atom_site_symmetry_multiplicity
 _atom_site_fract_x
 _atom_site_fract_y
 _atom_site_fract_z
 _atom_site_occupancy
  Ce  Ce0  1  0.50000650  0.33330597  0.66662863  1
  Ce  Ce1  1  0.50000650  0.66667735  0.33337137  1
  Ce  Ce2  1  0.00000650  0.66669403  0.33337137  1
  Ce  Ce3  1  0.00000650  0.33332265  0.66662863  1
  Ce  Ce4  1  0.74996808  0.22644438  0.00000000  1
  Ce  Ce5  1  0.75000727  0.77349899  0.77358041  1
  Ce  Ce6  1  0.75000727  0.99991859  0.22641959  1
  Ce  Ce7  1  0.24996808  0.77355562  1.00000000  1
  Ce  Ce8  1  0.25000727  0.22650101  0.22641959  1
  Ce  Ce9  1  0.25000727  0.00008141  0.77358041  1
  Ge  Ge10  1  0.75000406  0.60492265  0.00000000  1
  Ge  Ge11  1  0.75000921  0.39503256  0.39503798  1
  Ge  Ge12  1  0.75000921  -0.00000542  0.60496202  1
  Ge  Ge13  1  0.25000406  0.39507735  1.00000000  1
  Ge  Ge14  1  0.25000921  0.60496744  0.60496202  1
  Ge  Ge15  1  0.25000921  0.00000542  0.39503798  1
  C  C16  1  0.49998190  0.99999736  1.00000000  1
  C  C17  1  0.99998190  0.00000264  0.00000000  1
