# generated using pymatgen
data_LaGaPd2
_symmetry_space_group_name_H-M   'P 1'
_cell_length_a   5.92002531
_cell_length_b   7.11245562
_cell_length_c   7.67602518
_cell_angle_alpha   90.00000000
_cell_angle_beta   90.00000000
_cell_angle_gamma   90.00000000
_symmetry_Int_Tables_number   1
_chemical_formula_structural   LaGaPd2
_chemical_formula_sum   'La4 Ga4 Pd8'
_cell_volume   323.20608132
_cell_formula_units_Z   4
loop_
 _symmetry_equiv_pos_site_id
 _symmetry_equiv_pos_as_xyz
  1  'x, y, z'
loop_
 _atom_site_type_symbol
 _atom_site_label
 _atom_site_symmetry_multiplicity
 _atom_site_fract_x
 _atom_site_fract_y
 _atom_site_fract_z
 _atom_site_occupancy
  La  La0  1  0.15180718  0.75000000  0.46677518  1
  La  La1  1  0.34819282  0.75000000  0.96677518  1
  La  La2  1  0.84819282  0.25000000  0.53322482  1
  La  La3  1  0.65180718  0.25000000  0.03322482  1
  Ga  Ga4  1  0.84795483  0.75000000  0.12076224  1
  Ga  Ga5  1  0.65204517  0.75000000  0.62076224  1
  Ga  Ga6  1  0.15204517  0.25000000  0.87923776  1
  Ga  Ga7  1  0.34795483  0.25000000  0.37923776  1
  Pd  Pd8  1  0.58778594  0.94694990  0.32324449  1
  Pd  Pd9  1  0.91221406  0.55305010  0.82324449  1
  Pd  Pd10  1  0.41221406  0.44694990  0.67675551  1
  Pd  Pd11  1  0.08778594  0.05305010  0.17675551  1
  Pd  Pd12  1  0.41221406  0.05305010  0.67675551  1
  Pd  Pd13  1  0.08778594  0.44694990  0.17675551  1
  Pd  Pd14  1  0.58778594  0.55305010  0.32324449  1
  Pd  Pd15  1  0.91221406  0.94694990  0.82324449  1
