# generated using pymatgen
data_Sr2HoTaO6
_symmetry_space_group_name_H-M   'P 1'
_cell_length_a   5.86392394
_cell_length_b   5.91961025
_cell_length_c   8.30421205
_cell_angle_alpha   90.00000000
_cell_angle_beta   89.85974757
_cell_angle_gamma   90.00000000
_symmetry_Int_Tables_number   1
_chemical_formula_structural   Sr2HoTaO6
_chemical_formula_sum   'Sr4 Ho2 Ta2 O12'
_cell_volume   288.25614288
_cell_formula_units_Z   2
loop_
 _symmetry_equiv_pos_site_id
 _symmetry_equiv_pos_as_xyz
  1  'x, y, z'
loop_
 _atom_site_type_symbol
 _atom_site_label
 _atom_site_symmetry_multiplicity
 _atom_site_fract_x
 _atom_site_fract_y
 _atom_site_fract_z
 _atom_site_occupancy
  Sr  Sr0  1  0.49221963  0.03367967  0.25037447  1
  Sr  Sr1  1  0.99221963  0.46632033  0.75037447  1
  Sr  Sr2  1  0.50778037  0.96632033  0.74962553  1
  Sr  Sr3  1  0.00778037  0.53367967  0.24962553  1
  Ho  Ho4  1  0.50000000  0.50000000  0.50000000  1
  Ho  Ho5  1  -0.00000000  0.00000000  0.00000000  1
  Ta  Ta6  1  0.50000000  0.50000000  0.00000000  1
  Ta  Ta7  1  -0.00000000  0.00000000  0.50000000  1
  O  O8  1  0.42029172  0.52122032  0.76438384  1
  O  O9  1  0.92029172  0.97877968  0.26438384  1
  O  O10  1  0.57970828  0.47877968  0.23561616  1
  O  O11  1  0.07970828  0.02122032  0.73561616  1
  O  O12  1  0.19876873  0.27255247  0.45539687  1
  O  O13  1  0.69876873  0.22744753  0.95539687  1
  O  O14  1  0.80123127  0.72744753  0.54460313  1
  O  O15  1  0.30123127  0.77255247  0.04460313  1
  O  O16  1  0.27162949  0.79947479  0.46019887  1
  O  O17  1  0.77162949  0.70052521  0.96019887  1
  O  O18  1  0.72837051  0.20052521  0.53980113  1
  O  O19  1  0.22837051  0.29947479  0.03980113  1
