# generated using pymatgen
data_Lu2Se3
_symmetry_space_group_name_H-M   'P 1'
_cell_length_a   6.95324980
_cell_length_b   6.95324980
_cell_length_c   12.71351064
_cell_angle_alpha   100.63583119
_cell_angle_beta   100.63583119
_cell_angle_gamma   108.96975410
_symmetry_Int_Tables_number   1
_chemical_formula_structural   Lu2Se3
_chemical_formula_sum   'Lu8 Se12'
_cell_volume   551.16778580
_cell_formula_units_Z   4
loop_
 _symmetry_equiv_pos_site_id
 _symmetry_equiv_pos_as_xyz
  1  'x, y, z'
loop_
 _atom_site_type_symbol
 _atom_site_label
 _atom_site_symmetry_multiplicity
 _atom_site_fract_x
 _atom_site_fract_y
 _atom_site_fract_z
 _atom_site_occupancy
  Lu  Lu0  1  0.70887199  0.95887199  0.91774399  1
  Lu  Lu1  1  0.54112801  0.79112801  0.58225601  1
  Lu  Lu2  1  0.29112801  0.04112801  0.08225601  1
  Lu  Lu3  1  0.45887199  0.20887199  0.41774399  1
  Lu  Lu4  1  0.37218840  0.62218840  0.24437681  1
  Lu  Lu5  1  0.87781160  0.12781160  0.25562319  1
  Lu  Lu6  1  0.62781160  0.37781160  0.75562319  1
  Lu  Lu7  1  0.12218840  0.87218840  0.74437681  1
  Se  Se8  1  0.86986555  0.11986555  0.75000000  1
  Se  Se9  1  0.38013445  0.63013445  0.75000000  1
  Se  Se10  1  0.13013445  0.88013445  0.25000000  1
  Se  Se11  1  0.61986555  0.36986555  0.25000000  1
  Se  Se12  1  0.54875262  0.80199785  0.08732494  1
  Se  Se13  1  0.69800215  0.95124738  0.41267506  1
  Se  Se14  1  0.21467292  0.46142768  0.41267506  1
  Se  Se15  1  0.03857232  0.28532708  0.08732494  1
  Se  Se16  1  0.45124738  0.19800215  0.91267506  1
  Se  Se17  1  0.30199785  0.04875262  0.58732494  1
  Se  Se18  1  0.78532708  0.53857232  0.58732494  1
  Se  Se19  1  0.96142768  0.71467292  0.91267506  1
