# generated using pymatgen
data_Sr3(AlAs2)2
_symmetry_space_group_name_H-M   'P 1'
_cell_length_a   6.89085330
_cell_length_b   8.61891232
_cell_length_c   8.61891232
_cell_angle_alpha   75.51740957
_cell_angle_beta   90.23122862
_cell_angle_gamma   90.23122862
_symmetry_Int_Tables_number   1
_chemical_formula_structural   Sr3(AlAs2)2
_chemical_formula_sum   'Sr6 Al4 As8'
_cell_volume   495.61902435
_cell_formula_units_Z   2
loop_
 _symmetry_equiv_pos_site_id
 _symmetry_equiv_pos_as_xyz
  1  'x, y, z'
loop_
 _atom_site_type_symbol
 _atom_site_label
 _atom_site_symmetry_multiplicity
 _atom_site_fract_x
 _atom_site_fract_y
 _atom_site_fract_z
 _atom_site_occupancy
  Sr  Sr0  1  0.96173369  0.00698235  0.74829234  1
  Sr  Sr1  1  0.53826631  0.25170766  0.99301765  1
  Sr  Sr2  1  0.03826631  0.99301765  0.25170766  1
  Sr  Sr3  1  0.46173369  0.74829234  0.00698235  1
  Sr  Sr4  1  0.25000000  0.40173136  0.59826864  1
  Sr  Sr5  1  0.75000000  0.59826864  0.40173136  1
  Al  Al6  1  0.41921689  0.82828824  0.58178849  1
  Al  Al7  1  0.08078311  0.41821151  0.17171176  1
  Al  Al8  1  0.58078311  0.17171176  0.41821151  1
  Al  Al9  1  0.91921689  0.58178849  0.82828824  1
  As  As10  1  0.47531635  0.05946088  0.70872537  1
  As  As11  1  0.02468365  0.29127463  0.94053912  1
  As  As12  1  0.52468365  0.94053912  0.29127463  1
  As  As13  1  0.97531635  0.70872537  0.05946088  1
  As  As14  1  0.07374595  0.74144583  0.57599061  1
  As  As15  1  0.42625405  0.42400939  0.25855417  1
  As  As16  1  0.92625405  0.25855417  0.42400939  1
  As  As17  1  0.57374595  0.57599061  0.74144583  1
