# generated using pymatgen
data_BaNb2V2O11
_symmetry_space_group_name_H-M   'P 1'
_cell_length_a   5.65701396
_cell_length_b   5.65701396
_cell_length_c   10.17590078
_cell_angle_alpha   73.86143265
_cell_angle_beta   73.86143265
_cell_angle_gamma   59.99999537
_symmetry_Int_Tables_number   1
_chemical_formula_structural   BaNb2V2O11
_chemical_formula_sum   'Ba1 Nb2 V2 O11'
_cell_volume   267.09771061
_cell_formula_units_Z   1
loop_
 _symmetry_equiv_pos_site_id
 _symmetry_equiv_pos_as_xyz
  1  'x, y, z'
loop_
 _atom_site_type_symbol
 _atom_site_label
 _atom_site_symmetry_multiplicity
 _atom_site_fract_x
 _atom_site_fract_y
 _atom_site_fract_z
 _atom_site_occupancy
  Ba  Ba0  1  0.00000000  -0.00000000  -0.00000000  1
  Nb  Nb1  1  0.13112142  0.13112142  0.60663575  1
  Nb  Nb2  1  0.86887858  0.86887858  0.39336425  1
  V  V3  1  0.40000227  0.40000227  0.79999318  1
  V  V4  1  0.59999773  0.59999773  0.20000682  1
  O  O5  1  0.00000000  0.50000000  0.50000000  1
  O  O6  1  0.50000000  -0.00000000  0.50000000  1
  O  O7  1  0.00000000  0.00000000  0.50000000  1
  O  O8  1  0.24524678  0.24524678  0.74721266  1
  O  O9  1  0.24524678  0.76229377  0.74721266  1
  O  O10  1  0.76229377  0.24524678  0.74721266  1
  O  O11  1  0.75475322  0.75475322  0.25278734  1
  O  O12  1  0.75475322  0.23770623  0.25278734  1
  O  O13  1  0.23770623  0.75475322  0.25278734  1
  O  O14  1  0.34189768  0.34189768  0.97430696  1
  O  O15  1  0.65810232  0.65810232  0.02569304  1
