# generated using pymatgen
data_Ce(ErS2)3
_symmetry_space_group_name_H-M   'P 1'
_cell_length_a   3.96668331
_cell_length_b   11.27441444
_cell_length_c   11.03745199
_cell_angle_alpha   108.79824166
_cell_angle_beta   90.00000000
_cell_angle_gamma   90.00000000
_symmetry_Int_Tables_number   1
_chemical_formula_structural   Ce(ErS2)3
_chemical_formula_sum   'Ce2 Er6 S12'
_cell_volume   467.28731151
_cell_formula_units_Z   2
loop_
 _symmetry_equiv_pos_site_id
 _symmetry_equiv_pos_as_xyz
  1  'x, y, z'
loop_
 _atom_site_type_symbol
 _atom_site_label
 _atom_site_symmetry_multiplicity
 _atom_site_fract_x
 _atom_site_fract_y
 _atom_site_fract_z
 _atom_site_occupancy
  Ce  Ce0  1  0.25000000  0.19421870  0.54938132  1
  Ce  Ce1  1  0.75000000  0.80578130  0.45061868  1
  Er  Er2  1  0.25000000  0.00038773  0.17968967  1
  Er  Er3  1  0.75000000  0.99961227  0.82031033  1
  Er  Er4  1  0.25000000  0.33319025  0.94287809  1
  Er  Er5  1  0.75000000  0.66680975  0.05712191  1
  Er  Er6  1  0.25000000  0.58649219  0.66009591  1
  Er  Er7  1  0.75000000  0.41350781  0.33990409  1
  S  S8  1  0.25000000  0.11155966  0.97867308  1
  S  S9  1  0.75000000  0.88844034  0.02132692  1
  S  S10  1  0.25000000  0.25041502  0.30397242  1
  S  S11  1  0.75000000  0.74958498  0.69602758  1
  S  S12  1  0.25000000  0.55786607  0.89325221  1
  S  S13  1  0.75000000  0.44213393  0.10674779  1
  S  S14  1  0.25000000  0.59476774  0.41865734  1
  S  S15  1  0.75000000  0.40523226  0.58134266  1
  S  S16  1  0.25000000  0.77001563  0.23325670  1
  S  S17  1  0.75000000  0.22998437  0.76674330  1
  S  S18  1  0.25000000  0.96291018  0.61830551  1
  S  S19  1  0.75000000  0.03708982  0.38169449  1
