# generated using pymatgen
data_Zr5GeSb3
_symmetry_space_group_name_H-M   'P 1'
_cell_length_a   5.87565925
_cell_length_b   8.71712130
_cell_length_c   8.71714411
_cell_angle_alpha   119.99991701
_cell_angle_beta   90.00000000
_cell_angle_gamma   90.00000000
_symmetry_Int_Tables_number   1
_chemical_formula_structural   Zr5GeSb3
_chemical_formula_sum   'Zr10 Ge2 Sb6'
_cell_volume   386.66504363
_cell_formula_units_Z   2
loop_
 _symmetry_equiv_pos_site_id
 _symmetry_equiv_pos_as_xyz
  1  'x, y, z'
loop_
 _atom_site_type_symbol
 _atom_site_label
 _atom_site_symmetry_multiplicity
 _atom_site_fract_x
 _atom_site_fract_y
 _atom_site_fract_z
 _atom_site_occupancy
  Zr  Zr0  1  0.49999916  0.33333539  0.66666397  1
  Zr  Zr1  1  0.49999916  0.66667142  0.33333603  1
  Zr  Zr2  1  0.99999916  0.66666461  0.33333603  1
  Zr  Zr3  1  0.99999916  0.33332858  0.66666397  1
  Zr  Zr4  1  0.74999655  0.26466628  1.00000000  1
  Zr  Zr5  1  0.75000197  0.73532475  0.73533459  1
  Zr  Zr6  1  0.75000197  0.99999016  0.26466541  1
  Zr  Zr7  1  0.24999655  0.73533372  0.00000000  1
  Zr  Zr8  1  0.25000197  0.26467525  0.26466541  1
  Zr  Zr9  1  0.25000197  0.00000984  0.73533459  1
  Ge  Ge10  1  0.49999802  -0.00000181  0.00000000  1
  Ge  Ge11  1  0.99999802  0.00000181  -0.00000000  1
  Sb  Sb12  1  0.75000281  0.60577146  0.00000000  1
  Sb  Sb13  1  0.75000017  0.39422513  0.39422666  1
  Sb  Sb14  1  0.75000017  0.99999847  0.60577334  1
  Sb  Sb15  1  0.25000281  0.39422854  1.00000000  1
  Sb  Sb16  1  0.25000017  0.60577487  0.60577334  1
  Sb  Sb17  1  0.25000017  0.00000153  0.39422666  1
