# generated using pymatgen
data_Cr2NiH20(NO7)2
_symmetry_space_group_name_H-M   'P 1'
_cell_length_a   6.39298347
_cell_length_b   9.43001753
_cell_length_c   12.69824429
_cell_angle_alpha   90.00000000
_cell_angle_beta   90.00000000
_cell_angle_gamma   106.25928153
_symmetry_Int_Tables_number   1
_chemical_formula_structural   Cr2NiH20(NO7)2
_chemical_formula_sum   'Cr4 Ni2 H40 N4 O28'
_cell_volume   734.90809918
_cell_formula_units_Z   2
loop_
 _symmetry_equiv_pos_site_id
 _symmetry_equiv_pos_as_xyz
  1  'x, y, z'
loop_
 _atom_site_type_symbol
 _atom_site_label
 _atom_site_symmetry_multiplicity
 _atom_site_fract_x
 _atom_site_fract_y
 _atom_site_fract_z
 _atom_site_occupancy
  Cr  Cr0  1  0.74095685  0.90786978  0.36399903  1
  Cr  Cr1  1  0.25904315  0.59213022  0.86399903  1
  Cr  Cr2  1  0.25904315  0.09213022  0.63600097  1
  Cr  Cr3  1  0.74095685  0.40786978  0.13600097  1
  Ni  Ni4  1  -0.00000000  0.50000000  0.50000000  1
  Ni  Ni5  1  -0.00000000  -0.00000000  0.00000000  1
  H  H6  1  0.19935713  0.06239123  0.32980745  1
  H  H7  1  0.80064287  0.43760877  0.82980745  1
  H  H8  1  0.80064287  0.93760877  0.67019255  1
  H  H9  1  0.19935713  0.56239123  0.17019255  1
  H  H10  1  0.38652664  0.22516727  0.29453141  1
  H  H11  1  0.61347336  0.27483273  0.79453141  1
  H  H12  1  0.61347336  0.77483273  0.70546859  1
  H  H13  1  0.38652664  0.72516727  0.20546859  1
  H  H14  1  0.46238829  0.07200910  0.32355571  1
  H  H15  1  0.53761171  0.42799090  0.82355571  1
  H  H16  1  0.53761171  0.92799090  0.67644429  1
  H  H17  1  0.46238829  0.57200910  0.17644429  1
  H  H18  1  0.37191895  0.16673271  0.42114901  1
  H  H19  1  0.62808105  0.33326729  0.92114901  1
  H  H20  1  0.62808105  0.83326729  0.57885099  1
  H  H21  1  0.37191895  0.66673271  0.07885099  1
  H  H22  1  0.32078697  0.70982738  0.41778815  1
  H  H23  1  0.67921303  0.79017262  0.91778815  1
  H  H24  1  0.67921303  0.29017262  0.58221185  1
  H  H25  1  0.32078697  0.20982738  0.08221185  1
  H  H26  1  0.10143789  0.74318433  0.37713633  1
  H  H27  1  0.89856211  0.75681567  0.87713633  1
  H  H28  1  0.89856211  0.25681567  0.62286367  1
  H  H29  1  0.10143789  0.24318433  0.12286367  1
  H  H30  1  0.94282839  0.24097211  0.40729882  1
  H  H31  1  0.05717161  0.25902789  0.90729882  1
  H  H32  1  0.05717161  0.75902789  0.59270118  1
  H  H33  1  0.94282839  0.74097211  0.09270118  1
  H  H34  1  0.01199104  0.36254019  0.31719041  1
  H  H35  1  0.98800896  0.13745981  0.81719041  1
  H  H36  1  0.98800896  0.63745981  0.68280959  1
  H  H37  1  0.01199104  0.86254019  0.18280959  1
  H  H38  1  0.33571242  0.40403347  0.55398961  1
  H  H39  1  0.66428758  0.09596653  0.05398961  1
  H  H40  1  0.66428758  0.59596653  0.44601039  1
  H  H41  1  0.33571242  0.90403347  0.94601039  1
  H  H42  1  0.32949179  0.52593063  0.63947807  1
  H  H43  1  0.67050821  0.97406937  0.13947807  1
  H  H44  1  0.67050821  0.47406937  0.36052193  1
  H  H45  1  0.32949179  0.02593063  0.86052193  1
  N  N46  1  0.35469950  0.13253714  0.34222193  1
  N  N47  1  0.64530050  0.36746286  0.84222193  1
  N  N48  1  0.64530050  0.86746286  0.65777807  1
  N  N49  1  0.35469950  0.63253714  0.15777807  1
  O  O50  1  0.57310809  0.91445909  0.26396669  1
  O  O51  1  0.42689191  0.58554091  0.76396669  1
  O  O52  1  0.42689191  0.08554091  0.73603331  1
  O  O53  1  0.57310809  0.41445909  0.23603331  1
  O  O54  1  0.79499128  0.06552624  0.42820739  1
  O  O55  1  0.20500872  0.43447376  0.92820739  1
  O  O56  1  0.20500872  0.93447376  0.57179261  1
  O  O57  1  0.79499128  0.56552624  0.07179261  1
  O  O58  1  0.61246933  0.77125162  0.44545706  1
  O  O59  1  0.38753067  0.72874838  0.94545706  1
  O  O60  1  0.38753067  0.22874838  0.55454294  1
  O  O61  1  0.61246933  0.27125162  0.05454294  1
  O  O62  1  0.97290931  0.88082491  0.31773055  1
  O  O63  1  0.02709069  0.61917509  0.81773055  1
  O  O64  1  0.02709069  0.11917509  0.68226945  1
  O  O65  1  0.97290931  0.38082491  0.18226945  1
  O  O66  1  0.16804623  0.66343761  0.39503577  1
  O  O67  1  0.83195377  0.83656239  0.89503577  1
  O  O68  1  0.83195377  0.33656239  0.60496423  1
  O  O69  1  0.16804623  0.16343761  0.10496423  1
  O  O70  1  0.03601632  0.34304722  0.39267011  1
  O  O71  1  0.96398368  0.15695278  0.89267011  1
  O  O72  1  0.96398368  0.65695278  0.60732989  1
  O  O73  1  0.03601632  0.84304722  0.10732989  1
  O  O74  1  0.29238053  0.49604834  0.56515015  1
  O  O75  1  0.70761947  0.00395166  0.06515015  1
  O  O76  1  0.70761947  0.50395166  0.43484985  1
  O  O77  1  0.29238053  0.99604834  0.93484985  1
