# generated using pymatgen
data_Li2HN
_symmetry_space_group_name_H-M   'P 1'
_cell_length_a   3.60049159
_cell_length_b   4.91745059
_cell_length_c   7.83922693
_cell_angle_alpha   90.00000000
_cell_angle_beta   90.00000000
_cell_angle_gamma   90.00000000
_symmetry_Int_Tables_number   1
_chemical_formula_structural   Li2HN
_chemical_formula_sum   'Li8 H4 N4'
_cell_volume   138.79539024
_cell_formula_units_Z   4
loop_
 _symmetry_equiv_pos_site_id
 _symmetry_equiv_pos_as_xyz
  1  'x, y, z'
loop_
 _atom_site_type_symbol
 _atom_site_label
 _atom_site_symmetry_multiplicity
 _atom_site_fract_x
 _atom_site_fract_y
 _atom_site_fract_z
 _atom_site_occupancy
  Li  Li0  1  0.25000000  0.03573712  0.60181653  1
  Li  Li1  1  0.25000000  0.46426288  0.10181653  1
  Li  Li2  1  0.75000000  0.96426288  0.39818347  1
  Li  Li3  1  0.75000000  0.53573712  0.89818347  1
  Li  Li4  1  0.25000000  0.59000639  0.70227530  1
  Li  Li5  1  0.25000000  0.90999361  0.20227530  1
  Li  Li6  1  0.75000000  0.40999361  0.29772470  1
  Li  Li7  1  0.75000000  0.09000639  0.79772470  1
  H  H8  1  0.25000000  0.10691864  0.92153848  1
  H  H9  1  0.25000000  0.39308136  0.42153848  1
  H  H10  1  0.75000000  0.89308136  0.07846152  1
  H  H11  1  0.75000000  0.60691864  0.57846152  1
  N  N12  1  0.25000000  0.28583211  0.85249629  1
  N  N13  1  0.25000000  0.21416789  0.35249629  1
  N  N14  1  0.75000000  0.71416789  0.14750371  1
  N  N15  1  0.75000000  0.78583211  0.64750371  1
