# generated using pymatgen
data_Sc7CoCl12
_symmetry_space_group_name_H-M   'P 1'
_cell_length_a   8.34573954
_cell_length_b   8.34573954
_cell_length_c   8.34573968
_cell_angle_alpha   107.01832892
_cell_angle_beta   107.01832892
_cell_angle_gamma   107.01833508
_symmetry_Int_Tables_number   1
_chemical_formula_structural   Sc7CoCl12
_chemical_formula_sum   'Sc7 Co1 Cl12'
_cell_volume   483.86341947
_cell_formula_units_Z   1
loop_
 _symmetry_equiv_pos_site_id
 _symmetry_equiv_pos_as_xyz
  1  'x, y, z'
loop_
 _atom_site_type_symbol
 _atom_site_label
 _atom_site_symmetry_multiplicity
 _atom_site_fract_x
 _atom_site_fract_y
 _atom_site_fract_z
 _atom_site_occupancy
  Sc  Sc0  1  0.97704943  0.89867754  0.69059688  1
  Sc  Sc1  1  0.89867754  0.69059688  0.97704943  1
  Sc  Sc2  1  0.69059688  0.97704943  0.89867754  1
  Sc  Sc3  1  0.02295057  0.10132246  0.30940312  1
  Sc  Sc4  1  0.10132246  0.30940312  0.02295057  1
  Sc  Sc5  1  0.30940312  0.02295057  0.10132246  1
  Sc  Sc6  1  0.50000000  0.50000000  0.50000000  1
  Co  Co7  1  0.00000000  0.00000000  0.00000000  1
  Cl  Cl8  1  0.82965810  0.54144599  0.61565107  1
  Cl  Cl9  1  0.54144599  0.61565107  0.82965810  1
  Cl  Cl10  1  0.61565107  0.82965810  0.54144599  1
  Cl  Cl11  1  0.17034190  0.45855401  0.38434893  1
  Cl  Cl12  1  0.45855401  0.38434893  0.17034190  1
  Cl  Cl13  1  0.38434893  0.17034190  0.45855401  1
  Cl  Cl14  1  0.06933300  0.21610009  0.67878207  1
  Cl  Cl15  1  0.21610009  0.67878207  0.06933300  1
  Cl  Cl16  1  0.67878207  0.06933300  0.21610009  1
  Cl  Cl17  1  0.93066700  0.78389991  0.32121793  1
  Cl  Cl18  1  0.78389991  0.32121793  0.93066700  1
  Cl  Cl19  1  0.32121793  0.93066700  0.78389991  1
