# generated using pymatgen
data_YWC2
_symmetry_space_group_name_H-M   'P 1'
_cell_length_a   3.39053509
_cell_length_b   5.73763854
_cell_length_c   10.81983757
_cell_angle_alpha   90.00000000
_cell_angle_beta   90.00000000
_cell_angle_gamma   90.00000000
_symmetry_Int_Tables_number   1
_chemical_formula_structural   YWC2
_chemical_formula_sum   'Y4 W4 C8'
_cell_volume   210.48549332
_cell_formula_units_Z   4
loop_
 _symmetry_equiv_pos_site_id
 _symmetry_equiv_pos_as_xyz
  1  'x, y, z'
loop_
 _atom_site_type_symbol
 _atom_site_label
 _atom_site_symmetry_multiplicity
 _atom_site_fract_x
 _atom_site_fract_y
 _atom_site_fract_z
 _atom_site_occupancy
  Y  Y0  1  0.75000000  0.41467666  0.63679457  1
  Y  Y1  1  0.75000000  0.91467666  0.86320543  1
  Y  Y2  1  0.25000000  0.58532334  0.36320543  1
  Y  Y3  1  0.25000000  0.08532334  0.13679457  1
  W  W4  1  0.75000000  0.09665817  0.38939532  1
  W  W5  1  0.75000000  0.59665817  0.11060468  1
  W  W6  1  0.25000000  0.90334183  0.61060468  1
  W  W7  1  0.25000000  0.40334183  0.88939532  1
  C  C8  1  0.75000000  0.33950024  0.25275018  1
  C  C9  1  0.75000000  0.83950024  0.24724982  1
  C  C10  1  0.25000000  0.66049976  0.74724982  1
  C  C11  1  0.25000000  0.16049976  0.75275018  1
  C  C12  1  0.75000000  0.77820350  0.51557281  1
  C  C13  1  0.75000000  0.27820350  0.98442719  1
  C  C14  1  0.25000000  0.22179650  0.48442719  1
  C  C15  1  0.25000000  0.72179650  0.01557281  1
