# generated using pymatgen
data_Tb6IrBr10
_symmetry_space_group_name_H-M   'P 1'
_cell_length_a   7.41247219
_cell_length_b   9.23073057
_cell_length_c   9.23417759
_cell_angle_alpha   108.49766880
_cell_angle_beta   97.20642250
_cell_angle_gamma   105.89478416
_symmetry_Int_Tables_number   1
_chemical_formula_structural   Tb6IrBr10
_chemical_formula_sum   'Tb6 Ir1 Br10'
_cell_volume   560.44071281
_cell_formula_units_Z   1
loop_
 _symmetry_equiv_pos_site_id
 _symmetry_equiv_pos_as_xyz
  1  'x, y, z'
loop_
 _atom_site_type_symbol
 _atom_site_label
 _atom_site_symmetry_multiplicity
 _atom_site_fract_x
 _atom_site_fract_y
 _atom_site_fract_z
 _atom_site_occupancy
  Tb  Tb0  1  0.97678618  0.30250170  0.09729410  1
  Tb  Tb1  1  0.02321382  0.69749830  0.90270590  1
  Tb  Tb2  1  0.63103869  0.85740741  0.81688890  1
  Tb  Tb3  1  0.36896131  0.14259259  0.18311110  1
  Tb  Tb4  1  0.12455473  0.04381346  0.75148314  1
  Tb  Tb5  1  0.87544527  0.95618654  0.24851686  1
  Ir  Ir6  1  -0.00000000  0.00000000  0.00000000  1
  Br  Br7  1  0.55054665  0.17786705  0.91513214  1
  Br  Br8  1  0.44945335  0.82213295  0.08486786  1
  Br  Br9  1  0.74314108  0.91494899  0.54015588  1
  Br  Br10  1  0.25685892  0.08505101  0.45984412  1
  Br  Br11  1  0.08824956  0.37046157  0.82713713  1
  Br  Br12  1  0.91175044  0.62953843  0.17286287  1
  Br  Br13  1  0.20301562  0.73542242  0.64439494  1
  Br  Br14  1  0.79698438  0.26457758  0.35560506  1
  Br  Br15  1  0.63582512  0.53627566  0.72289417  1
  Br  Br16  1  0.36417488  0.46372434  0.27710583  1
