# generated using pymatgen
data_Na2In2GeS6
_symmetry_space_group_name_H-M   'P 1'
_cell_length_a   7.36257931
_cell_length_b   7.36257931
_cell_length_c   12.46312591
_cell_angle_alpha   74.39542779
_cell_angle_beta   74.39542779
_cell_angle_gamma   65.38660493
_symmetry_Int_Tables_number   1
_chemical_formula_structural   Na2In2GeS6
_chemical_formula_sum   'Na4 In4 Ge2 S12'
_cell_volume   581.98928439
_cell_formula_units_Z   2
loop_
 _symmetry_equiv_pos_site_id
 _symmetry_equiv_pos_as_xyz
  1  'x, y, z'
loop_
 _atom_site_type_symbol
 _atom_site_label
 _atom_site_symmetry_multiplicity
 _atom_site_fract_x
 _atom_site_fract_y
 _atom_site_fract_z
 _atom_site_occupancy
  Na  Na0  1  0.09341744  0.46813810  0.65708279  1
  Na  Na1  1  0.46813810  0.09341744  0.15708279  1
  Na  Na2  1  0.92611012  0.07356151  0.49958454  1
  Na  Na3  1  0.07356151  0.92611012  0.99958454  1
  In  In4  1  0.38648262  0.54428224  0.30679624  1
  In  In5  1  0.54428224  0.38648262  0.80679624  1
  In  In6  1  0.71241095  0.58307109  0.00234231  1
  In  In7  1  0.58307109  0.71241095  0.50234231  1
  Ge  Ge8  1  0.93225135  0.48828795  0.25145683  1
  Ge  Ge9  1  0.48828795  0.93225135  0.75145683  1
  S  S10  1  0.26199450  0.70667466  0.47619643  1
  S  S11  1  0.70667466  0.26199450  0.97619643  1
  S  S12  1  0.39322998  0.77780167  0.12104266  1
  S  S13  1  0.77780167  0.39322998  0.62104266  1
  S  S14  1  0.74782903  0.29294791  0.30090313  1
  S  S15  1  0.29294791  0.74782903  0.80090313  1
  S  S16  1  0.78456759  0.78783676  0.30749019  1
  S  S17  1  0.78783676  0.78456759  0.80749019  1
  S  S18  1  0.20820595  0.30187159  0.33315962  1
  S  S19  1  0.30187159  0.20820595  0.83315962  1
  S  S20  1  0.03186524  0.53144176  0.06379526  1
  S  S21  1  0.53144176  0.03186524  0.56379526  1
