# generated using pymatgen
data_Np2SO10
_symmetry_space_group_name_H-M   'P 1'
_cell_length_a   14.30348484
_cell_length_b   5.50917757
_cell_length_c   14.60784407
_cell_angle_alpha   90.00000000
_cell_angle_beta   98.45558972
_cell_angle_gamma   90.00000000
_symmetry_Int_Tables_number   1
_chemical_formula_structural   Np2SO10
_chemical_formula_sum   'Np8 S4 O40'
_cell_volume   1138.59215756
_cell_formula_units_Z   4
loop_
 _symmetry_equiv_pos_site_id
 _symmetry_equiv_pos_as_xyz
  1  'x, y, z'
loop_
 _atom_site_type_symbol
 _atom_site_label
 _atom_site_symmetry_multiplicity
 _atom_site_fract_x
 _atom_site_fract_y
 _atom_site_fract_z
 _atom_site_occupancy
  Np  Np0  1  0.34383063  0.81344663  0.65779000  1
  Np  Np1  1  0.65616937  0.81344663  0.84221000  1
  Np  Np2  1  0.65616937  0.18655237  0.34221000  1
  Np  Np3  1  0.34383063  0.18655237  0.15779000  1
  Np  Np4  1  0.13730321  0.31971158  0.66989525  1
  Np  Np5  1  0.86269679  0.31971158  0.83010475  1
  Np  Np6  1  0.86269679  0.68028842  0.33010475  1
  Np  Np7  1  0.13730321  0.68028842  0.16989525  1
  S  S8  1  0.24962520  0.62614255  0.86358737  1
  S  S9  1  0.75037480  0.62614255  0.63641263  1
  S  S10  1  0.75037480  0.37385745  0.13641263  1
  S  S11  1  0.24962520  0.37385745  0.36358737  1
  O  O12  1  0.16900136  0.77905640  0.87011598  1
  O  O13  1  0.83099864  0.77905640  0.62988402  1
  O  O14  1  0.83099864  0.22094360  0.12988402  1
  O  O15  1  0.16900136  0.22094360  0.37011598  1
  O  O16  1  0.29995388  0.52429374  0.94731160  1
  O  O17  1  0.70004612  0.52429374  0.55268840  1
  O  O18  1  0.70004612  0.47570626  0.05268840  1
  O  O19  1  0.29995388  0.47570626  0.44731160  1
  O  O20  1  0.31708295  0.74389760  0.80607351  1
  O  O21  1  0.68291705  0.74389760  0.69392649  1
  O  O22  1  0.68291705  0.25610240  0.19392649  1
  O  O23  1  0.31708295  0.25610240  0.30607351  1
  O  O24  1  0.21134750  0.39092247  0.80089935  1
  O  O25  1  0.78865250  0.39092247  0.69910065  1
  O  O26  1  0.78865250  0.60907753  0.19910065  1
  O  O27  1  0.21134750  0.60907753  0.30089935  1
  O  O28  1  0.45044138  0.64203233  0.64358006  1
  O  O29  1  0.54955862  0.64203233  0.85641994  1
  O  O30  1  0.54955862  0.35796767  0.35641994  1
  O  O31  1  0.45044138  0.35796767  0.14358006  1
  O  O32  1  0.06378766  0.24056588  0.56161968  1
  O  O33  1  0.93621234  0.24056588  0.93838032  1
  O  O34  1  0.93621234  0.75943412  0.43838032  1
  O  O35  1  0.06378766  0.75943412  0.06161968  1
  O  O36  1  0.26151499  0.54898306  0.63456685  1
  O  O37  1  0.73848501  0.54898306  0.86543315  1
  O  O38  1  0.73848501  0.45101694  0.36543315  1
  O  O39  1  0.26151499  0.45101694  0.13456685  1
  O  O40  1  0.40859725  0.09000632  0.68139007  1
  O  O41  1  0.59140275  0.09000632  0.81860993  1
  O  O42  1  0.59140275  0.90999368  0.31860993  1
  O  O43  1  0.40859725  0.90999368  0.18139007  1
  O  O44  1  0.07066759  0.59214414  0.68256296  1
  O  O45  1  0.92933241  0.59214414  0.81743704  1
  O  O46  1  0.92933241  0.40785586  0.31743704  1
  O  O47  1  0.07066759  0.40785586  0.18256296  1
  O  O48  1  0.21587855  0.03996329  0.65892653  1
  O  O49  1  0.78412145  0.03996329  0.84107347  1
  O  O50  1  0.78412145  0.96003671  0.34107347  1
  O  O51  1  0.21587855  0.96003671  0.15892653  1
