# generated using pymatgen
data_Tb7MnBr12
_symmetry_space_group_name_H-M   'P 1'
_cell_length_a   9.25000686
_cell_length_b   9.25000686
_cell_length_c   9.25000673
_cell_angle_alpha   106.81585851
_cell_angle_beta   106.81585856
_cell_angle_gamma   106.81585992
_symmetry_Int_Tables_number   1
_chemical_formula_structural   Tb7MnBr12
_chemical_formula_sum   'Tb7 Mn1 Br12'
_cell_volume   662.41422752
_cell_formula_units_Z   1
loop_
 _symmetry_equiv_pos_site_id
 _symmetry_equiv_pos_as_xyz
  1  'x, y, z'
loop_
 _atom_site_type_symbol
 _atom_site_label
 _atom_site_symmetry_multiplicity
 _atom_site_fract_x
 _atom_site_fract_y
 _atom_site_fract_z
 _atom_site_occupancy
  Tb  Tb0  1  -0.00000000  -0.00000000  -0.00000000  1
  Tb  Tb1  1  0.40279129  0.47904668  0.19657680  1
  Tb  Tb2  1  0.47904668  0.19657680  0.40279129  1
  Tb  Tb3  1  0.19657680  0.40279129  0.47904668  1
  Tb  Tb4  1  0.59720871  0.52095332  0.80342320  1
  Tb  Tb5  1  0.52095332  0.80342320  0.59720871  1
  Tb  Tb6  1  0.80342320  0.59720871  0.52095332  1
  Mn  Mn7  1  0.50000000  0.50000000  0.50000000  1
  Br  Br8  1  0.43074521  0.82087413  0.27809803  1
  Br  Br9  1  0.82087413  0.27809803  0.43074521  1
  Br  Br10  1  0.27809803  0.43074521  0.82087413  1
  Br  Br11  1  0.56925479  0.17912587  0.72190197  1
  Br  Br12  1  0.17912587  0.72190197  0.56925479  1
  Br  Br13  1  0.72190197  0.56925479  0.17912587  1
  Br  Br14  1  0.33476410  0.11545995  0.03824754  1
  Br  Br15  1  0.11545995  0.03824754  0.33476410  1
  Br  Br16  1  0.03824754  0.33476410  0.11545995  1
  Br  Br17  1  0.66523590  0.88454005  0.96175246  1
  Br  Br18  1  0.88454005  0.96175246  0.66523590  1
  Br  Br19  1  0.96175246  0.66523590  0.88454005  1
