# generated using pymatgen
data_Gd2ZnTe2(SO7)2
_symmetry_space_group_name_H-M   'P 1'
_cell_length_a   5.33233953
_cell_length_b   7.99024850
_cell_length_c   8.24370528
_cell_angle_alpha   63.86463417
_cell_angle_beta   73.38304656
_cell_angle_gamma   85.34746325
_symmetry_Int_Tables_number   1
_chemical_formula_structural   Gd2ZnTe2(SO7)2
_chemical_formula_sum   'Gd2 Zn1 Te2 S2 O14'
_cell_volume   301.74563091
_cell_formula_units_Z   1
loop_
 _symmetry_equiv_pos_site_id
 _symmetry_equiv_pos_as_xyz
  1  'x, y, z'
loop_
 _atom_site_type_symbol
 _atom_site_label
 _atom_site_symmetry_multiplicity
 _atom_site_fract_x
 _atom_site_fract_y
 _atom_site_fract_z
 _atom_site_occupancy
  Gd  Gd0  1  0.91822870  0.74742151  0.98488152  1
  Gd  Gd1  1  0.08177130  0.25257849  0.01511848  1
  Zn  Zn2  1  -0.00000000  0.00000000  0.50000000  1
  Te  Te3  1  0.48378894  0.72931154  0.66016884  1
  Te  Te4  1  0.51621106  0.27068846  0.33983116  1
  S  S5  1  0.23823816  0.75272393  0.25257697  1
  S  S6  1  0.76176184  0.24727607  0.74742303  1
  O  O7  1  0.11280696  0.59189941  0.25506082  1
  O  O8  1  0.88719304  0.40810059  0.74493918  1
  O  O9  1  0.12928564  0.76927635  0.43100574  1
  O  O10  1  0.87071436  0.23072365  0.56899426  1
  O  O11  1  0.52580781  0.73321081  0.22005089  1
  O  O12  1  0.47419219  0.26678919  0.77994911  1
  O  O13  1  0.17792875  0.92164898  0.09054707  1
  O  O14  1  0.82207125  0.07835102  0.90945293  1
  O  O15  1  0.25077924  0.56207617  0.89232227  1
  O  O16  1  0.74922076  0.43792383  0.10767773  1
  O  O17  1  0.72159898  0.80660026  0.75051314  1
  O  O18  1  0.27840102  0.19339974  0.24948686  1
  O  O19  1  0.24951279  0.92434250  0.66535207  1
  O  O20  1  0.75048721  0.07565750  0.33464793  1
