# generated using pymatgen
data_Tb2CuTe2(SO7)2
_symmetry_space_group_name_H-M   'P 1'
_cell_length_a   5.22151106
_cell_length_b   7.99775069
_cell_length_c   8.25684754
_cell_angle_alpha   62.23020142
_cell_angle_beta   74.21608202
_cell_angle_gamma   85.39033746
_symmetry_Int_Tables_number   1
_chemical_formula_structural   Tb2CuTe2(SO7)2
_chemical_formula_sum   'Tb2 Cu1 Te2 S2 O14'
_cell_volume   293.15653292
_cell_formula_units_Z   1
loop_
 _symmetry_equiv_pos_site_id
 _symmetry_equiv_pos_as_xyz
  1  'x, y, z'
loop_
 _atom_site_type_symbol
 _atom_site_label
 _atom_site_symmetry_multiplicity
 _atom_site_fract_x
 _atom_site_fract_y
 _atom_site_fract_z
 _atom_site_occupancy
  Tb  Tb0  1  0.92608738  0.74878120  0.98221183  1
  Tb  Tb1  1  0.07391262  0.25121880  0.01778817  1
  Cu  Cu2  1  0.00000000  -0.00000000  0.50000000  1
  Te  Te3  1  0.48838539  0.72920220  0.65426356  1
  Te  Te4  1  0.51161461  0.27079780  0.34573644  1
  S  S5  1  0.25079376  0.74787443  0.25102531  1
  S  S6  1  0.74920624  0.25212557  0.74897469  1
  O  O7  1  0.13734316  0.58757821  0.24193079  1
  O  O8  1  0.86265684  0.41242179  0.75806921  1
  O  O9  1  0.13913590  0.74801342  0.43421093  1
  O  O10  1  0.86086410  0.25198658  0.56578907  1
  O  O11  1  0.54538927  0.73733475  0.21479066  1
  O  O12  1  0.45461073  0.26266525  0.78520934  1
  O  O13  1  0.17515478  0.92137359  0.09317372  1
  O  O14  1  0.82484522  0.07862641  0.90682628  1
  O  O15  1  0.25124136  0.56178979  0.88983910  1
  O  O16  1  0.74875864  0.43821021  0.11016090  1
  O  O17  1  0.72938177  0.81252397  0.74341895  1
  O  O18  1  0.27061823  0.18747603  0.25658105  1
  O  O19  1  0.24925811  0.92735229  0.65748028  1
  O  O20  1  0.75074189  0.07264771  0.34251972  1
