# generated using pymatgen
data_V2Zn3TePb3O14
_symmetry_space_group_name_H-M   'P 1'
_cell_length_a   5.27676602
_cell_length_b   8.78446708
_cell_length_c   8.78440158
_cell_angle_alpha   119.99972939
_cell_angle_beta   89.99997941
_cell_angle_gamma   90.00092635
_symmetry_Int_Tables_number   1
_chemical_formula_structural   V2Zn3TePb3O14
_chemical_formula_sum   'V2 Zn3 Te1 Pb3 O14'
_cell_volume   352.63649335
_cell_formula_units_Z   1
loop_
 _symmetry_equiv_pos_site_id
 _symmetry_equiv_pos_as_xyz
  1  'x, y, z'
loop_
 _atom_site_type_symbol
 _atom_site_label
 _atom_site_symmetry_multiplicity
 _atom_site_fract_x
 _atom_site_fract_y
 _atom_site_fract_z
 _atom_site_occupancy
  V  V0  1  0.54571972  0.66664241  0.33332045  1
  V  V1  1  0.45428396  0.33335508  0.66667580  1
  Zn  Zn2  1  0.50000055  0.24181239  0.99999449  1
  Zn  Zn3  1  0.50000215  0.99999960  0.24182226  1
  Zn  Zn4  1  0.50000045  0.75818790  0.75818349  1
  Te  Te5  1  0.99999965  0.00000103  0.00000364  1
  Pb  Pb6  1  0.99999852  0.00000142  0.60803472  1
  Pb  Pb7  1  0.00000436  0.39197341  0.39197328  1
  Pb  Pb8  1  0.99999473  0.60802669  -0.00000103  1
  O  O9  1  0.22039289  0.66661186  0.33330758  1
  O  O10  1  0.77960708  0.33339001  0.66669684  1
  O  O11  1  0.78733205  0.08663317  0.87673164  1
  O  O12  1  0.78733321  0.12326092  0.20989865  1
  O  O13  1  0.78732601  0.79010018  0.91336383  1
  O  O14  1  0.21266901  0.91336667  0.79009809  1
  O  O15  1  0.21267297  0.20989463  0.12325895  1
  O  O16  1  0.21267182  0.87674004  0.08663902  1
  O  O17  1  0.66865600  0.73858596  0.54472674  1
  O  O18  1  0.66868005  0.45526122  0.19385811  1
  O  O19  1  0.66864522  0.80613030  0.26140294  1
  O  O20  1  0.33133944  0.26141442  0.80614224  1
  O  O21  1  0.33135280  0.19387084  0.45527097  1
  O  O22  1  0.33131734  0.54473983  0.73859731  1
