# generated using pymatgen
data_KTb(WO4)2
_symmetry_space_group_name_H-M   'P 1'
_cell_length_a   7.60874117
_cell_length_b   7.60874117
_cell_length_c   7.49200432
_cell_angle_alpha   62.38977651
_cell_angle_beta   62.38977651
_cell_angle_gamma   88.45660590
_symmetry_Int_Tables_number   1
_chemical_formula_structural   KTb(WO4)2
_chemical_formula_sum   'K2 Tb2 W4 O16'
_cell_volume   330.68223457
_cell_formula_units_Z   2
loop_
 _symmetry_equiv_pos_site_id
 _symmetry_equiv_pos_as_xyz
  1  'x, y, z'
loop_
 _atom_site_type_symbol
 _atom_site_label
 _atom_site_symmetry_multiplicity
 _atom_site_fract_x
 _atom_site_fract_y
 _atom_site_fract_z
 _atom_site_occupancy
  K  K0  1  0.29673903  0.70326097  0.75000000  1
  K  K1  1  0.70326097  0.29673903  0.25000000  1
  Tb  Tb2  1  0.72466129  0.27533871  0.75000000  1
  Tb  Tb3  1  0.27533871  0.72466129  0.25000000  1
  W  W4  1  0.20031388  0.19166789  0.27832440  1
  W  W5  1  0.80833211  0.79968612  0.22167560  1
  W  W6  1  0.79968612  0.80833211  0.72167560  1
  W  W7  1  0.19166789  0.20031388  0.77832440  1
  O  O8  1  0.54253239  0.71450030  0.31442521  1
  O  O9  1  0.28549970  0.45746761  0.18557479  1
  O  O10  1  0.45746761  0.28549970  0.68557479  1
  O  O11  1  0.71450030  0.54253239  0.81442521  1
  O  O12  1  0.91022643  0.13030627  0.53120796  1
  O  O13  1  0.86969373  0.08977357  0.96879204  1
  O  O14  1  0.08977357  0.86969373  0.46879204  1
  O  O15  1  0.13030627  0.91022643  0.03120796  1
  O  O16  1  0.87627588  0.56175338  0.37535567  1
  O  O17  1  0.43824662  0.12372412  0.12464433  1
  O  O18  1  0.12372412  0.43824662  0.62464433  1
  O  O19  1  0.56175338  0.87627588  0.87535567  1
  O  O20  1  0.25710216  0.12135705  0.55554516  1
  O  O21  1  0.87864295  0.74289784  0.94445484  1
  O  O22  1  0.74289784  0.87864295  0.44445484  1
  O  O23  1  0.12135705  0.25710216  0.05554516  1
