# generated using pymatgen
data_Ba3UMnS6
_symmetry_space_group_name_H-M   'P 1'
_cell_length_a   8.34515577
_cell_length_b   8.34515577
_cell_length_c   8.34515524
_cell_angle_alpha   93.39111299
_cell_angle_beta   93.39111299
_cell_angle_gamma   93.39110979
_symmetry_Int_Tables_number   1
_chemical_formula_structural   Ba3UMnS6
_chemical_formula_sum   'Ba6 U2 Mn2 S12'
_cell_volume   577.99100634
_cell_formula_units_Z   2
loop_
 _symmetry_equiv_pos_site_id
 _symmetry_equiv_pos_as_xyz
  1  'x, y, z'
loop_
 _atom_site_type_symbol
 _atom_site_label
 _atom_site_symmetry_multiplicity
 _atom_site_fract_x
 _atom_site_fract_y
 _atom_site_fract_z
 _atom_site_occupancy
  Ba  Ba0  1  0.13088460  0.36912470  0.75000526  1
  Ba  Ba1  1  0.36912470  0.75000526  0.13088460  1
  Ba  Ba2  1  0.75000526  0.13088460  0.36912470  1
  Ba  Ba3  1  0.63088460  0.25000526  0.86912470  1
  Ba  Ba4  1  0.25000526  0.86912470  0.63088460  1
  Ba  Ba5  1  0.86912470  0.63088460  0.25000526  1
  U  U6  1  0.25001311  0.25001311  0.25001311  1
  U  U7  1  0.75001311  0.75001311  0.75001311  1
  Mn  Mn8  1  0.50001972  0.50001972  0.50001972  1
  Mn  Mn9  1  0.00001972  0.00001972  0.00001972  1
  S  S10  1  0.40817957  0.20352163  0.53443024  1
  S  S11  1  0.20352163  0.53443024  0.40817957  1
  S  S12  1  0.53443024  0.40817957  0.20352163  1
  S  S13  1  0.90817957  0.03443024  0.70352163  1
  S  S14  1  0.03443024  0.70352163  0.90817957  1
  S  S15  1  0.70352163  0.90817957  0.03443024  1
  S  S16  1  0.59183813  0.79646672  0.46555030  1
  S  S17  1  0.79646672  0.46555030  0.59183813  1
  S  S18  1  0.46555030  0.59183813  0.79646672  1
  S  S19  1  0.09183813  0.96555030  0.29646672  1
  S  S20  1  0.96555030  0.29646672  0.09183813  1
  S  S21  1  0.29646672  0.09183813  0.96555030  1
