# generated using pymatgen
data_CoBi6(SO8)2
_symmetry_space_group_name_H-M   'P 1'
_cell_length_a   5.64803038
_cell_length_b   8.30428812
_cell_length_c   8.98686558
_cell_angle_alpha   82.27531239
_cell_angle_beta   71.68517780
_cell_angle_gamma   70.11903770
_symmetry_Int_Tables_number   1
_chemical_formula_structural   CoBi6(SO8)2
_chemical_formula_sum   'Co1 Bi6 S2 O16'
_cell_volume   376.12971707
_cell_formula_units_Z   1
loop_
 _symmetry_equiv_pos_site_id
 _symmetry_equiv_pos_as_xyz
  1  'x, y, z'
loop_
 _atom_site_type_symbol
 _atom_site_label
 _atom_site_symmetry_multiplicity
 _atom_site_fract_x
 _atom_site_fract_y
 _atom_site_fract_z
 _atom_site_occupancy
  Co  Co0  1  0.14078531  0.00000000  -0.00000000  1
  Bi  Bi1  1  0.47618177  0.66076253  0.64640941  1
  Bi  Bi2  1  0.78335371  0.33923747  0.35359059  1
  Bi  Bi3  1  0.11383280  0.34998098  0.69324922  1
  Bi  Bi4  1  0.15706300  0.65001902  0.30675078  1
  Bi  Bi5  1  0.71300692  0.67293629  0.00644224  1
  Bi  Bi6  1  0.39238544  0.32706371  0.99355776  1
  S  S7  1  0.81438643  0.98917326  0.71723061  1
  S  S8  1  0.52079030  0.01082674  0.28276939  1
  O  O9  1  0.37917275  0.50000000  0.50000000  1
  O  O10  1  0.00371243  0.96370681  0.81034998  1
  O  O11  1  0.77776922  0.03629319  0.18965002  1
  O  O12  1  0.58604436  0.93077825  0.81906723  1
  O  O13  1  0.33588985  0.06922175  0.18093277  1
  O  O14  1  0.94640069  0.88538205  0.57660566  1
  O  O15  1  0.40838840  0.11461795  0.42339434  1
  O  O16  1  0.70868591  0.17661776  0.67882770  1
  O  O17  1  0.56413137  0.82338224  0.32117230  1
  O  O18  1  0.10339054  0.23931240  0.94598055  1
  O  O19  1  0.28868349  0.76068760  0.05401945  1
  O  O20  1  0.23994235  0.51261974  0.81373022  1
  O  O21  1  0.56629231  0.48738026  0.18626978  1
  O  O22  1  0.72603503  0.53030550  0.81466039  1
  O  O23  1  0.07100092  0.46969450  0.18533961  1
  O  O24  1  0.86138873  0.50000000  0.50000000  1
