# generated using pymatgen
data_CuSb6(SO8)2
_symmetry_space_group_name_H-M   'P 1'
_cell_length_a   5.63602594
_cell_length_b   7.81316065
_cell_length_c   9.42774577
_cell_angle_alpha   96.82445237
_cell_angle_beta   93.39413804
_cell_angle_gamma   109.58800508
_symmetry_Int_Tables_number   1
_chemical_formula_structural   CuSb6(SO8)2
_chemical_formula_sum   'Cu1 Sb6 S2 O16'
_cell_volume   386.17262070
_cell_formula_units_Z   1
loop_
 _symmetry_equiv_pos_site_id
 _symmetry_equiv_pos_as_xyz
  1  'x, y, z'
loop_
 _atom_site_type_symbol
 _atom_site_label
 _atom_site_symmetry_multiplicity
 _atom_site_fract_x
 _atom_site_fract_y
 _atom_site_fract_z
 _atom_site_occupancy
  Cu  Cu0  1  -0.00000000  0.50000000  0.50000000  1
  Sb  Sb1  1  0.69922339  0.51881561  0.77856801  1
  Sb  Sb2  1  0.30077661  0.48118439  0.22143199  1
  Sb  Sb3  1  0.64925480  0.83266713  0.51801577  1
  Sb  Sb4  1  0.35074520  0.16733287  0.48198423  1
  Sb  Sb5  1  0.33395568  0.85494576  0.80064542  1
  Sb  Sb6  1  0.66604432  0.14505424  0.19935458  1
  S  S7  1  0.13289685  0.21408938  0.85585596  1
  S  S8  1  0.86710315  0.78591062  0.14414404  1
  O  O9  1  0.03191485  0.65780846  0.68440735  1
  O  O10  1  0.96808515  0.34219154  0.31559265  1
  O  O11  1  0.55579530  0.70255920  0.70413066  1
  O  O12  1  0.44420470  0.29744080  0.29586934  1
  O  O13  1  0.06143686  0.02071670  0.77387826  1
  O  O14  1  0.93856314  0.97928330  0.22612174  1
  O  O15  1  0.67106468  0.37320776  0.57649843  1
  O  O16  1  0.32893532  0.62679224  0.42350157  1
  O  O17  1  0.32711525  0.23875118  0.97682959  1
  O  O18  1  0.67288475  0.76124882  0.02317041  1
  O  O19  1  0.45514363  0.97493114  0.62598397  1
  O  O20  1  0.54485637  0.02506886  0.37401603  1
  O  O21  1  0.24836285  0.34561550  0.75104459  1
  O  O22  1  0.75163715  0.65438450  0.24895541  1
  O  O23  1  0.90415092  0.24405694  0.90255725  1
  O  O24  1  0.09584908  0.75594306  0.09744275  1
