# generated using pymatgen
data_DyMnB4
_symmetry_space_group_name_H-M   'P 1'
_cell_length_a   3.40812513
_cell_length_b   5.90584690
_cell_length_c   11.42532192
_cell_angle_alpha   90.00000000
_cell_angle_beta   90.00000000
_cell_angle_gamma   90.00000000
_symmetry_Int_Tables_number   1
_chemical_formula_structural   DyMnB4
_chemical_formula_sum   'Dy4 Mn4 B16'
_cell_volume   229.96733986
_cell_formula_units_Z   4
loop_
 _symmetry_equiv_pos_site_id
 _symmetry_equiv_pos_as_xyz
  1  'x, y, z'
loop_
 _atom_site_type_symbol
 _atom_site_label
 _atom_site_symmetry_multiplicity
 _atom_site_fract_x
 _atom_site_fract_y
 _atom_site_fract_z
 _atom_site_occupancy
  Dy  Dy0  1  0.00000000  0.62657604  0.34941654  1
  Dy  Dy1  1  0.00000000  0.37342396  0.65058346  1
  Dy  Dy2  1  -0.00000000  0.12657604  0.15058346  1
  Dy  Dy3  1  -0.00000000  0.87342396  0.84941654  1
  Mn  Mn4  1  0.00000000  0.62816752  0.08374457  1
  Mn  Mn5  1  0.00000000  0.37183248  0.91625543  1
  Mn  Mn6  1  0.00000000  0.12816752  0.41625543  1
  Mn  Mn7  1  -0.00000000  0.87183248  0.58374457  1
  B  B8  1  0.50000000  0.78175984  0.18378296  1
  B  B9  1  0.50000000  0.21824016  0.81621704  1
  B  B10  1  0.50000000  0.28175984  0.31621704  1
  B  B11  1  0.50000000  0.71824016  0.68378296  1
  B  B12  1  0.50000000  0.86206385  0.03222458  1
  B  B13  1  0.50000000  0.13793615  0.96777542  1
  B  B14  1  0.50000000  0.36206385  0.46777542  1
  B  B15  1  0.50000000  0.63793615  0.53222458  1
  B  B16  1  0.50000000  0.88817530  0.45402365  1
  B  B17  1  0.50000000  0.11182470  0.54597635  1
  B  B18  1  0.50000000  0.38817530  0.04597635  1
  B  B19  1  0.50000000  0.61182470  0.95402365  1
  B  B20  1  0.50000000  0.97593192  0.30925375  1
  B  B21  1  0.50000000  0.02406808  0.69074625  1
  B  B22  1  0.50000000  0.47593192  0.19074625  1
  B  B23  1  0.50000000  0.52406808  0.80925375  1
