# generated using pymatgen
data_Ba3UMnSe6
_symmetry_space_group_name_H-M   'P 1'
_cell_length_a   8.71090399
_cell_length_b   8.71090399
_cell_length_c   8.71090347
_cell_angle_alpha   93.25449905
_cell_angle_beta   93.25449905
_cell_angle_gamma   93.25450565
_symmetry_Int_Tables_number   1
_chemical_formula_structural   Ba3UMnSe6
_chemical_formula_sum   'Ba6 U2 Mn2 Se12'
_cell_volume   657.65724094
_cell_formula_units_Z   2
loop_
 _symmetry_equiv_pos_site_id
 _symmetry_equiv_pos_as_xyz
  1  'x, y, z'
loop_
 _atom_site_type_symbol
 _atom_site_label
 _atom_site_symmetry_multiplicity
 _atom_site_fract_x
 _atom_site_fract_y
 _atom_site_fract_z
 _atom_site_occupancy
  Ba  Ba0  1  0.13361072  0.36639211  0.74999127  1
  Ba  Ba1  1  0.36639211  0.74999127  0.13361072  1
  Ba  Ba2  1  0.74999127  0.13361072  0.36639211  1
  Ba  Ba3  1  0.63361072  0.24999127  0.86639211  1
  Ba  Ba4  1  0.24999127  0.86639211  0.63361072  1
  Ba  Ba5  1  0.86639211  0.63361072  0.24999127  1
  U  U6  1  0.25000427  0.25000427  0.25000427  1
  U  U7  1  0.75000427  0.75000427  0.75000427  1
  Mn  Mn8  1  0.50002913  0.50002913  0.50002913  1
  Mn  Mn9  1  0.00002913  0.00002913  0.00002913  1
  Se  Se10  1  0.41005066  0.19991732  0.53605252  1
  Se  Se11  1  0.19991732  0.53605252  0.41005066  1
  Se  Se12  1  0.53605252  0.41005066  0.19991732  1
  Se  Se13  1  0.91005066  0.03605252  0.69991732  1
  Se  Se14  1  0.03605252  0.69991732  0.91005066  1
  Se  Se15  1  0.69991732  0.91005066  0.03605252  1
  Se  Se16  1  0.58993724  0.80008835  0.46396040  1
  Se  Se17  1  0.80008835  0.46396040  0.58993724  1
  Se  Se18  1  0.46396040  0.58993724  0.80008835  1
  Se  Se19  1  0.08993724  0.96396040  0.30008835  1
  Se  Se20  1  0.96396040  0.30008835  0.08993724  1
  Se  Se21  1  0.30008835  0.08993724  0.96396040  1
