# generated using pymatgen
data_PuB4Mo
_symmetry_space_group_name_H-M   'P 1'
_cell_length_a   3.63096685
_cell_length_b   6.01321432
_cell_length_c   11.68605309
_cell_angle_alpha   90.00000000
_cell_angle_beta   90.00000000
_cell_angle_gamma   90.00000000
_symmetry_Int_Tables_number   1
_chemical_formula_structural   PuB4Mo
_chemical_formula_sum   'Pu4 B16 Mo4'
_cell_volume   255.15073395
_cell_formula_units_Z   4
loop_
 _symmetry_equiv_pos_site_id
 _symmetry_equiv_pos_as_xyz
  1  'x, y, z'
loop_
 _atom_site_type_symbol
 _atom_site_label
 _atom_site_symmetry_multiplicity
 _atom_site_fract_x
 _atom_site_fract_y
 _atom_site_fract_z
 _atom_site_occupancy
  Pu  Pu0  1  0.00000000  0.62524266  0.34936481  1
  Pu  Pu1  1  0.00000000  0.37475734  0.65063519  1
  Pu  Pu2  1  -0.00000000  0.12524266  0.15063519  1
  Pu  Pu3  1  -0.00000000  0.87475734  0.84936481  1
  B  B4  1  0.50000000  0.78571702  0.18706433  1
  B  B5  1  0.50000000  0.21428298  0.81293567  1
  B  B6  1  0.50000000  0.28571702  0.31293567  1
  B  B7  1  0.50000000  0.71428298  0.68706433  1
  B  B8  1  0.50000000  0.86670234  0.03296442  1
  B  B9  1  0.50000000  0.13329766  0.96703558  1
  B  B10  1  0.50000000  0.36670234  0.46703558  1
  B  B11  1  0.50000000  0.63329766  0.53296442  1
  B  B12  1  0.50000000  0.88390057  0.45305419  1
  B  B13  1  0.50000000  0.11609943  0.54694581  1
  B  B14  1  0.50000000  0.38390057  0.04694581  1
  B  B15  1  0.50000000  0.61609943  0.95305419  1
  B  B16  1  0.50000000  0.97253163  0.30757739  1
  B  B17  1  0.50000000  0.02746837  0.69242261  1
  B  B18  1  0.50000000  0.47253163  0.19242261  1
  B  B19  1  0.50000000  0.52746837  0.80757739  1
  Mo  Mo20  1  0.00000000  0.63111312  0.08552970  1
  Mo  Mo21  1  -0.00000000  0.36888688  0.91447030  1
  Mo  Mo22  1  0.00000000  0.13111312  0.41447030  1
  Mo  Mo23  1  0.00000000  0.86888688  0.58552970  1
