# generated using pymatgen
data_YB4W
_symmetry_space_group_name_H-M   'P 1'
_cell_length_a   3.63058748
_cell_length_b   6.04683460
_cell_length_c   11.68557285
_cell_angle_alpha   90.00000000
_cell_angle_beta   90.00000000
_cell_angle_gamma   90.00000000
_symmetry_Int_Tables_number   1
_chemical_formula_structural   YB4W
_chemical_formula_sum   'Y4 B16 W4'
_cell_volume   256.53994798
_cell_formula_units_Z   4
loop_
 _symmetry_equiv_pos_site_id
 _symmetry_equiv_pos_as_xyz
  1  'x, y, z'
loop_
 _atom_site_type_symbol
 _atom_site_label
 _atom_site_symmetry_multiplicity
 _atom_site_fract_x
 _atom_site_fract_y
 _atom_site_fract_z
 _atom_site_occupancy
  Y  Y0  1  0.00000000  0.62688592  0.35019765  1
  Y  Y1  1  0.00000000  0.37311408  0.64980235  1
  Y  Y2  1  0.00000000  0.12688592  0.14980235  1
  Y  Y3  1  -0.00000000  0.87311408  0.85019765  1
  B  B4  1  0.50000000  0.78654163  0.18644424  1
  B  B5  1  0.50000000  0.21345837  0.81355576  1
  B  B6  1  0.50000000  0.28654163  0.31355576  1
  B  B7  1  0.50000000  0.71345837  0.68644424  1
  B  B8  1  0.50000000  0.86642893  0.03217470  1
  B  B9  1  0.50000000  0.13357107  0.96782530  1
  B  B10  1  0.50000000  0.36642893  0.46782530  1
  B  B11  1  0.50000000  0.63357107  0.53217470  1
  B  B12  1  0.50000000  0.88604360  0.45281889  1
  B  B13  1  0.50000000  0.11395640  0.54718111  1
  B  B14  1  0.50000000  0.38604360  0.04718111  1
  B  B15  1  0.50000000  0.61395640  0.95281889  1
  B  B16  1  0.50000000  0.97585582  0.30693070  1
  B  B17  1  0.50000000  0.02414418  0.69306930  1
  B  B18  1  0.50000000  0.47585582  0.19306930  1
  B  B19  1  0.50000000  0.52414418  0.80693070  1
  W  W20  1  -0.00000000  0.63047689  0.08422605  1
  W  W21  1  -0.00000000  0.36952311  0.91577395  1
  W  W22  1  0.00000000  0.13047689  0.41577395  1
  W  W23  1  0.00000000  0.86952311  0.58422605  1
