# generated using pymatgen
data_YMo2O7F
_symmetry_space_group_name_H-M   'P 1'
_cell_length_a   4.35898880
_cell_length_b   6.65999692
_cell_length_c   11.54535391
_cell_angle_alpha   90.00000000
_cell_angle_beta   90.50854845
_cell_angle_gamma   90.00000000
_symmetry_Int_Tables_number   1
_chemical_formula_structural   YMo2O7F
_chemical_formula_sum   'Y2 Mo4 O14 F2'
_cell_volume   335.15825795
_cell_formula_units_Z   2
loop_
 _symmetry_equiv_pos_site_id
 _symmetry_equiv_pos_as_xyz
  1  'x, y, z'
loop_
 _atom_site_type_symbol
 _atom_site_label
 _atom_site_symmetry_multiplicity
 _atom_site_fract_x
 _atom_site_fract_y
 _atom_site_fract_z
 _atom_site_occupancy
  Y  Y0  1  -0.00000000  0.20093589  0.75000000  1
  Y  Y1  1  -0.00000000  0.79906411  0.25000000  1
  Mo  Mo2  1  0.09692137  0.66850061  0.59422623  1
  Mo  Mo3  1  0.90307863  0.66850061  0.90577377  1
  Mo  Mo4  1  0.90307863  0.33149939  0.40577377  1
  Mo  Mo5  1  0.09692137  0.33149939  0.09422623  1
  O  O6  1  0.49412748  0.65770867  0.59706364  1
  O  O7  1  0.50587252  0.65770867  0.90293636  1
  O  O8  1  0.50587252  0.34229133  0.40293636  1
  O  O9  1  0.49412748  0.34229133  0.09706364  1
  O  O10  1  0.01695117  0.92210584  0.62815645  1
  O  O11  1  0.98304883  0.92210584  0.87184355  1
  O  O12  1  0.98304883  0.07789416  0.37184355  1
  O  O13  1  0.01695117  0.07789416  0.12815645  1
  O  O14  1  0.00091396  0.35068458  0.56654314  1
  O  O15  1  0.99908604  0.35068458  0.93345686  1
  O  O16  1  0.99908604  0.64931542  0.43345686  1
  O  O17  1  0.00091396  0.64931542  0.06654314  1
  O  O18  1  -0.00000000  0.55958078  0.75000000  1
  O  O19  1  -0.00000000  0.44041922  0.25000000  1
  F  F20  1  0.50000000  0.19709729  0.75000000  1
  F  F21  1  0.50000000  0.80290271  0.25000000  1
