# generated using pymatgen
data_Mn2NiO4
_symmetry_space_group_name_H-M   'P 1'
_cell_length_a   6.18824179
_cell_length_b   5.88685088
_cell_length_c   6.17216137
_cell_angle_alpha   62.50865655
_cell_angle_beta   55.76532502
_cell_angle_gamma   61.98135858
_symmetry_Int_Tables_number   1
_chemical_formula_structural   Mn2NiO4
_chemical_formula_sum   'Mn4 Ni2 O8'
_cell_volume   157.99065906
_cell_formula_units_Z   2
loop_
 _symmetry_equiv_pos_site_id
 _symmetry_equiv_pos_as_xyz
  1  'x, y, z'
loop_
 _atom_site_type_symbol
 _atom_site_label
 _atom_site_symmetry_multiplicity
 _atom_site_fract_x
 _atom_site_fract_y
 _atom_site_fract_z
 _atom_site_occupancy
  Mn  Mn0  1  0.49925369  0.99900677  0.49996636  1
  Mn  Mn1  1  0.00010604  0.50102721  0.49937536  1
  Mn  Mn2  1  0.50121677  0.50060002  -0.00099157  1
  Mn  Mn3  1  0.49961646  0.49880704  0.50075464  1
  Ni  Ni4  1  0.12934888  0.12059317  0.12738380  1
  Ni  Ni5  1  0.86812114  0.88137682  0.87317852  1
  O  O6  1  0.74471331  0.72865828  0.74876781  1
  O  O7  1  0.26932004  0.25481440  0.72474101  1
  O  O8  1  0.25565799  0.71631410  0.25921636  1
  O  O9  1  0.72532890  0.24969416  0.27031756  1
  O  O10  1  0.74818093  0.28221485  0.74229001  1
  O  O11  1  0.27293691  0.75001770  0.73027077  1
  O  O12  1  0.25607660  0.27241088  0.24994970  1
  O  O13  1  0.73012334  0.74446561  0.27477867  1
