# generated using pymatgen
data_LaSi2Ni9
_symmetry_space_group_name_H-M   'P 1'
_cell_length_a   6.21391125
_cell_length_b   7.63799522
_cell_length_c   7.63799522
_cell_angle_alpha   80.47563669
_cell_angle_beta   65.99751116
_cell_angle_gamma   65.99751116
_symmetry_Int_Tables_number   1
_chemical_formula_structural   LaSi2Ni9
_chemical_formula_sum   'La2 Si4 Ni18'
_cell_volume   302.52922560
_cell_formula_units_Z   2
loop_
 _symmetry_equiv_pos_site_id
 _symmetry_equiv_pos_as_xyz
  1  'x, y, z'
loop_
 _atom_site_type_symbol
 _atom_site_label
 _atom_site_symmetry_multiplicity
 _atom_site_fract_x
 _atom_site_fract_y
 _atom_site_fract_z
 _atom_site_occupancy
  La  La0  1  0.37500000  0.25000000  0.75000000  1
  La  La1  1  0.62500000  0.75000000  0.25000000  1
  Si  Si2  1  0.50000000  0.50000000  0.00000000  1
  Si  Si3  1  0.00000000  0.50000000  0.50000000  1
  Si  Si4  1  0.00000000  0.00000000  0.00000000  1
  Si  Si5  1  0.00000000  0.00000000  0.50000000  1
  Ni  Ni6  1  0.12500000  0.75000000  0.25000000  1
  Ni  Ni7  1  0.87500000  0.25000000  0.75000000  1
  Ni  Ni8  1  0.56397177  0.57876762  0.67120127  1
  Ni  Ni9  1  0.56397177  0.17120127  0.07876762  1
  Ni  Ni10  1  0.14273939  0.42123238  0.17120127  1
  Ni  Ni11  1  0.14273939  0.67120127  0.92123238  1
  Ni  Ni12  1  0.81394065  0.32879873  0.42123238  1
  Ni  Ni13  1  0.81394065  0.92123238  0.82879873  1
  Ni  Ni14  1  0.73517303  0.82879873  0.57876762  1
  Ni  Ni15  1  0.73517303  0.07876762  0.32879873  1
  Ni  Ni16  1  0.43602823  0.42123238  0.32879873  1
  Ni  Ni17  1  0.43602823  0.82879873  0.92123238  1
  Ni  Ni18  1  0.85726061  0.57876762  0.82879873  1
  Ni  Ni19  1  0.85726061  0.32879873  0.07876762  1
  Ni  Ni20  1  0.18605935  0.67120127  0.57876762  1
  Ni  Ni21  1  0.18605935  0.07876762  0.17120127  1
  Ni  Ni22  1  0.26482697  0.17120127  0.42123238  1
  Ni  Ni23  1  0.26482697  0.92123238  0.67120127  1
