# generated using pymatgen
data_Dy3ReB7
_symmetry_space_group_name_H-M   'P 1'
_cell_length_a   3.53991319
_cell_length_b   8.09792578
_cell_length_c   9.36364454
_cell_angle_alpha   90.00000000
_cell_angle_beta   90.00000000
_cell_angle_gamma   102.62500500
_symmetry_Int_Tables_number   1
_chemical_formula_structural   Dy3ReB7
_chemical_formula_sum   'Dy6 Re2 B14'
_cell_volume   261.92785735
_cell_formula_units_Z   2
loop_
 _symmetry_equiv_pos_site_id
 _symmetry_equiv_pos_as_xyz
  1  'x, y, z'
loop_
 _atom_site_type_symbol
 _atom_site_label
 _atom_site_symmetry_multiplicity
 _atom_site_fract_x
 _atom_site_fract_y
 _atom_site_fract_z
 _atom_site_occupancy
  Dy  Dy0  1  0.10538167  0.21076334  0.44014797  1
  Dy  Dy1  1  0.89461833  0.78923666  0.55985203  1
  Dy  Dy2  1  0.10538167  0.21076334  0.05985203  1
  Dy  Dy3  1  0.89461833  0.78923666  0.94014797  1
  Dy  Dy4  1  0.75777240  0.51554479  0.25000000  1
  Dy  Dy5  1  0.24222760  0.48445521  0.75000000  1
  Re  Re6  1  0.94683117  0.89366235  0.25000000  1
  Re  Re7  1  0.05316883  0.10633765  0.75000000  1
  B  B8  1  0.27309899  0.54619798  0.46658319  1
  B  B9  1  0.72690101  0.45380202  0.53341681  1
  B  B10  1  0.27309899  0.54619798  0.03341681  1
  B  B11  1  0.72690101  0.45380202  0.96658319  1
  B  B12  1  0.36804406  0.73608812  0.15054352  1
  B  B13  1  0.63195594  0.26391188  0.84945648  1
  B  B14  1  0.36804406  0.73608812  0.34945648  1
  B  B15  1  0.63195594  0.26391188  0.65054352  1
  B  B16  1  0.47949940  0.95899880  0.09530777  1
  B  B17  1  0.52050060  0.04100120  0.90469223  1
  B  B18  1  0.47949940  0.95899880  0.40469223  1
  B  B19  1  0.52050060  0.04100120  0.59530777  1
  B  B20  1  0.54284743  0.08569486  0.25000000  1
  B  B21  1  0.45715257  0.91430514  0.75000000  1
