# generated using pymatgen
data_Sc2Mn12P7
_symmetry_space_group_name_H-M   'P 1'
_cell_length_a   3.42915734
_cell_length_b   9.32700374
_cell_length_c   9.32586385
_cell_angle_alpha   119.99161065
_cell_angle_beta   90.00000000
_cell_angle_gamma   90.00000000
_symmetry_Int_Tables_number   1
_chemical_formula_structural   Sc2Mn12P7
_chemical_formula_sum   'Sc2 Mn12 P7'
_cell_volume   258.33662027
_cell_formula_units_Z   1
loop_
 _symmetry_equiv_pos_site_id
 _symmetry_equiv_pos_as_xyz
  1  'x, y, z'
loop_
 _atom_site_type_symbol
 _atom_site_label
 _atom_site_symmetry_multiplicity
 _atom_site_fract_x
 _atom_site_fract_y
 _atom_site_fract_z
 _atom_site_occupancy
  Sc  Sc0  1  -0.00000000  0.66669235  0.33335637  1
  Sc  Sc1  1  0.50000000  0.33340114  0.66662540  1
  Mn  Mn2  1  -0.00000000  0.37777348  0.94587581  1
  Mn  Mn3  1  0.00000000  0.05410477  0.43192920  1
  Mn  Mn4  1  0.00000000  0.56814505  0.62226257  1
  Mn  Mn5  1  -0.00000000  0.88258991  0.72370386  1
  Mn  Mn6  1  -0.00000000  0.27625560  0.15887310  1
  Mn  Mn7  1  0.00000000  0.84114737  0.11742076  1
  Mn  Mn8  1  0.50000000  0.94992730  0.56543874  1
  Mn  Mn9  1  0.50000000  0.43461486  0.38448984  1
  Mn  Mn10  1  0.50000000  0.61552368  0.05007507  1
  Mn  Mn11  1  0.50000000  0.13129886  0.89855237  1
  Mn  Mn12  1  0.50000000  0.10138527  0.23282116  1
  Mn  Mn13  1  0.50000000  0.76714676  0.86855051  1
  P  P14  1  -0.00000000  0.12708520  0.70975352  1
  P  P15  1  0.00000000  0.29016776  0.41734564  1
  P  P16  1  0.00000000  0.58274023  0.87289503  1
  P  P17  1  0.50000000  0.70880037  0.58129136  1
  P  P18  1  0.50000000  0.41876797  0.12750179  1
  P  P19  1  0.50000000  0.87254762  0.29132540  1
  P  P20  1  0.00000000  0.99988444  0.99991250  1
