# generated using pymatgen
data_DyNiB4
_symmetry_space_group_name_H-M   'P 1'
_cell_length_a   6.82360798
_cell_length_b   6.82360798
_cell_length_c   6.82360798
_cell_angle_alpha   102.71114607
_cell_angle_beta   112.95338013
_cell_angle_gamma   112.95338013
_symmetry_Int_Tables_number   1
_chemical_formula_structural   DyNiB4
_chemical_formula_sum   'Dy4 Ni4 B16'
_cell_volume   242.06785926
_cell_formula_units_Z   4
loop_
 _symmetry_equiv_pos_site_id
 _symmetry_equiv_pos_as_xyz
  1  'x, y, z'
loop_
 _atom_site_type_symbol
 _atom_site_label
 _atom_site_symmetry_multiplicity
 _atom_site_fract_x
 _atom_site_fract_y
 _atom_site_fract_z
 _atom_site_occupancy
  Dy  Dy0  1  0.00000000  0.20254098  0.20254098  1
  Dy  Dy1  1  0.00000000  0.79745902  0.79745902  1
  Dy  Dy2  1  0.50000000  0.75000000  0.25000000  1
  Dy  Dy3  1  0.50000000  0.25000000  0.75000000  1
  Ni  Ni4  1  0.22848329  0.50000000  0.72848329  1
  Ni  Ni5  1  0.77151671  0.50000000  0.27151671  1
  Ni  Ni6  1  0.77151671  0.27151671  0.50000000  1
  Ni  Ni7  1  0.22848329  0.72848329  0.50000000  1
  B  B8  1  0.61343213  0.88858630  0.72484583  1
  B  B9  1  0.38656787  0.11141370  0.27515417  1
  B  B10  1  0.83625953  0.11141370  0.72484583  1
  B  B11  1  0.16374047  0.88858630  0.27515417  1
  B  B12  1  0.16374047  0.27515417  0.88858630  1
  B  B13  1  0.83625953  0.72484583  0.11141370  1
  B  B14  1  0.61343213  0.72484583  0.88858630  1
  B  B15  1  0.38656787  0.27515417  0.11141370  1
  B  B16  1  0.46597470  0.88575128  0.88575128  1
  B  B17  1  0.53402530  0.41977658  0.41977658  1
  B  B18  1  0.00000000  0.41977658  0.88575128  1
  B  B19  1  -0.00000000  0.88575128  0.41977658  1
  B  B20  1  0.53402530  0.11424872  0.11424872  1
  B  B21  1  0.46597470  0.58022342  0.58022342  1
  B  B22  1  -0.00000000  0.58022342  0.11424872  1
  B  B23  1  0.00000000  0.11424872  0.58022342  1
