# generated using pymatgen
data_Tm3B7W
_symmetry_space_group_name_H-M   'P 1'
_cell_length_a   3.43165793
_cell_length_b   8.08606136
_cell_length_c   9.40249834
_cell_angle_alpha   90.00000000
_cell_angle_beta   90.00000000
_cell_angle_gamma   102.25106431
_symmetry_Int_Tables_number   1
_chemical_formula_structural   Tm3B7W
_chemical_formula_sum   'Tm6 B14 W2'
_cell_volume   254.96456107
_cell_formula_units_Z   2
loop_
 _symmetry_equiv_pos_site_id
 _symmetry_equiv_pos_as_xyz
  1  'x, y, z'
loop_
 _atom_site_type_symbol
 _atom_site_label
 _atom_site_symmetry_multiplicity
 _atom_site_fract_x
 _atom_site_fract_y
 _atom_site_fract_z
 _atom_site_occupancy
  Tm  Tm0  1  0.10715380  0.21430760  0.44020857  1
  Tm  Tm1  1  0.89284620  0.78569240  0.55979143  1
  Tm  Tm2  1  0.10715380  0.21430760  0.05979143  1
  Tm  Tm3  1  0.89284620  0.78569240  0.94020857  1
  Tm  Tm4  1  0.75626039  0.51252079  0.25000000  1
  Tm  Tm5  1  0.24373961  0.48747921  0.75000000  1
  B  B6  1  0.27237557  0.54475114  0.46726914  1
  B  B7  1  0.72762443  0.45524886  0.53273086  1
  B  B8  1  0.27237557  0.54475114  0.03273086  1
  B  B9  1  0.72762443  0.45524886  0.96726914  1
  B  B10  1  0.36508612  0.73017224  0.14612439  1
  B  B11  1  0.63491388  0.26982776  0.85387561  1
  B  B12  1  0.36508612  0.73017224  0.35387561  1
  B  B13  1  0.63491388  0.26982776  0.64612439  1
  B  B14  1  0.48112777  0.96225554  0.09114703  1
  B  B15  1  0.51887223  0.03774446  0.90885297  1
  B  B16  1  0.48112777  0.96225554  0.40885297  1
  B  B17  1  0.51887223  0.03774446  0.59114703  1
  B  B18  1  0.54702775  0.09405550  0.25000000  1
  B  B19  1  0.45297225  0.90594450  0.75000000  1
  W  W20  1  0.94740198  0.89480395  0.25000000  1
  W  W21  1  0.05259802  0.10519605  0.75000000  1
