# generated using pymatgen
data_UCrB4
_symmetry_space_group_name_H-M   'P 1'
_cell_length_a   3.48614053
_cell_length_b   5.85790450
_cell_length_c   11.35425479
_cell_angle_alpha   90.00000000
_cell_angle_beta   90.00000000
_cell_angle_gamma   90.00000000
_symmetry_Int_Tables_number   1
_chemical_formula_structural   UCrB4
_chemical_formula_sum   'U4 Cr4 B16'
_cell_volume   231.87066779
_cell_formula_units_Z   4
loop_
 _symmetry_equiv_pos_site_id
 _symmetry_equiv_pos_as_xyz
  1  'x, y, z'
loop_
 _atom_site_type_symbol
 _atom_site_label
 _atom_site_symmetry_multiplicity
 _atom_site_fract_x
 _atom_site_fract_y
 _atom_site_fract_z
 _atom_site_occupancy
  U  U0  1  -0.00000000  0.62526452  0.34944383  1
  U  U1  1  -0.00000000  0.37473548  0.65055617  1
  U  U2  1  0.00000000  0.12526452  0.15055617  1
  U  U3  1  0.00000000  0.87473548  0.84944383  1
  Cr  Cr4  1  0.00000000  0.62987386  0.08811715  1
  Cr  Cr5  1  -0.00000000  0.37012614  0.91188285  1
  Cr  Cr6  1  0.00000000  0.12987386  0.41188285  1
  Cr  Cr7  1  -0.00000000  0.87012614  0.58811715  1
  B  B8  1  0.50000000  0.78379190  0.18694446  1
  B  B9  1  0.50000000  0.21620810  0.81305554  1
  B  B10  1  0.50000000  0.28379190  0.31305554  1
  B  B11  1  0.50000000  0.71620810  0.68694446  1
  B  B12  1  0.50000000  0.86476306  0.03317232  1
  B  B13  1  0.50000000  0.13523694  0.96682768  1
  B  B14  1  0.50000000  0.36476306  0.46682768  1
  B  B15  1  0.50000000  0.63523694  0.53317232  1
  B  B16  1  0.50000000  0.88562811  0.45383760  1
  B  B17  1  0.50000000  0.11437189  0.54616240  1
  B  B18  1  0.50000000  0.38562811  0.04616240  1
  B  B19  1  0.50000000  0.61437189  0.95383760  1
  B  B20  1  0.50000000  0.97244378  0.30825633  1
  B  B21  1  0.50000000  0.02755622  0.69174367  1
  B  B22  1  0.50000000  0.47244378  0.19174367  1
  B  B23  1  0.50000000  0.52755622  0.80825633  1
