# generated using pymatgen
data_GdReB4
_symmetry_space_group_name_H-M   'P 1'
_cell_length_a   3.63174497
_cell_length_b   5.99425888
_cell_length_c   11.60623979
_cell_angle_alpha   90.00000000
_cell_angle_beta   90.00000000
_cell_angle_gamma   90.00000000
_symmetry_Int_Tables_number   1
_chemical_formula_structural   GdReB4
_chemical_formula_sum   'Gd4 Re4 B16'
_cell_volume   252.66342448
_cell_formula_units_Z   4
loop_
 _symmetry_equiv_pos_site_id
 _symmetry_equiv_pos_as_xyz
  1  'x, y, z'
loop_
 _atom_site_type_symbol
 _atom_site_label
 _atom_site_symmetry_multiplicity
 _atom_site_fract_x
 _atom_site_fract_y
 _atom_site_fract_z
 _atom_site_occupancy
  Gd  Gd0  1  0.00000000  0.62609265  0.34936581  1
  Gd  Gd1  1  0.00000000  0.37390735  0.65063419  1
  Gd  Gd2  1  -0.00000000  0.12609265  0.15063419  1
  Gd  Gd3  1  -0.00000000  0.87390735  0.84936581  1
  Re  Re4  1  0.00000000  0.63233505  0.08691590  1
  Re  Re5  1  -0.00000000  0.36766495  0.91308410  1
  Re  Re6  1  0.00000000  0.13233505  0.41308410  1
  Re  Re7  1  -0.00000000  0.86766495  0.58691590  1
  B  B8  1  0.50000000  0.78663267  0.18433126  1
  B  B9  1  0.50000000  0.21336733  0.81566874  1
  B  B10  1  0.50000000  0.28663267  0.31566874  1
  B  B11  1  0.50000000  0.71336733  0.68433126  1
  B  B12  1  0.50000000  0.86292185  0.03151245  1
  B  B13  1  0.50000000  0.13707815  0.96848755  1
  B  B14  1  0.50000000  0.36292185  0.46848755  1
  B  B15  1  0.50000000  0.63707815  0.53151245  1
  B  B16  1  0.50000000  0.88655704  0.45305731  1
  B  B17  1  0.50000000  0.11344296  0.54694269  1
  B  B18  1  0.50000000  0.38655704  0.04694269  1
  B  B19  1  0.50000000  0.61344296  0.95305731  1
  B  B20  1  0.50000000  0.97745432  0.30866192  1
  B  B21  1  0.50000000  0.02254568  0.69133808  1
  B  B22  1  0.50000000  0.47745432  0.19133808  1
  B  B23  1  0.50000000  0.52254568  0.80866192  1
