# generated using pymatgen
data_LiCdMoO5
_symmetry_space_group_name_H-M   'P 1'
_cell_length_a   10.03165922
_cell_length_b   5.81518420
_cell_length_c   8.02100572
_cell_angle_alpha   90.00000000
_cell_angle_beta   105.23630614
_cell_angle_gamma   90.00000000
_symmetry_Int_Tables_number   1
_chemical_formula_structural   LiCdMoO5
_chemical_formula_sum   'Li4 Cd4 Mo4 O20'
_cell_volume   451.46589352
_cell_formula_units_Z   4
loop_
 _symmetry_equiv_pos_site_id
 _symmetry_equiv_pos_as_xyz
  1  'x, y, z'
loop_
 _atom_site_type_symbol
 _atom_site_label
 _atom_site_symmetry_multiplicity
 _atom_site_fract_x
 _atom_site_fract_y
 _atom_site_fract_z
 _atom_site_occupancy
  Li  Li0  1  0.44940790  0.91931828  0.65042982  1
  Li  Li1  1  0.55059210  0.41931828  0.84957018  1
  Li  Li2  1  0.55059210  0.08068172  0.34957018  1
  Li  Li3  1  0.44940790  0.58068172  0.15042982  1
  Cd  Cd4  1  0.06430823  0.76132080  0.62558219  1
  Cd  Cd5  1  0.93569177  0.26132080  0.87441781  1
  Cd  Cd6  1  0.93569177  0.23867920  0.37441781  1
  Cd  Cd7  1  0.06430823  0.73867920  0.12558219  1
  Mo  Mo8  1  0.31206740  0.41780933  0.46637230  1
  Mo  Mo9  1  0.68793260  0.91780933  0.03362770  1
  Mo  Mo10  1  0.68793260  0.58219067  0.53362770  1
  Mo  Mo11  1  0.31206740  0.08219067  0.96637230  1
  O  O12  1  0.43645333  0.57461447  0.62936420  1
  O  O13  1  0.56354667  0.07461447  0.87063580  1
  O  O14  1  0.56354667  0.42538553  0.37063580  1
  O  O15  1  0.43645333  0.92538553  0.12936420  1
  O  O16  1  0.36830137  0.12906864  0.45694407  1
  O  O17  1  0.63169863  0.62906864  0.04305593  1
  O  O18  1  0.63169863  0.87093136  0.54305593  1
  O  O19  1  0.36830137  0.37093136  0.95694407  1
  O  O20  1  0.27708380  0.94410947  0.75807626  1
  O  O21  1  0.72291620  0.44410947  0.74192374  1
  O  O22  1  0.72291620  0.05589053  0.24192374  1
  O  O23  1  0.27708380  0.55589053  0.25807626  1
  O  O24  1  0.14901700  0.07244511  0.02716988  1
  O  O25  1  0.85098300  0.57244511  0.47283012  1
  O  O26  1  0.85098300  0.92755489  0.97283012  1
  O  O27  1  0.14901700  0.42755489  0.52716988  1
  O  O28  1  0.06348353  0.58128722  0.86965263  1
  O  O29  1  0.93651647  0.08128722  0.63034737  1
  O  O30  1  0.93651647  0.41871278  0.13034737  1
  O  O31  1  0.06348353  0.91871278  0.36965263  1
