# generated using pymatgen
data_Ho3B7W
_symmetry_space_group_name_H-M   'P 1'
_cell_length_a   3.45868124
_cell_length_b   8.15515834
_cell_length_c   9.45982205
_cell_angle_alpha   90.00000000
_cell_angle_beta   90.00000000
_cell_angle_gamma   102.24280067
_symmetry_Int_Tables_number   1
_chemical_formula_structural   Ho3B7W
_chemical_formula_sum   'Ho6 B14 W2'
_cell_volume   260.75643237
_cell_formula_units_Z   2
loop_
 _symmetry_equiv_pos_site_id
 _symmetry_equiv_pos_as_xyz
  1  'x, y, z'
loop_
 _atom_site_type_symbol
 _atom_site_label
 _atom_site_symmetry_multiplicity
 _atom_site_fract_x
 _atom_site_fract_y
 _atom_site_fract_z
 _atom_site_occupancy
  Ho  Ho0  1  0.10698038  0.21396076  0.44001436  1
  Ho  Ho1  1  0.89301962  0.78603924  0.55998564  1
  Ho  Ho2  1  0.10698038  0.21396076  0.05998564  1
  Ho  Ho3  1  0.89301962  0.78603924  0.94001436  1
  Ho  Ho4  1  0.75653981  0.51307961  0.25000000  1
  Ho  Ho5  1  0.24346019  0.48692039  0.75000000  1
  B  B6  1  0.27263597  0.54527195  0.46737636  1
  B  B7  1  0.72736403  0.45472805  0.53262364  1
  B  B8  1  0.27263597  0.54527195  0.03262364  1
  B  B9  1  0.72736403  0.45472805  0.96737636  1
  B  B10  1  0.36541643  0.73083287  0.14668241  1
  B  B11  1  0.63458357  0.26916713  0.85331759  1
  B  B12  1  0.36541643  0.73083287  0.35331759  1
  B  B13  1  0.63458357  0.26916713  0.64668241  1
  B  B14  1  0.48068461  0.96136922  0.09170016  1
  B  B15  1  0.51931539  0.03863078  0.90829984  1
  B  B16  1  0.48068461  0.96136922  0.40829984  1
  B  B17  1  0.51931539  0.03863078  0.59170016  1
  B  B18  1  0.54519309  0.09038619  0.25000000  1
  B  B19  1  0.45480691  0.90961381  0.75000000  1
  W  W20  1  0.94713263  0.89426526  0.25000000  1
  W  W21  1  0.05286737  0.10573474  0.75000000  1
