# generated using pymatgen
data_YRh3
_symmetry_space_group_name_H-M   'P 1'
_cell_length_a   5.26471094
_cell_length_b   5.26471094
_cell_length_c   17.59496237
_cell_angle_alpha   90.00000000
_cell_angle_beta   90.00000000
_cell_angle_gamma   119.98561749
_symmetry_Int_Tables_number   1
_chemical_formula_structural   YRh3
_chemical_formula_sum   'Y6 Rh18'
_cell_volume   422.40685650
_cell_formula_units_Z   6
loop_
 _symmetry_equiv_pos_site_id
 _symmetry_equiv_pos_as_xyz
  1  'x, y, z'
loop_
 _atom_site_type_symbol
 _atom_site_label
 _atom_site_symmetry_multiplicity
 _atom_site_fract_x
 _atom_site_fract_y
 _atom_site_fract_z
 _atom_site_occupancy
  Y  Y0  1  0.66667238  0.33332762  0.04200828  1
  Y  Y1  1  0.33332762  0.66667238  0.95799172  1
  Y  Y2  1  0.33332762  0.66667238  0.54200828  1
  Y  Y3  1  0.66667238  0.33332762  0.45799172  1
  Y  Y4  1  0.66666841  0.33333159  0.25000000  1
  Y  Y5  1  0.33333159  0.66666841  0.75000000  1
  Rh  Rh6  1  0.83301104  0.66598709  0.62613366  1
  Rh  Rh7  1  0.83299290  0.16700710  0.62610922  1
  Rh  Rh8  1  0.33401291  0.16698896  0.62613366  1
  Rh  Rh9  1  0.16698896  0.33401291  0.37386634  1
  Rh  Rh10  1  0.16700710  0.83299290  0.37389078  1
  Rh  Rh11  1  0.66598709  0.83301104  0.37386634  1
  Rh  Rh12  1  0.16698896  0.33401291  0.12613366  1
  Rh  Rh13  1  0.16700710  0.83299290  0.12610922  1
  Rh  Rh14  1  0.66598709  0.83301104  0.12613366  1
  Rh  Rh15  1  0.83301104  0.66598709  0.87386634  1
  Rh  Rh16  1  0.83299290  0.16700710  0.87389078  1
  Rh  Rh17  1  0.33401291  0.16698896  0.87386634  1
  Rh  Rh18  1  0.66652538  0.33347462  0.75000000  1
  Rh  Rh19  1  0.33347462  0.66652538  0.25000000  1
  Rh  Rh20  1  0.00007188  0.99992812  0.75000000  1
  Rh  Rh21  1  0.99992812  0.00007188  0.25000000  1
  Rh  Rh22  1  0.00000000  0.00000000  0.50000000  1
  Rh  Rh23  1  0.00000000  0.00000000  -0.00000000  1
