# generated using pymatgen
data_Sc2Co12P7
_symmetry_space_group_name_H-M   'P 1'
_cell_length_a   3.53730278
_cell_length_b   8.96489823
_cell_length_c   8.96056865
_cell_angle_alpha   120.07165816
_cell_angle_beta   90.00000000
_cell_angle_gamma   90.00000000
_symmetry_Int_Tables_number   1
_chemical_formula_structural   Sc2Co12P7
_chemical_formula_sum   'Sc2 Co12 P7'
_cell_volume   245.90635678
_cell_formula_units_Z   1
loop_
 _symmetry_equiv_pos_site_id
 _symmetry_equiv_pos_as_xyz
  1  'x, y, z'
loop_
 _atom_site_type_symbol
 _atom_site_label
 _atom_site_symmetry_multiplicity
 _atom_site_fract_x
 _atom_site_fract_y
 _atom_site_fract_z
 _atom_site_occupancy
  Sc  Sc0  1  -0.00000000  0.66659156  0.33336951  1
  Sc  Sc1  1  0.50000000  0.33327598  0.66650720  1
  Co  Co2  1  -0.00000000  0.37546326  0.93726229  1
  Co  Co3  1  -0.00000000  0.06265123  0.43829534  1
  Co  Co4  1  -0.00000000  0.56165824  0.62422491  1
  Co  Co5  1  -0.00000000  0.87919840  0.72442027  1
  Co  Co6  1  0.00000000  0.27552483  0.15462434  1
  Co  Co7  1  -0.00000000  0.84551472  0.12106106  1
  Co  Co8  1  0.50000000  0.94455448  0.56271801  1
  Co  Co9  1  0.50000000  0.43737797  0.38189798  1
  Co  Co10  1  0.50000000  0.61827589  0.05560506  1
  Co  Co11  1  0.50000000  0.13198576  0.89855806  1
  Co  Co12  1  0.50000000  0.10142117  0.23359009  1
  Co  Co13  1  0.50000000  0.76656348  0.86792177  1
  P  P14  1  -0.00000000  0.11712102  0.70769636  1
  P  P15  1  -0.00000000  0.29231054  0.40948084  1
  P  P16  1  -0.00000000  0.59062189  0.88288225  1
  P  P17  1  0.50000000  0.70711919  0.59169186  1
  P  P18  1  0.50000000  0.40810683  0.11540791  1
  P  P19  1  0.50000000  0.88460584  0.29279909  1
  P  P20  1  -0.00000000  0.00005772  0.99998579  1
