# generated using pymatgen
data_Yb2Fe12P7
_symmetry_space_group_name_H-M   'P 1'
_cell_length_a   3.61552063
_cell_length_b   8.96464119
_cell_length_c   8.95950111
_cell_angle_alpha   119.92076901
_cell_angle_beta   90.00000000
_cell_angle_gamma   90.00000000
_symmetry_Int_Tables_number   1
_chemical_formula_structural   Yb2Fe12P7
_chemical_formula_sum   'Yb2 Fe12 P7'
_cell_volume   251.68909265
_cell_formula_units_Z   1
loop_
 _symmetry_equiv_pos_site_id
 _symmetry_equiv_pos_as_xyz
  1  'x, y, z'
loop_
 _atom_site_type_symbol
 _atom_site_label
 _atom_site_symmetry_multiplicity
 _atom_site_fract_x
 _atom_site_fract_y
 _atom_site_fract_z
 _atom_site_occupancy
  Yb  Yb0  1  -0.00000000  0.66635988  0.33277181  1
  Yb  Yb1  1  0.50000000  0.33359341  0.66716585  1
  Fe  Fe2  1  0.00000000  0.37747505  0.94837306  1
  Fe  Fe3  1  0.00000000  0.05102261  0.42924398  1
  Fe  Fe4  1  0.00000000  0.57088095  0.62186000  1
  Fe  Fe5  1  -0.00000000  0.88160781  0.72720720  1
  Fe  Fe6  1  0.00000000  0.27286295  0.15422268  1
  Fe  Fe7  1  0.00000000  0.84599914  0.11850637  1
  Fe  Fe8  1  0.50000000  0.95488568  0.56720880  1
  Fe  Fe9  1  0.50000000  0.43262324  0.38767386  1
  Fe  Fe10  1  0.50000000  0.61292875  0.04557533  1
  Fe  Fe11  1  0.50000000  0.12171505  0.90174105  1
  Fe  Fe12  1  0.50000000  0.09854511  0.22050275  1
  Fe  Fe13  1  0.50000000  0.77953238  0.87799449  1
  P  P14  1  0.00000000  0.11649757  0.70830553  1
  P  P15  1  0.00000000  0.29189780  0.40806687  1
  P  P16  1  0.00000000  0.59152751  0.88492821  1
  P  P17  1  0.50000000  0.71405508  0.60008254  1
  P  P18  1  0.50000000  0.40014915  0.11306318  1
  P  P19  1  0.50000000  0.88563831  0.28553708  1
  P  P20  1  0.00000000  0.00020257  0.99996939  1
