# generated using pymatgen
data_K3NaMnCl6
_symmetry_space_group_name_H-M   'P 1'
_cell_length_a   8.45594395
_cell_length_b   8.45594395
_cell_length_c   8.45594430
_cell_angle_alpha   92.22055656
_cell_angle_beta   92.22055656
_cell_angle_gamma   92.22055197
_symmetry_Int_Tables_number   1
_chemical_formula_structural   K3NaMnCl6
_chemical_formula_sum   'K6 Na2 Mn2 Cl12'
_cell_volume   603.22693355
_cell_formula_units_Z   2
loop_
 _symmetry_equiv_pos_site_id
 _symmetry_equiv_pos_as_xyz
  1  'x, y, z'
loop_
 _atom_site_type_symbol
 _atom_site_label
 _atom_site_symmetry_multiplicity
 _atom_site_fract_x
 _atom_site_fract_y
 _atom_site_fract_z
 _atom_site_occupancy
  K  K0  1  0.37248781  0.12754379  0.75000188  1
  K  K1  1  0.12754379  0.75000188  0.37248781  1
  K  K2  1  0.75000188  0.37248781  0.12754379  1
  K  K3  1  0.87248781  0.25000188  0.62754379  1
  K  K4  1  0.25000188  0.62754379  0.87248781  1
  K  K5  1  0.62754379  0.87248781  0.25000188  1
  Na  Na6  1  0.25000064  0.25000064  0.25000064  1
  Na  Na7  1  0.75000064  0.75000064  0.75000064  1
  Mn  Mn8  1  0.49998349  0.49998349  0.49998349  1
  Mn  Mn9  1  0.99998349  0.99998349  0.99998349  1
  Cl  Cl10  1  0.54462369  0.21090484  0.41854957  1
  Cl  Cl11  1  0.21090484  0.41854957  0.54462369  1
  Cl  Cl12  1  0.41854957  0.54462369  0.21090484  1
  Cl  Cl13  1  0.04462369  0.91854957  0.71090484  1
  Cl  Cl14  1  0.91854957  0.71090484  0.04462369  1
  Cl  Cl15  1  0.71090484  0.04462369  0.91854957  1
  Cl  Cl16  1  0.45538136  0.78909999  0.58145695  1
  Cl  Cl17  1  0.78909999  0.58145695  0.45538136  1
  Cl  Cl18  1  0.58145695  0.45538136  0.78909999  1
  Cl  Cl19  1  0.95538136  0.08145695  0.28909999  1
  Cl  Cl20  1  0.08145695  0.28909999  0.95538136  1
  Cl  Cl21  1  0.28909999  0.95538136  0.08145695  1
