# generated using pymatgen
data_Pr3CoGe2
_symmetry_space_group_name_H-M   'P 1'
_cell_length_a   4.27349549
_cell_length_b   11.69459970
_cell_length_c   12.01071593
_cell_angle_alpha   90.00000000
_cell_angle_beta   90.00000000
_cell_angle_gamma   90.00000000
_symmetry_Int_Tables_number   1
_chemical_formula_structural   Pr3CoGe2
_chemical_formula_sum   'Pr12 Co4 Ge8'
_cell_volume   600.25737700
_cell_formula_units_Z   4
loop_
 _symmetry_equiv_pos_site_id
 _symmetry_equiv_pos_as_xyz
  1  'x, y, z'
loop_
 _atom_site_type_symbol
 _atom_site_label
 _atom_site_symmetry_multiplicity
 _atom_site_fract_x
 _atom_site_fract_y
 _atom_site_fract_z
 _atom_site_occupancy
  Pr  Pr0  1  0.25000000  0.05600308  0.87940781  1
  Pr  Pr1  1  0.25000000  0.44399692  0.37940781  1
  Pr  Pr2  1  0.75000000  0.94399692  0.12059219  1
  Pr  Pr3  1  0.75000000  0.55600308  0.62059219  1
  Pr  Pr4  1  0.25000000  0.13037226  0.55470993  1
  Pr  Pr5  1  0.25000000  0.36962774  0.05470993  1
  Pr  Pr6  1  0.75000000  0.86962774  0.44529007  1
  Pr  Pr7  1  0.75000000  0.63037226  0.94529007  1
  Pr  Pr8  1  0.25000000  0.79962457  0.71855679  1
  Pr  Pr9  1  0.25000000  0.70037543  0.21855679  1
  Pr  Pr10  1  0.75000000  0.20037543  0.28144321  1
  Pr  Pr11  1  0.75000000  0.29962457  0.78144321  1
  Co  Co12  1  0.25000000  0.36740267  0.63462791  1
  Co  Co13  1  0.25000000  0.13259733  0.13462791  1
  Co  Co14  1  0.75000000  0.63259733  0.36537209  1
  Co  Co15  1  0.75000000  0.86740267  0.86537209  1
  Ge  Ge16  1  0.25000000  0.81836707  0.97387026  1
  Ge  Ge17  1  0.25000000  0.68163293  0.47387026  1
  Ge  Ge18  1  0.75000000  0.18163293  0.02612974  1
  Ge  Ge19  1  0.75000000  0.31836707  0.52612974  1
  Ge  Ge20  1  0.25000000  0.49424474  0.80643624  1
  Ge  Ge21  1  0.25000000  0.00575526  0.30643624  1
  Ge  Ge22  1  0.75000000  0.50575526  0.19356376  1
  Ge  Ge23  1  0.75000000  0.99424474  0.69356376  1
