# generated using pymatgen
data_Ho5(In2Ni)2
_symmetry_space_group_name_H-M   'P 1'
_cell_length_a   3.54716953
_cell_length_b   8.00904256
_cell_length_c   17.98461171
_cell_angle_alpha   90.00000000
_cell_angle_beta   90.00000000
_cell_angle_gamma   90.00000000
_symmetry_Int_Tables_number   1
_chemical_formula_structural   Ho5(In2Ni)2
_chemical_formula_sum   'Ho10 In8 Ni4'
_cell_volume   510.93259863
_cell_formula_units_Z   2
loop_
 _symmetry_equiv_pos_site_id
 _symmetry_equiv_pos_as_xyz
  1  'x, y, z'
loop_
 _atom_site_type_symbol
 _atom_site_label
 _atom_site_symmetry_multiplicity
 _atom_site_fract_x
 _atom_site_fract_y
 _atom_site_fract_z
 _atom_site_occupancy
  Ho  Ho0  1  0.00000000  0.50000000  0.50000000  1
  Ho  Ho1  1  0.00000000  -0.00000000  -0.00000000  1
  Ho  Ho2  1  0.00000000  0.75966831  0.27799537  1
  Ho  Ho3  1  0.00000000  0.24033169  0.72200463  1
  Ho  Ho4  1  0.00000000  0.74033169  0.77799537  1
  Ho  Ho5  1  -0.00000000  0.25966831  0.22200463  1
  Ho  Ho6  1  0.00000000  0.62495988  0.08754577  1
  Ho  Ho7  1  -0.00000000  0.37504012  0.91245423  1
  Ho  Ho8  1  -0.00000000  0.87504012  0.58754577  1
  Ho  Ho9  1  0.00000000  0.12495988  0.41245423  1
  In  In10  1  0.50000000  0.70021390  0.93062689  1
  In  In11  1  0.50000000  0.29978610  0.06937311  1
  In  In12  1  0.50000000  0.79978610  0.43062689  1
  In  In13  1  0.50000000  0.20021390  0.56937311  1
  In  In14  1  0.50000000  0.56227569  0.65206995  1
  In  In15  1  0.50000000  0.43772431  0.34793005  1
  In  In16  1  0.50000000  0.93772431  0.15206995  1
  In  In17  1  0.50000000  0.06227569  0.84793005  1
  Ni  Ni18  1  0.50000000  0.54069975  0.19562064  1
  Ni  Ni19  1  0.50000000  0.45930025  0.80437936  1
  Ni  Ni20  1  0.50000000  0.95930025  0.69562064  1
  Ni  Ni21  1  0.50000000  0.04069975  0.30437936  1
