# generated using pymatgen
data_Dy2Co12P7
_symmetry_space_group_name_H-M   'P 1'
_cell_length_a   3.60249513
_cell_length_b   9.03196569
_cell_length_c   9.02867428
_cell_angle_alpha   120.02079522
_cell_angle_beta   90.00000000
_cell_angle_gamma   90.00000000
_symmetry_Int_Tables_number   1
_chemical_formula_structural   Dy2Co12P7
_chemical_formula_sum   'Dy2 Co12 P7'
_cell_volume   254.36025745
_cell_formula_units_Z   1
loop_
 _symmetry_equiv_pos_site_id
 _symmetry_equiv_pos_as_xyz
  1  'x, y, z'
loop_
 _atom_site_type_symbol
 _atom_site_label
 _atom_site_symmetry_multiplicity
 _atom_site_fract_x
 _atom_site_fract_y
 _atom_site_fract_z
 _atom_site_occupancy
  Dy  Dy0  1  0.00000000  0.66670414  0.33329419  1
  Dy  Dy1  1  0.50000000  0.33328972  0.66678415  1
  Co  Co2  1  0.00000000  0.37333664  0.93996012  1
  Co  Co3  1  0.00000000  0.05995746  0.43335096  1
  Co  Co4  1  -0.00000000  0.56666798  0.62666165  1
  Co  Co5  1  -0.00000000  0.88128311  0.72733387  1
  Co  Co6  1  0.00000000  0.27272895  0.15388056  1
  Co  Co7  1  -0.00000000  0.84596796  0.11879848  1
  Co  Co8  1  0.50000000  0.94783714  0.56430082  1
  Co  Co9  1  0.50000000  0.43574606  0.38357489  1
  Co  Co10  1  0.50000000  0.61648995  0.05215167  1
  Co  Co11  1  0.50000000  0.13087566  0.89801679  1
  Co  Co12  1  0.50000000  0.10192658  0.23268969  1
  Co  Co13  1  0.50000000  0.76715419  0.86917258  1
  P  P14  1  0.00000000  0.11229062  0.70531776  1
  P  P15  1  -0.00000000  0.29476051  0.40714640  1
  P  P16  1  -0.00000000  0.59298314  0.88764626  1
  P  P17  1  0.50000000  0.70945474  0.59800104  1
  P  P18  1  0.50000000  0.40196641  0.11138960  1
  P  P19  1  0.50000000  0.88852401  0.29054191  1
  P  P20  1  -0.00000000  0.00005504  -0.00001340  1
