# generated using pymatgen
data_Mn8Si6O25
_symmetry_space_group_name_H-M   'P 1'
_cell_length_a   12.79650067
_cell_length_b   12.89543827
_cell_length_c   7.71746487
_cell_angle_alpha   89.99999895
_cell_angle_beta   89.64628679
_cell_angle_gamma   120.25609083
_symmetry_Int_Tables_number   1
_chemical_formula_structural   Mn8Si6O25
_chemical_formula_sum   'Mn16 Si12 O50'
_cell_volume   1100.00592049
_cell_formula_units_Z   2
loop_
 _symmetry_equiv_pos_site_id
 _symmetry_equiv_pos_as_xyz
  1  'x, y, z'
loop_
 _atom_site_type_symbol
 _atom_site_label
 _atom_site_symmetry_multiplicity
 _atom_site_fract_x
 _atom_site_fract_y
 _atom_site_fract_z
 _atom_site_occupancy
  Mn  Mn0  1  -0.00000000  -0.00000000  0.00000000  1
  Mn  Mn1  1  0.23885784  0.99885308  0.99813599  1
  Mn  Mn2  1  0.76114216  0.75999524  0.00186401  1
  Mn  Mn3  1  1.00000000  0.24451792  1.00000000  1
  Mn  Mn4  1  0.23885784  0.24000476  0.99813599  1
  Mn  Mn5  1  0.00000000  0.75548208  0.00000000  1
  Mn  Mn6  1  0.76114216  0.00114692  0.00186401  1
  Mn  Mn7  1  0.50000000  -0.00000000  0.00000000  1
  Mn  Mn8  1  0.50000000  0.50000000  0.00000000  1
  Mn  Mn9  1  -0.00000000  0.50000000  0.00000000  1
  Mn  Mn10  1  0.25165577  0.74643947  0.96486112  1
  Mn  Mn11  1  0.49613907  0.74806953  0.96135789  1
  Mn  Mn12  1  0.25165577  0.50521630  0.96486112  1
  Mn  Mn13  1  0.74834423  0.25356053  0.03513888  1
  Mn  Mn14  1  0.50386093  0.25193047  0.03864211  1
  Mn  Mn15  1  0.74834423  0.49478370  0.03513888  1
  Si  Si16  1  0.33304815  0.91152420  0.35713800  1
  Si  Si17  1  0.57986567  0.66878445  0.35810258  1
  Si  Si18  1  0.09031007  0.42374653  0.35892157  1
  Si  Si19  1  0.33304815  0.42152394  0.35713800  1
  Si  Si20  1  0.09031007  0.66656354  0.35892157  1
  Si  Si21  1  0.57986567  0.91108123  0.35810258  1
  Si  Si22  1  0.66695185  0.08847580  0.64286200  1
  Si  Si23  1  0.42013433  0.33121555  0.64189742  1
  Si  Si24  1  0.90968993  0.57625347  0.64107843  1
  Si  Si25  1  0.66695185  0.57847606  0.64286200  1
  Si  Si26  1  0.90968993  0.33343646  0.64107843  1
  Si  Si27  1  0.42013433  0.08891877  0.64189742  1
  O  O28  1  0.32381889  0.00015693  0.49865659  1
  O  O29  1  0.67618111  0.67633805  0.50134341  1
  O  O30  1  1.00000000  0.32459928  0.50000000  1
  O  O31  1  0.32381889  0.32366195  0.49865659  1
  O  O32  1  0.00000000  0.67540072  0.50000000  1
  O  O33  1  0.67618111  -0.00015693  0.50134341  1
  O  O34  1  0.45145430  0.90187454  0.39409180  1
  O  O35  1  0.45145430  0.54957977  0.39409180  1
  O  O36  1  0.10184802  0.55092351  0.40257042  1
  O  O37  1  0.54854570  0.09812546  0.60590820  1
  O  O38  1  0.54854570  0.45042023  0.60590820  1
  O  O39  1  0.89815198  0.44907649  0.59742958  1
  O  O40  1  0.22038362  0.78084175  0.39403949  1
  O  O41  1  0.56144552  0.78072326  0.39466957  1
  O  O42  1  0.22038362  0.43954188  0.39403949  1
  O  O43  1  0.77961638  0.21915825  0.60596051  1
  O  O44  1  0.43855448  0.21927674  0.60533043  1
  O  O45  1  0.77961638  0.56045812  0.60596051  1
  O  O46  1  0.33663377  0.94435244  0.14989601  1
  O  O47  1  0.61056813  0.66587949  0.15140171  1
  O  O48  1  0.05913818  0.39796035  0.15194444  1
  O  O49  1  0.33663377  0.39228133  0.14989601  1
  O  O50  1  0.05913818  0.66117782  0.15194444  1
  O  O51  1  0.61056813  0.94468864  0.15140171  1
  O  O52  1  0.66336623  0.05564756  0.85010399  1
  O  O53  1  0.38943187  0.33412051  0.84859829  1
  O  O54  1  0.94086182  0.60203965  0.84805556  1
  O  O55  1  0.66336623  0.60771867  0.85010399  1
  O  O56  1  0.94086182  0.33882218  0.84805556  1
  O  O57  1  0.38943187  0.05531136  0.84859829  1
  O  O58  1  0.08452856  0.92641257  0.11565407  1
  O  O59  1  0.83923189  0.91961594  0.12218109  1
  O  O60  1  0.08452856  0.15811599  0.11565407  1
  O  O61  1  0.91547144  0.07358743  0.88434593  1
  O  O62  1  0.16076811  0.08038406  0.87781891  1
  O  O63  1  0.91547144  0.84188401  0.88434593  1
  O  O64  1  0.16464598  0.83308330  0.89844905  1
  O  O65  1  0.67212754  0.83606327  0.90171235  1
  O  O66  1  0.16464598  0.33156269  0.89844905  1
  O  O67  1  0.83535402  0.16691670  0.10155095  1
  O  O68  1  0.32787246  0.16393673  0.09828765  1
  O  O69  1  0.83535402  0.66843731  0.10155095  1
  O  O70  1  0.42484445  0.85060151  0.88756570  1
  O  O71  1  0.42484445  0.57424295  0.88756570  1
  O  O72  1  0.14985398  0.57492749  0.88351890  1
  O  O73  1  0.57515555  0.14939849  0.11243430  1
  O  O74  1  0.57515555  0.42575705  0.11243430  1
  O  O75  1  0.85014602  0.42507251  0.11648110  1
  O  O76  1  0.33122814  0.66561407  0.06954521  1
  O  O77  1  0.66877186  0.33438593  0.93045479  1
