# generated using pymatgen
data_Nd5Ni19
_symmetry_space_group_name_H-M   'P 1'
_cell_length_a   4.97905930
_cell_length_b   4.97905930
_cell_length_c   16.36139473
_cell_angle_alpha   81.24794882
_cell_angle_beta   81.24794882
_cell_angle_gamma   60.00000723
_symmetry_Int_Tables_number   1
_chemical_formula_structural   Nd5Ni19
_chemical_formula_sum   'Nd5 Ni19'
_cell_volume   345.80929546
_cell_formula_units_Z   1
loop_
 _symmetry_equiv_pos_site_id
 _symmetry_equiv_pos_as_xyz
  1  'x, y, z'
loop_
 _atom_site_type_symbol
 _atom_site_label
 _atom_site_symmetry_multiplicity
 _atom_site_fract_x
 _atom_site_fract_y
 _atom_site_fract_z
 _atom_site_occupancy
  Nd  Nd0  1  0.00000000  0.00000000  -0.00000000  1
  Nd  Nd1  1  0.07811134  0.07811134  0.76566599  1
  Nd  Nd2  1  0.92188866  0.92188866  0.23433401  1
  Nd  Nd3  1  0.15166020  0.15166020  0.54501941  1
  Nd  Nd4  1  0.84833980  0.84833980  0.45498059  1
  Ni  Ni5  1  0.50000000  0.50000000  0.50000000  1
  Ni  Ni6  1  0.25127345  0.25127345  0.24617965  1
  Ni  Ni7  1  0.74872655  0.74872655  0.75382035  1
  Ni  Ni8  1  0.33334924  0.33334924  0.99995229  1
  Ni  Ni9  1  0.66665076  0.66665076  0.00004771  1
  Ni  Ni10  1  0.41499301  0.41499301  0.75502098  1
  Ni  Ni11  1  0.58500699  0.58500699  0.24497902  1
  Ni  Ni12  1  0.12345794  0.62217274  0.63219657  1
  Ni  Ni13  1  0.62217274  0.62217274  0.63219657  1
  Ni  Ni14  1  0.62217274  0.12345794  0.63219657  1
  Ni  Ni15  1  0.87654206  0.37782726  0.36780343  1
  Ni  Ni16  1  0.37782726  0.37782726  0.36780343  1
  Ni  Ni17  1  0.37782726  0.87654206  0.36780343  1
  Ni  Ni18  1  0.04023769  0.54082802  0.87810627  1
  Ni  Ni19  1  0.54082802  0.54082802  0.87810627  1
  Ni  Ni20  1  0.54082802  0.04023769  0.87810627  1
  Ni  Ni21  1  0.95976231  0.45917198  0.12189373  1
  Ni  Ni22  1  0.45917198  0.45917198  0.12189373  1
  Ni  Ni23  1  0.45917198  0.95976231  0.12189373  1
