# generated using pymatgen
data_CeIr3
_symmetry_space_group_name_H-M   'P 1'
_cell_length_a   5.33582658
_cell_length_b   5.33582658
_cell_length_c   17.68668588
_cell_angle_alpha   90.00000000
_cell_angle_beta   90.00000000
_cell_angle_gamma   120.01949519
_symmetry_Int_Tables_number   1
_chemical_formula_structural   CeIr3
_chemical_formula_sum   'Ce6 Ir18'
_cell_volume   436.00870288
_cell_formula_units_Z   6
loop_
 _symmetry_equiv_pos_site_id
 _symmetry_equiv_pos_as_xyz
  1  'x, y, z'
loop_
 _atom_site_type_symbol
 _atom_site_label
 _atom_site_symmetry_multiplicity
 _atom_site_fract_x
 _atom_site_fract_y
 _atom_site_fract_z
 _atom_site_occupancy
  Ce  Ce0  1  0.66669221  0.33330779  0.04212312  1
  Ce  Ce1  1  0.33330779  0.66669221  0.95787688  1
  Ce  Ce2  1  0.33330779  0.66669221  0.54212312  1
  Ce  Ce3  1  0.66669221  0.33330779  0.45787688  1
  Ce  Ce4  1  0.66668452  0.33331548  0.25000000  1
  Ce  Ce5  1  0.33331548  0.66668452  0.75000000  1
  Ir  Ir6  1  0.83257247  0.66516464  0.62651958  1
  Ir  Ir7  1  0.83259330  0.16740670  0.62651294  1
  Ir  Ir8  1  0.33483536  0.16742753  0.62651958  1
  Ir  Ir9  1  0.16742753  0.33483536  0.37348042  1
  Ir  Ir10  1  0.16740670  0.83259330  0.37348706  1
  Ir  Ir11  1  0.66516464  0.83257247  0.37348042  1
  Ir  Ir12  1  0.16742753  0.33483536  0.12651958  1
  Ir  Ir13  1  0.16740670  0.83259330  0.12651294  1
  Ir  Ir14  1  0.66516464  0.83257247  0.12651958  1
  Ir  Ir15  1  0.83257247  0.66516464  0.87348042  1
  Ir  Ir16  1  0.83259330  0.16740670  0.87348706  1
  Ir  Ir17  1  0.33483536  0.16742753  0.87348042  1
  Ir  Ir18  1  0.66670013  0.33329987  0.75000000  1
  Ir  Ir19  1  0.33329987  0.66670013  0.25000000  1
  Ir  Ir20  1  0.99998291  0.00001709  0.75000000  1
  Ir  Ir21  1  0.00001709  0.99998291  0.25000000  1
  Ir  Ir22  1  0.00000000  0.00000000  0.50000000  1
  Ir  Ir23  1  0.00000000  0.00000000  -0.00000000  1
