# generated using pymatgen
data_Li2Co12P7
_symmetry_space_group_name_H-M   'P 1'
_cell_length_a   3.48564750
_cell_length_b   8.89275803
_cell_length_c   8.89333018
_cell_angle_alpha   120.00412024
_cell_angle_beta   90.00000000
_cell_angle_gamma   90.00000000
_symmetry_Int_Tables_number   1
_chemical_formula_structural   Li2Co12P7
_chemical_formula_sum   'Li2 Co12 P7'
_cell_volume   238.72448004
_cell_formula_units_Z   1
loop_
 _symmetry_equiv_pos_site_id
 _symmetry_equiv_pos_as_xyz
  1  'x, y, z'
loop_
 _atom_site_type_symbol
 _atom_site_label
 _atom_site_symmetry_multiplicity
 _atom_site_fract_x
 _atom_site_fract_y
 _atom_site_fract_z
 _atom_site_occupancy
  Li  Li0  1  -0.00000000  0.66657465  0.33320405  1
  Li  Li1  1  0.50000000  0.33341651  0.66666926  1
  Co  Co2  1  0.00000000  0.37425302  0.93821153  1
  Co  Co3  1  0.00000000  0.06181353  0.43600019  1
  Co  Co4  1  0.00000000  0.56395384  0.62579177  1
  Co  Co5  1  -0.00000000  0.88183868  0.72349502  1
  Co  Co6  1  -0.00000000  0.27647652  0.15837479  1
  Co  Co7  1  -0.00000000  0.84161308  0.11816405  1
  Co  Co8  1  0.50000000  0.94830003  0.56089574  1
  Co  Co9  1  0.50000000  0.43907327  0.38736092  1
  Co  Co10  1  0.50000000  0.61269948  0.05174610  1
  Co  Co11  1  0.50000000  0.13066997  0.90135791  1
  Co  Co12  1  0.50000000  0.09863693  0.22936798  1
  Co  Co13  1  0.50000000  0.77067961  0.86935872  1
  P  P14  1  -0.00000000  0.11991710  0.70625446  1
  P  P15  1  -0.00000000  0.29369178  0.41362240  1
  P  P16  1  -0.00000000  0.58643501  0.88011959  1
  P  P17  1  0.50000000  0.71078039  0.59215724  1
  P  P18  1  0.50000000  0.40785506  0.11864137  1
  P  P19  1  0.50000000  0.88136071  0.28921656  1
  P  P20  1  0.00000000  -0.00003917  0.99999035  1
