# generated using pymatgen
data_KCo(PO3)3
_symmetry_space_group_name_H-M   'P 1'
_cell_length_a   6.73607461
_cell_length_b   6.73607461
_cell_length_c   9.96420501
_cell_angle_alpha   90.00000000
_cell_angle_beta   90.00000000
_cell_angle_gamma   119.99525031
_symmetry_Int_Tables_number   1
_chemical_formula_structural   KCo(PO3)3
_chemical_formula_sum   'K2 Co2 P6 O18'
_cell_volume   391.56859062
_cell_formula_units_Z   2
loop_
 _symmetry_equiv_pos_site_id
 _symmetry_equiv_pos_as_xyz
  1  'x, y, z'
loop_
 _atom_site_type_symbol
 _atom_site_label
 _atom_site_symmetry_multiplicity
 _atom_site_fract_x
 _atom_site_fract_y
 _atom_site_fract_z
 _atom_site_occupancy
  K  K0  1  0.00000488  0.99999512  0.50000000  1
  K  K1  1  0.00000488  0.99999512  0.00000000  1
  Co  Co2  1  0.66668000  0.33332000  0.50000000  1
  Co  Co3  1  0.66668000  0.33332000  0.00000000  1
  P  P4  1  0.55712270  0.94790182  0.75000000  1
  P  P5  1  0.39078139  0.44286063  0.75000000  1
  P  P6  1  0.05209082  0.60923409  0.75000000  1
  P  P7  1  0.39076591  0.94790918  0.25000000  1
  P  P8  1  0.05209818  0.44287730  0.25000000  1
  P  P9  1  0.55713937  0.60921861  0.25000000  1
  O  O10  1  0.28539036  0.85544749  0.75000000  1
  O  O11  1  0.57005085  0.71459103  0.75000000  1
  O  O12  1  0.14455745  0.42995223  0.75000000  1
  O  O13  1  0.57004777  0.85544255  0.25000000  1
  O  O14  1  0.14455251  0.71460964  0.25000000  1
  O  O15  1  0.28540897  0.42994915  0.25000000  1
  O  O16  1  0.66205555  0.06993012  0.87924498  1
  O  O17  1  0.40787105  0.33792080  0.87924806  1
  O  O18  1  0.93008018  0.59214387  0.87925340  1
  O  O19  1  0.66205555  0.06993012  0.62075502  1
  O  O20  1  0.40787105  0.33792080  0.62075194  1
  O  O21  1  0.93008018  0.59214387  0.62074660  1
  O  O22  1  0.40785613  0.06991982  0.37925340  1
  O  O23  1  0.93006988  0.33794445  0.37924498  1
  O  O24  1  0.66207920  0.59212895  0.37924806  1
  O  O25  1  0.40785613  0.06991982  0.12074660  1
  O  O26  1  0.93006988  0.33794445  0.12075502  1
  O  O27  1  0.66207920  0.59212895  0.12075194  1
