# generated using pymatgen
data_Ho3FeB7
_symmetry_space_group_name_H-M   'P 1'
_cell_length_a   3.40277274
_cell_length_b   7.98501421
_cell_length_c   9.25119770
_cell_angle_alpha   90.00000000
_cell_angle_beta   90.00000000
_cell_angle_gamma   102.30246139
_symmetry_Int_Tables_number   1
_chemical_formula_structural   Ho3FeB7
_chemical_formula_sum   'Ho6 Fe2 B14'
_cell_volume   245.59377467
_cell_formula_units_Z   2
loop_
 _symmetry_equiv_pos_site_id
 _symmetry_equiv_pos_as_xyz
  1  'x, y, z'
loop_
 _atom_site_type_symbol
 _atom_site_label
 _atom_site_symmetry_multiplicity
 _atom_site_fract_x
 _atom_site_fract_y
 _atom_site_fract_z
 _atom_site_occupancy
  Ho  Ho0  1  0.10491394  0.20982787  0.43988758  1
  Ho  Ho1  1  0.89508606  0.79017213  0.56011242  1
  Ho  Ho2  1  0.10491394  0.20982787  0.06011242  1
  Ho  Ho3  1  0.89508606  0.79017213  0.93988758  1
  Ho  Ho4  1  0.75675133  0.51350267  0.25000000  1
  Ho  Ho5  1  0.24324867  0.48649733  0.75000000  1
  Fe  Fe6  1  0.94582755  0.89165509  0.25000000  1
  Fe  Fe7  1  0.05417245  0.10834491  0.75000000  1
  B  B8  1  0.27247392  0.54494784  0.46694456  1
  B  B9  1  0.72752608  0.45505216  0.53305544  1
  B  B10  1  0.27247392  0.54494784  0.03305544  1
  B  B11  1  0.72752608  0.45505216  0.96694456  1
  B  B12  1  0.37006164  0.74012328  0.15305990  1
  B  B13  1  0.62993836  0.25987672  0.84694010  1
  B  B14  1  0.37006164  0.74012328  0.34694010  1
  B  B15  1  0.62993836  0.25987672  0.65305990  1
  B  B16  1  0.47851971  0.95703941  0.09847415  1
  B  B17  1  0.52148029  0.04296059  0.90152585  1
  B  B18  1  0.47851971  0.95703941  0.40152585  1
  B  B19  1  0.52148029  0.04296059  0.59847415  1
  B  B20  1  0.54084479  0.08168959  0.25000000  1
  B  B21  1  0.45915521  0.91831041  0.75000000  1
