# generated using pymatgen
data_HfBi2
_symmetry_space_group_name_H-M   'P 1'
_cell_length_a   4.05142658
_cell_length_b   10.29784230
_cell_length_c   15.78848161
_cell_angle_alpha   90.00000000
_cell_angle_beta   90.00000000
_cell_angle_gamma   90.00000000
_symmetry_Int_Tables_number   1
_chemical_formula_structural   HfBi2
_chemical_formula_sum   'Hf8 Bi16'
_cell_volume   658.71048358
_cell_formula_units_Z   8
loop_
 _symmetry_equiv_pos_site_id
 _symmetry_equiv_pos_as_xyz
  1  'x, y, z'
loop_
 _atom_site_type_symbol
 _atom_site_label
 _atom_site_symmetry_multiplicity
 _atom_site_fract_x
 _atom_site_fract_y
 _atom_site_fract_z
 _atom_site_occupancy
  Hf  Hf0  1  0.00000000  0.84073214  0.49575402  1
  Hf  Hf1  1  0.00000000  0.15926786  0.50424598  1
  Hf  Hf2  1  0.50000000  0.65926786  0.99575402  1
  Hf  Hf3  1  0.50000000  0.34073214  0.00424598  1
  Hf  Hf4  1  0.50000000  0.52182552  0.25295338  1
  Hf  Hf5  1  0.50000000  0.47817448  0.74704662  1
  Hf  Hf6  1  -0.00000000  0.97817448  0.75295338  1
  Hf  Hf7  1  -0.00000000  0.02182552  0.24704662  1
  Bi  Bi8  1  0.50000000  0.62445077  0.44360255  1
  Bi  Bi9  1  0.50000000  0.37554923  0.55639745  1
  Bi  Bi10  1  0.00000000  0.87554923  0.94360255  1
  Bi  Bi11  1  -0.00000000  0.12445077  0.05639745  1
  Bi  Bi12  1  0.50000000  0.84485610  0.14934412  1
  Bi  Bi13  1  0.50000000  0.15514390  0.85065588  1
  Bi  Bi14  1  -0.00000000  0.65514390  0.64934412  1
  Bi  Bi15  1  0.00000000  0.34485610  0.35065588  1
  Bi  Bi16  1  -0.00000000  0.73561328  0.30021227  1
  Bi  Bi17  1  -0.00000000  0.26438672  0.69978773  1
  Bi  Bi18  1  0.50000000  0.76438672  0.80021227  1
  Bi  Bi19  1  0.50000000  0.23561328  0.19978773  1
  Bi  Bi20  1  -0.00000000  0.51280258  0.10755058  1
  Bi  Bi21  1  0.00000000  0.48719742  0.89244942  1
  Bi  Bi22  1  0.50000000  0.98719742  0.60755058  1
  Bi  Bi23  1  0.50000000  0.01280258  0.39244942  1
