# generated using pymatgen
data_LiCa3OsO6
_symmetry_space_group_name_H-M   'P 1'
_cell_length_a   6.50070175
_cell_length_b   6.50070175
_cell_length_c   6.50070207
_cell_angle_alpha   91.97477674
_cell_angle_beta   91.97477674
_cell_angle_gamma   91.97478439
_symmetry_Int_Tables_number   1
_chemical_formula_structural   LiCa3OsO6
_chemical_formula_sum   'Li2 Ca6 Os2 O12'
_cell_volume   274.21295303
_cell_formula_units_Z   2
loop_
 _symmetry_equiv_pos_site_id
 _symmetry_equiv_pos_as_xyz
  1  'x, y, z'
loop_
 _atom_site_type_symbol
 _atom_site_label
 _atom_site_symmetry_multiplicity
 _atom_site_fract_x
 _atom_site_fract_y
 _atom_site_fract_z
 _atom_site_occupancy
  Li  Li0  1  0.25000000  0.25000000  0.25000000  1
  Li  Li1  1  0.75000000  0.75000000  0.75000000  1
  Ca  Ca2  1  0.89378591  0.60621409  0.25000000  1
  Ca  Ca3  1  0.60621409  0.25000000  0.89378591  1
  Ca  Ca4  1  0.25000000  0.89378591  0.60621409  1
  Ca  Ca5  1  0.39378591  0.75000000  0.10621409  1
  Ca  Ca6  1  0.75000000  0.10621409  0.39378591  1
  Ca  Ca7  1  0.10621409  0.39378591  0.75000000  1
  Os  Os8  1  0.50000000  0.50000000  0.50000000  1
  Os  Os9  1  0.00000000  -0.00000000  -0.00000000  1
  O  O10  1  0.29201724  0.07909171  0.95024305  1
  O  O11  1  0.07909171  0.95024305  0.29201724  1
  O  O12  1  0.95024305  0.29201724  0.07909171  1
  O  O13  1  0.79201724  0.45024305  0.57909171  1
  O  O14  1  0.45024305  0.57909171  0.79201724  1
  O  O15  1  0.57909171  0.79201724  0.45024305  1
  O  O16  1  0.70798276  0.92090829  0.04975695  1
  O  O17  1  0.92090829  0.04975695  0.70798276  1
  O  O18  1  0.04975695  0.70798276  0.92090829  1
  O  O19  1  0.20798276  0.54975695  0.42090829  1
  O  O20  1  0.54975695  0.42090829  0.20798276  1
  O  O21  1  0.42090829  0.20798276  0.54975695  1
