# generated using pymatgen
data_Gd2Fe12P7
_symmetry_space_group_name_H-M   'P 1'
_cell_length_a   3.64514984
_cell_length_b   8.99488934
_cell_length_c   8.99451007
_cell_angle_alpha   119.98543159
_cell_angle_beta   90.00000000
_cell_angle_gamma   90.00000000
_symmetry_Int_Tables_number   1
_chemical_formula_structural   Gd2Fe12P7
_chemical_formula_sum   'Gd2 Fe12 P7'
_cell_volume   255.43657964
_cell_formula_units_Z   1
loop_
 _symmetry_equiv_pos_site_id
 _symmetry_equiv_pos_as_xyz
  1  'x, y, z'
loop_
 _atom_site_type_symbol
 _atom_site_label
 _atom_site_symmetry_multiplicity
 _atom_site_fract_x
 _atom_site_fract_y
 _atom_site_fract_z
 _atom_site_occupancy
  Gd  Gd0  1  -0.00000000  0.66662870  0.33331898  1
  Gd  Gd1  1  0.50000000  0.33338791  0.66662702  1
  Fe  Fe2  1  -0.00000000  0.37215962  0.94467966  1
  Fe  Fe3  1  0.00000000  0.05540181  0.42738691  1
  Fe  Fe4  1  -0.00000000  0.57257540  0.62804770  1
  Fe  Fe5  1  0.00000000  0.87988115  0.72632074  1
  Fe  Fe6  1  0.00000000  0.27378336  0.15369343  1
  Fe  Fe7  1  0.00000000  0.84634940  0.12014608  1
  Fe  Fe8  1  0.50000000  0.95061434  0.56816249  1
  Fe  Fe9  1  0.50000000  0.43181540  0.38237076  1
  Fe  Fe10  1  0.50000000  0.61756531  0.04933846  1
  Fe  Fe11  1  0.50000000  0.12091679  0.90218391  1
  Fe  Fe12  1  0.50000000  0.09777523  0.21874724  1
  Fe  Fe13  1  0.50000000  0.78123736  0.87899790  1
  P  P14  1  -0.00000000  0.11188636  0.70336207  1
  P  P15  1  -0.00000000  0.29644827  0.40840895  1
  P  P16  1  -0.00000000  0.59140853  0.88793968  1
  P  P17  1  0.50000000  0.70966876  0.59978284  1
  P  P18  1  0.50000000  0.40029086  0.10981648  1
  P  P19  1  0.50000000  0.89028048  0.29062983  1
  P  P20  1  -0.00000000  0.99992496  0.00003888  1
