# generated using pymatgen
data_KAs
_symmetry_space_group_name_H-M   'P 1'
_cell_length_a   30.07308971
_cell_length_b   13.84696271
_cell_length_c   4.19155436
_cell_angle_alpha   90.00000000
_cell_angle_beta   90.00000000
_cell_angle_gamma   90.00000000
_symmetry_Int_Tables_number   1
_chemical_formula_structural   KAs
_chemical_formula_sum   'K24 As24'
_cell_volume   1745.45105607
_cell_formula_units_Z   24
loop_
 _symmetry_equiv_pos_site_id
 _symmetry_equiv_pos_as_xyz
  1  'x, y, z'
loop_
 _atom_site_type_symbol
 _atom_site_label
 _atom_site_symmetry_multiplicity
 _atom_site_fract_x
 _atom_site_fract_y
 _atom_site_fract_z
 _atom_site_occupancy
  K  K0  1  0.16664062  0.88015117  0.24841218  1
  K  K1  1  0.33335938  0.61984883  0.74841218  1
  K  K2  1  0.66664062  0.61984883  0.75158782  1
  K  K3  1  0.83335938  0.88015117  0.25158782  1
  K  K4  1  0.83335938  0.11984883  0.75158782  1
  K  K5  1  0.66664062  0.38015117  0.25158782  1
  K  K6  1  0.33335938  0.38015117  0.24841218  1
  K  K7  1  0.16664062  0.11984883  0.74841218  1
  K  K8  1  0.33335938  0.88015117  0.24841218  1
  K  K9  1  0.16664062  0.61984883  0.74841218  1
  K  K10  1  0.83335938  0.61984883  0.75158782  1
  K  K11  1  0.66664062  0.88015117  0.25158782  1
  K  K12  1  0.66664062  0.11984883  0.75158782  1
  K  K13  1  0.83335938  0.38015117  0.25158782  1
  K  K14  1  0.16664062  0.38015117  0.24841218  1
  K  K15  1  0.33335938  0.11984883  0.74841218  1
  K  K16  1  -0.00000000  0.11999763  0.75000000  1
  K  K17  1  0.50000000  0.38000237  0.25000000  1
  K  K18  1  -0.00000000  0.88000237  0.25000000  1
  K  K19  1  0.50000000  0.61999763  0.75000000  1
  K  K20  1  -0.00000000  0.61999763  0.75000000  1
  K  K21  1  0.50000000  0.88000237  0.25000000  1
  K  K22  1  -0.00000000  0.38000237  0.25000000  1
  K  K23  1  0.50000000  0.11999763  0.75000000  1
  As  As24  1  0.08322325  0.94615117  0.74895292  1
  As  As25  1  0.41677675  0.55384883  0.24895292  1
  As  As26  1  0.58322325  0.55384883  0.25104708  1
  As  As27  1  0.91677675  0.94615117  0.75104708  1
  As  As28  1  0.91677675  0.05384883  0.25104708  1
  As  As29  1  0.58322325  0.44615117  0.75104708  1
  As  As30  1  0.41677675  0.44615117  0.74895292  1
  As  As31  1  0.08322325  0.05384883  0.24895292  1
  As  As32  1  0.25000000  0.94624113  0.74891978  1
  As  As33  1  0.25000000  0.55375887  0.24891978  1
  As  As34  1  0.75000000  0.55375887  0.25108022  1
  As  As35  1  0.75000000  0.94624113  0.75108022  1
  As  As36  1  0.75000000  0.05375887  0.25108022  1
  As  As37  1  0.75000000  0.44624113  0.75108022  1
  As  As38  1  0.25000000  0.44624113  0.74891978  1
  As  As39  1  0.25000000  0.05375887  0.24891978  1
  As  As40  1  0.41677675  0.94615117  0.74895292  1
  As  As41  1  0.08322325  0.55384883  0.24895292  1
  As  As42  1  0.91677675  0.55384883  0.25104708  1
  As  As43  1  0.58322325  0.94615117  0.75104708  1
  As  As44  1  0.58322325  0.05384883  0.25104708  1
  As  As45  1  0.91677675  0.44615117  0.75104708  1
  As  As46  1  0.08322325  0.44615117  0.74895292  1
  As  As47  1  0.41677675  0.05384883  0.24895292  1
