# generated using pymatgen
data_Dy3FeB7
_symmetry_space_group_name_H-M   'P 1'
_cell_length_a   3.42252696
_cell_length_b   8.03517118
_cell_length_c   9.30862164
_cell_angle_alpha   90.00000000
_cell_angle_beta   90.00000000
_cell_angle_gamma   102.29655023
_symmetry_Int_Tables_number   1
_chemical_formula_structural   Dy3FeB7
_chemical_formula_sum   'Dy6 Fe2 B14'
_cell_volume   250.11970751
_cell_formula_units_Z   2
loop_
 _symmetry_equiv_pos_site_id
 _symmetry_equiv_pos_as_xyz
  1  'x, y, z'
loop_
 _atom_site_type_symbol
 _atom_site_label
 _atom_site_symmetry_multiplicity
 _atom_site_fract_x
 _atom_site_fract_y
 _atom_site_fract_z
 _atom_site_occupancy
  Dy  Dy0  1  0.10474304  0.20948608  0.44006617  1
  Dy  Dy1  1  0.89525696  0.79051392  0.55993383  1
  Dy  Dy2  1  0.10474304  0.20948608  0.05993383  1
  Dy  Dy3  1  0.89525696  0.79051392  0.94006617  1
  Dy  Dy4  1  0.75689597  0.51379194  0.25000000  1
  Dy  Dy5  1  0.24310403  0.48620806  0.75000000  1
  Fe  Fe6  1  0.94555970  0.89111941  0.25000000  1
  Fe  Fe7  1  0.05444030  0.10888059  0.75000000  1
  B  B8  1  0.27283673  0.54567346  0.46717472  1
  B  B9  1  0.72716327  0.45432654  0.53282528  1
  B  B10  1  0.27283673  0.54567346  0.03282528  1
  B  B11  1  0.72716327  0.45432654  0.96717472  1
  B  B12  1  0.37035847  0.74071694  0.15333110  1
  B  B13  1  0.62964153  0.25928306  0.84666890  1
  B  B14  1  0.37035847  0.74071694  0.34666890  1
  B  B15  1  0.62964153  0.25928306  0.65333110  1
  B  B16  1  0.47838670  0.95677340  0.09895391  1
  B  B17  1  0.52161330  0.04322660  0.90104609  1
  B  B18  1  0.47838670  0.95677340  0.40104609  1
  B  B19  1  0.52161330  0.04322660  0.59895391  1
  B  B20  1  0.54032645  0.08065289  0.25000000  1
  B  B21  1  0.45967355  0.91934711  0.75000000  1
