# generated using pymatgen
data_LiAs2H3O7
_symmetry_space_group_name_H-M   'P 1'
_cell_length_a   5.71107659
_cell_length_b   7.57366106
_cell_length_c   7.57366106
_cell_angle_alpha   78.97999134
_cell_angle_beta   70.47846796
_cell_angle_gamma   70.47846796
_symmetry_Int_Tables_number   1
_chemical_formula_structural   LiAs2H3O7
_chemical_formula_sum   'Li2 As4 H6 O14'
_cell_volume   289.84215013
_cell_formula_units_Z   2
loop_
 _symmetry_equiv_pos_site_id
 _symmetry_equiv_pos_as_xyz
  1  'x, y, z'
loop_
 _atom_site_type_symbol
 _atom_site_label
 _atom_site_symmetry_multiplicity
 _atom_site_fract_x
 _atom_site_fract_y
 _atom_site_fract_z
 _atom_site_occupancy
  Li  Li0  1  0.00000000  0.85035418  0.14964582  1
  Li  Li1  1  -0.00000000  0.14964582  0.85035418  1
  As  As2  1  0.94574090  0.26718798  0.26718798  1
  As  As3  1  0.05425910  0.73281202  0.73281202  1
  As  As4  1  0.50000000  0.64655132  0.35344868  1
  As  As5  1  0.50000000  0.35344868  0.64655132  1
  H  H6  1  0.50184402  0.71283967  0.03853359  1
  H  H7  1  0.50184402  0.03853359  0.71283967  1
  H  H8  1  0.49815598  0.28716033  0.96146641  1
  H  H9  1  0.49815598  0.96146641  0.28716033  1
  H  H10  1  0.30713968  0.31037377  0.31037377  1
  H  H11  1  0.69286032  0.68962623  0.68962623  1
  O  O12  1  0.92321414  0.12958116  0.12958116  1
  O  O13  1  0.07678586  0.87041884  0.87041884  1
  O  O14  1  0.83039042  0.50822421  0.20688755  1
  O  O15  1  0.83039042  0.20688755  0.50822421  1
  O  O16  1  0.16960958  0.49177579  0.79311245  1
  O  O17  1  0.16960958  0.79311245  0.49177579  1
  O  O18  1  0.28086144  0.22958304  0.22958304  1
  O  O19  1  0.71913856  0.77041696  0.77041696  1
  O  O20  1  0.36369534  0.70415236  0.15676827  1
  O  O21  1  0.36369534  0.15676827  0.70415236  1
  O  O22  1  0.63630466  0.29584764  0.84323173  1
  O  O23  1  0.63630466  0.84323173  0.29584764  1
  O  O24  1  0.39665461  0.42744534  0.42744534  1
  O  O25  1  0.60334539  0.57255466  0.57255466  1
