# generated using pymatgen
data_Ba2V3HO9
_symmetry_space_group_name_H-M   'P 1'
_cell_length_a   6.27529990
_cell_length_b   8.00218792
_cell_length_c   9.28883153
_cell_angle_alpha   112.73112328
_cell_angle_beta   90.00000000
_cell_angle_gamma   90.00000000
_symmetry_Int_Tables_number   1
_chemical_formula_structural   Ba2V3HO9
_chemical_formula_sum   'Ba4 V6 H2 O18'
_cell_volume   430.21927619
_cell_formula_units_Z   2
loop_
 _symmetry_equiv_pos_site_id
 _symmetry_equiv_pos_as_xyz
  1  'x, y, z'
loop_
 _atom_site_type_symbol
 _atom_site_label
 _atom_site_symmetry_multiplicity
 _atom_site_fract_x
 _atom_site_fract_y
 _atom_site_fract_z
 _atom_site_occupancy
  Ba  Ba0  1  0.75000000  0.32085224  0.41165725  1
  Ba  Ba1  1  0.25000000  0.67914776  0.58834275  1
  Ba  Ba2  1  0.75000000  0.73565486  0.24453952  1
  Ba  Ba3  1  0.25000000  0.26434514  0.75546048  1
  V  V4  1  0.50000000  -0.00000000  -0.00000000  1
  V  V5  1  -0.00000000  -0.00000000  -0.00000000  1
  V  V6  1  0.25000000  0.04667191  0.33400901  1
  V  V7  1  0.75000000  0.95332809  0.66599099  1
  V  V8  1  0.75000000  0.56416635  0.82697895  1
  V  V9  1  0.25000000  0.43583365  0.17302105  1
  H  H10  1  0.75000000  0.27106583  0.02492690  1
  H  H11  1  0.25000000  0.72893417  0.97507310  1
  O  O12  1  0.48786976  0.00471986  0.21951840  1
  O  O13  1  0.98786976  0.99528014  0.78048160  1
  O  O14  1  0.51213024  0.99528014  0.78048160  1
  O  O15  1  0.01213024  0.00471986  0.21951840  1
  O  O16  1  0.52956266  0.50205020  0.70671264  1
  O  O17  1  0.02956266  0.49794980  0.29328736  1
  O  O18  1  0.47043734  0.49794980  0.29328736  1
  O  O19  1  0.97043734  0.50205020  0.70671264  1
  O  O20  1  0.75000000  0.80719435  0.94977278  1
  O  O21  1  0.25000000  0.19280565  0.05022722  1
  O  O22  1  0.25000000  0.26921771  0.45893611  1
  O  O23  1  0.75000000  0.73078229  0.54106389  1
  O  O24  1  0.75000000  0.17415906  0.06669945  1
  O  O25  1  0.25000000  0.82584094  0.93330055  1
  O  O26  1  0.25000000  0.91986814  0.44478409  1
  O  O27  1  0.75000000  0.08013186  0.55521591  1
  O  O28  1  0.75000000  0.45150462  0.95067544  1
  O  O29  1  0.25000000  0.54849538  0.04932456  1
