# generated using pymatgen
data_Lu2PbS4
_symmetry_space_group_name_H-M   'P 1'
_cell_length_a   3.92257459
_cell_length_b   11.92569101
_cell_length_c   14.18107630
_cell_angle_alpha   90.00000000
_cell_angle_beta   90.00000000
_cell_angle_gamma   90.00000000
_symmetry_Int_Tables_number   1
_chemical_formula_structural   Lu2PbS4
_chemical_formula_sum   'Lu8 Pb4 S16'
_cell_volume   663.38241827
_cell_formula_units_Z   4
loop_
 _symmetry_equiv_pos_site_id
 _symmetry_equiv_pos_as_xyz
  1  'x, y, z'
loop_
 _atom_site_type_symbol
 _atom_site_label
 _atom_site_symmetry_multiplicity
 _atom_site_fract_x
 _atom_site_fract_y
 _atom_site_fract_z
 _atom_site_occupancy
  Lu  Lu0  1  0.75000000  0.06622578  0.11088531  1
  Lu  Lu1  1  0.75000000  0.56622578  0.38911469  1
  Lu  Lu2  1  0.25000000  0.93377422  0.88911469  1
  Lu  Lu3  1  0.25000000  0.43377422  0.61088531  1
  Lu  Lu4  1  0.75000000  0.08078612  0.60017949  1
  Lu  Lu5  1  0.75000000  0.58078612  0.89982051  1
  Lu  Lu6  1  0.25000000  0.91921388  0.39982051  1
  Lu  Lu7  1  0.25000000  0.41921388  0.10017949  1
  Pb  Pb8  1  0.75000000  0.74151454  0.16276910  1
  Pb  Pb9  1  0.75000000  0.24151454  0.33723090  1
  Pb  Pb10  1  0.25000000  0.25848546  0.83723090  1
  Pb  Pb11  1  0.25000000  0.75848546  0.66276910  1
  S  S12  1  0.75000000  0.29272403  0.67055980  1
  S  S13  1  0.75000000  0.79272403  0.82944020  1
  S  S14  1  0.25000000  0.70727597  0.32944020  1
  S  S15  1  0.25000000  0.20727597  0.17055980  1
  S  S16  1  0.75000000  0.37189781  0.97405965  1
  S  S17  1  0.75000000  0.87189781  0.52594035  1
  S  S18  1  0.25000000  0.62810219  0.02594035  1
  S  S19  1  0.25000000  0.12810219  0.47405965  1
  S  S20  1  0.75000000  0.47641215  0.21528434  1
  S  S21  1  0.75000000  0.97641215  0.28471566  1
  S  S22  1  0.25000000  0.52358785  0.78471566  1
  S  S23  1  0.25000000  0.02358785  0.71528434  1
  S  S24  1  0.75000000  0.08459557  0.92341201  1
  S  S25  1  0.75000000  0.58459557  0.57658799  1
  S  S26  1  0.25000000  0.91540443  0.07658799  1
  S  S27  1  0.25000000  0.41540443  0.42341201  1
