# generated using pymatgen
data_RbNb2PSe10
_symmetry_space_group_name_H-M   'P 1'
_cell_length_a   7.67437650
_cell_length_b   8.10462800
_cell_length_c   13.69814567
_cell_angle_alpha   90.00000000
_cell_angle_beta   105.67492898
_cell_angle_gamma   90.00000000
_symmetry_Int_Tables_number   1
_chemical_formula_structural   RbNb2PSe10
_chemical_formula_sum   'Rb2 Nb4 P2 Se20'
_cell_volume   820.31109895
_cell_formula_units_Z   2
loop_
 _symmetry_equiv_pos_site_id
 _symmetry_equiv_pos_as_xyz
  1  'x, y, z'
loop_
 _atom_site_type_symbol
 _atom_site_label
 _atom_site_symmetry_multiplicity
 _atom_site_fract_x
 _atom_site_fract_y
 _atom_site_fract_z
 _atom_site_occupancy
  Rb  Rb0  1  0.87821181  0.48921893  0.69171684  1
  Rb  Rb1  1  0.37821181  0.51078107  0.19171684  1
  Nb  Nb2  1  0.40207786  0.05974846  0.66735566  1
  Nb  Nb3  1  0.90207786  0.94025154  0.16735566  1
  Nb  Nb4  1  0.70291047  0.06092231  0.96038895  1
  Nb  Nb5  1  0.20291047  0.93907769  0.46038895  1
  P  P6  1  0.43407716  0.40408101  0.84041822  1
  P  P7  1  0.93407716  0.59591899  0.34041822  1
  Se  Se8  1  0.49313096  0.13902938  0.50026611  1
  Se  Se9  1  0.99313096  0.86097062  0.00026611  1
  Se  Se10  1  0.09057008  0.16336247  0.30696590  1
  Se  Se11  1  0.59057008  0.83663753  0.80696590  1
  Se  Se12  1  0.72361666  0.39458907  0.93112467  1
  Se  Se13  1  0.22361666  0.60541093  0.43112467  1
  Se  Se14  1  0.34570061  0.14128145  0.85641416  1
  Se  Se15  1  0.84570061  0.85871855  0.35641416  1
  Se  Se16  1  0.76309573  0.06004447  0.77441745  1
  Se  Se17  1  0.26309573  0.93995553  0.27441745  1
  Se  Se18  1  0.04981515  0.11862274  0.57480414  1
  Se  Se19  1  0.54981515  0.88137726  0.07480414  1
  Se  Se20  1  0.40066550  0.40511228  0.67287920  1
  Se  Se21  1  0.90066550  0.59488772  0.17287920  1
  Se  Se22  1  0.28354030  0.59853774  0.88984861  1
  Se  Se23  1  0.78354030  0.40146226  0.38984861  1
  Se  Se24  1  0.62884726  0.14903519  0.13487149  1
  Se  Se25  1  0.12884726  0.85096481  0.63487149  1
  Se  Se26  1  0.04395045  0.13453189  0.04991860  1
  Se  Se27  1  0.54395045  0.86546811  0.54991860  1
