# generated using pymatgen
data_CsSmGeSe4
_symmetry_space_group_name_H-M   'P 1'
_cell_length_a   6.86801247
_cell_length_b   7.19750850
_cell_length_c   18.94725280
_cell_angle_alpha   90.00000000
_cell_angle_beta   90.00000000
_cell_angle_gamma   90.00000000
_symmetry_Int_Tables_number   1
_chemical_formula_structural   CsSmGeSe4
_chemical_formula_sum   'Cs4 Sm4 Ge4 Se16'
_cell_volume   936.61155440
_cell_formula_units_Z   4
loop_
 _symmetry_equiv_pos_site_id
 _symmetry_equiv_pos_as_xyz
  1  'x, y, z'
loop_
 _atom_site_type_symbol
 _atom_site_label
 _atom_site_symmetry_multiplicity
 _atom_site_fract_x
 _atom_site_fract_y
 _atom_site_fract_z
 _atom_site_occupancy
  Cs  Cs0  1  0.99484886  0.50648752  0.46844223  1
  Cs  Cs1  1  0.50515114  0.49351248  0.96844223  1
  Cs  Cs2  1  0.49484886  0.99351248  0.53155777  1
  Cs  Cs3  1  0.00515114  0.00648752  0.03155777  1
  Sm  Sm4  1  0.79288105  0.01901891  0.77265771  1
  Sm  Sm5  1  0.70711895  0.98098109  0.27265771  1
  Sm  Sm6  1  0.29288105  0.48098109  0.22734229  1
  Sm  Sm7  1  0.20711895  0.51901891  0.72734229  1
  Ge  Ge8  1  0.71041670  0.48332610  0.66692213  1
  Ge  Ge9  1  0.78958330  0.51667390  0.16692213  1
  Ge  Ge10  1  0.21041670  0.01667390  0.33307787  1
  Ge  Ge11  1  0.28958330  0.98332610  0.83307787  1
  Se  Se12  1  0.56491199  0.98712399  0.90850674  1
  Se  Se13  1  0.93508801  0.01287601  0.40850674  1
  Se  Se14  1  0.06491199  0.51287601  0.09149326  1
  Se  Se15  1  0.43508801  0.48712399  0.59149326  1
  Se  Se16  1  0.94443777  0.24418566  0.64656517  1
  Se  Se17  1  0.55556223  0.75581434  0.14656517  1
  Se  Se18  1  0.44443777  0.25581434  0.35343483  1
  Se  Se19  1  0.05556223  0.74418566  0.85343483  1
  Se  Se20  1  0.90402398  0.75642997  0.65452995  1
  Se  Se21  1  0.59597602  0.24357003  0.15452995  1
  Se  Se22  1  0.40402398  0.74357003  0.34547005  1
  Se  Se23  1  0.09597602  0.25642997  0.84547005  1
  Se  Se24  1  0.59791085  0.41384767  0.78285642  1
  Se  Se25  1  0.90208915  0.58615233  0.28285642  1
  Se  Se26  1  0.09791085  0.08615233  0.21714358  1
  Se  Se27  1  0.40208915  0.91384767  0.71714358  1
