# generated using pymatgen
data_PrMoBrO4
_symmetry_space_group_name_H-M   'P 1'
_cell_length_a   7.08648599
_cell_length_b   7.56456158
_cell_length_c   11.39033832
_cell_angle_alpha   106.12205867
_cell_angle_beta   106.64374927
_cell_angle_gamma   92.44190151
_symmetry_Int_Tables_number   1
_chemical_formula_structural   PrMoBrO4
_chemical_formula_sum   'Pr4 Mo4 Br4 O16'
_cell_volume   557.03362687
_cell_formula_units_Z   4
loop_
 _symmetry_equiv_pos_site_id
 _symmetry_equiv_pos_as_xyz
  1  'x, y, z'
loop_
 _atom_site_type_symbol
 _atom_site_label
 _atom_site_symmetry_multiplicity
 _atom_site_fract_x
 _atom_site_fract_y
 _atom_site_fract_z
 _atom_site_occupancy
  Pr  Pr0  1  0.64664232  0.12756222  0.73040391  1
  Pr  Pr1  1  0.35335768  0.87243778  0.26959609  1
  Pr  Pr2  1  0.39466199  0.64562555  0.76858493  1
  Pr  Pr3  1  0.60533801  0.35437445  0.23141507  1
  Mo  Mo4  1  0.73172287  0.81753724  0.13390580  1
  Mo  Mo5  1  0.26827713  0.18246276  0.86609420  1
  Mo  Mo6  1  0.77621717  0.59378037  0.63090594  1
  Mo  Mo7  1  0.22378283  0.40621963  0.36909406  1
  Br  Br8  1  0.25722818  0.96613537  0.51937299  1
  Br  Br9  1  0.74277182  0.03386463  0.48062701  1
  Br  Br10  1  0.19274669  0.71134584  0.98024264  1
  Br  Br11  1  0.80725331  0.28865416  0.01975736  1
  O  O12  1  0.67391144  0.73140072  0.96417480  1
  O  O13  1  0.32608856  0.26859928  0.03582520  1
  O  O14  1  0.99363622  0.86718948  0.20646883  1
  O  O15  1  0.00636378  0.13281052  0.79353117  1
  O  O16  1  0.62190025  0.66051769  0.19990924  1
  O  O17  1  0.37809975  0.33948231  0.80009076  1
  O  O18  1  0.39431208  0.98131870  0.82235428  1
  O  O19  1  0.60568792  0.01868130  0.17764572  1
  O  O20  1  0.03864483  0.63852912  0.67684306  1
  O  O21  1  0.96135517  0.36147088  0.32315694  1
  O  O22  1  0.69678878  0.43144299  0.70265448  1
  O  O23  1  0.30321122  0.56855701  0.29734552  1
  O  O24  1  0.68206244  0.51261351  0.45966228  1
  O  O25  1  0.31793756  0.48738649  0.54033772  1
  O  O26  1  0.66307786  0.79597136  0.69687761  1
  O  O27  1  0.33692214  0.20402864  0.30312239  1
