# generated using pymatgen
data_Ir(SeBr3)3
_symmetry_space_group_name_H-M   'P 1'
_cell_length_a   8.15135321
_cell_length_b   8.67107311
_cell_length_c   13.92953974
_cell_angle_alpha   81.93305922
_cell_angle_beta   85.92636053
_cell_angle_gamma   68.11850222
_symmetry_Int_Tables_number   1
_chemical_formula_structural   Ir(SeBr3)3
_chemical_formula_sum   'Ir2 Se6 Br18'
_cell_volume   904.39432473
_cell_formula_units_Z   2
loop_
 _symmetry_equiv_pos_site_id
 _symmetry_equiv_pos_as_xyz
  1  'x, y, z'
loop_
 _atom_site_type_symbol
 _atom_site_label
 _atom_site_symmetry_multiplicity
 _atom_site_fract_x
 _atom_site_fract_y
 _atom_site_fract_z
 _atom_site_occupancy
  Ir  Ir0  1  0.72557758  0.77928265  0.75029222  1
  Ir  Ir1  1  0.27442242  0.22071735  0.24970778  1
  Se  Se2  1  0.86027537  0.91973105  0.62700596  1
  Se  Se3  1  0.13972463  0.08026895  0.37299404  1
  Se  Se4  1  0.84933667  0.85192653  0.88149246  1
  Se  Se5  1  0.15066333  0.14807347  0.11850754  1
  Se  Se6  1  0.95640678  0.50243138  0.74886804  1
  Se  Se7  1  0.04359322  0.49756862  0.25113196  1
  Br  Br8  1  0.42953286  0.01276814  0.74589565  1
  Br  Br9  1  0.57046714  0.98723186  0.25410435  1
  Br  Br10  1  0.63411631  0.60291764  0.89460213  1
  Br  Br11  1  0.36588369  0.39708236  0.10539787  1
  Br  Br12  1  0.62101353  0.62824716  0.63700227  1
  Br  Br13  1  0.37898647  0.37175284  0.36299773  1
  Br  Br14  1  0.74483286  0.93812410  0.47151484  1
  Br  Br15  1  0.25516714  0.06187590  0.52848516  1
  Br  Br16  1  0.74289034  0.21343506  0.64283760  1
  Br  Br17  1  0.25710966  0.78656494  0.35716240  1
  Br  Br18  1  0.10504761  0.91436239  0.81806640  1
  Br  Br19  1  0.89495239  0.08563761  0.18193360  1
  Br  Br20  1  0.66516852  0.11528642  0.92950243  1
  Br  Br21  1  0.33483148  0.88471358  0.07049757  1
  Br  Br22  1  0.14932495  0.51451250  0.61310772  1
  Br  Br23  1  0.85067505  0.48548750  0.38689228  1
  Br  Br24  1  0.15691152  0.44625350  0.87945437  1
  Br  Br25  1  0.84308848  0.55374650  0.12054563  1
