# generated using pymatgen
data_U8CrSe17
_symmetry_space_group_name_H-M   'P 1'
_cell_length_a   8.19961791
_cell_length_b   8.19961791
_cell_length_c   10.85613999
_cell_angle_alpha   79.98262010
_cell_angle_beta   79.98262010
_cell_angle_gamma   64.28912985
_symmetry_Int_Tables_number   1
_chemical_formula_structural   U8CrSe17
_chemical_formula_sum   'U8 Cr1 Se17'
_cell_volume   643.60759399
_cell_formula_units_Z   1
loop_
 _symmetry_equiv_pos_site_id
 _symmetry_equiv_pos_as_xyz
  1  'x, y, z'
loop_
 _atom_site_type_symbol
 _atom_site_label
 _atom_site_symmetry_multiplicity
 _atom_site_fract_x
 _atom_site_fract_y
 _atom_site_fract_z
 _atom_site_occupancy
  U  U0  1  0.18185850  0.69776532  0.70271550  1
  U  U1  1  0.69776532  0.18185850  0.70271550  1
  U  U2  1  0.81814150  0.30223468  0.29728450  1
  U  U3  1  0.30223468  0.81814150  0.29728450  1
  U  U4  1  0.79711183  0.79711183  0.45745847  1
  U  U5  1  0.20288817  0.20288817  0.54254153  1
  U  U6  1  0.31878787  0.31878787  0.01654651  1
  U  U7  1  0.68121213  0.68121213  0.98345349  1
  Cr  Cr8  1  -0.00000000  0.00000000  -0.00000000  1
  Se  Se9  1  0.17940259  0.56688484  0.46513754  1
  Se  Se10  1  0.56688484  0.17940259  0.46513754  1
  Se  Se11  1  0.82059741  0.43311516  0.53486246  1
  Se  Se12  1  0.43311516  0.82059741  0.53486246  1
  Se  Se13  1  0.05477078  0.67773290  0.97318816  1
  Se  Se14  1  0.67773290  0.05477078  0.97318816  1
  Se  Se15  1  0.94522922  0.32226710  0.02681184  1
  Se  Se16  1  0.32226710  0.94522922  0.02681184  1
  Se  Se17  1  0.78691507  0.78691507  0.72290460  1
  Se  Se18  1  0.21308493  0.21308493  0.27709540  1
  Se  Se19  1  0.94153917  0.94153917  0.22661419  1
  Se  Se20  1  0.05846083  0.05846083  0.77338581  1
  Se  Se21  1  0.69977682  0.69977682  0.24369876  1
  Se  Se22  1  0.30022318  0.30022318  0.75630124  1
  Se  Se23  1  0.47842519  0.47842519  0.16843182  1
  Se  Se24  1  0.52157481  0.52157481  0.83156818  1
  Se  Se25  1  -0.00000000  0.00000000  0.50000000  1
