# generated using pymatgen
data_LiTcH6O7
_symmetry_space_group_name_H-M   'P 1'
_cell_length_a   5.75632668
_cell_length_b   7.95195279
_cell_length_c   7.95217066
_cell_angle_alpha   119.99375154
_cell_angle_beta   90.00000000
_cell_angle_gamma   90.00000000
_symmetry_Int_Tables_number   1
_chemical_formula_structural   LiTcH6O7
_chemical_formula_sum   'Li2 Tc2 H12 O14'
_cell_volume   315.25565864
_cell_formula_units_Z   2
loop_
 _symmetry_equiv_pos_site_id
 _symmetry_equiv_pos_as_xyz
  1  'x, y, z'
loop_
 _atom_site_type_symbol
 _atom_site_label
 _atom_site_symmetry_multiplicity
 _atom_site_fract_x
 _atom_site_fract_y
 _atom_site_fract_z
 _atom_site_occupancy
  Li  Li0  1  0.10569536  0.00000006  0.00000030  1
  Li  Li1  1  0.60569536  -0.00000006  0.99999970  1
  Tc  Tc2  1  0.40533067  0.66663946  0.33340462  1
  Tc  Tc3  1  0.90533067  0.33336054  0.66659538  1
  H  H4  1  0.34861525  0.26070587  0.32534564  1
  H  H5  1  0.34861602  0.06463439  0.73926393  1
  H  H6  1  0.34860450  0.67458245  0.93541418  1
  H  H7  1  0.34860336  0.06459447  0.32540377  1
  H  H8  1  0.34861750  0.67466885  0.73932091  1
  H  H9  1  0.34861486  0.26076261  0.93538010  1
  H  H10  1  0.84861525  0.73929413  0.67465436  1
  H  H11  1  0.84861602  0.93536561  0.26073607  1
  H  H12  1  0.84860450  0.32541755  0.06458582  1
  H  H13  1  0.84860336  0.93540553  0.67459623  1
  H  H14  1  0.84861750  0.32533115  0.26067909  1
  H  H15  1  0.84861486  0.73923739  0.06461990  1
  O  O16  1  0.70547675  0.66667363  0.33333262  1
  O  O17  1  0.20547675  0.33332637  0.66666738  1
  O  O18  1  0.30759719  0.54658033  0.09314611  1
  O  O19  1  0.30763809  0.54656166  0.45343287  1
  O  O20  1  0.30760025  0.90686066  0.45342305  1
  O  O21  1  0.80759719  0.45341967  0.90685389  1
  O  O22  1  0.80763809  0.45343834  0.54656713  1
  O  O23  1  0.80760025  0.09313934  0.54657695  1
  O  O24  1  0.35560634  0.11910420  0.23817207  1
  O  O25  1  0.35560901  0.11908749  0.88090631  1
  O  O26  1  0.35560485  0.76182754  0.88088905  1
  O  O27  1  0.85560634  0.88089580  0.76182793  1
  O  O28  1  0.85560901  0.88091251  0.11909369  1
  O  O29  1  0.85560485  0.23817246  0.11911095  1
