# generated using pymatgen
data_Cs2CoI4
_symmetry_space_group_name_H-M   'P 1'
_cell_length_a   8.37255982
_cell_length_b   10.99057116
_cell_length_c   14.53369838
_cell_angle_alpha   90.00000000
_cell_angle_beta   90.00000000
_cell_angle_gamma   90.00000000
_symmetry_Int_Tables_number   1
_chemical_formula_structural   Cs2CoI4
_chemical_formula_sum   'Cs8 Co4 I16'
_cell_volume   1337.37950861
_cell_formula_units_Z   4
loop_
 _symmetry_equiv_pos_site_id
 _symmetry_equiv_pos_as_xyz
  1  'x, y, z'
loop_
 _atom_site_type_symbol
 _atom_site_label
 _atom_site_symmetry_multiplicity
 _atom_site_fract_x
 _atom_site_fract_y
 _atom_site_fract_z
 _atom_site_occupancy
  Cs  Cs0  1  0.75000000  0.97860126  0.16301673  1
  Cs  Cs1  1  0.75000000  0.47860126  0.33698327  1
  Cs  Cs2  1  0.25000000  0.02139874  0.83698327  1
  Cs  Cs3  1  0.25000000  0.52139874  0.66301673  1
  Cs  Cs4  1  0.75000000  0.63076523  0.89634872  1
  Cs  Cs5  1  0.75000000  0.13076523  0.60365128  1
  Cs  Cs6  1  0.25000000  0.36923477  0.10365128  1
  Cs  Cs7  1  0.25000000  0.86923477  0.39634872  1
  Co  Co8  1  0.75000000  0.23802911  0.92355108  1
  Co  Co9  1  0.75000000  0.73802911  0.57644892  1
  Co  Co10  1  0.25000000  0.76197089  0.07644892  1
  Co  Co11  1  0.25000000  0.26197089  0.42355108  1
  I  I12  1  0.75000000  0.00464663  0.89652555  1
  I  I13  1  0.75000000  0.50464663  0.60347445  1
  I  I14  1  0.25000000  0.99535337  0.10347445  1
  I  I15  1  0.25000000  0.49535337  0.39652555  1
  I  I16  1  0.75000000  0.31543858  0.09160761  1
  I  I17  1  0.75000000  0.81543858  0.40839239  1
  I  I18  1  0.25000000  0.68456142  0.90839239  1
  I  I19  1  0.25000000  0.18456142  0.59160761  1
  I  I20  1  0.49762856  0.32675737  0.84762366  1
  I  I21  1  0.00237144  0.82675737  0.65237634  1
  I  I22  1  0.99762856  0.67324263  0.15237634  1
  I  I23  1  0.50237144  0.17324263  0.34762366  1
  I  I24  1  0.50237144  0.67324263  0.15237634  1
  I  I25  1  0.99762856  0.17324263  0.34762366  1
  I  I26  1  0.00237144  0.32675737  0.84762366  1
  I  I27  1  0.49762856  0.82675737  0.65237634  1
