# generated using pymatgen
data_Cs2FeH2Cl5O
_symmetry_space_group_name_H-M   'P 1'
_cell_length_a   7.55844457
_cell_length_b   8.32133013
_cell_length_c   9.72633584
_cell_angle_alpha   90.00000000
_cell_angle_beta   112.86465258
_cell_angle_gamma   90.00000000
_symmetry_Int_Tables_number   1
_chemical_formula_structural   Cs2FeH2Cl5O
_chemical_formula_sum   'Cs4 Fe2 H4 Cl10 O2'
_cell_volume   563.68252966
_cell_formula_units_Z   2
loop_
 _symmetry_equiv_pos_site_id
 _symmetry_equiv_pos_as_xyz
  1  'x, y, z'
loop_
 _atom_site_type_symbol
 _atom_site_label
 _atom_site_symmetry_multiplicity
 _atom_site_fract_x
 _atom_site_fract_y
 _atom_site_fract_z
 _atom_site_occupancy
  Cs  Cs0  1  0.52911006  0.75000000  0.05822011  1
  Cs  Cs1  1  0.47088994  0.25000000  0.94177989  1
  Cs  Cs2  1  0.24718462  0.75000000  0.49436925  1
  Cs  Cs3  1  0.75281538  0.25000000  0.50563075  1
  Fe  Fe4  1  0.87994211  0.75000000  0.75988422  1
  Fe  Fe5  1  0.12005789  0.25000000  0.24011578  1
  H  H6  1  0.03347211  0.65409973  0.06694421  1
  H  H7  1  0.96652789  0.34590027  0.93305579  1
  H  H8  1  0.03347211  0.84590027  0.06694421  1
  H  H9  1  0.96652789  0.15409973  0.93305579  1
  Cl  Cl10  1  0.75012852  0.75000000  0.50025704  1
  Cl  Cl11  1  0.24987148  0.25000000  0.49974296  1
  Cl  Cl12  1  0.11177676  0.95632921  0.77885779  1
  Cl  Cl13  1  0.33291896  0.04367079  0.22114221  1
  Cl  Cl14  1  0.11177676  0.54367079  0.77885779  1
  Cl  Cl15  1  0.33291896  0.45632921  0.22114221  1
  Cl  Cl16  1  0.88822324  0.04367079  0.22114221  1
  Cl  Cl17  1  0.66708104  0.95632921  0.77885779  1
  Cl  Cl18  1  0.88822324  0.45632921  0.22114221  1
  Cl  Cl19  1  0.66708104  0.54367079  0.77885779  1
  O  O20  1  0.00209939  0.75000000  0.00419877  1
  O  O21  1  0.99790061  0.25000000  0.99580123  1
