# generated using pymatgen
data_TmBe13
_symmetry_space_group_name_H-M   'P 1'
_cell_length_a   7.16004907
_cell_length_b   7.16004907
_cell_length_c   7.16004907
_cell_angle_alpha   60.00000000
_cell_angle_beta   60.00000000
_cell_angle_gamma   60.00000000
_symmetry_Int_Tables_number   1
_chemical_formula_structural   TmBe13
_chemical_formula_sum   'Tm2 Be26'
_cell_volume   259.55715063
_cell_formula_units_Z   2
loop_
 _symmetry_equiv_pos_site_id
 _symmetry_equiv_pos_as_xyz
  1  'x, y, z'
loop_
 _atom_site_type_symbol
 _atom_site_label
 _atom_site_symmetry_multiplicity
 _atom_site_fract_x
 _atom_site_fract_y
 _atom_site_fract_z
 _atom_site_occupancy
  Tm  Tm0  1  0.75000000  0.75000000  0.75000000  1
  Tm  Tm1  1  0.25000000  0.25000000  0.25000000  1
  Be  Be2  1  0.50000000  0.50000000  0.50000000  1
  Be  Be3  1  0.00000000  0.00000000  0.00000000  1
  Be  Be4  1  0.79158644  0.43723589  0.20841356  1
  Be  Be5  1  0.20841356  0.56276411  0.79158644  1
  Be  Be6  1  0.56276411  0.20841356  0.43723589  1
  Be  Be7  1  0.43723589  0.79158644  0.56276411  1
  Be  Be8  1  0.29158644  0.06276411  0.70841356  1
  Be  Be9  1  0.70841356  0.93723589  0.29158644  1
  Be  Be10  1  0.93723589  0.70841356  0.06276411  1
  Be  Be11  1  0.06276411  0.29158644  0.93723589  1
  Be  Be12  1  0.43723589  0.20841356  0.79158644  1
  Be  Be13  1  0.56276411  0.79158644  0.20841356  1
  Be  Be14  1  0.20841356  0.43723589  0.56276411  1
  Be  Be15  1  0.79158644  0.56276411  0.43723589  1
  Be  Be16  1  0.06276411  0.70841356  0.29158644  1
  Be  Be17  1  0.93723589  0.29158644  0.70841356  1
  Be  Be18  1  0.70841356  0.06276411  0.93723589  1
  Be  Be19  1  0.29158644  0.93723589  0.06276411  1
  Be  Be20  1  0.20841356  0.79158644  0.43723589  1
  Be  Be21  1  0.79158644  0.20841356  0.56276411  1
  Be  Be22  1  0.43723589  0.56276411  0.20841356  1
  Be  Be23  1  0.56276411  0.43723589  0.79158644  1
  Be  Be24  1  0.70841356  0.29158644  0.06276411  1
  Be  Be25  1  0.29158644  0.70841356  0.93723589  1
  Be  Be26  1  0.06276411  0.93723589  0.70841356  1
  Be  Be27  1  0.93723589  0.06276411  0.29158644  1
