# generated using pymatgen
data_FeHO2
_symmetry_space_group_name_H-M   'P 1'
_cell_length_a   7.40775358
_cell_length_b   7.42892321
_cell_length_c   7.87949331
_cell_angle_alpha   93.75512651
_cell_angle_beta   90.86594367
_cell_angle_gamma   155.93288665
_symmetry_Int_Tables_number   1
_chemical_formula_structural   FeHO2
_chemical_formula_sum   'Fe4 H4 O8'
_cell_volume   173.43822699
_cell_formula_units_Z   4
loop_
 _symmetry_equiv_pos_site_id
 _symmetry_equiv_pos_as_xyz
  1  'x, y, z'
loop_
 _atom_site_type_symbol
 _atom_site_label
 _atom_site_symmetry_multiplicity
 _atom_site_fract_x
 _atom_site_fract_y
 _atom_site_fract_z
 _atom_site_occupancy
  Fe  Fe0  1  0.35007143  0.82219974  0.19316242  1
  Fe  Fe1  1  0.66075439  0.15927442  0.84912906  1
  Fe  Fe2  1  0.14597855  0.36969911  0.52680297  1
  Fe  Fe3  1  0.81940172  0.63625177  0.46345028  1
  H  H4  1  0.03293204  0.79628731  0.03236633  1
  H  H5  1  0.11515514  0.13556670  0.24321400  1
  H  H6  1  0.85046902  0.90329660  0.75996983  1
  H  H7  1  0.48176333  0.05354980  0.53353992  1
  O  O8  1  0.11695977  0.77437613  0.95777440  1
  O  O9  1  0.84004390  0.19553152  0.05986751  1
  O  O10  1  0.18762877  0.16840084  0.36247238  1
  O  O11  1  0.78693857  0.84023361  0.63429454  1
  O  O12  1  0.53344138  0.85914336  0.40497828  1
  O  O13  1  0.44398523  0.13905176  0.59247973  1
  O  O14  1  0.15857959  0.54789766  0.72793894  1
  O  O15  1  0.81242917  0.45232768  0.28054240  1
