# generated using pymatgen
data_CsDySiS4
_symmetry_space_group_name_H-M   'P 1'
_cell_length_a   6.40610910
_cell_length_b   6.74577155
_cell_length_c   18.04430672
_cell_angle_alpha   90.00000000
_cell_angle_beta   90.00000000
_cell_angle_gamma   90.00000000
_symmetry_Int_Tables_number   1
_chemical_formula_structural   CsDySiS4
_chemical_formula_sum   'Cs4 Dy4 Si4 S16'
_cell_volume   779.76935041
_cell_formula_units_Z   4
loop_
 _symmetry_equiv_pos_site_id
 _symmetry_equiv_pos_as_xyz
  1  'x, y, z'
loop_
 _atom_site_type_symbol
 _atom_site_label
 _atom_site_symmetry_multiplicity
 _atom_site_fract_x
 _atom_site_fract_y
 _atom_site_fract_z
 _atom_site_occupancy
  Cs  Cs0  1  0.50157106  0.49351981  0.96692559  1
  Cs  Cs1  1  0.99842894  0.50648019  0.46692559  1
  Cs  Cs2  1  0.00157106  0.00648019  0.03307441  1
  Cs  Cs3  1  0.49842894  0.99351981  0.53307441  1
  Dy  Dy4  1  0.29188220  0.47949585  0.22864297  1
  Dy  Dy5  1  0.20811780  0.52050415  0.72864297  1
  Dy  Dy6  1  0.79188220  0.02050415  0.77135703  1
  Dy  Dy7  1  0.70811780  0.97949585  0.27135703  1
  Si  Si8  1  0.79088292  0.51733732  0.16966982  1
  Si  Si9  1  0.70911708  0.48266268  0.66966982  1
  Si  Si10  1  0.29088292  0.98266268  0.83033018  1
  Si  Si11  1  0.20911708  0.01733732  0.33033018  1
  S  S12  1  0.05333838  0.51106443  0.09887439  1
  S  S13  1  0.44666162  0.48893557  0.59887439  1
  S  S14  1  0.55333838  0.98893557  0.90112561  1
  S  S15  1  0.94666162  0.01106443  0.40112561  1
  S  S16  1  0.60491534  0.42298595  0.77936302  1
  S  S17  1  0.89508466  0.57701405  0.27936302  1
  S  S18  1  0.10491534  0.07701405  0.22063698  1
  S  S19  1  0.39508466  0.92298595  0.72063698  1
  S  S20  1  0.56825328  0.74730216  0.14895731  1
  S  S21  1  0.93174672  0.25269784  0.64895731  1
  S  S22  1  0.06825328  0.75269784  0.85104269  1
  S  S23  1  0.43174672  0.24730216  0.35104269  1
  S  S24  1  0.60463488  0.25430392  0.15865980  1
  S  S25  1  0.89536512  0.74569608  0.65865980  1
  S  S26  1  0.10463488  0.24569608  0.84134020  1
  S  S27  1  0.39536512  0.75430392  0.34134020  1
