# generated using pymatgen
data_Mn5VO8
_symmetry_space_group_name_H-M   'P 1'
_cell_length_a   5.51039807
_cell_length_b   6.31779666
_cell_length_c   10.44189207
_cell_angle_alpha   107.60912471
_cell_angle_beta   99.70113000
_cell_angle_gamma   90.00000000
_symmetry_Int_Tables_number   1
_chemical_formula_structural   Mn5VO8
_chemical_formula_sum   'Mn10 V2 O16'
_cell_volume   341.02814780
_cell_formula_units_Z   2
loop_
 _symmetry_equiv_pos_site_id
 _symmetry_equiv_pos_as_xyz
  1  'x, y, z'
loop_
 _atom_site_type_symbol
 _atom_site_label
 _atom_site_symmetry_multiplicity
 _atom_site_fract_x
 _atom_site_fract_y
 _atom_site_fract_z
 _atom_site_occupancy
  Mn  Mn0  1  0.75966285  0.63224859  0.26449719  1
  Mn  Mn1  1  0.24033715  0.36775141  0.73550281  1
  Mn  Mn2  1  0.50000000  0.75168956  1.00000000  1
  Mn  Mn3  1  0.50000000  0.24831044  0.00000000  1
  Mn  Mn4  1  0.25557568  0.88874369  0.26510409  1
  Mn  Mn5  1  0.25557568  0.37636040  0.26510409  1
  Mn  Mn6  1  0.74442432  0.11125631  0.73489591  1
  Mn  Mn7  1  0.74442432  0.62363960  0.73489591  1
  Mn  Mn8  1  0.00000000  0.00000000  0.00000000  1
  Mn  Mn9  1  0.00000000  0.50000000  0.00000000  1
  V  V10  1  0.80495324  0.21385540  0.42771080  1
  V  V11  1  0.19504676  0.78614460  0.57228920  1
  O  O12  1  0.63761567  0.40804552  0.36709331  1
  O  O13  1  0.63761567  0.95904779  0.36709331  1
  O  O14  1  0.36238433  0.59195448  0.63290669  1
  O  O15  1  0.36238433  0.04095221  0.63290669  1
  O  O16  1  0.89391771  0.33429276  0.11457844  1
  O  O17  1  0.89391771  0.78028568  0.11457844  1
  O  O18  1  0.10608229  0.66570724  0.88542156  1
  O  O19  1  0.10608229  0.21971432  0.88542156  1
  O  O20  1  0.60728002  0.43013875  0.86027750  1
  O  O21  1  0.39271998  0.56986125  0.13972250  1
  O  O22  1  0.67513060  0.94407974  0.88815949  1
  O  O23  1  0.32486940  0.05592026  0.11184051  1
  O  O24  1  0.08806505  0.18553762  0.37107524  1
  O  O25  1  0.91193495  0.81446238  0.62892476  1
  O  O26  1  0.13578050  0.69357949  0.38715898  1
  O  O27  1  0.86421950  0.30642051  0.61284102  1
