# generated using pymatgen
data_ReS2ClO9
_symmetry_space_group_name_H-M   'P 1'
_cell_length_a   7.27678331
_cell_length_b   7.92311192
_cell_length_c   8.28316913
_cell_angle_alpha   89.98672936
_cell_angle_beta   79.32969473
_cell_angle_gamma   67.80257318
_symmetry_Int_Tables_number   1
_chemical_formula_structural   ReS2ClO9
_chemical_formula_sum   'Re2 S4 Cl2 O18'
_cell_volume   433.24756690
_cell_formula_units_Z   2
loop_
 _symmetry_equiv_pos_site_id
 _symmetry_equiv_pos_as_xyz
  1  'x, y, z'
loop_
 _atom_site_type_symbol
 _atom_site_label
 _atom_site_symmetry_multiplicity
 _atom_site_fract_x
 _atom_site_fract_y
 _atom_site_fract_z
 _atom_site_occupancy
  Re  Re0  1  0.76761472  0.69741043  0.30225284  1
  Re  Re1  1  0.23238528  0.30258957  0.69774716  1
  S  S2  1  0.08992627  0.26542532  0.12389630  1
  S  S3  1  0.91007373  0.73457468  0.87610370  1
  S  S4  1  0.65920956  0.34921969  0.22035345  1
  S  S5  1  0.34079044  0.65078031  0.77964655  1
  Cl  Cl6  1  0.99985142  0.81564569  0.31543906  1
  Cl  Cl7  1  0.00014858  0.18435431  0.68456094  1
  O  O8  1  0.55223984  0.88952385  0.35136245  1
  O  O9  1  0.44776016  0.11047615  0.64863755  1
  O  O10  1  0.77797841  0.59238570  0.48220108  1
  O  O11  1  0.22202159  0.40761430  0.51779892  1
  O  O12  1  0.16549122  0.14394702  0.24425916  1
  O  O13  1  0.83450878  0.85605298  0.75574084  1
  O  O14  1  0.21490048  0.21490824  0.95659885  1
  O  O15  1  0.78509952  0.78509176  0.04340115  1
  O  O16  1  0.03093675  0.46287564  0.17088745  1
  O  O17  1  0.96906325  0.53712436  0.82911255  1
  O  O18  1  0.87880446  0.25013157  0.08995777  1
  O  O19  1  0.12119554  0.74986843  0.91004223  1
  O  O20  1  0.51956802  0.31712844  0.13723132  1
  O  O21  1  0.48043198  0.68287156  0.86276868  1
  O  O22  1  0.68491579  0.29107638  0.38101440  1
  O  O23  1  0.31508421  0.70892362  0.61898560  1
  O  O24  1  0.62906602  0.55473124  0.21076100  1
  O  O25  1  0.37093398  0.44526876  0.78923900  1
