# generated using pymatgen
data_Ca2Cu2Si3(HO3)4
_symmetry_space_group_name_H-M   'P 1'
_cell_length_a   7.47678010
_cell_length_b   13.71079427
_cell_length_c   5.56935999
_cell_angle_alpha   90.00000000
_cell_angle_beta   97.14330699
_cell_angle_gamma   90.00000000
_symmetry_Int_Tables_number   1
_chemical_formula_structural   Ca2Cu2Si3(HO3)4
_chemical_formula_sum   'Ca4 Cu4 Si6 H8 O24'
_cell_volume   566.49811487
_cell_formula_units_Z   2
loop_
 _symmetry_equiv_pos_site_id
 _symmetry_equiv_pos_as_xyz
  1  'x, y, z'
loop_
 _atom_site_type_symbol
 _atom_site_label
 _atom_site_symmetry_multiplicity
 _atom_site_fract_x
 _atom_site_fract_y
 _atom_site_fract_z
 _atom_site_occupancy
  Ca  Ca0  1  0.80945052  0.38404440  0.05923102  1
  Ca  Ca1  1  0.19054948  0.88404440  0.94076898  1
  Ca  Ca2  1  0.19054948  0.61595560  0.94076898  1
  Ca  Ca3  1  0.80945052  0.11595560  0.05923102  1
  Cu  Cu4  1  0.44550886  0.25000000  0.22244658  1
  Cu  Cu5  1  0.55449114  0.75000000  0.77755342  1
  Cu  Cu6  1  0.47306917  0.25000000  0.72161276  1
  Cu  Cu7  1  0.52693083  0.75000000  0.27838724  1
  Si  Si8  1  0.22669727  0.41237332  0.51194293  1
  Si  Si9  1  0.77330273  0.91237332  0.48805707  1
  Si  Si10  1  0.77330273  0.58762668  0.48805707  1
  Si  Si11  1  0.22669727  0.08762668  0.51194293  1
  Si  Si12  1  0.92164420  0.25000000  0.55733902  1
  Si  Si13  1  0.07835580  0.75000000  0.44266098  1
  H  H14  1  0.23531249  0.43179305  0.11584548  1
  H  H15  1  0.76468751  0.93179305  0.88415452  1
  H  H16  1  0.76468751  0.56820695  0.88415452  1
  H  H17  1  0.23531249  0.06820695  0.11584548  1
  H  H18  1  0.41914850  0.40326373  0.91195212  1
  H  H19  1  0.58085150  0.90326373  0.08804788  1
  H  H20  1  0.58085150  0.59673627  0.08804788  1
  H  H21  1  0.41914850  0.09673627  0.91195212  1
  O  O22  1  0.81990207  0.25000000  0.79576298  1
  O  O23  1  0.18009793  0.75000000  0.20423702  1
  O  O24  1  0.05116847  0.34772071  0.56380854  1
  O  O25  1  0.94883153  0.84772071  0.43619146  1
  O  O26  1  0.94883153  0.65227929  0.43619146  1
  O  O27  1  0.05116847  0.15227929  0.56380854  1
  O  O28  1  0.40225285  0.34524996  0.46708096  1
  O  O29  1  0.59774715  0.84524996  0.53291904  1
  O  O30  1  0.59774715  0.65475004  0.53291904  1
  O  O31  1  0.40225285  0.15475004  0.46708096  1
  O  O32  1  0.79466980  0.25000000  0.29970975  1
  O  O33  1  0.20533020  0.75000000  0.70029025  1
  O  O34  1  0.16131514  0.46124413  0.23058677  1
  O  O35  1  0.83868486  0.96124413  0.76941323  1
  O  O36  1  0.83868486  0.53875587  0.76941323  1
  O  O37  1  0.16131514  0.03875587  0.23058677  1
  O  O38  1  0.72507396  0.51492438  0.26493056  1
  O  O39  1  0.27492604  0.01492438  0.73506944  1
  O  O40  1  0.27492604  0.48507562  0.73506944  1
  O  O41  1  0.72507396  0.98507562  0.26493056  1
  O  O42  1  0.49908484  0.34804096  0.97839251  1
  O  O43  1  0.50091516  0.84804096  0.02160749  1
  O  O44  1  0.50091516  0.65195904  0.02160749  1
  O  O45  1  0.49908484  0.15195904  0.97839251  1
