# generated using pymatgen
data_Ti3(Co10B3)2
_symmetry_space_group_name_H-M   'P 1'
_cell_length_a   7.42152273
_cell_length_b   7.42152273
_cell_length_c   7.42152273
_cell_angle_alpha   60.00000000
_cell_angle_beta   60.00000000
_cell_angle_gamma   60.00000000
_symmetry_Int_Tables_number   1
_chemical_formula_structural   Ti3(Co10B3)2
_chemical_formula_sum   'Ti3 Co20 B6'
_cell_volume   289.04407283
_cell_formula_units_Z   1
loop_
 _symmetry_equiv_pos_site_id
 _symmetry_equiv_pos_as_xyz
  1  'x, y, z'
loop_
 _atom_site_type_symbol
 _atom_site_label
 _atom_site_symmetry_multiplicity
 _atom_site_fract_x
 _atom_site_fract_y
 _atom_site_fract_z
 _atom_site_occupancy
  Ti  Ti0  1  -0.00000000  -0.00000000  0.00000000  1
  Ti  Ti1  1  0.25000000  0.25000000  0.25000000  1
  Ti  Ti2  1  0.75000000  0.75000000  0.75000000  1
  Co  Co3  1  0.85206595  0.38264468  0.38264468  1
  Co  Co4  1  0.38264468  0.85206595  0.38264468  1
  Co  Co5  1  0.38264468  0.38264468  0.85206595  1
  Co  Co6  1  0.38264468  0.38264468  0.38264468  1
  Co  Co7  1  0.14793405  0.61735532  0.61735532  1
  Co  Co8  1  0.61735532  0.14793405  0.61735532  1
  Co  Co9  1  0.61735532  0.61735532  0.14793405  1
  Co  Co10  1  0.61735532  0.61735532  0.61735532  1
  Co  Co11  1  0.65819041  0.00000000  -0.00000000  1
  Co  Co12  1  0.65819041  0.00000000  0.34180959  1
  Co  Co13  1  0.65819041  0.34180959  -0.00000000  1
  Co  Co14  1  -0.00000000  0.65819041  0.34180959  1
  Co  Co15  1  0.00000000  0.65819041  0.00000000  1
  Co  Co16  1  0.34180959  0.65819041  0.00000000  1
  Co  Co17  1  0.00000000  0.34180959  0.65819041  1
  Co  Co18  1  0.34180959  -0.00000000  0.65819041  1
  Co  Co19  1  0.00000000  -0.00000000  0.65819041  1
  Co  Co20  1  0.34180959  0.00000000  -0.00000000  1
  Co  Co21  1  0.00000000  0.34180959  0.00000000  1
  Co  Co22  1  -0.00000000  0.00000000  0.34180959  1
  B  B23  1  0.72832772  0.27167228  0.27167228  1
  B  B24  1  0.72832772  0.27167228  0.72832772  1
  B  B25  1  0.72832772  0.72832772  0.27167228  1
  B  B26  1  0.27167228  0.72832772  0.72832772  1
  B  B27  1  0.27167228  0.72832772  0.27167228  1
  B  B28  1  0.27167228  0.27167228  0.72832772  1
