# generated using pymatgen
data_Bi2Se3O10
_symmetry_space_group_name_H-M   'P 1'
_cell_length_a   7.69668747
_cell_length_b   8.16854674
_cell_length_c   8.95732731
_cell_angle_alpha   110.63496218
_cell_angle_beta   115.44412897
_cell_angle_gamma   90.00000001
_symmetry_Int_Tables_number   1
_chemical_formula_structural   Bi2Se3O10
_chemical_formula_sum   'Bi4 Se6 O20'
_cell_volume   468.20503152
_cell_formula_units_Z   2
loop_
 _symmetry_equiv_pos_site_id
 _symmetry_equiv_pos_as_xyz
  1  'x, y, z'
loop_
 _atom_site_type_symbol
 _atom_site_label
 _atom_site_symmetry_multiplicity
 _atom_site_fract_x
 _atom_site_fract_y
 _atom_site_fract_z
 _atom_site_occupancy
  Bi  Bi0  1  0.52269666  0.14996882  0.35744517  1
  Bi  Bi1  1  0.16525149  0.35003118  0.64255483  1
  Bi  Bi2  1  0.47730334  0.85003118  0.64255483  1
  Bi  Bi3  1  0.83474851  0.64996882  0.35744517  1
  Se  Se4  1  0.79970388  0.52754412  0.74701842  1
  Se  Se5  1  0.05268546  0.97245588  0.25298158  1
  Se  Se6  1  0.20029612  0.47245588  0.25298158  1
  Se  Se7  1  0.94731454  0.02754412  0.74701842  1
  Se  Se8  1  0.38871396  0.75000000  1.00000000  1
  Se  Se9  1  0.61128604  0.25000000  0.00000000  1
  O  O10  1  0.28891994  0.93345946  0.04083262  1
  O  O11  1  0.24808732  0.56654054  0.95916738  1
  O  O12  1  0.71108006  0.06654054  0.95916738  1
  O  O13  1  0.75191268  0.43345946  0.04083262  1
  O  O14  1  0.41529125  0.69350311  0.81290378  1
  O  O15  1  0.60238746  0.80649689  0.18709622  1
  O  O16  1  0.58470875  0.30649689  0.18709622  1
  O  O17  1  0.39761254  0.19350311  0.81290378  1
  O  O18  1  0.57697922  0.38544189  0.61714321  1
  O  O19  1  0.95983601  0.11455811  0.38285679  1
  O  O20  1  0.42302078  0.61455811  0.38285679  1
  O  O21  1  0.04016399  0.88544189  0.61714321  1
  O  O22  1  0.74783692  0.73364328  0.74689734  1
  O  O23  1  0.00093958  0.76635672  0.25310266  1
  O  O24  1  0.25216308  0.26635672  0.25310266  1
  O  O25  1  0.99906042  0.23364328  0.74689734  1
  O  O26  1  0.89158728  0.47743734  0.58666871  1
  O  O27  1  0.30491858  0.02256266  0.41333129  1
  O  O28  1  0.10841272  0.52256266  0.41333129  1
  O  O29  1  0.69508142  0.97743734  0.58666871  1
