# generated using pymatgen
data_Gd3Se3N
_symmetry_space_group_name_H-M   'P 1'
_cell_length_a   4.01644900
_cell_length_b   12.69376378
_cell_length_c   13.29367914
_cell_angle_alpha   90.00000000
_cell_angle_beta   90.00000000
_cell_angle_gamma   90.00000000
_symmetry_Int_Tables_number   1
_chemical_formula_structural   Gd3Se3N
_chemical_formula_sum   'Gd12 Se12 N4'
_cell_volume   677.76300757
_cell_formula_units_Z   4
loop_
 _symmetry_equiv_pos_site_id
 _symmetry_equiv_pos_as_xyz
  1  'x, y, z'
loop_
 _atom_site_type_symbol
 _atom_site_label
 _atom_site_symmetry_multiplicity
 _atom_site_fract_x
 _atom_site_fract_y
 _atom_site_fract_z
 _atom_site_occupancy
  Gd  Gd0  1  0.75000000  0.43462066  0.13317726  1
  Gd  Gd1  1  0.75000000  0.93462066  0.36682274  1
  Gd  Gd2  1  0.25000000  0.56537934  0.86682274  1
  Gd  Gd3  1  0.25000000  0.06537934  0.63317726  1
  Gd  Gd4  1  0.75000000  0.79426964  0.14091548  1
  Gd  Gd5  1  0.75000000  0.29426964  0.35908452  1
  Gd  Gd6  1  0.25000000  0.20573036  0.85908452  1
  Gd  Gd7  1  0.25000000  0.70573036  0.64091548  1
  Gd  Gd8  1  0.75000000  0.95865365  0.84916252  1
  Gd  Gd9  1  0.75000000  0.45865365  0.65083748  1
  Gd  Gd10  1  0.25000000  0.04134635  0.15083748  1
  Gd  Gd11  1  0.25000000  0.54134635  0.34916252  1
  Se  Se12  1  0.75000000  0.63037241  0.50475437  1
  Se  Se13  1  0.75000000  0.13037241  0.99524563  1
  Se  Se14  1  0.25000000  0.36962759  0.49524563  1
  Se  Se15  1  0.25000000  0.86962759  0.00475437  1
  Se  Se16  1  0.75000000  0.40482865  0.89620069  1
  Se  Se17  1  0.75000000  0.90482865  0.60379931  1
  Se  Se18  1  0.25000000  0.59517135  0.10379931  1
  Se  Se19  1  0.25000000  0.09517135  0.39620069  1
  Se  Se20  1  0.75000000  0.72470191  0.81115173  1
  Se  Se21  1  0.75000000  0.22470191  0.68884827  1
  Se  Se22  1  0.25000000  0.27529809  0.18884827  1
  Se  Se23  1  0.25000000  0.77529809  0.31115173  1
  N  N24  1  0.75000000  0.46134227  0.29669669  1
  N  N25  1  0.75000000  0.96134227  0.20330331  1
  N  N26  1  0.25000000  0.53865773  0.70330331  1
  N  N27  1  0.25000000  0.03865773  0.79669669  1
