# generated using pymatgen
data_Pb3Se2(IO3)2
_symmetry_space_group_name_H-M   'P 1'
_cell_length_a   5.82035477
_cell_length_b   7.44957453
_cell_length_c   14.63558218
_cell_angle_alpha   93.16803858
_cell_angle_beta   90.00000000
_cell_angle_gamma   112.99495528
_symmetry_Int_Tables_number   1
_chemical_formula_structural   Pb3Se2(IO3)2
_chemical_formula_sum   'Pb6 Se4 I4 O12'
_cell_volume   583.10824978
_cell_formula_units_Z   2
loop_
 _symmetry_equiv_pos_site_id
 _symmetry_equiv_pos_as_xyz
  1  'x, y, z'
loop_
 _atom_site_type_symbol
 _atom_site_label
 _atom_site_symmetry_multiplicity
 _atom_site_fract_x
 _atom_site_fract_y
 _atom_site_fract_z
 _atom_site_occupancy
  Pb  Pb0  1  0.56806043  1.00000000  0.25000000  1
  Pb  Pb1  1  0.43193957  0.00000000  0.75000000  1
  Pb  Pb2  1  0.81276394  0.58846718  0.15391711  1
  Pb  Pb3  1  0.22429676  0.41153282  0.34608289  1
  Pb  Pb4  1  0.18723606  0.41153282  0.84608289  1
  Pb  Pb5  1  0.77570324  0.58846718  0.65391711  1
  Se  Se6  1  0.88901981  0.79157723  0.87140841  1
  Se  Se7  1  0.09744257  0.20842277  0.62859159  1
  Se  Se8  1  0.11098019  0.20842277  0.12859159  1
  Se  Se9  1  0.90255743  0.79157723  0.37140841  1
  I  I10  1  0.35275572  0.72016500  0.05288918  1
  I  I11  1  0.63259072  0.27983500  0.44711082  1
  I  I12  1  0.64724428  0.27983500  0.94711082  1
  I  I13  1  0.36740928  0.72016500  0.55288918  1
  O  O14  1  0.93576772  0.30976262  0.19856363  1
  O  O15  1  0.62600510  0.69023738  0.30143637  1
  O  O16  1  0.06423228  0.69023738  0.80143637  1
  O  O17  1  0.37399490  0.30976262  0.69856363  1
  O  O18  1  0.97149778  0.03187508  0.35488291  1
  O  O19  1  0.93962269  0.96812492  0.14511709  1
  O  O20  1  0.02850222  0.96812492  0.64511709  1
  O  O21  1  0.06037731  0.03187508  0.85488291  1
  O  O22  1  0.09575400  0.72201378  0.29832830  1
  O  O23  1  0.37374022  0.27798622  0.20167170  1
  O  O24  1  0.90424600  0.27798622  0.70167170  1
  O  O25  1  0.62625978  0.72201378  0.79832830  1
