# generated using pymatgen
data_Yb2(Ga3Co)3
_symmetry_space_group_name_H-M   'P 1'
_cell_length_a   7.32068377
_cell_length_b   7.36909242
_cell_length_c   9.56059787
_cell_angle_alpha   90.00000000
_cell_angle_beta   90.00000000
_cell_angle_gamma   120.21898474
_symmetry_Int_Tables_number   1
_chemical_formula_structural   Yb2(Ga3Co)3
_chemical_formula_sum   'Yb4 Ga18 Co6'
_cell_volume   445.67550821
_cell_formula_units_Z   2
loop_
 _symmetry_equiv_pos_site_id
 _symmetry_equiv_pos_as_xyz
  1  'x, y, z'
loop_
 _atom_site_type_symbol
 _atom_site_label
 _atom_site_symmetry_multiplicity
 _atom_site_fract_x
 _atom_site_fract_y
 _atom_site_fract_z
 _atom_site_occupancy
  Yb  Yb0  1  0.67185213  0.00295574  0.25000000  1
  Yb  Yb1  1  0.67185213  0.66889639  0.75000000  1
  Yb  Yb2  1  0.32814787  0.99704426  0.75000000  1
  Yb  Yb3  1  0.32814787  0.33110361  0.25000000  1
  Ga  Ga4  1  0.66725915  0.00132184  0.93168946  1
  Ga  Ga5  1  0.66725915  0.66593731  0.06831054  1
  Ga  Ga6  1  0.66725915  0.00132184  0.56831054  1
  Ga  Ga7  1  0.66725915  0.66593731  0.43168946  1
  Ga  Ga8  1  0.33274085  0.99867816  0.06831054  1
  Ga  Ga9  1  0.33274085  0.33406269  0.93168946  1
  Ga  Ga10  1  0.33274085  0.99867816  0.43168946  1
  Ga  Ga11  1  0.33274085  0.33406269  0.56831054  1
  Ga  Ga12  1  -0.00000000  0.66575696  0.94415219  1
  Ga  Ga13  1  -0.00000000  0.33424304  0.05584781  1
  Ga  Ga14  1  -0.00000000  0.66575696  0.55584781  1
  Ga  Ga15  1  -0.00000000  0.33424304  0.44415219  1
  Ga  Ga16  1  -0.00000000  0.11841129  0.75000000  1
  Ga  Ga17  1  -0.00000000  0.88158871  0.25000000  1
  Ga  Ga18  1  0.21816549  0.66571263  0.25000000  1
  Ga  Ga19  1  0.21816549  0.55245285  0.75000000  1
  Ga  Ga20  1  0.78183451  0.33428737  0.75000000  1
  Ga  Ga21  1  0.78183451  0.44754715  0.25000000  1
  Co  Co22  1  -0.00000000  -0.00000000  0.00000000  1
  Co  Co23  1  -0.00000000  -0.00000000  0.50000000  1
  Co  Co24  1  0.34236740  0.67118370  0.00000000  1
  Co  Co25  1  0.34236740  0.67118370  0.50000000  1
  Co  Co26  1  0.65763260  0.32881630  0.00000000  1
  Co  Co27  1  0.65763260  0.32881630  0.50000000  1
