# generated using pymatgen
data_Mn(NbSe2)4
_symmetry_space_group_name_H-M   'P 1'
_cell_length_a   7.02180397
_cell_length_b   7.02180397
_cell_length_c   12.92901966
_cell_angle_alpha   90.00000000
_cell_angle_beta   90.00000000
_cell_angle_gamma   119.99620072
_symmetry_Int_Tables_number   1
_chemical_formula_structural   Mn(NbSe2)4
_chemical_formula_sum   'Mn2 Nb8 Se16'
_cell_volume   552.09047513
_cell_formula_units_Z   2
loop_
 _symmetry_equiv_pos_site_id
 _symmetry_equiv_pos_as_xyz
  1  'x, y, z'
loop_
 _atom_site_type_symbol
 _atom_site_label
 _atom_site_symmetry_multiplicity
 _atom_site_fract_x
 _atom_site_fract_y
 _atom_site_fract_z
 _atom_site_occupancy
  Mn  Mn0  1  -0.00000000  -0.00000000  0.50000000  1
  Mn  Mn1  1  -0.00000000  -0.00000000  -0.00000000  1
  Nb  Nb2  1  0.00001815  0.99998185  0.75000000  1
  Nb  Nb3  1  0.99998185  0.00001815  0.25000000  1
  Nb  Nb4  1  0.49240917  0.50759083  0.75000000  1
  Nb  Nb5  1  0.01519084  0.50753959  0.75000000  1
  Nb  Nb6  1  0.49246041  0.98480916  0.75000000  1
  Nb  Nb7  1  0.50759083  0.49240917  0.25000000  1
  Nb  Nb8  1  0.98480916  0.49246041  0.25000000  1
  Nb  Nb9  1  0.50753959  0.01519084  0.25000000  1
  Se  Se10  1  0.66664142  0.33335858  0.11653422  1
  Se  Se11  1  0.33335858  0.66664142  0.88346578  1
  Se  Se12  1  0.33335858  0.66664142  0.61653422  1
  Se  Se13  1  0.66664142  0.33335858  0.38346578  1
  Se  Se14  1  0.83064981  0.66125492  0.62219310  1
  Se  Se15  1  0.83064393  0.16935607  0.62218949  1
  Se  Se16  1  0.33874508  0.16935019  0.62219310  1
  Se  Se17  1  0.16935019  0.33874508  0.37780690  1
  Se  Se18  1  0.16935607  0.83064393  0.37781051  1
  Se  Se19  1  0.66125492  0.83064981  0.37780690  1
  Se  Se20  1  0.16935019  0.33874508  0.12219310  1
  Se  Se21  1  0.16935607  0.83064393  0.12218949  1
  Se  Se22  1  0.66125492  0.83064981  0.12219310  1
  Se  Se23  1  0.83064981  0.66125492  0.87780690  1
  Se  Se24  1  0.83064393  0.16935607  0.87781051  1
  Se  Se25  1  0.33874508  0.16935019  0.87780690  1
