# generated using pymatgen
data_K3Gd(AsS4)2
_symmetry_space_group_name_H-M   'P 1'
_cell_length_a   9.00886027
_cell_length_b   10.20662497
_cell_length_c   10.90144014
_cell_angle_alpha   107.45776405
_cell_angle_beta   102.86843831
_cell_angle_gamma   114.01022651
_symmetry_Int_Tables_number   1
_chemical_formula_structural   K3Gd(AsS4)2
_chemical_formula_sum   'K6 Gd2 As4 S16'
_cell_volume   802.19624054
_cell_formula_units_Z   2
loop_
 _symmetry_equiv_pos_site_id
 _symmetry_equiv_pos_as_xyz
  1  'x, y, z'
loop_
 _atom_site_type_symbol
 _atom_site_label
 _atom_site_symmetry_multiplicity
 _atom_site_fract_x
 _atom_site_fract_y
 _atom_site_fract_z
 _atom_site_occupancy
  K  K0  1  0.25499378  0.00499378  0.00998755  1
  K  K1  1  0.74500622  0.99500622  0.99001245  1
  K  K2  1  -0.00000000  0.50000000  -0.00000000  1
  K  K3  1  0.50000000  0.50000000  -0.00000000  1
  K  K4  1  0.48797072  0.73797072  0.47594145  1
  K  K5  1  0.51202928  0.26202928  0.52405855  1
  Gd  Gd6  1  0.00694004  0.75694004  0.51388009  1
  Gd  Gd7  1  0.99305996  0.24305996  0.48611991  1
  As  As8  1  0.74081685  0.34311670  0.24790969  1
  As  As9  1  0.00709284  0.90479299  0.24790969  1
  As  As10  1  0.25918315  0.65688330  0.75209031  1
  As  As11  1  0.99290716  0.09520701  0.75209031  1
  S  S12  1  0.63806589  0.26535403  0.02457230  1
  S  S13  1  0.88650641  0.75921827  0.02457230  1
  S  S14  1  0.36193411  0.73464597  0.97542770  1
  S  S15  1  0.11349359  0.24078173  0.97542770  1
  S  S16  1  0.34411991  0.86723165  0.70851653  1
  S  S17  1  0.86439662  0.84128487  0.70851653  1
  S  S18  1  0.65588009  0.13276835  0.29148347  1
  S  S19  1  0.13560338  0.15871513  0.29148347  1
  S  S20  1  0.96781499  0.52728314  0.65264384  1
  S  S21  1  0.18482884  0.12536069  0.65264384  1
  S  S22  1  0.03218501  0.47271686  0.34735616  1
  S  S23  1  0.81517116  0.87463931  0.34735616  1
  S  S24  1  0.20305090  0.85747906  0.35636518  1
  S  S25  1  0.65331427  0.49888611  0.35636518  1
  S  S26  1  0.79694910  0.14252094  0.64363482  1
  S  S27  1  0.34668573  0.50111389  0.64363482  1
