# generated using pymatgen
data_Mn3Sb2(IO)4
_symmetry_space_group_name_H-M   'P 1'
_cell_length_a   6.65991274
_cell_length_b   7.79070171
_cell_length_c   15.39774916
_cell_angle_alpha   90.00000000
_cell_angle_beta   90.00000000
_cell_angle_gamma   115.30438248
_symmetry_Int_Tables_number   1
_chemical_formula_structural   Mn3Sb2(IO)4
_chemical_formula_sum   'Mn6 Sb4 I8 O8'
_cell_volume   722.26195388
_cell_formula_units_Z   2
loop_
 _symmetry_equiv_pos_site_id
 _symmetry_equiv_pos_as_xyz
  1  'x, y, z'
loop_
 _atom_site_type_symbol
 _atom_site_label
 _atom_site_symmetry_multiplicity
 _atom_site_fract_x
 _atom_site_fract_y
 _atom_site_fract_z
 _atom_site_occupancy
  Mn  Mn0  1  -0.00000000  0.00000000  0.00000000  1
  Mn  Mn1  1  0.50000000  -0.00000000  0.50000000  1
  Mn  Mn2  1  0.24012173  0.98024345  0.75000000  1
  Mn  Mn3  1  0.25987827  0.01975655  0.25000000  1
  Mn  Mn4  1  0.75987827  0.01975655  0.25000000  1
  Mn  Mn5  1  0.74012173  0.98024345  0.75000000  1
  Sb  Sb6  1  0.40324176  0.80648351  0.94236978  1
  Sb  Sb7  1  0.59675824  0.19351649  0.05763022  1
  Sb  Sb8  1  0.09675824  0.19351649  0.44236978  1
  Sb  Sb9  1  0.90324176  0.80648351  0.55763022  1
  I  I10  1  0.83747935  0.67495869  0.87684012  1
  I  I11  1  0.16252065  0.32504131  0.12315988  1
  I  I12  1  0.66252065  0.32504131  0.37684012  1
  I  I13  1  0.33747935  0.67495869  0.62315988  1
  I  I14  1  0.87078573  0.74157146  0.15885808  1
  I  I15  1  0.12921427  0.25842854  0.84114192  1
  I  I16  1  0.62921427  0.25842854  0.65885808  1
  I  I17  1  0.37078573  0.74157146  0.34114192  1
  O  O18  1  0.30920190  -0.00000000  -0.00000000  1
  O  O19  1  0.80920190  -0.00000000  0.50000000  1
  O  O20  1  0.69079810  0.00000000  -0.00000000  1
  O  O21  1  0.19079810  0.00000000  0.50000000  1
  O  O22  1  0.46345862  0.92691724  0.82646685  1
  O  O23  1  0.53654138  0.07308276  0.17353315  1
  O  O24  1  0.03654138  0.07308276  0.32646685  1
  O  O25  1  0.96345862  0.92691724  0.67353315  1
