# generated using pymatgen
data_Zr21S8
_symmetry_space_group_name_H-M   'P 1'
_cell_length_a   3.20842597
_cell_length_b   13.47370823
_cell_length_c   13.47370824
_cell_angle_alpha   89.18775569
_cell_angle_beta   83.16200403
_cell_angle_gamma   83.16200403
_symmetry_Int_Tables_number   1
_chemical_formula_structural   Zr21S8
_chemical_formula_sum   'Zr21 S8'
_cell_volume   574.20338404
_cell_formula_units_Z   1
loop_
 _symmetry_equiv_pos_site_id
 _symmetry_equiv_pos_as_xyz
  1  'x, y, z'
loop_
 _atom_site_type_symbol
 _atom_site_label
 _atom_site_symmetry_multiplicity
 _atom_site_fract_x
 _atom_site_fract_y
 _atom_site_fract_z
 _atom_site_occupancy
  Zr  Zr0  1  -0.00000000  -0.00000000  0.00000000  1
  Zr  Zr1  1  0.55032774  0.53485476  0.36448976  1
  Zr  Zr2  1  0.44967226  0.46514524  0.63551024  1
  Zr  Zr3  1  0.08518250  0.36448976  0.46514524  1
  Zr  Zr4  1  0.91481750  0.63551024  0.53485476  1
  Zr  Zr5  1  0.97317496  0.29589206  0.75775801  1
  Zr  Zr6  1  0.02682504  0.70410794  0.24224199  1
  Zr  Zr7  1  0.26906703  0.75775801  0.70410794  1
  Zr  Zr8  1  0.73093297  0.24224199  0.29589206  1
  Zr  Zr9  1  0.80833305  0.57918702  0.80414687  1
  Zr  Zr10  1  0.19166695  0.42081298  0.19585313  1
  Zr  Zr11  1  0.38752008  0.80414687  0.42081298  1
  Zr  Zr12  1  0.61247992  0.19585313  0.57918702  1
  Zr  Zr13  1  0.80632018  0.38734812  0.00001152  1
  Zr  Zr14  1  0.19367982  0.61265188  0.99998848  1
  Zr  Zr15  1  0.19366830  0.00001152  0.61265188  1
  Zr  Zr16  1  0.80633170  0.99998848  0.38734812  1
  Zr  Zr17  1  0.63240981  0.82113728  0.91404310  1
  Zr  Zr18  1  0.36759019  0.17886272  0.08595690  1
  Zr  Zr19  1  0.45354709  0.91404310  0.17886272  1
  Zr  Zr20  1  0.54645291  0.08595690  0.82113728  1
  S  S21  1  0.93444821  0.20087315  0.93023043  1
  S  S22  1  0.06555179  0.79912685  0.06976957  1
  S  S23  1  0.13532136  0.93023043  0.79912685  1
  S  S24  1  0.86467864  0.06976957  0.20087315  1
  S  S25  1  0.63759281  0.56910688  0.15570750  1
  S  S26  1  0.36240719  0.43089312  0.84429250  1
  S  S27  1  0.20669969  0.15570750  0.43089312  1
  S  S28  1  0.79330031  0.84429250  0.56910688  1
