# generated using pymatgen
data_NaNiH4SO6F
_symmetry_space_group_name_H-M   'P 1'
_cell_length_a   5.75888237
_cell_length_b   7.31461055
_cell_length_c   7.30324635
_cell_angle_alpha   90.00000000
_cell_angle_beta   90.00000000
_cell_angle_gamma   113.65916691
_symmetry_Int_Tables_number   1
_chemical_formula_structural   NaNiH4SO6F
_chemical_formula_sum   'Na2 Ni2 H8 S2 O12 F2'
_cell_volume   281.78415721
_cell_formula_units_Z   2
loop_
 _symmetry_equiv_pos_site_id
 _symmetry_equiv_pos_as_xyz
  1  'x, y, z'
loop_
 _atom_site_type_symbol
 _atom_site_label
 _atom_site_symmetry_multiplicity
 _atom_site_fract_x
 _atom_site_fract_y
 _atom_site_fract_z
 _atom_site_occupancy
  Na  Na0  1  0.43026912  0.29865990  0.25000000  1
  Na  Na1  1  0.56973088  0.70134010  0.75000000  1
  Ni  Ni2  1  -0.00000000  0.50000000  0.50000000  1
  Ni  Ni3  1  -0.00000000  0.50000000  0.00000000  1
  H  H4  1  0.07677193  0.86674891  0.91065793  1
  H  H5  1  0.92322807  0.13325109  0.41065793  1
  H  H6  1  0.92322807  0.13325109  0.08934207  1
  H  H7  1  0.07677193  0.86674891  0.58934207  1
  H  H8  1  0.87532067  0.79878434  0.42881473  1
  H  H9  1  0.12467933  0.20121566  0.92881473  1
  H  H10  1  0.12467933  0.20121566  0.57118527  1
  H  H11  1  0.87532067  0.79878434  0.07118527  1
  S  S12  1  0.45067429  0.80553673  0.25000000  1
  S  S13  1  0.54932571  0.19446327  0.75000000  1
  O  O14  1  0.37422116  0.67519671  0.41707714  1
  O  O15  1  0.62577884  0.32480329  0.91707714  1
  O  O16  1  0.62577884  0.32480329  0.58292286  1
  O  O17  1  0.37422116  0.67519671  0.08292286  1
  O  O18  1  0.73899207  0.90467231  0.25000000  1
  O  O19  1  0.26100793  0.09532769  0.75000000  1
  O  O20  1  0.34278438  0.95547286  0.25000000  1
  O  O21  1  0.65721562  0.04452714  0.75000000  1
  O  O22  1  0.92602346  0.75337890  0.95577566  1
  O  O23  1  0.07397654  0.24662110  0.45577566  1
  O  O24  1  0.07397654  0.24662110  0.04422434  1
  O  O25  1  0.92602346  0.75337890  0.54422434  1
  F  F26  1  0.84996129  0.47589993  0.25000000  1
  F  F27  1  0.15003871  0.52410007  0.75000000  1
