# generated using pymatgen
data_Hf4Fe4Ge7
_symmetry_space_group_name_H-M   'P 1'
_cell_length_a   5.14593050
_cell_length_b   9.79145177
_cell_length_c   9.79145177
_cell_angle_alpha   86.04048316
_cell_angle_beta   74.76511213
_cell_angle_gamma   74.76511213
_symmetry_Int_Tables_number   1
_chemical_formula_structural   Hf4Fe4Ge7
_chemical_formula_sum   'Hf8 Fe8 Ge14'
_cell_volume   459.28651878
_cell_formula_units_Z   2
loop_
 _symmetry_equiv_pos_site_id
 _symmetry_equiv_pos_as_xyz
  1  'x, y, z'
loop_
 _atom_site_type_symbol
 _atom_site_label
 _atom_site_symmetry_multiplicity
 _atom_site_fract_x
 _atom_site_fract_y
 _atom_site_fract_z
 _atom_site_occupancy
  Hf  Hf0  1  0.13963501  0.00000000  0.72072998  1
  Hf  Hf1  1  0.86036499  -0.00000000  0.27927002  1
  Hf  Hf2  1  0.86036499  0.27927002  -0.00000000  1
  Hf  Hf3  1  0.13963501  0.72072998  0.00000000  1
  Hf  Hf4  1  0.50000000  0.19492127  0.80507873  1
  Hf  Hf5  1  0.50000000  0.80507873  0.19492127  1
  Hf  Hf6  1  0.30507873  0.19492127  0.19492127  1
  Hf  Hf7  1  0.69492127  0.80507873  0.80507873  1
  Fe  Fe8  1  0.39879517  0.50000000  0.20240966  1
  Fe  Fe9  1  0.10120483  0.50000000  0.79759034  1
  Fe  Fe10  1  0.10120483  0.79759034  0.50000000  1
  Fe  Fe11  1  0.39879517  0.20240966  0.50000000  1
  Fe  Fe12  1  0.60120483  0.79759034  0.50000000  1
  Fe  Fe13  1  0.89879517  0.20240966  0.50000000  1
  Fe  Fe14  1  0.89879517  0.50000000  0.20240966  1
  Fe  Fe15  1  0.60120483  0.50000000  0.79759034  1
  Ge  Ge16  1  0.29379497  -0.00000000  0.41241005  1
  Ge  Ge17  1  0.70620503  0.00000000  0.58758995  1
  Ge  Ge18  1  0.70620503  0.58758995  0.00000000  1
  Ge  Ge19  1  0.29379497  0.41241005  -0.00000000  1
  Ge  Ge20  1  0.00000000  0.29031635  0.70968365  1
  Ge  Ge21  1  -0.00000000  0.70968365  0.29031635  1
  Ge  Ge22  1  0.70968365  0.29031635  0.29031635  1
  Ge  Ge23  1  0.29031635  0.70968365  0.70968365  1
  Ge  Ge24  1  0.50000000  0.40627429  0.59372571  1
  Ge  Ge25  1  0.50000000  0.59372571  0.40627429  1
  Ge  Ge26  1  0.09372571  0.40627429  0.40627429  1
  Ge  Ge27  1  0.90627429  0.59372571  0.59372571  1
  Ge  Ge28  1  0.75125045  1.00000000  1.00000000  1
  Ge  Ge29  1  0.24874955  0.00000000  0.00000000  1
