# generated using pymatgen
data_Zr4Pt2N
_symmetry_space_group_name_H-M   'P 1'
_cell_length_a   8.89868544
_cell_length_b   8.89868544
_cell_length_c   8.89868544
_cell_angle_alpha   60.00000000
_cell_angle_beta   60.00000000
_cell_angle_gamma   60.00000000
_symmetry_Int_Tables_number   1
_chemical_formula_structural   Zr4Pt2N
_chemical_formula_sum   'Zr16 Pt8 N4'
_cell_volume   498.26750823
_cell_formula_units_Z   4
loop_
 _symmetry_equiv_pos_site_id
 _symmetry_equiv_pos_as_xyz
  1  'x, y, z'
loop_
 _atom_site_type_symbol
 _atom_site_label
 _atom_site_symmetry_multiplicity
 _atom_site_fract_x
 _atom_site_fract_y
 _atom_site_fract_z
 _atom_site_occupancy
  Zr  Zr0  1  0.00000000  0.00000000  0.50000000  1
  Zr  Zr1  1  0.00000000  0.50000000  0.00000000  1
  Zr  Zr2  1  0.50000000  -0.00000000  0.00000000  1
  Zr  Zr3  1  0.00000000  -0.00000000  0.00000000  1
  Zr  Zr4  1  0.44265901  0.80734099  0.80734099  1
  Zr  Zr5  1  0.80734099  0.44265901  0.44265901  1
  Zr  Zr6  1  0.80734099  0.44265901  0.80734099  1
  Zr  Zr7  1  0.44265901  0.80734099  0.44265901  1
  Zr  Zr8  1  0.80734099  0.80734099  0.44265901  1
  Zr  Zr9  1  0.44265901  0.44265901  0.80734099  1
  Zr  Zr10  1  0.55734099  0.19265901  0.19265901  1
  Zr  Zr11  1  0.19265901  0.55734099  0.55734099  1
  Zr  Zr12  1  0.19265901  0.55734099  0.19265901  1
  Zr  Zr13  1  0.55734099  0.19265901  0.55734099  1
  Zr  Zr14  1  0.19265901  0.19265901  0.55734099  1
  Zr  Zr15  1  0.55734099  0.55734099  0.19265901  1
  Pt  Pt16  1  0.21855104  0.21855104  0.84434689  1
  Pt  Pt17  1  0.21855104  0.84434689  0.21855104  1
  Pt  Pt18  1  0.84434689  0.21855104  0.21855104  1
  Pt  Pt19  1  0.21855104  0.21855104  0.21855104  1
  Pt  Pt20  1  0.78144896  0.78144896  0.15565311  1
  Pt  Pt21  1  0.78144896  0.15565311  0.78144896  1
  Pt  Pt22  1  0.15565311  0.78144896  0.78144896  1
  Pt  Pt23  1  0.78144896  0.78144896  0.78144896  1
  N  N24  1  0.50000000  0.50000000  0.00000000  1
  N  N25  1  0.50000000  -0.00000000  0.50000000  1
  N  N26  1  0.00000000  0.50000000  0.50000000  1
  N  N27  1  0.50000000  0.50000000  0.50000000  1
