# generated using pymatgen
data_Fe8H10O17
_symmetry_space_group_name_H-M   'P 1'
_cell_length_a   10.11264782
_cell_length_b   6.14642430
_cell_length_c   11.04412572
_cell_angle_alpha   89.93714505
_cell_angle_beta   85.88616808
_cell_angle_gamma   88.01496395
_symmetry_Int_Tables_number   1
_chemical_formula_structural   Fe8H10O17
_chemical_formula_sum   'Fe16 H20 O34'
_cell_volume   684.28534581
_cell_formula_units_Z   2
loop_
 _symmetry_equiv_pos_site_id
 _symmetry_equiv_pos_as_xyz
  1  'x, y, z'
loop_
 _atom_site_type_symbol
 _atom_site_label
 _atom_site_symmetry_multiplicity
 _atom_site_fract_x
 _atom_site_fract_y
 _atom_site_fract_z
 _atom_site_occupancy
  Fe  Fe0  1  0.31344862  0.01377197  0.08718922  1
  Fe  Fe1  1  0.15278604  0.01530333  0.60698039  1
  Fe  Fe2  1  0.81753881  0.27211444  0.58020492  1
  Fe  Fe3  1  0.72502921  0.24797911  0.07784447  1
  Fe  Fe4  1  0.68922759  0.00907307  0.80694200  1
  Fe  Fe5  1  0.86469893  0.00451075  0.26390998  1
  Fe  Fe6  1  0.16837898  0.25983470  0.31650998  1
  Fe  Fe7  1  0.33001742  0.26575303  0.80338054  1
  Fe  Fe8  1  0.31224232  0.49960105  0.08744943  1
  Fe  Fe9  1  0.16701861  0.52183064  0.60450206  1
  Fe  Fe10  1  0.80774542  0.74979108  0.55211282  1
  Fe  Fe11  1  0.86482322  0.71209296  0.97550223  1
  Fe  Fe12  1  0.68360328  0.49365292  0.79316897  1
  Fe  Fe13  1  0.85726283  0.51981795  0.26487209  1
  Fe  Fe14  1  0.16538771  0.75911679  0.32292870  1
  Fe  Fe15  1  0.32869518  0.76317722  0.79963262  1
  H  H16  1  0.38902878  0.98890223  0.33147563  1
  H  H17  1  0.40965840  0.03834826  0.59783412  1
  H  H18  1  0.52429479  0.26099491  0.92183242  1
  H  H19  1  0.70269006  0.26140048  0.37769313  1
  H  H20  1  0.60262684  0.99699825  0.56173290  1
  H  H21  1  0.98391156  0.01091426  0.46755541  1
  H  H22  1  0.63819992  0.91390381  0.20827296  1
  H  H23  1  0.50096199  0.23631538  0.15819770  1
  H  H24  1  0.07723920  0.35559241  0.81196841  1
  H  H25  1  0.38912360  0.51314088  0.33190165  1
  H  H26  1  0.45008042  0.51116871  0.62163172  1
  H  H27  1  0.53262568  0.75500286  0.91591301  1
  H  H28  1  0.91876846  0.71566310  0.74991290  1
  H  H29  1  0.99151885  0.51041227  0.46513059  1
  H  H30  1  0.09398542  0.77483000  0.09799641  1
  H  H31  1  0.50316306  0.71754308  0.14317355  1
  H  H32  1  0.06855836  0.87166493  0.84768306  1
  H  H33  1  0.01817792  0.39652926  0.00201476  1
  H  H34  1  0.98436132  0.07844568  0.91147795  1
  H  H35  1  0.67005156  0.59966763  0.13236011  1
  O  O36  1  0.31149510  0.99911127  0.28410629  1
  O  O37  1  0.04228395  0.01598306  0.33165157  1
  O  O38  1  0.35127312  0.02187353  0.67059603  1
  O  O39  1  0.30725799  0.01407484  0.90952407  1
  O  O40  1  0.80683447  0.24204788  0.75541064  1
  O  O41  1  0.54061882  0.25502329  0.83167604  1
  O  O42  1  0.89032427  0.25831711  0.15356448  1
  O  O43  1  0.79623365  0.26970915  0.39455330  1
  O  O44  1  0.68161591  0.00576341  0.60653445  1
  O  O45  1  0.95281682  0.00866987  0.55862862  1
  O  O46  1  0.66108148  0.06248991  0.22635539  1
  O  O47  1  0.73497478  0.99014802  0.97114670  1
  O  O48  1  0.19426133  0.26308216  0.13075793  1
  O  O49  1  0.45959137  0.24872944  0.08031176  1
  O  O50  1  0.14044032  0.29175855  0.74182630  1
  O  O51  1  0.19759569  0.26214642  0.49808787  1
  O  O52  1  0.31119595  0.50959936  0.28502164  1
  O  O53  1  0.04117181  0.51299310  0.33277169  1
  O  O54  1  0.36481086  0.51136667  0.66989965  1
  O  O55  1  0.30838738  0.51557515  0.91047489  1
  O  O56  1  0.82293283  0.74089761  0.76808337  1
  O  O57  1  0.54759713  0.76163105  0.82562278  1
  O  O58  1  0.89553239  0.75551628  0.14617134  1
  O  O59  1  0.80434453  0.76812977  0.38234134  1
  O  O60  1  0.68369263  0.51880892  0.60781100  1
  O  O61  1  0.95829704  0.51443187  0.55751439  1
  O  O62  1  0.71743261  0.50267642  0.96747258  1
  O  O63  1  0.18294321  0.76452822  0.12963950  1
  O  O64  1  0.44388767  0.74792333  0.07870384  1
  O  O65  1  0.14511493  0.77542344  0.73148533  1
  O  O66  1  0.20160927  0.76692887  0.49474756  1
  O  O67  1  0.99676318  0.47534175  0.92804412  1
  O  O68  1  0.01241223  0.92637401  0.92323409  1
  O  O69  1  0.66321987  0.50740985  0.20532664  1
