# generated using pymatgen
data_Ca5Ni17Ge8
_symmetry_space_group_name_H-M   'P 1'
_cell_length_a   4.03135276
_cell_length_b   8.99089405
_cell_length_c   13.34308730
_cell_angle_alpha   109.68885136
_cell_angle_beta   90.00000000
_cell_angle_gamma   90.00000000
_symmetry_Int_Tables_number   1
_chemical_formula_structural   Ca5Ni17Ge8
_chemical_formula_sum   'Ca5 Ni17 Ge8'
_cell_volume   455.35173396
_cell_formula_units_Z   1
loop_
 _symmetry_equiv_pos_site_id
 _symmetry_equiv_pos_as_xyz
  1  'x, y, z'
loop_
 _atom_site_type_symbol
 _atom_site_label
 _atom_site_symmetry_multiplicity
 _atom_site_fract_x
 _atom_site_fract_y
 _atom_site_fract_z
 _atom_site_occupancy
  Ca  Ca0  1  0.00000000  0.81773277  0.21020504  1
  Ca  Ca1  1  -0.00000000  0.60752773  0.78979496  1
  Ca  Ca2  1  0.50000000  0.17929163  0.38831804  1
  Ca  Ca3  1  0.50000000  0.79097359  0.61168196  1
  Ca  Ca4  1  0.50000000  0.21851532  -0.00000000  1
  Ni  Ni5  1  0.00000000  0.38184309  0.33173255  1
  Ni  Ni6  1  0.00000000  0.05011054  0.66826745  1
  Ni  Ni7  1  -0.00000000  0.67276188  0.39769289  1
  Ni  Ni8  1  -0.00000000  0.27506899  0.60230711  1
  Ni  Ni9  1  -0.00000000  0.45090600  0.16903814  1
  Ni  Ni10  1  0.00000000  0.28186786  0.83096186  1
  Ni  Ni11  1  0.50000000  0.01169729  0.12749235  1
  Ni  Ni12  1  0.50000000  0.88420494  0.87250765  1
  Ni  Ni13  1  0.50000000  0.31057648  0.22265387  1
  Ni  Ni14  1  0.50000000  0.08792261  0.77734613  1
  Ni  Ni15  1  0.50000000  0.51640626  0.42898027  1
  Ni  Ni16  1  0.50000000  0.08742599  0.57101973  1
  Ni  Ni17  1  0.50000000  0.84497574  0.40247525  1
  Ni  Ni18  1  0.50000000  0.44250050  0.59752475  1
  Ni  Ni19  1  0.50000000  0.57233828  0.09857875  1
  Ni  Ni20  1  0.50000000  0.47375953  0.90142125  1
  Ni  Ni21  1  -0.00000000  0.92664390  -0.00000000  1
  Ge  Ge22  1  0.00000000  0.15634891  0.16963508  1
  Ge  Ge23  1  0.00000000  0.98671383  0.83036492  1
  Ge  Ge24  1  -0.00000000  0.48155088  0.52052622  1
  Ge  Ge25  1  -0.00000000  0.96102466  0.47947378  1
  Ge  Ge26  1  0.50000000  0.59040745  0.27554765  1
  Ge  Ge27  1  0.50000000  0.31485980  0.72445235  1
  Ge  Ge28  1  -0.00000000  0.48221446  -0.00000000  1
  Ge  Ge29  1  0.50000000  0.75806912  -0.00000000  1
