# generated using pymatgen
data_CsSc(SeO3)2
_symmetry_space_group_name_H-M   'P 1'
_cell_length_a   5.71313230
_cell_length_b   7.25171350
_cell_length_c   17.77480640
_cell_angle_alpha   90.00000000
_cell_angle_beta   90.00000000
_cell_angle_gamma   90.00000000
_symmetry_Int_Tables_number   1
_chemical_formula_structural   CsSc(SeO3)2
_chemical_formula_sum   'Cs4 Sc4 Se8 O24'
_cell_volume   736.41020475
_cell_formula_units_Z   4
loop_
 _symmetry_equiv_pos_site_id
 _symmetry_equiv_pos_as_xyz
  1  'x, y, z'
loop_
 _atom_site_type_symbol
 _atom_site_label
 _atom_site_symmetry_multiplicity
 _atom_site_fract_x
 _atom_site_fract_y
 _atom_site_fract_z
 _atom_site_occupancy
  Cs  Cs0  1  0.75000000  0.12895550  0.10347095  1
  Cs  Cs1  1  0.75000000  0.37104450  0.60347095  1
  Cs  Cs2  1  0.25000000  0.87104450  0.89652905  1
  Cs  Cs3  1  0.25000000  0.62895550  0.39652905  1
  Sc  Sc4  1  0.75000000  0.35276849  0.87012429  1
  Sc  Sc5  1  0.75000000  0.14723151  0.37012429  1
  Sc  Sc6  1  0.25000000  0.64723151  0.12987571  1
  Sc  Sc7  1  0.25000000  0.85276849  0.62987571  1
  Se  Se8  1  0.25000000  0.42071242  0.74797291  1
  Se  Se9  1  0.25000000  0.07928758  0.24797291  1
  Se  Se10  1  0.75000000  0.57928758  0.25202709  1
  Se  Se11  1  0.75000000  0.92071242  0.75202709  1
  Se  Se12  1  0.25000000  0.39378997  0.96733689  1
  Se  Se13  1  0.25000000  0.10621003  0.46733689  1
  Se  Se14  1  0.75000000  0.60621003  0.03266311  1
  Se  Se15  1  0.75000000  0.89378997  0.53266311  1
  O  O16  1  0.25000000  0.60362802  0.68598664  1
  O  O17  1  0.25000000  0.89637198  0.18598664  1
  O  O18  1  0.75000000  0.39637198  0.31401336  1
  O  O19  1  0.75000000  0.10362802  0.81401336  1
  O  O20  1  0.48477158  0.47564443  0.80444124  1
  O  O21  1  0.01522842  0.02435557  0.30444124  1
  O  O22  1  0.98477158  0.52435557  0.19555876  1
  O  O23  1  0.51522842  0.97564443  0.69555876  1
  O  O24  1  0.51522842  0.52435557  0.19555876  1
  O  O25  1  0.98477158  0.97564443  0.69555876  1
  O  O26  1  0.01522842  0.47564443  0.80444124  1
  O  O27  1  0.48477158  0.02435557  0.30444124  1
  O  O28  1  0.25000000  0.39205473  0.06479703  1
  O  O29  1  0.25000000  0.10794527  0.56479703  1
  O  O30  1  0.75000000  0.60794527  0.93520297  1
  O  O31  1  0.75000000  0.89205473  0.43520297  1
  O  O32  1  0.48630758  0.25130062  0.94752723  1
  O  O33  1  0.01369242  0.24869938  0.44752723  1
  O  O34  1  0.98630758  0.74869938  0.05247277  1
  O  O35  1  0.51369242  0.75130062  0.55247277  1
  O  O36  1  0.51369242  0.74869938  0.05247277  1
  O  O37  1  0.98630758  0.75130062  0.55247277  1
  O  O38  1  0.01369242  0.25130062  0.94752723  1
  O  O39  1  0.48630758  0.24869938  0.44752723  1
