# generated using pymatgen
data_Ba(SmS2)2
_symmetry_space_group_name_H-M   'P 1'
_cell_length_a   4.14579976
_cell_length_b   12.35861443
_cell_length_c   14.86510662
_cell_angle_alpha   90.00000000
_cell_angle_beta   90.00000000
_cell_angle_gamma   90.00000000
_symmetry_Int_Tables_number   1
_chemical_formula_structural   Ba(SmS2)2
_chemical_formula_sum   'Ba4 Sm8 S16'
_cell_volume   761.63366789
_cell_formula_units_Z   4
loop_
 _symmetry_equiv_pos_site_id
 _symmetry_equiv_pos_as_xyz
  1  'x, y, z'
loop_
 _atom_site_type_symbol
 _atom_site_label
 _atom_site_symmetry_multiplicity
 _atom_site_fract_x
 _atom_site_fract_y
 _atom_site_fract_z
 _atom_site_occupancy
  Ba  Ba0  1  0.75000000  0.74548877  0.15941608  1
  Ba  Ba1  1  0.75000000  0.24548877  0.34058392  1
  Ba  Ba2  1  0.25000000  0.25451123  0.84058392  1
  Ba  Ba3  1  0.25000000  0.75451123  0.65941608  1
  Sm  Sm4  1  0.75000000  0.07573378  0.60394700  1
  Sm  Sm5  1  0.75000000  0.57573378  0.89605300  1
  Sm  Sm6  1  0.25000000  0.92426622  0.39605300  1
  Sm  Sm7  1  0.25000000  0.42426622  0.10394700  1
  Sm  Sm8  1  0.75000000  0.07523183  0.10723770  1
  Sm  Sm9  1  0.75000000  0.57523183  0.39276230  1
  Sm  Sm10  1  0.25000000  0.92476817  0.89276230  1
  Sm  Sm11  1  0.25000000  0.42476817  0.60723770  1
  S  S12  1  0.75000000  0.28950307  0.67226191  1
  S  S13  1  0.75000000  0.78950307  0.82773809  1
  S  S14  1  0.25000000  0.71049693  0.32773809  1
  S  S15  1  0.25000000  0.21049693  0.17226191  1
  S  S16  1  0.75000000  0.37045482  0.97944517  1
  S  S17  1  0.75000000  0.87045482  0.52055483  1
  S  S18  1  0.25000000  0.62954518  0.02055483  1
  S  S19  1  0.25000000  0.12954518  0.47944517  1
  S  S20  1  0.75000000  0.98309826  0.28298313  1
  S  S21  1  0.75000000  0.48309826  0.21701687  1
  S  S22  1  0.25000000  0.01690174  0.71701687  1
  S  S23  1  0.25000000  0.51690174  0.78298313  1
  S  S24  1  0.75000000  0.07743222  0.92067967  1
  S  S25  1  0.75000000  0.57743222  0.57932033  1
  S  S26  1  0.25000000  0.92256778  0.07932033  1
  S  S27  1  0.25000000  0.42256778  0.42067967  1
