# generated using pymatgen
data_NdTlP2S7
_symmetry_space_group_name_H-M   'P 1'
_cell_length_a   9.09791864
_cell_length_b   9.89173393
_cell_length_c   12.52643506
_cell_angle_alpha   90.00000000
_cell_angle_beta   90.00000000
_cell_angle_gamma   90.48751849
_symmetry_Int_Tables_number   1
_chemical_formula_structural   NdTlP2S7
_chemical_formula_sum   'Nd4 Tl4 P8 S28'
_cell_volume   1127.26557488
_cell_formula_units_Z   4
loop_
 _symmetry_equiv_pos_site_id
 _symmetry_equiv_pos_as_xyz
  1  'x, y, z'
loop_
 _atom_site_type_symbol
 _atom_site_label
 _atom_site_symmetry_multiplicity
 _atom_site_fract_x
 _atom_site_fract_y
 _atom_site_fract_z
 _atom_site_occupancy
  Nd  Nd0  1  0.89296737  0.14367229  0.35724376  1
  Nd  Nd1  1  0.60703263  0.85632771  0.85724376  1
  Nd  Nd2  1  0.10703263  0.85632771  0.64275624  1
  Nd  Nd3  1  0.39296737  0.14367229  0.14275624  1
  Tl  Tl4  1  0.62805087  0.60407064  0.18894616  1
  Tl  Tl5  1  0.87194913  0.39592936  0.68894616  1
  Tl  Tl6  1  0.37194913  0.39592936  0.81105384  1
  Tl  Tl7  1  0.12805087  0.60407064  0.31105384  1
  P  P8  1  0.69716505  0.18641027  0.96275781  1
  P  P9  1  0.80283495  0.81358973  0.46275781  1
  P  P10  1  0.30283495  0.81358973  0.03724219  1
  P  P11  1  0.19716505  0.18641027  0.53724219  1
  P  P12  1  0.52284052  0.27561416  0.39915033  1
  P  P13  1  0.97715948  0.72438584  0.89915033  1
  P  P14  1  0.47715948  0.72438584  0.60084967  1
  P  P15  1  0.02284052  0.27561416  0.10084967  1
  S  S16  1  0.64682247  0.14793085  0.80769450  1
  S  S17  1  0.85317753  0.85206915  0.30769450  1
  S  S18  1  0.35317753  0.85206915  0.19230550  1
  S  S19  1  0.14682247  0.14793085  0.69230550  1
  S  S20  1  0.56990920  0.33576694  0.02311211  1
  S  S21  1  0.93009080  0.66423306  0.52311211  1
  S  S22  1  0.43009080  0.66423306  0.97688789  1
  S  S23  1  0.06990920  0.33576694  0.47688789  1
  S  S24  1  0.92178947  0.25111574  0.94666337  1
  S  S25  1  0.57821053  0.74888426  0.44666337  1
  S  S26  1  0.07821053  0.74888426  0.05333663  1
  S  S27  1  0.42178947  0.25111574  0.55333663  1
  S  S28  1  0.88982027  0.37160754  0.20635189  1
  S  S29  1  0.61017973  0.62839246  0.70635189  1
  S  S30  1  0.11017973  0.62839246  0.79364811  1
  S  S31  1  0.38982027  0.37160754  0.29364811  1
  S  S32  1  0.57160356  0.09183507  0.33346794  1
  S  S33  1  0.92839644  0.90816493  0.83346794  1
  S  S34  1  0.42839644  0.90816493  0.66653206  1
  S  S35  1  0.07160356  0.09183507  0.16653206  1
  S  S36  1  0.71086117  0.36837821  0.44384690  1
  S  S37  1  0.78913883  0.63162179  0.94384690  1
  S  S38  1  0.28913883  0.63162179  0.55615310  1
  S  S39  1  0.21086117  0.36837821  0.05615310  1
  S  S40  1  0.67822045  0.02004048  0.05803506  1
  S  S41  1  0.82177955  0.97995952  0.55803506  1
  S  S42  1  0.32177955  0.97995952  0.94196494  1
  S  S43  1  0.17822045  0.02004048  0.44196494  1
