# generated using pymatgen
data_Hf9NiMo4
_symmetry_space_group_name_H-M   'P 1'
_cell_length_a   8.41938249
_cell_length_b   8.71127343
_cell_length_c   8.71127343
_cell_angle_alpha   119.96957047
_cell_angle_beta   90.00000000
_cell_angle_gamma   90.00000000
_symmetry_Int_Tables_number   1
_chemical_formula_structural   Hf9NiMo4
_chemical_formula_sum   'Hf18 Ni2 Mo8'
_cell_volume   553.48677399
_cell_formula_units_Z   2
loop_
 _symmetry_equiv_pos_site_id
 _symmetry_equiv_pos_as_xyz
  1  'x, y, z'
loop_
 _atom_site_type_symbol
 _atom_site_label
 _atom_site_symmetry_multiplicity
 _atom_site_fract_x
 _atom_site_fract_y
 _atom_site_fract_z
 _atom_site_occupancy
  Hf  Hf0  1  0.55717120  0.80010829  0.60021222  1
  Hf  Hf1  1  0.55720824  0.80017375  0.19982625  1
  Hf  Hf2  1  0.55717120  0.39978778  0.19989171  1
  Hf  Hf3  1  0.44282880  0.19989171  0.39978778  1
  Hf  Hf4  1  0.44279176  0.19982625  0.80017375  1
  Hf  Hf5  1  0.44282880  0.60021222  0.80010829  1
  Hf  Hf6  1  0.05717120  0.19989171  0.39978778  1
  Hf  Hf7  1  0.05720824  0.19982625  0.80017375  1
  Hf  Hf8  1  0.05717120  0.60021222  0.80010829  1
  Hf  Hf9  1  0.94282880  0.80010829  0.60021222  1
  Hf  Hf10  1  0.94279176  0.80017375  0.19982625  1
  Hf  Hf11  1  0.94282880  0.39978778  0.19989171  1
  Hf  Hf12  1  0.75000000  0.45825955  0.91647156  1
  Hf  Hf13  1  0.75000000  0.45820754  0.54179246  1
  Hf  Hf14  1  0.75000000  0.08352844  0.54174045  1
  Hf  Hf15  1  0.25000000  0.54174045  0.08352844  1
  Hf  Hf16  1  0.25000000  0.54179246  0.45820754  1
  Hf  Hf17  1  0.25000000  0.91647156  0.45825955  1
  Ni  Ni18  1  0.75000000  0.66667673  0.33332327  1
  Ni  Ni19  1  0.25000000  0.33332327  0.66667673  1
  Mo  Mo20  1  0.75000000  0.11158380  0.22315271  1
  Mo  Mo21  1  0.75000000  0.11168451  0.88831549  1
  Mo  Mo22  1  0.75000000  0.77684729  0.88841620  1
  Mo  Mo23  1  0.25000000  0.88841620  0.77684729  1
  Mo  Mo24  1  0.25000000  0.88831549  0.11168451  1
  Mo  Mo25  1  0.25000000  0.22315271  0.11158380  1
  Mo  Mo26  1  0.50000000  -0.00000000  -0.00000000  1
  Mo  Mo27  1  -0.00000000  0.00000000  0.00000000  1
