# generated using pymatgen
data_KY(SeO3)2
_symmetry_space_group_name_H-M   'P 1'
_cell_length_a   5.81763365
_cell_length_b   8.83990388
_cell_length_c   13.62890508
_cell_angle_alpha   90.00000000
_cell_angle_beta   90.00000000
_cell_angle_gamma   90.00000000
_symmetry_Int_Tables_number   1
_chemical_formula_structural   KY(SeO3)2
_chemical_formula_sum   'K4 Y4 Se8 O24'
_cell_volume   700.89809381
_cell_formula_units_Z   4
loop_
 _symmetry_equiv_pos_site_id
 _symmetry_equiv_pos_as_xyz
  1  'x, y, z'
loop_
 _atom_site_type_symbol
 _atom_site_label
 _atom_site_symmetry_multiplicity
 _atom_site_fract_x
 _atom_site_fract_y
 _atom_site_fract_z
 _atom_site_occupancy
  K  K0  1  0.25000000  0.99560859  0.62516366  1
  K  K1  1  0.25000000  0.50439141  0.12516366  1
  K  K2  1  0.75000000  0.00439141  0.37483634  1
  K  K3  1  0.75000000  0.49560859  0.87483634  1
  Y  Y4  1  0.25000000  0.80865141  0.90238305  1
  Y  Y5  1  0.25000000  0.69134859  0.40238305  1
  Y  Y6  1  0.75000000  0.19134859  0.09761695  1
  Y  Y7  1  0.75000000  0.30865141  0.59761695  1
  Se  Se8  1  0.75000000  0.01210793  0.79523242  1
  Se  Se9  1  0.75000000  0.48789207  0.29523242  1
  Se  Se10  1  0.25000000  0.98789207  0.20476758  1
  Se  Se11  1  0.25000000  0.51210793  0.70476758  1
  Se  Se12  1  0.75000000  0.72004366  0.56783342  1
  Se  Se13  1  0.75000000  0.77995634  0.06783342  1
  Se  Se14  1  0.25000000  0.27995634  0.43216658  1
  Se  Se15  1  0.25000000  0.22004366  0.93216658  1
  O  O16  1  0.98186760  0.89074891  0.79175319  1
  O  O17  1  0.51813240  0.60925109  0.29175319  1
  O  O18  1  0.48186760  0.10925109  0.20824681  1
  O  O19  1  0.01813240  0.39074891  0.70824681  1
  O  O20  1  0.01813240  0.10925109  0.20824681  1
  O  O21  1  0.48186760  0.39074891  0.70824681  1
  O  O22  1  0.51813240  0.89074891  0.79175319  1
  O  O23  1  0.98186760  0.60925109  0.29175319  1
  O  O24  1  0.75000000  0.07922301  0.67602630  1
  O  O25  1  0.75000000  0.42077699  0.17602630  1
  O  O26  1  0.25000000  0.92077699  0.32397370  1
  O  O27  1  0.25000000  0.57922301  0.82397370  1
  O  O28  1  0.98049809  0.79686672  0.50527838  1
  O  O29  1  0.51950191  0.70313328  0.00527838  1
  O  O30  1  0.48049809  0.20313328  0.49472162  1
  O  O31  1  0.01950191  0.29686672  0.99472162  1
  O  O32  1  0.01950191  0.20313328  0.49472162  1
  O  O33  1  0.48049809  0.29686672  0.99472162  1
  O  O34  1  0.51950191  0.79686672  0.50527838  1
  O  O35  1  0.98049809  0.70313328  0.00527838  1
  O  O36  1  0.75000000  0.53710295  0.52585600  1
  O  O37  1  0.75000000  0.96289705  0.02585600  1
  O  O38  1  0.25000000  0.46289705  0.47414400  1
  O  O39  1  0.25000000  0.03710295  0.97414400  1
