# generated using pymatgen
data_KCoAs3F18
_symmetry_space_group_name_H-M   'P 1'
_cell_length_a   9.68235568
_cell_length_b   10.63973603
_cell_length_c   14.23018334
_cell_angle_alpha   90.00000000
_cell_angle_beta   90.00000000
_cell_angle_gamma   90.00000000
_symmetry_Int_Tables_number   1
_chemical_formula_structural   KCoAs3F18
_chemical_formula_sum   'K4 Co4 As12 F72'
_cell_volume   1465.96088041
_cell_formula_units_Z   4
loop_
 _symmetry_equiv_pos_site_id
 _symmetry_equiv_pos_as_xyz
  1  'x, y, z'
loop_
 _atom_site_type_symbol
 _atom_site_label
 _atom_site_symmetry_multiplicity
 _atom_site_fract_x
 _atom_site_fract_y
 _atom_site_fract_z
 _atom_site_occupancy
  K  K0  1  0.52013256  0.92274943  0.75000000  1
  K  K1  1  0.97986744  0.42274943  0.75000000  1
  K  K2  1  0.47986744  0.07725057  0.25000000  1
  K  K3  1  0.02013256  0.57725057  0.25000000  1
  Co  Co4  1  0.00000000  0.00000000  0.50000000  1
  Co  Co5  1  0.50000000  0.50000000  0.00000000  1
  Co  Co6  1  0.00000000  0.00000000  0.00000000  1
  Co  Co7  1  0.50000000  0.50000000  0.50000000  1
  As  As8  1  0.11145004  0.02316070  0.75000000  1
  As  As9  1  0.38854996  0.52316070  0.75000000  1
  As  As10  1  0.88854996  0.97683930  0.25000000  1
  As  As11  1  0.61145004  0.47683930  0.25000000  1
  As  As12  1  0.69451767  0.20378027  0.55161553  1
  As  As13  1  0.80548233  0.70378027  0.94838447  1
  As  As14  1  0.30548233  0.79621973  0.05161553  1
  As  As15  1  0.19451767  0.29621973  0.44838447  1
  As  As16  1  0.30548233  0.79621973  0.44838447  1
  As  As17  1  0.19451767  0.29621973  0.05161553  1
  As  As18  1  0.69451767  0.20378027  0.94838447  1
  As  As19  1  0.80548233  0.70378027  0.55161553  1
  F  F20  1  0.11133298  0.02492992  0.62146442  1
  F  F21  1  0.38866702  0.52492992  0.87853558  1
  F  F22  1  0.88866702  0.97507008  0.12146442  1
  F  F23  1  0.61133298  0.47507008  0.37853558  1
  F  F24  1  0.88866702  0.97507008  0.37853558  1
  F  F25  1  0.61133298  0.47507008  0.12146442  1
  F  F26  1  0.11133298  0.02492992  0.87853558  1
  F  F27  1  0.38866702  0.52492992  0.62146442  1
  F  F28  1  0.17229940  0.86900004  0.75000000  1
  F  F29  1  0.32770060  0.36900004  0.75000000  1
  F  F30  1  0.82770060  0.13099996  0.25000000  1
  F  F31  1  0.67229940  0.63099996  0.25000000  1
  F  F32  1  0.28361461  0.07625359  0.75000000  1
  F  F33  1  0.21638539  0.57625359  0.75000000  1
  F  F34  1  0.71638539  0.92374641  0.25000000  1
  F  F35  1  0.78361461  0.42374641  0.25000000  1
  F  F36  1  0.05642059  0.18111505  0.75000000  1
  F  F37  1  0.44357941  0.68111505  0.75000000  1
  F  F38  1  0.94357941  0.81888495  0.25000000  1
  F  F39  1  0.55642059  0.31888495  0.25000000  1
  F  F40  1  0.94017929  0.97282250  0.75000000  1
  F  F41  1  0.55982071  0.47282250  0.75000000  1
  F  F42  1  0.05982071  0.02717750  0.25000000  1
  F  F43  1  0.44017929  0.52717750  0.25000000  1
  F  F44  1  0.82524627  0.07899123  0.55772633  1
  F  F45  1  0.67475373  0.57899123  0.94227367  1
  F  F46  1  0.17475373  0.92100877  0.05772633  1
  F  F47  1  0.32524627  0.42100877  0.44227367  1
  F  F48  1  0.17475373  0.92100877  0.44227367  1
  F  F49  1  0.32524627  0.42100877  0.05772633  1
  F  F50  1  0.82524627  0.07899123  0.94227367  1
  F  F51  1  0.67475373  0.57899123  0.55772633  1
  F  F52  1  0.79206212  0.28397838  0.46793924  1
  F  F53  1  0.70793788  0.78397838  0.03206076  1
  F  F54  1  0.20793788  0.71602162  0.96793924  1
  F  F55  1  0.29206212  0.21602162  0.53206076  1
  F  F56  1  0.20793788  0.71602162  0.53206076  1
  F  F57  1  0.29206212  0.21602162  0.96793924  1
  F  F58  1  0.79206212  0.28397838  0.03206076  1
  F  F59  1  0.70793788  0.78397838  0.46793924  1
  F  F60  1  0.60669809  0.12249999  0.46267950  1
  F  F61  1  0.89330191  0.62249999  0.03732050  1
  F  F62  1  0.39330191  0.87750001  0.96267950  1
  F  F63  1  0.10669809  0.37750001  0.53732050  1
  F  F64  1  0.39330191  0.87750001  0.53732050  1
  F  F65  1  0.10669809  0.37750001  0.96267950  1
  F  F66  1  0.60669809  0.12249999  0.03732050  1
  F  F67  1  0.89330191  0.62249999  0.46267950  1
  F  F68  1  0.56402249  0.32775758  0.54957000  1
  F  F69  1  0.93597751  0.82775758  0.95043000  1
  F  F70  1  0.43597751  0.67224242  0.04957000  1
  F  F71  1  0.06402249  0.17224242  0.45043000  1
  F  F72  1  0.43597751  0.67224242  0.45043000  1
  F  F73  1  0.06402249  0.17224242  0.04957000  1
  F  F74  1  0.56402249  0.32775758  0.95043000  1
  F  F75  1  0.93597751  0.82775758  0.54957000  1
  F  F76  1  0.59766630  0.12248416  0.63635344  1
  F  F77  1  0.90233370  0.62248416  0.86364656  1
  F  F78  1  0.40233370  0.87751584  0.13635344  1
  F  F79  1  0.09766630  0.37751584  0.36364656  1
  F  F80  1  0.40233370  0.87751584  0.36364656  1
  F  F81  1  0.09766630  0.37751584  0.13635344  1
  F  F82  1  0.59766630  0.12248416  0.86364656  1
  F  F83  1  0.90233370  0.62248416  0.63635344  1
  F  F84  1  0.78122145  0.28360187  0.64230378  1
  F  F85  1  0.71877855  0.78360187  0.85769622  1
  F  F86  1  0.21877855  0.71639813  0.14230378  1
  F  F87  1  0.28122145  0.21639813  0.35769622  1
  F  F88  1  0.21877855  0.71639813  0.35769622  1
  F  F89  1  0.28122145  0.21639813  0.14230378  1
  F  F90  1  0.78122145  0.28360187  0.85769622  1
  F  F91  1  0.71877855  0.78360187  0.64230378  1
