# generated using pymatgen
data_B2Se3O10
_symmetry_space_group_name_H-M   'P 1'
_cell_length_a   4.47767716
_cell_length_b   8.15634244
_cell_length_c   22.53034147
_cell_angle_alpha   90.00000000
_cell_angle_beta   95.10308199
_cell_angle_gamma   90.00000000
_symmetry_Int_Tables_number   1
_chemical_formula_structural   B2Se3O10
_chemical_formula_sum   'B8 Se12 O40'
_cell_volume   819.57964056
_cell_formula_units_Z   4
loop_
 _symmetry_equiv_pos_site_id
 _symmetry_equiv_pos_as_xyz
  1  'x, y, z'
loop_
 _atom_site_type_symbol
 _atom_site_label
 _atom_site_symmetry_multiplicity
 _atom_site_fract_x
 _atom_site_fract_y
 _atom_site_fract_z
 _atom_site_occupancy
  B  B0  1  0.53727553  0.69688502  0.79840139  1
  B  B1  1  0.46272447  0.19688502  0.70159861  1
  B  B2  1  0.46272447  0.30311498  0.20159861  1
  B  B3  1  0.53727553  0.80311498  0.29840139  1
  B  B4  1  0.66826625  0.07562115  0.93304640  1
  B  B5  1  0.33173375  0.57562115  0.56695360  1
  B  B6  1  0.33173375  0.92437885  0.06695360  1
  B  B7  1  0.66826625  0.42437885  0.43304640  1
  Se  Se8  1  0.07799393  0.53497973  0.85630680  1
  Se  Se9  1  0.92200607  0.03497973  0.64369320  1
  Se  Se10  1  0.92200607  0.46502027  0.14369320  1
  Se  Se11  1  0.07799393  0.96502027  0.35630680  1
  Se  Se12  1  0.47822692  0.04099635  0.81245231  1
  Se  Se13  1  0.52177308  0.54099635  0.68754769  1
  Se  Se14  1  0.52177308  0.95900365  0.18754769  1
  Se  Se15  1  0.47822692  0.45900365  0.31245231  1
  Se  Se16  1  0.79190753  0.78057550  0.00471132  1
  Se  Se17  1  0.20809247  0.28057550  0.49528868  1
  Se  Se18  1  0.20809247  0.21942450  0.99528868  1
  Se  Se19  1  0.79190753  0.71942450  0.50471132  1
  O  O20  1  0.22748003  0.36197961  0.83933350  1
  O  O21  1  0.77251997  0.86197961  0.66066650  1
  O  O22  1  0.77251997  0.63802039  0.16066650  1
  O  O23  1  0.22748003  0.13802039  0.33933350  1
  O  O24  1  0.97580735  0.55456780  0.92384835  1
  O  O25  1  0.02419265  0.05456780  0.57615165  1
  O  O26  1  0.02419265  0.44543220  0.07615165  1
  O  O27  1  0.97580735  0.94543220  0.42384835  1
  O  O28  1  0.32720123  0.69751500  0.84628465  1
  O  O29  1  0.67279877  0.19751500  0.65371535  1
  O  O30  1  0.67279877  0.30248500  0.15371535  1
  O  O31  1  0.32720123  0.80248500  0.34628465  1
  O  O32  1  0.77397152  0.56730752  0.80287899  1
  O  O33  1  0.22602848  0.06730752  0.69712101  1
  O  O34  1  0.22602848  0.43269248  0.19712101  1
  O  O35  1  0.77397152  0.93269248  0.30287899  1
  O  O36  1  0.63857652  0.16075588  0.75963598  1
  O  O37  1  0.36142348  0.66075588  0.74036402  1
  O  O38  1  0.36142348  0.83924412  0.24036402  1
  O  O39  1  0.63857652  0.33924412  0.25963598  1
  O  O40  1  0.71890587  0.11757019  0.87083173  1
  O  O41  1  0.28109413  0.61757019  0.62916827  1
  O  O42  1  0.28109413  0.88242981  0.12916827  1
  O  O43  1  0.71890587  0.38242981  0.37083173  1
  O  O44  1  0.67970047  0.85932959  0.80079156  1
  O  O45  1  0.32029953  0.35932959  0.69920844  1
  O  O46  1  0.32029953  0.14067041  0.19920844  1
  O  O47  1  0.67970047  0.64067041  0.30079156  1
  O  O48  1  0.17331803  0.80288153  0.02682988  1
  O  O49  1  0.82668197  0.30288153  0.47317012  1
  O  O50  1  0.82668197  0.19711847  0.97317012  1
  O  O51  1  0.17331803  0.69711847  0.52682988  1
  O  O52  1  0.76405833  0.90245556  0.94124061  1
  O  O53  1  0.23594167  0.40245556  0.55875939  1
  O  O54  1  0.23594167  0.09754444  0.05875939  1
  O  O55  1  0.76405833  0.59754444  0.44124061  1
  O  O56  1  0.65625026  0.91220713  0.05766438  1
  O  O57  1  0.34374974  0.41220713  0.44233562  1
  O  O58  1  0.34374974  0.08779287  0.94233562  1
  O  O59  1  0.65625026  0.58779287  0.55766438  1
