# generated using pymatgen
data_Ba3Sb2Se7
_symmetry_space_group_name_H-M   'P 1'
_cell_length_a   11.61718966
_cell_length_b   11.61718966
_cell_length_c   13.88036894
_cell_angle_alpha   73.62731845
_cell_angle_beta   73.62731845
_cell_angle_gamma   67.65303482
_symmetry_Int_Tables_number   1
_chemical_formula_structural   Ba3Sb2Se7
_chemical_formula_sum   'Ba12 Sb8 Se28'
_cell_volume   1629.80101832
_cell_formula_units_Z   4
loop_
 _symmetry_equiv_pos_site_id
 _symmetry_equiv_pos_as_xyz
  1  'x, y, z'
loop_
 _atom_site_type_symbol
 _atom_site_label
 _atom_site_symmetry_multiplicity
 _atom_site_fract_x
 _atom_site_fract_y
 _atom_site_fract_z
 _atom_site_occupancy
  Ba  Ba0  1  0.60446765  0.59376875  0.32752502  1
  Ba  Ba1  1  0.40623125  0.39553235  0.17247498  1
  Ba  Ba2  1  0.39553235  0.40623125  0.67247498  1
  Ba  Ba3  1  0.59376875  0.60446765  0.82752502  1
  Ba  Ba4  1  0.10183637  0.10730465  0.32512845  1
  Ba  Ba5  1  0.89269535  0.89816363  0.17487155  1
  Ba  Ba6  1  0.89816363  0.89269535  0.67487155  1
  Ba  Ba7  1  0.10730465  0.10183637  0.82512845  1
  Ba  Ba8  1  0.88513937  0.37981864  0.05555174  1
  Ba  Ba9  1  0.62018136  0.11486063  0.44444826  1
  Ba  Ba10  1  0.11486063  0.62018136  0.94444826  1
  Ba  Ba11  1  0.37981864  0.88513937  0.55555174  1
  Sb  Sb12  1  0.24049971  0.29489277  0.49074044  1
  Sb  Sb13  1  0.70510723  0.75950029  0.00925956  1
  Sb  Sb14  1  0.75950029  0.70510723  0.50925956  1
  Sb  Sb15  1  0.29489277  0.24049971  0.99074044  1
  Sb  Sb16  1  0.14104716  0.69066215  0.40480138  1
  Sb  Sb17  1  0.30933785  0.85895284  0.09519862  1
  Sb  Sb18  1  0.85895284  0.30933785  0.59519862  1
  Sb  Sb19  1  0.69066215  0.14104716  0.90480138  1
  Se  Se20  1  0.80443751  0.29799014  0.31709539  1
  Se  Se21  1  0.70200986  0.19556249  0.18290461  1
  Se  Se22  1  0.19556249  0.70200986  0.68290461  1
  Se  Se23  1  0.29799014  0.80443751  0.81709539  1
  Se  Se24  1  0.90075518  0.39836050  0.38783540  1
  Se  Se25  1  0.60163950  0.09924482  0.11216460  1
  Se  Se26  1  0.09924482  0.60163950  0.61216460  1
  Se  Se27  1  0.39836050  0.90075518  0.88783540  1
  Se  Se28  1  0.85449775  0.64249640  0.14033432  1
  Se  Se29  1  0.35750360  0.14550225  0.35966568  1
  Se  Se30  1  0.14550225  0.35750360  0.85966568  1
  Se  Se31  1  0.64249640  0.85449775  0.64033432  1
  Se  Se32  1  0.14964716  0.35753930  0.13795543  1
  Se  Se33  1  0.64246070  0.85035284  0.36204457  1
  Se  Se34  1  0.85035284  0.64246070  0.86204457  1
  Se  Se35  1  0.35753930  0.14964716  0.63795543  1
  Se  Se36  1  0.40452535  0.42509106  0.41429891  1
  Se  Se37  1  0.57490894  0.59547465  0.08570109  1
  Se  Se38  1  0.59547465  0.57490894  0.58570109  1
  Se  Se39  1  0.42509106  0.40452535  0.91429891  1
  Se  Se40  1  0.93939686  0.89963971  0.41115115  1
  Se  Se41  1  0.10036029  0.06060314  0.08884885  1
  Se  Se42  1  0.06060314  0.10036029  0.58884885  1
  Se  Se43  1  0.89963971  0.93939686  0.91115115  1
  Se  Se44  1  0.30399405  0.80466717  0.36860306  1
  Se  Se45  1  0.19533283  0.69600595  0.13139694  1
  Se  Se46  1  0.69600595  0.19533283  0.63139694  1
  Se  Se47  1  0.80466717  0.30399405  0.86860306  1
