# generated using pymatgen
data_Ba5(IO6)2
_symmetry_space_group_name_H-M   'P 1'
_cell_length_a   5.98143574
_cell_length_b   10.77975468
_cell_length_c   20.11668328
_cell_angle_alpha   90.00000000
_cell_angle_beta   90.00000000
_cell_angle_gamma   90.00000000
_symmetry_Int_Tables_number   1
_chemical_formula_structural   Ba5(IO6)2
_chemical_formula_sum   'Ba20 I8 O48'
_cell_volume   1297.09175059
_cell_formula_units_Z   4
loop_
 _symmetry_equiv_pos_site_id
 _symmetry_equiv_pos_as_xyz
  1  'x, y, z'
loop_
 _atom_site_type_symbol
 _atom_site_label
 _atom_site_symmetry_multiplicity
 _atom_site_fract_x
 _atom_site_fract_y
 _atom_site_fract_z
 _atom_site_occupancy
  Ba  Ba0  1  0.25000000  0.41237298  0.54791686  1
  Ba  Ba1  1  0.25000000  0.08762702  0.04791686  1
  Ba  Ba2  1  0.75000000  0.58762702  0.45208314  1
  Ba  Ba3  1  0.75000000  0.91237298  0.95208314  1
  Ba  Ba4  1  0.25000000  0.11758886  0.64176762  1
  Ba  Ba5  1  0.25000000  0.38241114  0.14176762  1
  Ba  Ba6  1  0.75000000  0.88241114  0.35823238  1
  Ba  Ba7  1  0.75000000  0.61758886  0.85823238  1
  Ba  Ba8  1  0.25000000  0.76193558  0.69793501  1
  Ba  Ba9  1  0.25000000  0.73806442  0.19793501  1
  Ba  Ba10  1  0.75000000  0.23806442  0.30206499  1
  Ba  Ba11  1  0.75000000  0.26193558  0.80206499  1
  Ba  Ba12  1  0.25000000  0.02161632  0.84186353  1
  Ba  Ba13  1  0.25000000  0.47838368  0.34186353  1
  Ba  Ba14  1  0.75000000  0.97838368  0.15813647  1
  Ba  Ba15  1  0.75000000  0.52161632  0.65813647  1
  Ba  Ba16  1  0.25000000  0.40643382  0.92938973  1
  Ba  Ba17  1  0.25000000  0.09356618  0.42938973  1
  Ba  Ba18  1  0.75000000  0.59356618  0.07061027  1
  Ba  Ba19  1  0.75000000  0.90643382  0.57061027  1
  I  I20  1  0.25000000  0.75063875  0.51134200  1
  I  I21  1  0.25000000  0.74936125  0.01134200  1
  I  I22  1  0.75000000  0.24936125  0.48865800  1
  I  I23  1  0.75000000  0.25063875  0.98865800  1
  I  I24  1  0.25000000  0.39696334  0.74018337  1
  I  I25  1  0.25000000  0.10303666  0.24018337  1
  I  I26  1  0.75000000  0.60303666  0.25981663  1
  I  I27  1  0.75000000  0.89696334  0.75981663  1
  O  O28  1  0.52148952  0.16968745  0.53958929  1
  O  O29  1  0.97851048  0.33031255  0.03958929  1
  O  O30  1  0.02148952  0.83031255  0.46041071  1
  O  O31  1  0.47851048  0.66968745  0.96041071  1
  O  O32  1  0.47851048  0.83031255  0.46041071  1
  O  O33  1  0.02148952  0.66968745  0.96041071  1
  O  O34  1  0.97851048  0.16968745  0.53958929  1
  O  O35  1  0.52148952  0.33031255  0.03958929  1
  O  O36  1  0.02277405  0.31596704  0.68968064  1
  O  O37  1  0.47722595  0.18403296  0.18968064  1
  O  O38  1  0.52277405  0.68403296  0.31031936  1
  O  O39  1  0.97722595  0.81596704  0.81031936  1
  O  O40  1  0.97722595  0.68403296  0.31031936  1
  O  O41  1  0.52277405  0.81596704  0.81031936  1
  O  O42  1  0.47722595  0.31596704  0.68968064  1
  O  O43  1  0.02277405  0.18403296  0.18968064  1
  O  O44  1  0.02287505  0.47840205  0.79026138  1
  O  O45  1  0.47712495  0.02159795  0.29026138  1
  O  O46  1  0.52287505  0.52159795  0.20973862  1
  O  O47  1  0.97712495  0.97840205  0.70973862  1
  O  O48  1  0.97712495  0.52159795  0.20973862  1
  O  O49  1  0.52287505  0.97840205  0.70973862  1
  O  O50  1  0.47712495  0.47840205  0.79026138  1
  O  O51  1  0.02287505  0.02159795  0.29026138  1
  O  O52  1  0.51799545  0.17261032  0.93747545  1
  O  O53  1  0.98200455  0.32738968  0.43747545  1
  O  O54  1  0.01799545  0.82738968  0.06252455  1
  O  O55  1  0.48200455  0.67261032  0.56252455  1
  O  O56  1  0.48200455  0.82738968  0.06252455  1
  O  O57  1  0.01799545  0.67261032  0.56252455  1
  O  O58  1  0.98200455  0.17261032  0.93747545  1
  O  O59  1  0.51799545  0.32738968  0.43747545  1
  O  O60  1  0.25000000  0.88888321  0.57231701  1
  O  O61  1  0.25000000  0.61111679  0.07231701  1
  O  O62  1  0.75000000  0.11111679  0.42768299  1
  O  O63  1  0.75000000  0.38888321  0.92768299  1
  O  O64  1  0.25000000  0.26343926  0.80361247  1
  O  O65  1  0.25000000  0.23656074  0.30361247  1
  O  O66  1  0.75000000  0.73656074  0.19638753  1
  O  O67  1  0.75000000  0.76343926  0.69638753  1
  O  O68  1  0.25000000  0.89572904  0.95532145  1
  O  O69  1  0.25000000  0.60427096  0.45532145  1
  O  O70  1  0.75000000  0.10427096  0.04467855  1
  O  O71  1  0.75000000  0.39572904  0.54467855  1
  O  O72  1  0.25000000  0.97541788  0.17479922  1
  O  O73  1  0.25000000  0.52458212  0.67479922  1
  O  O74  1  0.75000000  0.02458212  0.82520078  1
  O  O75  1  0.75000000  0.47541788  0.32520078  1
