# generated using pymatgen
data_Al2FeP2(HO)18
_symmetry_space_group_name_H-M   'P 1'
_cell_length_a   5.31934759
_cell_length_b   11.72707304
_cell_length_c   6.99687632
_cell_angle_alpha   100.32285238
_cell_angle_beta   110.07266457
_cell_angle_gamma   89.18185887
_symmetry_Int_Tables_number   1
_chemical_formula_structural   Al2FeP2(HO)18
_chemical_formula_sum   'Al2 Fe1 P2 H18 O18'
_cell_volume   402.79321074
_cell_formula_units_Z   1
loop_
 _symmetry_equiv_pos_site_id
 _symmetry_equiv_pos_as_xyz
  1  'x, y, z'
loop_
 _atom_site_type_symbol
 _atom_site_label
 _atom_site_symmetry_multiplicity
 _atom_site_fract_x
 _atom_site_fract_y
 _atom_site_fract_z
 _atom_site_occupancy
  Al  Al0  1  -0.00000000  0.50000000  0.00000000  1
  Al  Al1  1  -0.00000000  0.50000000  0.50000000  1
  Fe  Fe2  1  -0.00000000  -0.00000000  0.00000000  1
  P  P3  1  0.56686099  0.36183395  0.07863088  1
  P  P4  1  0.43313901  0.63816605  0.92136912  1
  H  H5  1  0.67150584  0.51688179  0.67218960  1
  H  H6  1  0.32849416  0.48311821  0.32781040  1
  H  H7  1  0.77403932  0.63950629  0.29366316  1
  H  H8  1  0.22596068  0.36049371  0.70633684  1
  H  H9  1  0.38180907  0.80839265  0.43446480  1
  H  H10  1  0.61819093  0.19160735  0.56553520  1
  H  H11  1  0.77000392  0.89343738  0.46288637  1
  H  H12  1  0.22999608  0.10656262  0.53711363  1
  H  H13  1  0.90130291  0.05746613  0.65806933  1
  H  H14  1  0.09869709  0.94253387  0.34193067  1
  H  H15  1  0.46312208  0.04526467  0.67139867  1
  H  H16  1  0.53687792  0.95473533  0.32860133  1
  H  H17  1  0.53306716  0.81735179  0.06312315  1
  H  H18  1  0.46693284  0.18264821  0.93687685  1
  H  H19  1  0.66529368  0.18134651  0.35241669  1
  H  H20  1  0.33470632  0.81865349  0.64758331  1
  H  H21  1  0.98301362  0.29249295  0.53205184  1
  H  H22  1  0.01698638  0.70750705  0.46794816  1
  O  O23  1  0.75675961  0.37396167  0.96188489  1
  O  O24  1  0.24324039  0.62603833  0.03811511  1
  O  O25  1  0.66441437  0.42524391  0.30495357  1
  O  O26  1  0.33558563  0.57475609  0.69504643  1
  O  O27  1  0.54888564  0.22323749  0.08410537  1
  O  O28  1  0.45111436  0.77676251  0.91589463  1
  O  O29  1  0.72168262  0.60894388  0.04063941  1
  O  O30  1  0.27831738  0.39105612  0.95936059  1
  O  O31  1  0.86221747  0.50120548  0.71278524  1
  O  O32  1  0.13778253  0.49879452  0.28721476  1
  O  O33  1  0.62094019  0.87996396  0.32647117  1
  O  O34  1  0.37905981  0.12003604  0.67352883  1
  O  O35  1  0.89405468  0.98778843  0.71650542  1
  O  O36  1  0.10594532  0.01221157  0.28349458  1
  O  O37  1  0.86422728  0.65236732  0.44825340  1
  O  O38  1  0.13577272  0.34763268  0.55174660  1
  O  O39  1  0.75666206  0.18000279  0.50039878  1
  O  O40  1  0.24333794  0.81999721  0.49960122  1
