# generated using pymatgen
data_K2CdSnS4
_symmetry_space_group_name_H-M   'P 1'
_cell_length_a   7.95274769
_cell_length_b   7.95274769
_cell_length_c   15.21618583
_cell_angle_alpha   96.02549547
_cell_angle_beta   96.02549547
_cell_angle_gamma   89.71429888
_symmetry_Int_Tables_number   1
_chemical_formula_structural   K2CdSnS4
_chemical_formula_sum   'K8 Cd4 Sn4 S16'
_cell_volume   951.74393947
_cell_formula_units_Z   4
loop_
 _symmetry_equiv_pos_site_id
 _symmetry_equiv_pos_as_xyz
  1  'x, y, z'
loop_
 _atom_site_type_symbol
 _atom_site_label
 _atom_site_symmetry_multiplicity
 _atom_site_fract_x
 _atom_site_fract_y
 _atom_site_fract_z
 _atom_site_occupancy
  K  K0  1  0.85464128  0.72730243  0.88018080  1
  K  K1  1  0.27269757  0.14535872  0.61981920  1
  K  K2  1  0.14535872  0.27269757  0.11981920  1
  K  K3  1  0.72730243  0.85464128  0.38018080  1
  K  K4  1  0.34447341  0.72150237  0.88268730  1
  K  K5  1  0.27849763  0.65552659  0.61731270  1
  K  K6  1  0.65552659  0.27849763  0.11731270  1
  K  K7  1  0.72150237  0.34447341  0.38268730  1
  Cd  Cd8  1  0.91280330  0.80887909  0.16048697  1
  Cd  Cd9  1  0.19112091  0.08719670  0.33951303  1
  Cd  Cd10  1  0.08719670  0.19112091  0.83951303  1
  Cd  Cd11  1  0.80887909  0.91280330  0.66048697  1
  Sn  Sn12  1  0.40740677  0.79564714  0.14986047  1
  Sn  Sn13  1  0.20435286  0.59259323  0.35013953  1
  Sn  Sn14  1  0.59259323  0.20435286  0.85013953  1
  Sn  Sn15  1  0.79564714  0.40740677  0.64986047  1
  S  S16  1  0.14627126  0.75882471  0.05544057  1
  S  S17  1  0.24117529  0.85372874  0.44455943  1
  S  S18  1  0.85372874  0.24117529  0.94455943  1
  S  S19  1  0.75882471  0.14627126  0.55544057  1
  S  S20  1  0.63344445  0.73972874  0.05806373  1
  S  S21  1  0.26027126  0.36655555  0.44193627  1
  S  S22  1  0.36655555  0.26027126  0.94193627  1
  S  S23  1  0.73972874  0.63344445  0.55806373  1
  S  S24  1  0.91168117  0.08831883  0.25000000  1
  S  S25  1  0.08831883  0.91168117  0.75000000  1
  S  S26  1  0.93679515  0.56157219  0.26084146  1
  S  S27  1  0.43842781  0.06320485  0.23915854  1
  S  S28  1  0.06320485  0.43842781  0.73915854  1
  S  S29  1  0.56157219  0.93679515  0.76084146  1
  S  S30  1  0.43523538  0.56476462  0.25000000  1
  S  S31  1  0.56476462  0.43523538  0.75000000  1
