# generated using pymatgen
data_Sr2Zn3Te2(PO7)2
_symmetry_space_group_name_H-M   'P 1'
_cell_length_a   5.29546606
_cell_length_b   7.97977918
_cell_length_c   15.53204761
_cell_angle_alpha   90.00000000
_cell_angle_beta   90.32235722
_cell_angle_gamma   90.00000000
_symmetry_Int_Tables_number   1
_chemical_formula_structural   Sr2Zn3Te2(PO7)2
_chemical_formula_sum   'Sr4 Zn6 Te4 P4 O28'
_cell_volume   656.32190871
_cell_formula_units_Z   2
loop_
 _symmetry_equiv_pos_site_id
 _symmetry_equiv_pos_as_xyz
  1  'x, y, z'
loop_
 _atom_site_type_symbol
 _atom_site_label
 _atom_site_symmetry_multiplicity
 _atom_site_fract_x
 _atom_site_fract_y
 _atom_site_fract_z
 _atom_site_occupancy
  Sr  Sr0  1  0.50117246  0.55165624  0.20301417  1
  Sr  Sr1  1  0.49882754  0.05165624  0.29698583  1
  Sr  Sr2  1  0.49882754  0.44834376  0.79698583  1
  Sr  Sr3  1  0.50117246  0.94834376  0.70301417  1
  Zn  Zn4  1  0.99152824  0.89236354  0.11716083  1
  Zn  Zn5  1  0.00847176  0.39236354  0.38283917  1
  Zn  Zn6  1  0.00847176  0.10763646  0.88283917  1
  Zn  Zn7  1  0.99152824  0.60763646  0.61716083  1
  Zn  Zn8  1  -0.00000000  0.50000000  -0.00000000  1
  Zn  Zn9  1  -0.00000000  0.00000000  0.50000000  1
  Te  Te10  1  0.51427564  0.77182585  0.99229897  1
  Te  Te11  1  0.48572436  0.27182585  0.50770103  1
  Te  Te12  1  0.48572436  0.22817415  0.00770103  1
  Te  Te13  1  0.51427564  0.72817415  0.49229897  1
  P  P14  1  0.95357100  0.76492733  0.30726387  1
  P  P15  1  0.04642900  0.26492733  0.19273613  1
  P  P16  1  0.04642900  0.23507267  0.69273613  1
  P  P17  1  0.95357100  0.73507267  0.80726387  1
  O  O18  1  0.80042400  0.81718860  0.22378278  1
  O  O19  1  0.19957600  0.31718860  0.27621722  1
  O  O20  1  0.19957600  0.18281140  0.77621722  1
  O  O21  1  0.80042400  0.68281140  0.72378278  1
  O  O22  1  0.25281125  0.73967214  0.07529054  1
  O  O23  1  0.74718875  0.23967214  0.42470946  1
  O  O24  1  0.74718875  0.26032786  0.92470946  1
  O  O25  1  0.25281125  0.76032786  0.57529054  1
  O  O26  1  0.70524601  0.60179844  0.05372536  1
  O  O27  1  0.29475399  0.10179844  0.44627464  1
  O  O28  1  0.29475399  0.39820156  0.94627464  1
  O  O29  1  0.70524601  0.89820156  0.55372536  1
  O  O30  1  0.84222238  0.58981026  0.33053757  1
  O  O31  1  0.15777762  0.08981026  0.16946243  1
  O  O32  1  0.15777762  0.41018974  0.66946243  1
  O  O33  1  0.84222238  0.91018974  0.83053757  1
  O  O34  1  0.88209342  0.89326972  0.37783115  1
  O  O35  1  0.11790658  0.39326972  0.12216885  1
  O  O36  1  0.11790658  0.10673028  0.62216885  1
  O  O37  1  0.88209342  0.60673028  0.87783115  1
  O  O38  1  0.23989239  0.76183619  0.28996005  1
  O  O39  1  0.76010761  0.26183619  0.21003995  1
  O  O40  1  0.76010761  0.23816381  0.71003995  1
  O  O41  1  0.23989239  0.73816381  0.78996005  1
  O  O42  1  0.71150757  0.95111429  0.03987875  1
  O  O43  1  0.28849243  0.45111429  0.46012125  1
  O  O44  1  0.28849243  0.04888571  0.96012125  1
  O  O45  1  0.71150757  0.54888571  0.53987875  1
