# generated using pymatgen
data_CsNa2Fe3P4ClO14
_symmetry_space_group_name_H-M   'P 1'
_cell_length_a   5.29674911
_cell_length_b   10.91431874
_cell_length_c   13.15465705
_cell_angle_alpha   70.15390833
_cell_angle_beta   78.38549127
_cell_angle_gamma   75.95692244
_symmetry_Int_Tables_number   1
_chemical_formula_structural   CsNa2Fe3P4ClO14
_chemical_formula_sum   'Cs2 Na4 Fe6 P8 Cl2 O28'
_cell_volume   688.01089050
_cell_formula_units_Z   2
loop_
 _symmetry_equiv_pos_site_id
 _symmetry_equiv_pos_as_xyz
  1  'x, y, z'
loop_
 _atom_site_type_symbol
 _atom_site_label
 _atom_site_symmetry_multiplicity
 _atom_site_fract_x
 _atom_site_fract_y
 _atom_site_fract_z
 _atom_site_occupancy
  Cs  Cs0  1  0.50000000  0.50000000  0.50000000  1
  Cs  Cs1  1  0.50000000  -0.00000000  0.00000000  1
  Na  Na2  1  0.24878113  0.79143981  0.65075530  1
  Na  Na3  1  0.69097624  0.70856019  0.84924470  1
  Na  Na4  1  0.75121887  0.20856019  0.34924470  1
  Na  Na5  1  0.30902376  0.29143981  0.15075530  1
  Fe  Fe6  1  0.66673398  0.03404238  0.65625053  1
  Fe  Fe7  1  0.35702689  0.46595762  0.84374947  1
  Fe  Fe8  1  0.33326602  0.96595762  0.34374947  1
  Fe  Fe9  1  0.64297311  0.53404238  0.15625053  1
  Fe  Fe10  1  0.93737103  0.25000000  0.75000000  1
  Fe  Fe11  1  0.06262897  0.75000000  0.25000000  1
  P  P12  1  0.17982113  0.17640641  0.50678873  1
  P  P13  1  0.86301627  0.32359359  0.99321127  1
  P  P14  1  0.82017887  0.82359359  0.49321127  1
  P  P15  1  0.13698373  0.67640641  0.00678873  1
  P  P16  1  0.86974327  0.56449790  0.67509103  1
  P  P17  1  0.10933221  0.93550210  0.82490897  1
  P  P18  1  0.13025673  0.43550210  0.32490897  1
  P  P19  1  0.89066779  0.06449790  0.17509103  1
  Cl  Cl20  1  0.46191414  0.25000000  0.75000000  1
  Cl  Cl21  1  0.53808586  0.75000000  0.25000000  1
  O  O22  1  0.95170123  0.43140174  0.65221433  1
  O  O23  1  0.03531730  0.06859826  0.84778567  1
  O  O24  1  0.04829877  0.56859826  0.34778567  1
  O  O25  1  0.96468270  0.93140174  0.15221433  1
  O  O26  1  0.07826481  0.33532971  0.44809462  1
  O  O27  1  0.86168914  0.16467029  0.05190538  1
  O  O28  1  0.92173519  0.66467029  0.55190538  1
  O  O29  1  0.13831086  0.83532971  0.94809462  1
  O  O30  1  0.88906315  0.90155855  0.78502231  1
  O  O31  1  0.57564400  0.59844145  0.71497769  1
  O  O32  1  0.11093685  0.09844145  0.21497769  1
  O  O33  1  0.42435600  0.40155855  0.28502231  1
  O  O34  1  0.98597850  0.14875477  0.61249831  1
  O  O35  1  0.74723158  0.35124523  0.88750169  1
  O  O36  1  0.01402150  0.85124523  0.38750169  1
  O  O37  1  0.25276842  0.64875477  0.11249831  1
  O  O38  1  0.46414983  0.16043106  0.52663072  1
  O  O39  1  0.15121161  0.33956894  0.97336928  1
  O  O40  1  0.53585017  0.83956894  0.47336928  1
  O  O41  1  0.84878839  0.66043106  0.02663072  1
  O  O42  1  0.04241174  0.58730645  0.74531690  1
  O  O43  1  0.37503509  0.91269355  0.75468310  1
  O  O44  1  0.95758826  0.41269355  0.25468310  1
  O  O45  1  0.62496491  0.08730645  0.24531690  1
  O  O46  1  0.84726933  0.89153668  0.57309499  1
  O  O47  1  0.31190100  0.60846332  0.92690501  1
  O  O48  1  0.15273067  0.10846332  0.42690501  1
  O  O49  1  0.68809900  0.39153668  0.07309499  1
