# generated using pymatgen
data_Na2FePO4F
_symmetry_space_group_name_H-M   'P 1'
_cell_length_a   5.28099631
_cell_length_b   11.95417023
_cell_length_c   14.04166805
_cell_angle_alpha   90.00000000
_cell_angle_beta   90.00000000
_cell_angle_gamma   90.00000000
_symmetry_Int_Tables_number   1
_chemical_formula_structural   Na2FePO4F
_chemical_formula_sum   'Na16 Fe8 P8 O32 F8'
_cell_volume   886.44950527
_cell_formula_units_Z   8
loop_
 _symmetry_equiv_pos_site_id
 _symmetry_equiv_pos_as_xyz
  1  'x, y, z'
loop_
 _atom_site_type_symbol
 _atom_site_label
 _atom_site_symmetry_multiplicity
 _atom_site_fract_x
 _atom_site_fract_y
 _atom_site_fract_z
 _atom_site_occupancy
  Na  Na0  1  0.73627952  0.17178957  0.24478786  1
  Na  Na1  1  0.76372048  0.67178957  0.25521214  1
  Na  Na2  1  0.23627952  0.82821043  0.25521214  1
  Na  Na3  1  0.26372048  0.32821043  0.24478786  1
  Na  Na4  1  0.26372048  0.82821043  0.75521214  1
  Na  Na5  1  0.23627952  0.32821043  0.74478786  1
  Na  Na6  1  0.76372048  0.17178957  0.74478786  1
  Na  Na7  1  0.73627952  0.67178957  0.75521214  1
  Na  Na8  1  0.76084402  0.41657350  0.12475894  1
  Na  Na9  1  0.73915598  0.91657350  0.37524106  1
  Na  Na10  1  0.26084402  0.58342650  0.37524106  1
  Na  Na11  1  0.23915598  0.08342650  0.12475894  1
  Na  Na12  1  0.23915598  0.58342650  0.87524106  1
  Na  Na13  1  0.26084402  0.08342650  0.62475894  1
  Na  Na14  1  0.73915598  0.41657350  0.62475894  1
  Na  Na15  1  0.76084402  0.91657350  0.87524106  1
  Fe  Fe16  1  0.77226023  0.17428602  0.00982172  1
  Fe  Fe17  1  0.72773977  0.67428602  0.49017828  1
  Fe  Fe18  1  0.27226023  0.82571398  0.49017828  1
  Fe  Fe19  1  0.22773977  0.32571398  0.00982172  1
  Fe  Fe20  1  0.22773977  0.82571398  0.99017828  1
  Fe  Fe21  1  0.27226023  0.32571398  0.50982172  1
  Fe  Fe22  1  0.72773977  0.17428602  0.50982172  1
  Fe  Fe23  1  0.77226023  0.67428602  0.99017828  1
  P  P24  1  0.79649347  0.41300789  0.38076938  1
  P  P25  1  0.70350653  0.91300789  0.11923062  1
  P  P26  1  0.29649347  0.58699211  0.11923062  1
  P  P27  1  0.20350653  0.08699211  0.38076938  1
  P  P28  1  0.20350653  0.58699211  0.61923062  1
  P  P29  1  0.29649347  0.08699211  0.88076938  1
  P  P30  1  0.70350653  0.41300789  0.88076938  1
  P  P31  1  0.79649347  0.91300789  0.61923062  1
  O  O32  1  0.73306497  0.53971692  0.38764028  1
  O  O33  1  0.76693503  0.03971692  0.11235972  1
  O  O34  1  0.23306497  0.46028308  0.11235972  1
  O  O35  1  0.26693503  0.96028308  0.38764028  1
  O  O36  1  0.26693503  0.46028308  0.61235972  1
  O  O37  1  0.23306497  0.96028308  0.88764028  1
  O  O38  1  0.76693503  0.53971692  0.88764028  1
  O  O39  1  0.73306497  0.03971692  0.61235972  1
  O  O40  1  0.71482720  0.36657349  0.28341523  1
  O  O41  1  0.78517280  0.86657349  0.21658477  1
  O  O42  1  0.21482720  0.63342651  0.21658477  1
  O  O43  1  0.28517280  0.13342651  0.28341523  1
  O  O44  1  0.28517280  0.63342651  0.71658477  1
  O  O45  1  0.21482720  0.13342651  0.78341523  1
  O  O46  1  0.78517280  0.36657349  0.78341523  1
  O  O47  1  0.71482720  0.86657349  0.71658477  1
  O  O48  1  0.09128663  0.39739392  0.39437652  1
  O  O49  1  0.40871337  0.89739392  0.10562348  1
  O  O50  1  0.59128663  0.60260608  0.10562348  1
  O  O51  1  0.90871337  0.10260608  0.39437652  1
  O  O52  1  0.90871337  0.60260608  0.60562348  1
  O  O53  1  0.59128663  0.10260608  0.89437652  1
  O  O54  1  0.40871337  0.39739392  0.89437652  1
  O  O55  1  0.09128663  0.89739392  0.60562348  1
  O  O56  1  0.66095170  0.34886753  0.46361973  1
  O  O57  1  0.83904830  0.84886753  0.03638027  1
  O  O58  1  0.16095170  0.65113247  0.03638027  1
  O  O59  1  0.33904830  0.15113247  0.46361973  1
  O  O60  1  0.33904830  0.65113247  0.53638027  1
  O  O61  1  0.16095170  0.15113247  0.96361973  1
  O  O62  1  0.83904830  0.34886753  0.96361973  1
  O  O63  1  0.66095170  0.84886753  0.53638027  1
  F  F64  1  -0.00000000  0.25000000  0.12413111  1
  F  F65  1  0.50000000  0.75000000  0.37586889  1
  F  F66  1  -0.00000000  0.75000000  0.87586889  1
  F  F67  1  0.50000000  0.25000000  0.62413111  1
  F  F68  1  0.50000000  0.25000000  0.10123257  1
  F  F69  1  -0.00000000  0.75000000  0.39876743  1
  F  F70  1  0.50000000  0.75000000  0.89876743  1
  F  F71  1  -0.00000000  0.25000000  0.60123257  1
