# generated using pymatgen
data_Ba3B3Pb2BrO9
_symmetry_space_group_name_H-M   'P 1'
_cell_length_a   8.20737166
_cell_length_b   8.97479141
_cell_length_c   8.97479141
_cell_angle_alpha   107.13240057
_cell_angle_beta   90.00000000
_cell_angle_gamma   90.00000000
_symmetry_Int_Tables_number   1
_chemical_formula_structural   Ba3B3Pb2BrO9
_chemical_formula_sum   'Ba6 B6 Pb4 Br2 O18'
_cell_volume   631.74388941
_cell_formula_units_Z   2
loop_
 _symmetry_equiv_pos_site_id
 _symmetry_equiv_pos_as_xyz
  1  'x, y, z'
loop_
 _atom_site_type_symbol
 _atom_site_label
 _atom_site_symmetry_multiplicity
 _atom_site_fract_x
 _atom_site_fract_y
 _atom_site_fract_z
 _atom_site_occupancy
  Ba  Ba0  1  0.50000000  0.23911524  0.23911524  1
  Ba  Ba1  1  -0.00000000  0.76088476  0.76088476  1
  Ba  Ba2  1  0.25000000  0.64719048  0.35280952  1
  Ba  Ba3  1  0.75000000  0.35280952  0.64719048  1
  Ba  Ba4  1  0.75000000  0.64969371  0.35030629  1
  Ba  Ba5  1  0.25000000  0.35030629  0.64969371  1
  B  B6  1  0.50000000  0.62067383  0.62067383  1
  B  B7  1  -0.00000000  0.37932617  0.37932617  1
  B  B8  1  0.04095890  0.00676506  0.57397475  1
  B  B9  1  0.95904110  0.57397475  0.00676506  1
  B  B10  1  0.54095890  0.99323494  0.42602525  1
  B  B11  1  0.45904110  0.42602525  0.99323494  1
  Pb  Pb12  1  0.41808204  0.97064061  0.72930637  1
  Pb  Pb13  1  0.58191796  0.72930637  0.97064061  1
  Pb  Pb14  1  0.91808204  0.02935939  0.27069363  1
  Pb  Pb15  1  0.08191796  0.27069363  0.02935939  1
  Br  Br16  1  0.75000000  0.08012037  0.91987963  1
  Br  Br17  1  0.25000000  0.91987963  0.08012037  1
  O  O18  1  0.48781689  0.86023331  0.46262566  1
  O  O19  1  0.51218311  0.46262566  0.86023331  1
  O  O20  1  0.98781689  0.13976669  0.53737434  1
  O  O21  1  0.01218311  0.53737434  0.13976669  1
  O  O22  1  0.50647092  0.51759126  0.14017028  1
  O  O23  1  0.49352908  0.14017028  0.51759126  1
  O  O24  1  0.00647092  0.48240874  0.85982972  1
  O  O25  1  0.99352908  0.85982972  0.48240874  1
  O  O26  1  0.50000000  0.49053454  0.49053454  1
  O  O27  1  -0.00000000  0.50946546  0.50946546  1
  O  O28  1  0.35022555  0.68936664  0.67881921  1
  O  O29  1  0.64977445  0.67881921  0.68936664  1
  O  O30  1  0.85022555  0.31063336  0.32118079  1
  O  O31  1  0.14977445  0.32118079  0.31063336  1
  O  O32  1  0.14190173  0.02538270  0.70326891  1
  O  O33  1  0.85809827  0.70326891  0.02538270  1
  O  O34  1  0.64190173  0.97461730  0.29673109  1
  O  O35  1  0.35809827  0.29673109  0.97461730  1
