# generated using pymatgen
data_Na4LuC3O9F
_symmetry_space_group_name_H-M   'P 1'
_cell_length_a   8.06863972
_cell_length_b   9.00141322
_cell_length_c   14.13029516
_cell_angle_alpha   84.88042535
_cell_angle_beta   78.51560391
_cell_angle_gamma   63.37255534
_symmetry_Int_Tables_number   1
_chemical_formula_structural   Na4LuC3O9F
_chemical_formula_sum   'Na16 Lu4 C12 O36 F4'
_cell_volume   899.05697454
_cell_formula_units_Z   4
loop_
 _symmetry_equiv_pos_site_id
 _symmetry_equiv_pos_as_xyz
  1  'x, y, z'
loop_
 _atom_site_type_symbol
 _atom_site_label
 _atom_site_symmetry_multiplicity
 _atom_site_fract_x
 _atom_site_fract_y
 _atom_site_fract_z
 _atom_site_occupancy
  Na  Na0  1  0.58526182  0.00215694  0.19462930  1
  Na  Na1  1  0.58741876  0.99784306  0.69462930  1
  Na  Na2  1  0.51079825  0.63835889  0.61150448  1
  Na  Na3  1  0.14915714  0.36164111  0.11150448  1
  Na  Na4  1  0.52639184  0.64973253  0.08997029  1
  Na  Na5  1  0.17612437  0.35026747  0.58997029  1
  Na  Na6  1  0.85682834  0.21740158  0.52772156  1
  Na  Na7  1  0.07422992  0.78259842  0.02772156  1
  Na  Na8  1  0.86422383  0.19645619  0.27411300  1
  Na  Na9  1  0.06068002  0.80354381  0.77411300  1
  Na  Na10  1  0.06910828  0.77355458  0.27581457  1
  Na  Na11  1  0.84266286  0.22644542  0.77581457  1
  Na  Na12  1  0.07755886  0.75700596  0.53323118  1
  Na  Na13  1  0.83456482  0.24299404  0.03323118  1
  Na  Na14  1  0.17202344  0.33080495  0.35006273  1
  Na  Na15  1  0.50282839  0.66919505  0.85006273  1
  Lu  Lu16  1  0.54311761  0.58903346  0.33984545  1
  Lu  Lu17  1  0.13215106  0.41096654  0.83984545  1
  Lu  Lu18  1  0.61153836  0.96123438  0.44908061  1
  Lu  Lu19  1  0.57277274  0.03876562  0.94908061  1
  C  C20  1  0.24971122  0.97359855  0.37018455  1
  C  C21  1  0.22330977  0.02640145  0.87018455  1
  C  C22  1  0.83602188  0.61631776  0.21662931  1
  C  C23  1  0.45233963  0.38368224  0.71662931  1
  C  C24  1  0.48172190  0.36121764  0.45612333  1
  C  C25  1  0.84293954  0.63878236  0.95612333  1
  C  C26  1  0.23119508  0.99028046  0.61371463  1
  C  C27  1  0.22147554  0.00971954  0.11371463  1
  C  C28  1  0.85230871  0.59707410  0.72335194  1
  C  C29  1  0.44938281  0.40292590  0.22335194  1
  C  C30  1  0.83279064  0.61219917  0.45845668  1
  C  C31  1  0.44498981  0.38780083  0.95845668  1
  O  O32  1  0.40102490  0.99719167  0.35873863  1
  O  O33  1  0.39821657  0.00280833  0.85873863  1
  O  O34  1  0.40308735  0.97538388  0.58100054  1
  O  O35  1  0.37847123  0.02461612  0.08100054  1
  O  O36  1  0.26908323  0.82074590  0.37247435  1
  O  O37  1  0.08982913  0.17925410  0.87247435  1
  O  O38  1  0.64912794  0.67701914  0.45191850  1
  O  O39  1  0.32614709  0.32298086  0.95191850  1
  O  O40  1  0.65581904  0.71652196  0.21778478  1
  O  O41  1  0.37234100  0.28347804  0.71778478  1
  O  O42  1  0.08718706  0.09804226  0.37790733  1
  O  O43  1  0.18522932  0.90195774  0.87790733  1
  O  O44  1  0.37096294  0.50877817  0.48965738  1
  O  O45  1  0.87974111  0.49122183  0.98965738  1
  O  O46  1  0.92062956  0.46538925  0.48836019  1
  O  O47  1  0.38601881  0.53461075  0.98836019  1
  O  O48  1  0.90491154  0.71579970  0.43474403  1
  O  O49  1  0.62071124  0.28420030  0.93474403  1
  O  O50  1  0.87020807  0.48503166  0.27268803  1
  O  O51  1  0.35523973  0.51496834  0.77268803  1
  O  O52  1  0.70051177  0.70069300  0.69572543  1
  O  O53  1  0.40120477  0.29930700  0.19572543  1
  O  O54  1  0.64842902  0.33685605  0.40719996  1
  O  O55  1  0.98528507  0.66314395  0.90719996  1
  O  O56  1  0.20794764  0.85655431  0.62819835  1
  O  O57  1  0.06450196  0.14344569  0.12819835  1
  O  O58  1  0.85193819  0.48256309  0.78876986  1
  O  O59  1  0.33450128  0.51743691  0.28876986  1
  O  O60  1  0.09153975  0.13548570  0.63131902  1
  O  O61  1  0.22702544  0.86451430  0.13131902  1
  O  O62  1  0.43098747  0.24305021  0.46544013  1
  O  O63  1  0.67403768  0.75694979  0.96544013  1
  O  O64  1  0.96717079  0.64593831  0.16581927  1
  O  O65  1  0.61310910  0.35406169  0.66581927  1
  O  O66  1  0.01633184  0.59723514  0.69280050  1
  O  O67  1  0.61356698  0.40276486  0.19280050  1
  F  F68  1  0.76671642  0.99880279  0.54235296  1
  F  F69  1  0.76551921  0.00119721  0.04235296  1
  F  F70  1  0.75945849  0.99342456  0.31174414  1
  F  F71  1  0.75288304  0.00657544  0.81174414  1
