# generated using pymatgen
data_KFeSO4F
_symmetry_space_group_name_H-M   'P 1'
_cell_length_a   8.26710504
_cell_length_b   8.26710504
_cell_length_c   15.30398070
_cell_angle_alpha   88.86701150
_cell_angle_beta   88.86701150
_cell_angle_gamma   63.54550689
_symmetry_Int_Tables_number   1
_chemical_formula_structural   KFeSO4F
_chemical_formula_sum   'K8 Fe8 S8 O32 F8'
_cell_volume   936.17451091
_cell_formula_units_Z   8
loop_
 _symmetry_equiv_pos_site_id
 _symmetry_equiv_pos_as_xyz
  1  'x, y, z'
loop_
 _atom_site_type_symbol
 _atom_site_label
 _atom_site_symmetry_multiplicity
 _atom_site_fract_x
 _atom_site_fract_y
 _atom_site_fract_z
 _atom_site_occupancy
  K  K0  1  0.76275414  0.49789466  0.05421518  1
  K  K1  1  0.50210534  0.23724586  0.44578482  1
  K  K2  1  0.23724586  0.50210534  0.94578482  1
  K  K3  1  0.49789466  0.76275414  0.55421518  1
  K  K4  1  0.99609016  0.75370552  0.42114943  1
  K  K5  1  0.24629448  0.00390984  0.07885057  1
  K  K6  1  0.00390984  0.24629448  0.57885057  1
  K  K7  1  0.75370552  0.99609016  0.92114943  1
  Fe  Fe8  1  0.12244203  0.38123503  0.24740404  1
  Fe  Fe9  1  0.61876497  0.87755797  0.25259596  1
  Fe  Fe10  1  0.87755797  0.61876497  0.75259596  1
  Fe  Fe11  1  0.38123503  0.12244203  0.74740404  1
  Fe  Fe12  1  0.82880878  0.17119122  0.25000000  1
  Fe  Fe13  1  0.17119122  0.82880878  0.75000000  1
  Fe  Fe14  1  0.42091571  0.57908429  0.25000000  1
  Fe  Fe15  1  0.57908429  0.42091571  0.75000000  1
  S  S16  1  0.76502796  0.50883140  0.38272933  1
  S  S17  1  0.49116860  0.23497204  0.11727067  1
  S  S18  1  0.23497204  0.49116860  0.61727067  1
  S  S19  1  0.50883140  0.76502796  0.88272933  1
  S  S20  1  0.01462082  0.76874779  0.14300625  1
  S  S21  1  0.23125221  0.98537918  0.35699375  1
  S  S22  1  0.98537918  0.23125221  0.85699375  1
  S  S23  1  0.76874779  0.01462082  0.64300625  1
  O  O24  1  0.96264400  0.43373547  0.36498893  1
  O  O25  1  0.56626453  0.03735600  0.13501107  1
  O  O26  1  0.03735600  0.56626453  0.63501107  1
  O  O27  1  0.43373547  0.96264400  0.86498893  1
  O  O28  1  0.29055040  0.31909607  0.12916284  1
  O  O29  1  0.68090393  0.70944960  0.37083716  1
  O  O30  1  0.70944960  0.68090393  0.87083716  1
  O  O31  1  0.31909607  0.29055040  0.62916284  1
  O  O32  1  0.73240020  0.46150238  0.47235023  1
  O  O33  1  0.53849762  0.26759980  0.02764977  1
  O  O34  1  0.26759980  0.53849762  0.52764977  1
  O  O35  1  0.46150238  0.73240020  0.97235023  1
  O  O36  1  0.68076975  0.42919931  0.31924461  1
  O  O37  1  0.57080069  0.31923025  0.18075539  1
  O  O38  1  0.31923025  0.57080069  0.68075539  1
  O  O39  1  0.42919931  0.68076975  0.81924461  1
  O  O40  1  0.03147233  0.06009162  0.34793852  1
  O  O41  1  0.93990838  0.96852767  0.15206148  1
  O  O42  1  0.96852767  0.93990838  0.65206148  1
  O  O43  1  0.06009162  0.03147233  0.84793852  1
  O  O44  1  0.31001881  0.78583669  0.34719385  1
  O  O45  1  0.21416331  0.68998119  0.15280615  1
  O  O46  1  0.68998119  0.21416331  0.65280615  1
  O  O47  1  0.78583669  0.31001881  0.84719385  1
  O  O48  1  0.03002157  0.27426077  0.94398787  1
  O  O49  1  0.72573923  0.96997843  0.55601213  1
  O  O50  1  0.96997843  0.72573923  0.05601213  1
  O  O51  1  0.27426077  0.03002157  0.44398787  1
  O  O52  1  0.93580822  0.69213363  0.21408866  1
  O  O53  1  0.30786637  0.06419178  0.28591134  1
  O  O54  1  0.06419178  0.30786637  0.78591134  1
  O  O55  1  0.69213363  0.93580822  0.71408866  1
  F  F56  1  0.96851840  0.28964050  0.18441960  1
  F  F57  1  0.71035950  0.03148160  0.31558040  1
  F  F58  1  0.03148160  0.71035950  0.81558040  1
  F  F59  1  0.28964050  0.96851840  0.68441960  1
  F  F60  1  0.28473321  0.45699605  0.31279205  1
  F  F61  1  0.54300395  0.71526679  0.18720795  1
  F  F62  1  0.71526679  0.54300395  0.68720795  1
  F  F63  1  0.45699605  0.28473321  0.81279205  1
