# generated using pymatgen
data_Bi4Ir
_symmetry_space_group_name_H-M   'P 1'
_cell_length_a   7.35493712
_cell_length_b   15.58460200
_cell_length_c   15.58460212
_cell_angle_alpha   117.57306763
_cell_angle_beta   99.05091098
_cell_angle_gamma   99.05091105
_symmetry_Int_Tables_number   1
_chemical_formula_structural   Bi4Ir
_chemical_formula_sum   'Bi36 Ir9'
_cell_volume   1508.75347868
_cell_formula_units_Z   9
loop_
 _symmetry_equiv_pos_site_id
 _symmetry_equiv_pos_as_xyz
  1  'x, y, z'
loop_
 _atom_site_type_symbol
 _atom_site_label
 _atom_site_symmetry_multiplicity
 _atom_site_fract_x
 _atom_site_fract_y
 _atom_site_fract_z
 _atom_site_occupancy
  Bi  Bi0  1  0.36693277  0.41634619  0.11792718  1
  Bi  Bi1  1  0.24900559  0.88207282  0.29841901  1
  Bi  Bi2  1  0.95058658  0.70158099  0.58365381  1
  Bi  Bi3  1  0.36693277  0.11792718  0.41634619  1
  Bi  Bi4  1  0.95058658  0.58365381  0.70158099  1
  Bi  Bi5  1  0.24900559  0.29841901  0.88207282  1
  Bi  Bi6  1  0.63306723  0.58365381  0.88207282  1
  Bi  Bi7  1  0.75099441  0.11792718  0.70158099  1
  Bi  Bi8  1  0.04941342  0.29841901  0.41634619  1
  Bi  Bi9  1  0.63306723  0.88207282  0.58365381  1
  Bi  Bi10  1  0.04941342  0.41634619  0.29841901  1
  Bi  Bi11  1  0.75099441  0.70158099  0.11792718  1
  Bi  Bi12  1  0.30643412  0.63599888  0.12501726  1
  Bi  Bi13  1  0.18141686  0.87498274  0.51098161  1
  Bi  Bi14  1  0.67043524  0.48901839  0.36400112  1
  Bi  Bi15  1  0.30643412  0.12501726  0.63599888  1
  Bi  Bi16  1  0.67043524  0.36400112  0.48901839  1
  Bi  Bi17  1  0.18141686  0.51098161  0.87498274  1
  Bi  Bi18  1  0.69356588  0.36400112  0.87498274  1
  Bi  Bi19  1  0.81858314  0.12501726  0.48901839  1
  Bi  Bi20  1  0.32956476  0.51098161  0.63599888  1
  Bi  Bi21  1  0.69356588  0.87498274  0.36400112  1
  Bi  Bi22  1  0.32956476  0.63599888  0.51098161  1
  Bi  Bi23  1  0.81858314  0.48901839  0.12501726  1
  Bi  Bi24  1  0.79856219  0.17957939  0.17957939  1
  Bi  Bi25  1  0.61898280  0.82042061  1.00000000  1
  Bi  Bi26  1  0.61898280  1.00000000  0.82042061  1
  Bi  Bi27  1  0.20143781  0.82042061  0.82042061  1
  Bi  Bi28  1  0.38101720  0.17957939  0.00000000  1
  Bi  Bi29  1  0.38101720  0.00000000  0.17957939  1
  Bi  Bi30  1  0.57166247  0.73952004  0.73952004  1
  Bi  Bi31  1  0.83214243  0.26047996  -0.00000000  1
  Bi  Bi32  1  0.83214243  -0.00000000  0.26047996  1
  Bi  Bi33  1  0.42833753  0.26047996  0.26047996  1
  Bi  Bi34  1  0.16785757  0.73952004  0.00000000  1
  Bi  Bi35  1  0.16785757  0.00000000  0.73952004  1
  Ir  Ir36  1  0.33078251  0.83078251  0.66156503  1
  Ir  Ir37  1  0.66921749  0.33843497  0.16921749  1
  Ir  Ir38  1  0.50000000  0.83078251  0.16921749  1
  Ir  Ir39  1  0.33078251  0.66156503  0.83078251  1
  Ir  Ir40  1  0.50000000  0.16921749  0.83078251  1
  Ir  Ir41  1  0.66921749  0.16921749  0.33843497  1
  Ir  Ir42  1  0.50000000  0.50000000  -0.00000000  1
  Ir  Ir43  1  0.50000000  -0.00000000  0.50000000  1
  Ir  Ir44  1  -0.00000000  0.50000000  0.50000000  1
