# generated using pymatgen
data_Ac3Si
_symmetry_space_group_name_H-M   'P 1'
_cell_length_a   7.58504008
_cell_length_b   7.58503986
_cell_length_c   5.54207422
_cell_angle_alpha   90.00000000
_cell_angle_beta   90.00000000
_cell_angle_gamma   120.00000401
_symmetry_Int_Tables_number   1
_chemical_formula_structural   Ac3Si
_chemical_formula_sum   'Ac6 Si2'
_cell_volume   276.13324652
_cell_formula_units_Z   2
loop_
 _symmetry_equiv_pos_site_id
 _symmetry_equiv_pos_as_xyz
  1  'x, y, z'
loop_
 _atom_site_type_symbol
 _atom_site_label
 _atom_site_symmetry_multiplicity
 _atom_site_fract_x
 _atom_site_fract_y
 _atom_site_fract_z
 _atom_site_occupancy
  Ac  Ac0  1  0.18118374  0.36236748  0.24999900  1
  Ac  Ac1  1  0.63763252  0.81881626  0.24999900  1
  Ac  Ac2  1  0.18118374  0.81881626  0.24999900  1
  Ac  Ac3  1  0.81881726  0.63763352  0.75000000  1
  Ac  Ac4  1  0.36236748  0.18118474  0.75000000  1
  Ac  Ac5  1  0.81881726  0.18118474  0.75000000  1
  Si  Si6  1  0.33333300  0.66666600  0.75000000  1
  Si  Si7  1  0.66666700  0.33333300  0.24999900  1
