# generated using pymatgen
data_BaDy2Si3O10
_symmetry_space_group_name_H-M   'P 1'
_cell_length_a   5.45656049
_cell_length_b   6.93313904
_cell_length_c   12.30267883
_cell_angle_alpha   90.00000000
_cell_angle_beta   90.00000000
_cell_angle_gamma   106.33234862
_symmetry_Int_Tables_number   1
_chemical_formula_structural   BaDy2Si3O10
_chemical_formula_sum   'Ba2 Dy4 Si6 O20'
_cell_volume   446.64238605
_cell_formula_units_Z   2
loop_
 _symmetry_equiv_pos_site_id
 _symmetry_equiv_pos_as_xyz
  1  'x, y, z'
loop_
 _atom_site_type_symbol
 _atom_site_label
 _atom_site_symmetry_multiplicity
 _atom_site_fract_x
 _atom_site_fract_y
 _atom_site_fract_z
 _atom_site_occupancy
  Ba  Ba0  1  0.23758136  0.98211897  0.75000000  1
  Ba  Ba1  1  0.76241864  0.01788103  0.25000000  1
  Dy  Dy2  1  0.83970332  0.31463112  0.59844822  1
  Dy  Dy3  1  0.16029668  0.68536888  0.09844822  1
  Dy  Dy4  1  0.16029668  0.68536888  0.40155178  1
  Dy  Dy5  1  0.83970332  0.31463112  0.90155178  1
  Si  Si6  1  0.41624768  0.51065258  0.75000000  1
  Si  Si7  1  0.58375232  0.48934742  0.25000000  1
  Si  Si8  1  0.69608310  0.78632541  0.56228138  1
  Si  Si9  1  0.30391690  0.21367459  0.06228138  1
  Si  Si10  1  0.30391690  0.21367459  0.43771862  1
  Si  Si11  1  0.69608310  0.78632541  0.93771862  1
  O  O12  1  0.62649782  0.38398968  0.75000000  1
  O  O13  1  0.37350218  0.61601032  0.25000000  1
  O  O14  1  0.12221681  0.36655415  0.75000000  1
  O  O15  1  0.87778319  0.63344585  0.25000000  1
  O  O16  1  0.45105027  0.66071639  0.64285582  1
  O  O17  1  0.54894973  0.33928361  0.14285582  1
  O  O18  1  0.54894973  0.33928361  0.35714418  1
  O  O19  1  0.45105027  0.66071639  0.85714418  1
  O  O20  1  0.56796085  0.80910892  0.44587230  1
  O  O21  1  0.43203915  0.19089108  0.94587230  1
  O  O22  1  0.43203915  0.19089108  0.55412770  1
  O  O23  1  0.56796085  0.80910892  0.05412770  1
  O  O24  1  0.83294413  0.99676192  0.62390391  1
  O  O25  1  0.16705587  0.00323808  0.12390391  1
  O  O26  1  0.16705587  0.00323808  0.37609609  1
  O  O27  1  0.83294413  0.99676192  0.87609609  1
  O  O28  1  0.89934363  0.64911518  0.55197387  1
  O  O29  1  0.10065637  0.35088482  0.05197387  1
  O  O30  1  0.10065637  0.35088482  0.44802613  1
  O  O31  1  0.89934363  0.64911518  0.94802613  1
