# generated using pymatgen
data_Th(Se2O5)2
_symmetry_space_group_name_H-M   'P 1'
_cell_length_a   12.07859610
_cell_length_b   12.61361199
_cell_length_c   13.25522092
_cell_angle_alpha   90.00000000
_cell_angle_beta   90.00000000
_cell_angle_gamma   90.00000000
_symmetry_Int_Tables_number   1
_chemical_formula_structural   Th(Se2O5)2
_chemical_formula_sum   'Th8 Se32 O80'
_cell_volume   2019.49553264
_cell_formula_units_Z   8
loop_
 _symmetry_equiv_pos_site_id
 _symmetry_equiv_pos_as_xyz
  1  'x, y, z'
loop_
 _atom_site_type_symbol
 _atom_site_label
 _atom_site_symmetry_multiplicity
 _atom_site_fract_x
 _atom_site_fract_y
 _atom_site_fract_z
 _atom_site_occupancy
  Th  Th0  1  0.74436485  0.79014023  0.23257341  1
  Th  Th1  1  0.75563515  0.29014023  0.76742659  1
  Th  Th2  1  0.24436485  0.20985977  0.26742659  1
  Th  Th3  1  0.25563515  0.70985977  0.73257341  1
  Th  Th4  1  0.25563515  0.20985977  0.76742659  1
  Th  Th5  1  0.24436485  0.70985977  0.23257341  1
  Th  Th6  1  0.75563515  0.79014023  0.73257341  1
  Th  Th7  1  0.74436485  0.29014023  0.26742659  1
  Se  Se8  1  0.76336474  0.01322341  0.41939073  1
  Se  Se9  1  0.73663526  0.51322341  0.58060927  1
  Se  Se10  1  0.26336474  0.98677659  0.08060927  1
  Se  Se11  1  0.23663526  0.48677659  0.91939073  1
  Se  Se12  1  0.23663526  0.98677659  0.58060927  1
  Se  Se13  1  0.26336474  0.48677659  0.41939073  1
  Se  Se14  1  0.73663526  0.01322341  0.91939073  1
  Se  Se15  1  0.76336474  0.51322341  0.08060927  1
  Se  Se16  1  0.51183903  0.76389171  0.54010111  1
  Se  Se17  1  0.98816097  0.26389171  0.45989889  1
  Se  Se18  1  0.01183903  0.23610829  0.95989889  1
  Se  Se19  1  0.48816097  0.73610829  0.04010111  1
  Se  Se20  1  0.48816097  0.23610829  0.45989889  1
  Se  Se21  1  0.01183903  0.73610829  0.54010111  1
  Se  Se22  1  0.98816097  0.76389171  0.04010111  1
  Se  Se23  1  0.51183903  0.26389171  0.95989889  1
  Se  Se24  1  0.88681976  0.04606515  0.63156854  1
  Se  Se25  1  0.61318024  0.54606515  0.36843146  1
  Se  Se26  1  0.38681976  0.95393485  0.86843146  1
  Se  Se27  1  0.11318024  0.45393485  0.13156854  1
  Se  Se28  1  0.11318024  0.95393485  0.36843146  1
  Se  Se29  1  0.38681976  0.45393485  0.63156854  1
  Se  Se30  1  0.61318024  0.04606515  0.13156854  1
  Se  Se31  1  0.88681976  0.54606515  0.86843146  1
  Se  Se32  1  0.45486768  0.90328415  0.34769408  1
  Se  Se33  1  0.04513232  0.40328415  0.65230592  1
  Se  Se34  1  0.95486768  0.09671585  0.15230592  1
  Se  Se35  1  0.54513232  0.59671585  0.84769408  1
  Se  Se36  1  0.54513232  0.09671585  0.65230592  1
  Se  Se37  1  0.95486768  0.59671585  0.34769408  1
  Se  Se38  1  0.04513232  0.90328415  0.84769408  1
  Se  Se39  1  0.45486768  0.40328415  0.15230592  1
  O  O40  1  0.77709392  0.96438422  0.64857436  1
  O  O41  1  0.72290608  0.46438422  0.35142564  1
  O  O42  1  0.27709392  0.03561578  0.85142564  1
  O  O43  1  0.22290608  0.53561578  0.14857436  1
  O  O44  1  0.22290608  0.03561578  0.35142564  1
  O  O45  1  0.27709392  0.53561578  0.64857436  1
  O  O46  1  0.72290608  0.96438422  0.14857436  1
  O  O47  1  0.77709392  0.46438422  0.85142564  1
  O  O48  1  0.82200148  0.91203795  0.35382422  1
  O  O49  1  0.67799852  0.41203795  0.64617578  1
  O  O50  1  0.32200148  0.08796205  0.14617578  1
  O  O51  1  0.17799852  0.58796205  0.85382422  1
  O  O52  1  0.17799852  0.08796205  0.64617578  1
  O  O53  1  0.32200148  0.58796205  0.35382422  1
  O  O54  1  0.67799852  0.91203795  0.85382422  1
  O  O55  1  0.82200148  0.41203795  0.14617578  1
  O  O56  1  0.59253838  0.89565601  0.32136047  1
  O  O57  1  0.90746162  0.39565601  0.67863953  1
  O  O58  1  0.09253838  0.10434399  0.17863953  1
  O  O59  1  0.40746162  0.60434399  0.82136047  1
  O  O60  1  0.40746162  0.10434399  0.67863953  1
  O  O61  1  0.09253838  0.60434399  0.32136047  1
  O  O62  1  0.90746162  0.89565601  0.82136047  1
  O  O63  1  0.59253838  0.39565601  0.17863953  1
  O  O64  1  0.45314481  0.88866070  0.48709233  1
  O  O65  1  0.04685519  0.38866070  0.51290767  1
  O  O66  1  0.95314481  0.11133930  0.01290767  1
  O  O67  1  0.54685519  0.61133930  0.98709233  1
  O  O68  1  0.54685519  0.11133930  0.51290767  1
  O  O69  1  0.95314481  0.61133930  0.48709233  1
  O  O70  1  0.04685519  0.88866070  0.98709233  1
  O  O71  1  0.45314481  0.38866070  0.01290767  1
  O  O72  1  0.89232777  0.04578340  0.49343041  1
  O  O73  1  0.60767223  0.54578340  0.50656959  1
  O  O74  1  0.39232777  0.95421660  0.00656959  1
  O  O75  1  0.10767223  0.45421660  0.99343041  1
  O  O76  1  0.10767223  0.95421660  0.50656959  1
  O  O77  1  0.39232777  0.45421660  0.49343041  1
  O  O78  1  0.60767223  0.04578340  0.99343041  1
  O  O79  1  0.89232777  0.54578340  0.00656959  1
  O  O80  1  0.90595473  0.71738822  0.31468297  1
  O  O81  1  0.59404527  0.21738822  0.68531703  1
  O  O82  1  0.40595473  0.28261178  0.18531703  1
  O  O83  1  0.09404527  0.78261178  0.81468297  1
  O  O84  1  0.09404527  0.28261178  0.68531703  1
  O  O85  1  0.40595473  0.78261178  0.31468297  1
  O  O86  1  0.59404527  0.71738822  0.81468297  1
  O  O87  1  0.90595473  0.21738822  0.18531703  1
  O  O88  1  0.83514117  0.17032419  0.64984947  1
  O  O89  1  0.66485883  0.67032419  0.35015053  1
  O  O90  1  0.33514117  0.82967581  0.85015053  1
  O  O91  1  0.16485883  0.32967581  0.14984947  1
  O  O92  1  0.16485883  0.82967581  0.35015053  1
  O  O93  1  0.33514117  0.32967581  0.64984947  1
  O  O94  1  0.66485883  0.17032419  0.14984947  1
  O  O95  1  0.83514117  0.67032419  0.85015053  1
  O  O96  1  0.88825650  0.82146715  0.11153312  1
  O  O97  1  0.61174350  0.32146715  0.88846688  1
  O  O98  1  0.38825650  0.17853285  0.38846688  1
  O  O99  1  0.11174350  0.67853285  0.61153312  1
  O  O100  1  0.11174350  0.17853285  0.88846688  1
  O  O101  1  0.38825650  0.67853285  0.11153312  1
  O  O102  1  0.61174350  0.82146715  0.61153312  1
  O  O103  1  0.88825650  0.32146715  0.38846688  1
  O  O104  1  0.59173171  0.76490263  0.12227324  1
  O  O105  1  0.90826829  0.26490263  0.87772676  1
  O  O106  1  0.09173171  0.23509737  0.37772676  1
  O  O107  1  0.40826829  0.73509737  0.62227324  1
  O  O108  1  0.40826829  0.23509737  0.87772676  1
  O  O109  1  0.09173171  0.73509737  0.12227324  1
  O  O110  1  0.90826829  0.76490263  0.62227324  1
  O  O111  1  0.59173171  0.26490263  0.37772676  1
  O  O112  1  0.77401684  0.11782782  0.34058444  1
  O  O113  1  0.72598316  0.61782782  0.65941556  1
  O  O114  1  0.27401684  0.88217218  0.15941556  1
  O  O115  1  0.22598316  0.38217218  0.84058444  1
  O  O116  1  0.22598316  0.88217218  0.65941556  1
  O  O117  1  0.27401684  0.38217218  0.34058444  1
  O  O118  1  0.72598316  0.11782782  0.84058444  1
  O  O119  1  0.77401684  0.61782782  0.15941556  1
