# generated using pymatgen
data_Li2Bi12S4O31
_symmetry_space_group_name_H-M   'P 1'
_cell_length_a   11.41205621
_cell_length_b   11.55301302
_cell_length_c   23.23748421
_cell_angle_alpha   90.00000000
_cell_angle_beta   90.00000000
_cell_angle_gamma   90.00001218
_symmetry_Int_Tables_number   1
_chemical_formula_structural   Li2Bi12S4O31
_chemical_formula_sum   'Li8 Bi48 S16 O124'
_cell_volume   3063.71436278
_cell_formula_units_Z   4
loop_
 _symmetry_equiv_pos_site_id
 _symmetry_equiv_pos_as_xyz
  1  'x, y, z'
loop_
 _atom_site_type_symbol
 _atom_site_label
 _atom_site_symmetry_multiplicity
 _atom_site_fract_x
 _atom_site_fract_y
 _atom_site_fract_z
 _atom_site_occupancy
  Li  Li0  1  0.75782926  0.49457879  0.24694805  1
  Li  Li1  1  0.25782912  0.50542109  0.25305197  1
  Li  Li2  1  0.24217074  0.00542121  0.74694805  1
  Li  Li3  1  0.74217088  0.99457891  0.75305197  1
  Li  Li4  1  0.99265660  0.99148875  0.75325078  1
  Li  Li5  1  0.49265671  0.00851125  0.74674921  1
  Li  Li6  1  0.00734340  0.50851125  0.25325078  1
  Li  Li7  1  0.50734329  0.49148875  0.24674921  1
  Bi  Bi8  1  0.87027533  0.10704263  0.95598714  1
  Bi  Bi9  1  0.37027539  0.89295769  0.54401274  1
  Bi  Bi10  1  0.12972467  0.39295737  0.45598714  1
  Bi  Bi11  1  0.62972461  0.60704231  0.04401274  1
  Bi  Bi12  1  0.62782384  0.09346348  0.06048865  1
  Bi  Bi13  1  0.12782385  0.90653670  0.43951133  1
  Bi  Bi14  1  0.37217616  0.40653652  0.56048865  1
  Bi  Bi15  1  0.87217615  0.59346330  0.93951133  1
  Bi  Bi16  1  0.37144253  0.10883304  0.94850994  1
  Bi  Bi17  1  0.87144248  0.89116721  0.55149005  1
  Bi  Bi18  1  0.62855747  0.39116696  0.44850994  1
  Bi  Bi19  1  0.12855752  0.60883279  0.05149005  1
  Bi  Bi20  1  0.61800276  0.38258187  0.93476352  1
  Bi  Bi21  1  0.11800273  0.61741808  0.56523646  1
  Bi  Bi22  1  0.38199724  0.11741813  0.43476352  1
  Bi  Bi23  1  0.88199727  0.88258192  0.06523646  1
  Bi  Bi24  1  0.15583546  0.10992125  0.06403612  1
  Bi  Bi25  1  0.65583553  0.89007883  0.43596382  1
  Bi  Bi26  1  0.84416454  0.39007875  0.56403612  1
  Bi  Bi27  1  0.34416447  0.60992117  0.93596382  1
  Bi  Bi28  1  0.62301892  0.85918708  0.95030220  1
  Bi  Bi29  1  0.12301899  0.14081316  0.54969780  1
  Bi  Bi30  1  0.37698108  0.64081292  0.45030220  1
  Bi  Bi31  1  0.87698101  0.35918684  0.04969780  1
  Bi  Bi32  1  0.11650250  0.36935695  0.94257264  1
  Bi  Bi33  1  0.61650262  0.63064303  0.55742736  1
  Bi  Bi34  1  0.88349750  0.13064305  0.44257264  1
  Bi  Bi35  1  0.38349738  0.86935697  0.05742736  1
  Bi  Bi36  1  0.36955912  0.10221967  0.17511097  1
  Bi  Bi37  1  0.86955905  0.89777988  0.32488901  1
  Bi  Bi38  1  0.63044088  0.39778033  0.67511097  1
  Bi  Bi39  1  0.13044095  0.60222012  0.82488901  1
  Bi  Bi40  1  0.36795078  0.33823335  0.04906503  1
  Bi  Bi41  1  0.86795094  0.66176663  0.45093484  1
  Bi  Bi42  1  0.63204922  0.16176665  0.54906503  1
  Bi  Bi43  1  0.13204906  0.83823337  0.95093484  1
  Bi  Bi44  1  0.12380190  0.40941962  0.68560726  1
  Bi  Bi45  1  0.62380177  0.59058047  0.81439263  1
  Bi  Bi46  1  0.87619810  0.09058038  0.18560726  1
  Bi  Bi47  1  0.37619823  0.90941953  0.31439263  1
  Bi  Bi48  1  0.37420367  0.38936863  0.80520067  1
  Bi  Bi49  1  0.87420354  0.61063139  0.69479942  1
  Bi  Bi50  1  0.62579633  0.11063137  0.30520067  1
  Bi  Bi51  1  0.12579646  0.88936861  0.19479942  1
  Bi  Bi52  1  0.62035250  0.89308855  0.19088919  1
  Bi  Bi53  1  0.12035278  0.10691149  0.30911081  1
  Bi  Bi54  1  0.37964750  0.60691145  0.69088919  1
  Bi  Bi55  1  0.87964722  0.39308851  0.80911081  1
  S  S56  1  0.11686015  0.18975776  0.82579071  1
  S  S57  1  0.61686056  0.81024210  0.67420995  1
  S  S58  1  0.88313985  0.31024224  0.32579071  1
  S  S59  1  0.38313944  0.68975790  0.17420995  1
  S  S60  1  0.10870158  0.33055742  0.16596594  1
  S  S61  1  0.60870185  0.66944197  0.33403387  1
  S  S62  1  0.89129842  0.16944258  0.66596594  1
  S  S63  1  0.39129815  0.83055803  0.83403387  1
  S  S64  1  0.60876754  0.14880589  0.84690408  1
  S  S65  1  0.10876713  0.85119321  0.65309661  1
  S  S66  1  0.39123246  0.35119411  0.34690408  1
  S  S67  1  0.89123287  0.64880679  0.15309661  1
  S  S68  1  0.60217807  0.32730957  0.15698421  1
  S  S69  1  0.10217663  0.67268985  0.34301545  1
  S  S70  1  0.39782193  0.17269043  0.65698421  1
  S  S71  1  0.89782337  0.82731015  0.84301545  1
  O  O72  1  0.22879540  0.20319391  0.85846245  1
  O  O73  1  0.72879469  0.79680630  0.64153740  1
  O  O74  1  0.77120460  0.29680609  0.35846245  1
  O  O75  1  0.27120531  0.70319370  0.14153740  1
  O  O76  1  0.10279350  0.29186406  0.78648742  1
  O  O77  1  0.60279371  0.70813481  0.71351296  1
  O  O78  1  0.89720650  0.20813594  0.28648742  1
  O  O79  1  0.39720629  0.79186519  0.21351296  1
  O  O80  1  0.01566095  0.19029012  0.86670974  1
  O  O81  1  0.51566132  0.80971007  0.63329054  1
  O  O82  1  0.98433905  0.30970988  0.36670974  1
  O  O83  1  0.48433868  0.69028993  0.13329054  1
  O  O84  1  0.11826563  0.08020979  0.79248148  1
  O  O85  1  0.61826581  0.91979037  0.70751840  1
  O  O86  1  0.88173437  0.41979021  0.29248148  1
  O  O87  1  0.38173419  0.58020963  0.20751840  1
  O  O88  1  0.98065688  0.30922349  0.15862739  1
  O  O89  1  0.48065809  0.69077662  0.34137276  1
  O  O90  1  0.01934312  0.19077651  0.65862739  1
  O  O91  1  0.51934191  0.80922338  0.84137276  1
  O  O92  1  0.12917996  0.42463364  0.20845645  1
  O  O93  1  0.62918012  0.57536537  0.29154307  1
  O  O94  1  0.87082004  0.07536636  0.70845645  1
  O  O95  1  0.37081988  0.92463463  0.79154307  1
  O  O96  1  0.16495801  0.22039901  0.18648374  1
  O  O97  1  0.66495786  0.77960099  0.31351646  1
  O  O98  1  0.83504199  0.27960099  0.68648374  1
  O  O99  1  0.33504214  0.72039901  0.81351646  1
  O  O100  1  0.15858351  0.36413016  0.10830111  1
  O  O101  1  0.65858311  0.63586993  0.39169878  1
  O  O102  1  0.84141649  0.13586984  0.60830111  1
  O  O103  1  0.34141689  0.86413007  0.89169878  1
  O  O104  1  0.69685585  0.24463263  0.84566911  1
  O  O105  1  0.19685579  0.75536770  0.65433076  1
  O  O106  1  0.30314415  0.25536737  0.34566911  1
  O  O107  1  0.80314421  0.74463230  0.15433076  1
  O  O108  1  0.48752417  0.19890169  0.85132139  1
  O  O109  1  0.98752426  0.80109833  0.64867833  1
  O  O110  1  0.51247583  0.30109831  0.35132139  1
  O  O111  1  0.01247574  0.69890167  0.14867833  1
  O  O112  1  0.61805001  0.07957838  0.79345104  1
  O  O113  1  0.11804994  0.92042212  0.70654928  1
  O  O114  1  0.38194999  0.42042162  0.29345104  1
  O  O115  1  0.88195006  0.57957788  0.20654928  1
  O  O116  1  0.62908881  0.07653271  0.89929165  1
  O  O117  1  0.12908856  0.92346689  0.60070876  1
  O  O118  1  0.37091119  0.42346729  0.39929165  1
  O  O119  1  0.87091144  0.57653311  0.10070876  1
  O  O120  1  0.47153292  0.31406730  0.15859879  1
  O  O121  1  0.97153129  0.68593266  0.34140103  1
  O  O122  1  0.52846708  0.18593270  0.65859879  1
  O  O123  1  0.02846871  0.81406734  0.84140103  1
  O  O124  1  0.63725326  0.41093114  0.20251080  1
  O  O125  1  0.13725336  0.58906903  0.29748940  1
  O  O126  1  0.36274674  0.08906886  0.70251080  1
  O  O127  1  0.86274664  0.91093097  0.79748940  1
  O  O128  1  0.63742670  0.36850022  0.09848315  1
  O  O129  1  0.13742639  0.63150057  0.40151625  1
  O  O130  1  0.36257330  0.13149978  0.59848315  1
  O  O131  1  0.86257361  0.86849943  0.90151625  1
  O  O132  1  0.65714848  0.21127109  0.16786420  1
  O  O133  1  0.15714886  0.78872824  0.33213581  1
  O  O134  1  0.34285152  0.28872891  0.66786420  1
  O  O135  1  0.84285114  0.71127176  0.83213581  1
  O  O136  1  0.24947609  0.99897200  0.25793166  1
  O  O137  1  0.74947619  0.00102806  0.24206830  1
  O  O138  1  0.75052391  0.50102800  0.75793166  1
  O  O139  1  0.25052381  0.49897194  0.74206830  1
  O  O140  1  0.98113269  0.01000263  0.01347062  1
  O  O141  1  0.48113270  0.98999739  0.48652935  1
  O  O142  1  0.01886731  0.48999737  0.51347062  1
  O  O143  1  0.51886730  0.51000261  0.98652935  1
  O  O144  1  0.50915707  0.46396939  0.86484956  1
  O  O145  1  0.00915721  0.53603055  0.63515044  1
  O  O146  1  0.49084293  0.03603061  0.36484956  1
  O  O147  1  0.99084279  0.96396945  0.13515044  1
  O  O148  1  0.23737788  0.98536791  0.13539856  1
  O  O149  1  0.73737779  0.01463213  0.36460144  1
  O  O150  1  0.76262212  0.51463209  0.63539856  1
  O  O151  1  0.26262221  0.48536787  0.86460144  1
  O  O152  1  0.50380007  0.98850110  0.13191038  1
  O  O153  1  0.00380017  0.01149885  0.36808963  1
  O  O154  1  0.49619993  0.51149890  0.63191038  1
  O  O155  1  0.99619983  0.48850115  0.86808963  1
  O  O156  1  0.34028040  0.16430673  0.08711820  1
  O  O157  1  0.84028018  0.83569318  0.41288181  1
  O  O158  1  0.65971960  0.33569327  0.58711820  1
  O  O159  1  0.15971982  0.66430682  0.91288181  1
  O  O160  1  0.76946314  0.20297932  0.02001749  1
  O  O161  1  0.26946304  0.79702066  0.47998247  1
  O  O162  1  0.23053686  0.29702068  0.52001749  1
  O  O163  1  0.73053696  0.70297934  0.97998247  1
  O  O164  1  0.75117543  0.99529041  0.12105678  1
  O  O165  1  0.25117525  0.00470954  0.37894315  1
  O  O166  1  0.24882457  0.50470959  0.62105678  1
  O  O167  1  0.74882475  0.49529046  0.87894315  1
  O  O168  1  0.47934229  0.24566993  0.98808952  1
  O  O169  1  0.97934255  0.75433010  0.51191048  1
  O  O170  1  0.52065771  0.25433007  0.48808952  1
  O  O171  1  0.02065745  0.74566990  0.01191048  1
  O  O172  1  0.24555242  0.99293499  0.00560893  1
  O  O173  1  0.74555239  0.00706501  0.49439102  1
  O  O174  1  0.75444758  0.50706501  0.50560893  1
  O  O175  1  0.25444761  0.49293499  0.99439102  1
  O  O176  1  0.23615159  0.24334505  0.99444400  1
  O  O177  1  0.73615155  0.75665498  0.50555604  1
  O  O178  1  0.76384841  0.25665495  0.49444400  1
  O  O179  1  0.26384845  0.74334502  0.00555604  1
  O  O180  1  0.97637272  0.26165911  0.98333232  1
  O  O181  1  0.47637278  0.73834081  0.51666774  1
  O  O182  1  0.02362728  0.23834089  0.48333232  1
  O  O183  1  0.52362722  0.76165919  0.01666774  1
  O  O184  1  0.73258751  0.96847120  0.00495356  1
  O  O185  1  0.23258754  0.03152877  0.49504634  1
  O  O186  1  0.26741249  0.53152880  0.50495356  1
  O  O187  1  0.76741246  0.46847123  0.99504634  1
  O  O188  1  0.48842954  0.98577019  0.99721159  1
  O  O189  1  0.98842982  0.01422982  0.50278836  1
  O  O190  1  0.51157046  0.51422981  0.49721159  1
  O  O191  1  0.01157018  0.48577018  0.00278836  1
  O  O192  1  0.51141324  0.99200560  0.25351694  1
  O  O193  1  0.01141304  0.00799429  0.24648299  1
  O  O194  1  0.48858676  0.50799440  0.75351694  1
  O  O195  1  0.98858696  0.49200571  0.74648299  1
