# generated using pymatgen
data_KFeNi(PO4)2
_symmetry_space_group_name_H-M   'P 1'
_cell_length_a   5.16816444
_cell_length_b   9.32675538
_cell_length_c   14.63966217
_cell_angle_alpha   90.00000000
_cell_angle_beta   90.00000000
_cell_angle_gamma   104.70494820
_symmetry_Int_Tables_number   1
_chemical_formula_structural   KFeNi(PO4)2
_chemical_formula_sum   'K4 Fe4 Ni4 P8 O32'
_cell_volume   682.55056863
_cell_formula_units_Z   4
loop_
 _symmetry_equiv_pos_site_id
 _symmetry_equiv_pos_as_xyz
  1  'x, y, z'
loop_
 _atom_site_type_symbol
 _atom_site_label
 _atom_site_symmetry_multiplicity
 _atom_site_fract_x
 _atom_site_fract_y
 _atom_site_fract_z
 _atom_site_occupancy
  K  K0  1  0.18744277  0.31320524  0.82365303  1
  K  K1  1  0.81255723  0.18679476  0.32365303  1
  K  K2  1  0.81255723  0.68679476  0.17634697  1
  K  K3  1  0.18744277  0.81320524  0.67634697  1
  Fe  Fe4  1  0.77211950  0.11747977  0.62878078  1
  Fe  Fe5  1  0.22788050  0.38252023  0.12878078  1
  Fe  Fe6  1  0.22788050  0.88252023  0.37121922  1
  Fe  Fe7  1  0.77211950  0.61747977  0.87121922  1
  Ni  Ni8  1  0.24295223  0.46113096  0.54514707  1
  Ni  Ni9  1  0.75704777  0.03886904  0.04514707  1
  Ni  Ni10  1  0.75704777  0.53886904  0.45485293  1
  Ni  Ni11  1  0.24295223  0.96113096  0.95485293  1
  P  P12  1  0.74347314  0.46361796  0.67164600  1
  P  P13  1  0.25652686  0.03638204  0.17164600  1
  P  P14  1  0.25652686  0.53638204  0.32835400  1
  P  P15  1  0.74347314  0.96361796  0.82835400  1
  P  P16  1  0.30796108  0.17857681  0.50634966  1
  P  P17  1  0.69203892  0.32142319  0.00634966  1
  P  P18  1  0.69203892  0.82142319  0.49365034  1
  P  P19  1  0.30796108  0.67857681  0.99365034  1
  O  O20  1  0.88287068  0.05535511  0.74474779  1
  O  O21  1  0.11712932  0.44464489  0.24474779  1
  O  O22  1  0.11712932  0.94464489  0.25525221  1
  O  O23  1  0.88287068  0.55535511  0.75525221  1
  O  O24  1  0.76406018  0.30322192  0.68896379  1
  O  O25  1  0.23593982  0.19677808  0.18896379  1
  O  O26  1  0.23593982  0.69677808  0.31103621  1
  O  O27  1  0.76406018  0.80322192  0.81103621  1
  O  O28  1  0.91663517  0.53212501  0.58635670  1
  O  O29  1  0.08336483  0.96787499  0.08635670  1
  O  O30  1  0.08336483  0.46787499  0.41364330  1
  O  O31  1  0.91663517  0.03212501  0.91364330  1
  O  O32  1  0.44980263  0.47089425  0.66476379  1
  O  O33  1  0.55019737  0.02910575  0.16476379  1
  O  O34  1  0.55019737  0.52910575  0.33523621  1
  O  O35  1  0.44980263  0.97089425  0.83523621  1
  O  O36  1  0.50717057  0.32925414  0.48698896  1
  O  O37  1  0.49282943  0.17074586  0.98698896  1
  O  O38  1  0.49282943  0.67074586  0.51301104  1
  O  O39  1  0.50717057  0.82925414  0.01301104  1
  O  O40  1  0.05742396  0.22472138  0.54739430  1
  O  O41  1  0.94257604  0.27527862  0.04739430  1
  O  O42  1  0.94257604  0.77527862  0.45260570  1
  O  O43  1  0.05742396  0.72472138  0.95260570  1
  O  O44  1  0.41221797  0.08590939  0.57898861  1
  O  O45  1  0.58778203  0.41409061  0.07898861  1
  O  O46  1  0.58778203  0.91409061  0.42101139  1
  O  O47  1  0.41221797  0.58590939  0.92101139  1
  O  O48  1  0.22473045  0.08759500  0.41863328  1
  O  O49  1  0.77526955  0.41240500  0.91863328  1
  O  O50  1  0.77526955  0.91240500  0.58136672  1
  O  O51  1  0.22473045  0.58759500  0.08136672  1
