# generated using pymatgen
data_Na2Mo2Se2O11
_symmetry_space_group_name_H-M   'P 1'
_cell_length_a   6.64054601
_cell_length_b   9.06402848
_cell_length_c   9.57422069
_cell_angle_alpha   112.60407385
_cell_angle_beta   90.00000000
_cell_angle_gamma   111.48841977
_symmetry_Int_Tables_number   1
_chemical_formula_structural   Na2Mo2Se2O11
_chemical_formula_sum   'Na4 Mo4 Se4 O22'
_cell_volume   488.33212736
_cell_formula_units_Z   2
loop_
 _symmetry_equiv_pos_site_id
 _symmetry_equiv_pos_as_xyz
  1  'x, y, z'
loop_
 _atom_site_type_symbol
 _atom_site_label
 _atom_site_symmetry_multiplicity
 _atom_site_fract_x
 _atom_site_fract_y
 _atom_site_fract_z
 _atom_site_occupancy
  Na  Na0  1  0.50000000  0.50000000  0.00000000  1
  Na  Na1  1  0.00000000  0.50000000  0.50000000  1
  Na  Na2  1  0.75367178  0.00000000  0.25000000  1
  Na  Na3  1  0.24632822  0.00000000  0.75000000  1
  Mo  Mo4  1  0.82193074  0.20563938  0.72694719  1
  Mo  Mo5  1  0.61629136  0.79436062  0.77305281  1
  Mo  Mo6  1  0.17806926  0.79436062  0.27305281  1
  Mo  Mo7  1  0.38370864  0.20563938  0.22694719  1
  Se  Se8  1  0.41693785  0.33658199  0.61094313  1
  Se  Se9  1  0.08035586  0.66341801  0.88905687  1
  Se  Se10  1  0.58306215  0.66341801  0.38905687  1
  Se  Se11  1  0.91964414  0.33658199  0.11094313  1
  O  O12  1  0.82382553  0.11606401  0.53108212  1
  O  O13  1  0.70776152  0.88393599  0.96891788  1
  O  O14  1  0.17617447  0.88393599  0.46891788  1
  O  O15  1  0.29223848  0.11606401  0.03108212  1
  O  O16  1  0.06643579  0.21385675  0.80696898  1
  O  O17  1  0.85257903  0.78614325  0.69303102  1
  O  O18  1  0.93356421  0.78614325  0.19303102  1
  O  O19  1  0.14742097  0.21385675  0.30696898  1
  O  O20  1  0.62309353  0.00000000  0.75000000  1
  O  O21  1  0.37690647  0.00000000  0.25000000  1
  O  O22  1  0.51830693  0.54759581  0.76395695  1
  O  O23  1  0.97071113  0.45240419  0.73604305  1
  O  O24  1  0.48169307  0.45240419  0.23604305  1
  O  O25  1  0.02928887  0.54759581  0.26395695  1
  O  O26  1  0.51790727  0.24331637  0.70495233  1
  O  O27  1  0.27459090  0.75668363  0.79504767  1
  O  O28  1  0.48209273  0.75668363  0.29504767  1
  O  O29  1  0.72540910  0.24331637  0.20495233  1
  O  O30  1  0.58074130  0.35548388  0.47450062  1
  O  O31  1  0.22525742  0.64451612  0.02549938  1
  O  O32  1  0.41925870  0.64451612  0.52549938  1
  O  O33  1  0.77474258  0.35548388  0.97450062  1
