# generated using pymatgen
data_Ag3Sb4F24
_symmetry_space_group_name_H-M   'P 1'
_cell_length_a   10.98733410
_cell_length_b   10.98733410
_cell_length_c   10.98733410
_cell_angle_alpha   109.47122063
_cell_angle_beta   109.47122063
_cell_angle_gamma   109.47122063
_symmetry_Int_Tables_number   1
_chemical_formula_structural   Ag3Sb4F24
_chemical_formula_sum   'Ag6 Sb8 F48'
_cell_volume   1021.06902354
_cell_formula_units_Z   2
loop_
 _symmetry_equiv_pos_site_id
 _symmetry_equiv_pos_as_xyz
  1  'x, y, z'
loop_
 _atom_site_type_symbol
 _atom_site_label
 _atom_site_symmetry_multiplicity
 _atom_site_fract_x
 _atom_site_fract_y
 _atom_site_fract_z
 _atom_site_occupancy
  Ag  Ag0  1  0.62500000  0.25000000  0.37500000  1
  Ag  Ag1  1  0.87500000  0.75000000  0.12500000  1
  Ag  Ag2  1  0.25000000  0.37500000  0.62500000  1
  Ag  Ag3  1  0.75000000  0.12500000  0.87500000  1
  Ag  Ag4  1  0.37500000  0.62500000  0.25000000  1
  Ag  Ag5  1  0.12500000  0.87500000  0.75000000  1
  Sb  Sb6  1  -0.00000000  0.50000000  0.87681515  1
  Sb  Sb7  1  0.87681515  0.00000000  0.50000000  1
  Sb  Sb8  1  0.62318485  0.62318485  0.62318485  1
  Sb  Sb9  1  0.50000000  0.87681515  -0.00000000  1
  Sb  Sb10  1  0.37681515  0.00000000  0.50000000  1
  Sb  Sb11  1  -0.00000000  0.50000000  0.37681515  1
  Sb  Sb12  1  0.12318485  0.12318485  0.12318485  1
  Sb  Sb13  1  0.50000000  0.37681515  -0.00000000  1
  F  F14  1  0.16988512  0.61244066  0.07721295  1
  F  F15  1  0.96477229  0.88755934  0.55744446  1
  F  F16  1  0.53522771  0.59267217  0.42278705  1
  F  F17  1  0.33011488  0.90732783  0.94255554  1
  F  F18  1  0.57721295  0.11244066  0.66988512  1
  F  F19  1  0.05744446  0.38755934  0.46477229  1
  F  F20  1  0.92278705  0.09267217  0.03522771  1
  F  F21  1  0.44255554  0.40732783  0.83011488  1
  F  F22  1  0.61244066  0.07721295  0.16988512  1
  F  F23  1  0.88755934  0.55744446  0.96477229  1
  F  F24  1  0.59267217  0.42278705  0.53522771  1
  F  F25  1  0.90732783  0.94255554  0.33011488  1
  F  F26  1  0.11244066  0.66988512  0.57721295  1
  F  F27  1  0.38755934  0.46477229  0.05744446  1
  F  F28  1  0.09267217  0.03522771  0.92278705  1
  F  F29  1  0.40732783  0.83011488  0.44255554  1
  F  F30  1  0.07721295  0.16988512  0.61244066  1
  F  F31  1  0.55744446  0.96477229  0.88755934  1
  F  F32  1  0.42278705  0.53522771  0.59267217  1
  F  F33  1  0.94255554  0.33011488  0.90732783  1
  F  F34  1  0.66988512  0.57721295  0.11244066  1
  F  F35  1  0.46477229  0.05744446  0.38755934  1
  F  F36  1  0.03522771  0.92278705  0.09267217  1
  F  F37  1  0.83011488  0.44255554  0.40732783  1
  F  F38  1  0.82877016  0.38156604  0.68272751  1
  F  F39  1  0.80116147  0.11843396  0.44720412  1
  F  F40  1  0.69883853  0.64604265  0.81727249  1
  F  F41  1  0.67122984  0.85395735  0.05279588  1
  F  F42  1  0.18272751  0.88156604  0.32877016  1
  F  F43  1  0.94720412  0.61843396  0.30116147  1
  F  F44  1  0.31727249  0.14604265  0.19883853  1
  F  F45  1  0.55279588  0.35395735  0.17122984  1
  F  F46  1  0.38156604  0.68272751  0.82877016  1
  F  F47  1  0.11843396  0.44720412  0.80116147  1
  F  F48  1  0.64604265  0.81727249  0.69883853  1
  F  F49  1  0.85395735  0.05279588  0.67122984  1
  F  F50  1  0.88156604  0.32877016  0.18272751  1
  F  F51  1  0.61843396  0.30116147  0.94720412  1
  F  F52  1  0.14604265  0.19883853  0.31727249  1
  F  F53  1  0.35395735  0.17122984  0.55279588  1
  F  F54  1  0.68272751  0.82877016  0.38156604  1
  F  F55  1  0.44720412  0.80116147  0.11843396  1
  F  F56  1  0.81727249  0.69883853  0.64604265  1
  F  F57  1  0.05279588  0.67122984  0.85395735  1
  F  F58  1  0.32877016  0.18272751  0.88156604  1
  F  F59  1  0.30116147  0.94720412  0.61843396  1
  F  F60  1  0.19883853  0.31727249  0.14604265  1
  F  F61  1  0.17122984  0.55279588  0.35395735  1
