# generated using pymatgen
data_Rb3Bi2Br9
_symmetry_space_group_name_H-M   'P 1'
_cell_length_a   8.15905847
_cell_length_b   13.95659674
_cell_length_c   19.77903510
_cell_angle_alpha   90.56119826
_cell_angle_beta   90.00000000
_cell_angle_gamma   90.00000000
_symmetry_Int_Tables_number   1
_chemical_formula_structural   Rb3Bi2Br9
_chemical_formula_sum   'Rb12 Bi8 Br36'
_cell_volume   2252.18387083
_cell_formula_units_Z   4
loop_
 _symmetry_equiv_pos_site_id
 _symmetry_equiv_pos_as_xyz
  1  'x, y, z'
loop_
 _atom_site_type_symbol
 _atom_site_label
 _atom_site_symmetry_multiplicity
 _atom_site_fract_x
 _atom_site_fract_y
 _atom_site_fract_z
 _atom_site_occupancy
  Rb  Rb0  1  0.45869073  0.51191129  0.24493519  1
  Rb  Rb1  1  0.95869073  0.98808871  0.75506481  1
  Rb  Rb2  1  0.54130927  0.48808871  0.75506481  1
  Rb  Rb3  1  0.04130927  0.01191129  0.24493519  1
  Rb  Rb4  1  0.55148884  0.84446719  0.07936734  1
  Rb  Rb5  1  0.05148884  0.65553281  0.92063266  1
  Rb  Rb6  1  0.44851116  0.15553281  0.92063266  1
  Rb  Rb7  1  0.94851116  0.34446719  0.07936734  1
  Rb  Rb8  1  0.44095942  0.81939797  0.57264582  1
  Rb  Rb9  1  0.94095942  0.68060203  0.42735418  1
  Rb  Rb10  1  0.55904058  0.18060203  0.42735418  1
  Rb  Rb11  1  0.05904058  0.31939797  0.57264582  1
  Bi  Bi12  1  0.50875148  0.15952209  0.65818047  1
  Bi  Bi13  1  0.00875148  0.34047791  0.34181953  1
  Bi  Bi14  1  0.49124852  0.84047791  0.34181953  1
  Bi  Bi15  1  0.99124852  0.65952209  0.65818047  1
  Bi  Bi16  1  0.50144512  0.17358881  0.15910370  1
  Bi  Bi17  1  0.00144512  0.32641119  0.84089630  1
  Bi  Bi18  1  0.49855488  0.82641119  0.84089630  1
  Bi  Bi19  1  0.99855488  0.67358881  0.15910370  1
  Br  Br20  1  0.51760328  0.96028354  0.71995164  1
  Br  Br21  1  0.01760328  0.53971646  0.28004836  1
  Br  Br22  1  0.48239672  0.03971646  0.28004836  1
  Br  Br23  1  0.98239672  0.46028354  0.71995164  1
  Br  Br24  1  0.69474689  0.22961082  0.78296997  1
  Br  Br25  1  0.19474689  0.27038918  0.21703003  1
  Br  Br26  1  0.30525311  0.77038918  0.21703003  1
  Br  Br27  1  0.80525311  0.72961082  0.78296997  1
  Br  Br28  1  0.79678809  0.80209061  0.25326699  1
  Br  Br29  1  0.29678809  0.69790939  0.74673301  1
  Br  Br30  1  0.20321191  0.19790939  0.74673301  1
  Br  Br31  1  0.70321191  0.30209061  0.25326699  1
  Br  Br32  1  0.49496068  0.68487151  0.93710858  1
  Br  Br33  1  0.99496068  0.81512849  0.06289142  1
  Br  Br34  1  0.50503932  0.31512849  0.06289142  1
  Br  Br35  1  0.00503932  0.18487151  0.93710858  1
  Br  Br36  1  0.49967506  0.65926650  0.39750960  1
  Br  Br37  1  0.99967506  0.84073350  0.60249040  1
  Br  Br38  1  0.50032494  0.34073350  0.60249040  1
  Br  Br39  1  0.00032494  0.15926650  0.39750960  1
  Br  Br40  1  0.27808769  0.41421832  0.89386555  1
  Br  Br41  1  0.77808769  0.08578168  0.10613445  1
  Br  Br42  1  0.72191231  0.58578168  0.10613445  1
  Br  Br43  1  0.22191231  0.91421832  0.89386555  1
  Br  Br44  1  0.20559462  0.55529505  0.08404059  1
  Br  Br45  1  0.70559462  0.94470495  0.91595941  1
  Br  Br46  1  0.79440538  0.44470495  0.91595941  1
  Br  Br47  1  0.29440538  0.05529505  0.08404059  1
  Br  Br48  1  0.29253354  0.38737665  0.41056114  1
  Br  Br49  1  0.79253354  0.11262335  0.58943886  1
  Br  Br50  1  0.70746646  0.61262335  0.58943886  1
  Br  Br51  1  0.20746646  0.88737665  0.41056114  1
  Br  Br52  1  0.19618932  0.58737706  0.55826438  1
  Br  Br53  1  0.69618932  0.91262294  0.44173562  1
  Br  Br54  1  0.80381068  0.41262294  0.44173562  1
  Br  Br55  1  0.30381068  0.08737706  0.55826438  1
