# generated using pymatgen
data_Na2Pd(S4O13)2
_symmetry_space_group_name_H-M   'P 1'
_cell_length_a   7.24475718
_cell_length_b   9.61288271
_cell_length_c   16.35622599
_cell_angle_alpha   90.00000000
_cell_angle_beta   90.00000000
_cell_angle_gamma   101.14892683
_symmetry_Int_Tables_number   1
_chemical_formula_structural   Na2Pd(S4O13)2
_chemical_formula_sum   'Na4 Pd2 S16 O52'
_cell_volume   1117.59952407
_cell_formula_units_Z   2
loop_
 _symmetry_equiv_pos_site_id
 _symmetry_equiv_pos_as_xyz
  1  'x, y, z'
loop_
 _atom_site_type_symbol
 _atom_site_label
 _atom_site_symmetry_multiplicity
 _atom_site_fract_x
 _atom_site_fract_y
 _atom_site_fract_z
 _atom_site_occupancy
  Na  Na0  1  0.74361524  0.38768899  0.62295752  1
  Na  Na1  1  0.25638476  0.11231101  0.12295752  1
  Na  Na2  1  0.25638476  0.61231101  0.37704248  1
  Na  Na3  1  0.74361524  0.88768899  0.87704248  1
  Pd  Pd4  1  -0.00000000  0.50000000  0.00000000  1
  Pd  Pd5  1  -0.00000000  -0.00000000  0.50000000  1
  S  S6  1  0.21187649  0.24420955  0.61438036  1
  S  S7  1  0.78812351  0.25579045  0.11438036  1
  S  S8  1  0.78812351  0.75579045  0.38561964  1
  S  S9  1  0.21187649  0.74420955  0.88561964  1
  S  S10  1  0.15881305  0.20325243  0.79266232  1
  S  S11  1  0.84118695  0.29674757  0.29266232  1
  S  S12  1  0.84118695  0.79674757  0.20733768  1
  S  S13  1  0.15881305  0.70325243  0.70733768  1
  S  S14  1  0.45915929  0.19861385  0.90931531  1
  S  S15  1  0.54084071  0.30138615  0.40931531  1
  S  S16  1  0.54084071  0.80138615  0.09068469  1
  S  S17  1  0.45915929  0.69861385  0.59068469  1
  S  S18  1  0.70697039  0.46121378  0.85024440  1
  S  S19  1  0.29302961  0.03878622  0.35024440  1
  S  S20  1  0.29302961  0.53878622  0.14975560  1
  S  S21  1  0.70697039  0.96121378  0.64975560  1
  O  O22  1  0.39386820  0.33010656  0.62882152  1
  O  O23  1  0.60613180  0.16989344  0.12882152  1
  O  O24  1  0.60613180  0.66989344  0.37117848  1
  O  O25  1  0.39386820  0.83010656  0.87117848  1
  O  O26  1  0.22198681  0.12236376  0.55954425  1
  O  O27  1  0.77801319  0.37763624  0.05954425  1
  O  O28  1  0.77801319  0.87763624  0.44045575  1
  O  O29  1  0.22198681  0.62236376  0.94045575  1
  O  O30  1  0.05308699  0.31070662  0.60202461  1
  O  O31  1  0.94691301  0.18929338  0.10202461  1
  O  O32  1  0.94691301  0.68929338  0.39797539  1
  O  O33  1  0.05308699  0.81070662  0.89797539  1
  O  O34  1  0.15685539  0.14268560  0.70356613  1
  O  O35  1  0.84314461  0.35731440  0.20356613  1
  O  O36  1  0.84314461  0.85731440  0.29643387  1
  O  O37  1  0.15685539  0.64268560  0.79643387  1
  O  O38  1  0.01245823  0.11251173  0.83628199  1
  O  O39  1  0.98754177  0.38748827  0.33628199  1
  O  O40  1  0.98754177  0.88748827  0.16371801  1
  O  O41  1  0.01245823  0.61251173  0.66371801  1
  O  O42  1  0.18496773  0.35360606  0.79446326  1
  O  O43  1  0.81503227  0.14639394  0.29446326  1
  O  O44  1  0.81503227  0.64639394  0.20553674  1
  O  O45  1  0.18496773  0.85360606  0.70553674  1
  O  O46  1  0.36341614  0.15750725  0.82015293  1
  O  O47  1  0.63658386  0.34249275  0.32015293  1
  O  O48  1  0.63658386  0.84249275  0.17984707  1
  O  O49  1  0.36341614  0.65750725  0.67984707  1
  O  O50  1  0.31797651  0.17032525  0.97142579  1
  O  O51  1  0.68202349  0.32967475  0.47142579  1
  O  O52  1  0.68202349  0.82967475  0.02857421  1
  O  O53  1  0.31797651  0.67032525  0.52857421  1
  O  O54  1  0.61888254  0.13168450  0.90894056  1
  O  O55  1  0.38111746  0.36831550  0.40894056  1
  O  O56  1  0.38111746  0.86831550  0.09105944  1
  O  O57  1  0.61888254  0.63168450  0.59105944  1
  O  O58  1  0.51667438  0.36583551  0.90582000  1
  O  O59  1  0.48332562  0.13416449  0.40582000  1
  O  O60  1  0.48332562  0.63416449  0.09418000  1
  O  O61  1  0.51667438  0.86583551  0.59418000  1
  O  O62  1  0.68833824  0.39876476  0.77021613  1
  O  O63  1  0.31166176  0.10123524  0.27021613  1
  O  O64  1  0.31166176  0.60123524  0.22978387  1
  O  O65  1  0.68833824  0.89876476  0.72978387  1
  O  O66  1  0.67356652  0.60181708  0.86241556  1
  O  O67  1  0.32643348  0.89818292  0.36241556  1
  O  O68  1  0.32643348  0.39818292  0.13758444  1
  O  O69  1  0.67356652  0.10181708  0.63758444  1
  O  O70  1  0.87324195  0.42553952  0.89314527  1
  O  O71  1  0.12675805  0.07446048  0.39314527  1
  O  O72  1  0.12675805  0.57446048  0.10685473  1
  O  O73  1  0.87324195  0.92553952  0.60685473  1
