# generated using pymatgen
data_Dy3(Al3Ru)4
_symmetry_space_group_name_H-M   'P 1'
_cell_length_a   8.79915150
_cell_length_b   8.79915149
_cell_length_c   9.55373357
_cell_angle_alpha   90.00000000
_cell_angle_beta   90.00000000
_cell_angle_gamma   119.99999477
_symmetry_Int_Tables_number   1
_chemical_formula_structural   Dy3(Al3Ru)4
_chemical_formula_sum   'Dy6 Al24 Ru8'
_cell_volume   640.59769295
_cell_formula_units_Z   2
loop_
 _symmetry_equiv_pos_site_id
 _symmetry_equiv_pos_as_xyz
  1  'x, y, z'
loop_
 _atom_site_type_symbol
 _atom_site_label
 _atom_site_symmetry_multiplicity
 _atom_site_fract_x
 _atom_site_fract_y
 _atom_site_fract_z
 _atom_site_occupancy
  Dy  Dy0  1  0.80695227  0.61391442  0.75000000  1
  Dy  Dy1  1  0.80696214  0.19304773  0.75000000  1
  Dy  Dy2  1  0.38608558  0.19303786  0.75000000  1
  Dy  Dy3  1  0.19304773  0.38608558  0.25000000  1
  Dy  Dy4  1  0.19303786  0.80695227  0.25000000  1
  Dy  Dy5  1  0.61391442  0.80696214  0.25000000  1
  Al  Al6  1  0.43888599  0.87775558  0.75000000  1
  Al  Al7  1  0.43886960  0.56111401  0.75000000  1
  Al  Al8  1  0.12224442  0.56113040  0.75000000  1
  Al  Al9  1  0.56111401  0.12224442  0.25000000  1
  Al  Al10  1  0.56113040  0.43888599  0.25000000  1
  Al  Al11  1  0.87775558  0.43886960  0.25000000  1
  Al  Al12  1  0.67554953  0.83777917  0.57642759  1
  Al  Al13  1  0.16222964  0.32445047  0.57642759  1
  Al  Al14  1  0.16222083  0.83777036  0.57642759  1
  Al  Al15  1  0.32445047  0.16222083  0.42357241  1
  Al  Al16  1  0.83777036  0.67554953  0.42357241  1
  Al  Al17  1  0.83777917  0.16222964  0.42357241  1
  Al  Al18  1  0.32445047  0.16222083  0.07642759  1
  Al  Al19  1  0.83777036  0.67554953  0.07642759  1
  Al  Al20  1  0.83777917  0.16222964  0.07642759  1
  Al  Al21  1  0.67554953  0.83777917  0.92357241  1
  Al  Al22  1  0.16222964  0.32445047  0.92357241  1
  Al  Al23  1  0.16222083  0.83777036  0.92357241  1
  Al  Al24  1  0.33333300  0.66666700  0.48435401  1
  Al  Al25  1  0.66666700  0.33333300  0.51564599  1
  Al  Al26  1  0.66666700  0.33333300  0.98435401  1
  Al  Al27  1  0.33333300  0.66666700  0.01564599  1
  Al  Al28  1  0.00000000  0.00000000  0.75000000  1
  Al  Al29  1  0.00000000  0.00000000  0.25000000  1
  Ru  Ru30  1  0.00000000  0.00000000  0.50000000  1
  Ru  Ru31  1  0.00000000  0.00000000  0.00000000  1
  Ru  Ru32  1  0.50000000  0.00000000  0.50000000  1
  Ru  Ru33  1  0.50000000  0.50000000  0.50000000  1
  Ru  Ru34  1  0.00000000  0.50000000  0.50000000  1
  Ru  Ru35  1  0.50000000  0.00000000  0.00000000  1
  Ru  Ru36  1  0.50000000  0.50000000  0.00000000  1
  Ru  Ru37  1  0.00000000  0.50000000  0.00000000  1
