# generated using pymatgen
data_Sr5V3BrO12
_symmetry_space_group_name_H-M   'P 1'
_cell_length_a   7.38141293
_cell_length_b   10.45545742
_cell_length_c   10.45574075
_cell_angle_alpha   120.00103202
_cell_angle_beta   90.00000000
_cell_angle_gamma   90.00000000
_symmetry_Int_Tables_number   1
_chemical_formula_structural   Sr5V3BrO12
_chemical_formula_sum   'Sr10 V6 Br2 O24'
_cell_volume   698.81699859
_cell_formula_units_Z   2
loop_
 _symmetry_equiv_pos_site_id
 _symmetry_equiv_pos_as_xyz
  1  'x, y, z'
loop_
 _atom_site_type_symbol
 _atom_site_label
 _atom_site_symmetry_multiplicity
 _atom_site_fract_x
 _atom_site_fract_y
 _atom_site_fract_z
 _atom_site_occupancy
  Sr  Sr0  1  0.50247637  0.66663453  0.33332200  1
  Sr  Sr1  1  0.00247637  0.33336547  0.66667800  1
  Sr  Sr2  1  0.49752363  0.33336547  0.66667800  1
  Sr  Sr3  1  0.99752363  0.66663453  0.33332200  1
  Sr  Sr4  1  0.75000000  0.25915872  0.99943153  1
  Sr  Sr5  1  0.75000000  0.00054540  0.25973074  1
  Sr  Sr6  1  0.75000000  0.74027709  0.74082610  1
  Sr  Sr7  1  0.25000000  0.74084128  0.00056847  1
  Sr  Sr8  1  0.25000000  0.99945460  0.74026926  1
  Sr  Sr9  1  0.25000000  0.25972291  0.25917390  1
  V  V10  1  0.75000000  0.03453986  0.62856825  1
  V  V11  1  0.75000000  0.37139149  0.40591260  1
  V  V12  1  0.75000000  0.59404311  0.96546575  1
  V  V13  1  0.25000000  0.96546014  0.37143175  1
  V  V14  1  0.25000000  0.62860851  0.59408740  1
  V  V15  1  0.25000000  0.40595689  0.03453425  1
  Br  Br16  1  0.50000000  -0.00000000  0.00000000  1
  Br  Br17  1  -0.00000000  -0.00000000  0.00000000  1
  O  O18  1  0.75000000  0.84323658  0.51034713  1
  O  O19  1  0.75000000  0.48964136  0.33286816  1
  O  O20  1  0.75000000  0.66711354  0.15677219  1
  O  O21  1  0.25000000  0.15676342  0.48965287  1
  O  O22  1  0.25000000  0.51035864  0.66713184  1
  O  O23  1  0.25000000  0.33288646  0.84322781  1
  O  O24  1  0.75000000  0.13190556  0.53220825  1
  O  O25  1  0.75000000  0.46779392  0.59966724  1
  O  O26  1  0.75000000  0.40030555  0.86810638  1
  O  O27  1  0.25000000  0.86809444  0.46779175  1
  O  O28  1  0.25000000  0.53220608  0.40033276  1
  O  O29  1  0.25000000  0.59969445  0.13189362  1
  O  O30  1  0.56279918  0.09690186  0.74404026  1
  O  O31  1  0.56279536  0.25595536  0.35284584  1
  O  O32  1  0.56280109  0.64713312  0.90310473  1
  O  O33  1  0.06279918  0.90309814  0.25595974  1
  O  O34  1  0.06279536  0.74404464  0.64715416  1
  O  O35  1  0.06280109  0.35286688  0.09689527  1
  O  O36  1  0.43720082  0.90309814  0.25595974  1
  O  O37  1  0.43720464  0.74404464  0.64715416  1
  O  O38  1  0.43719891  0.35286688  0.09689527  1
  O  O39  1  0.93720082  0.09690186  0.74404026  1
  O  O40  1  0.93720464  0.25595536  0.35284584  1
  O  O41  1  0.93719891  0.64713312  0.90310473  1
