# generated using pymatgen
data_Na2Tm2B2TeO10
_symmetry_space_group_name_H-M   'P 1'
_cell_length_a   6.32649715
_cell_length_b   6.73001268
_cell_length_c   9.93526321
_cell_angle_alpha   90.00000000
_cell_angle_beta   90.00000000
_cell_angle_gamma   103.75546971
_symmetry_Int_Tables_number   1
_chemical_formula_structural   Na2Tm2B2TeO10
_chemical_formula_sum   'Na4 Tm4 B4 Te2 O20'
_cell_volume   410.88532244
_cell_formula_units_Z   2
loop_
 _symmetry_equiv_pos_site_id
 _symmetry_equiv_pos_as_xyz
  1  'x, y, z'
loop_
 _atom_site_type_symbol
 _atom_site_label
 _atom_site_symmetry_multiplicity
 _atom_site_fract_x
 _atom_site_fract_y
 _atom_site_fract_z
 _atom_site_occupancy
  Na  Na0  1  0.41653956  0.33260888  0.11106964  1
  Na  Na1  1  0.58346044  0.16739112  0.61106964  1
  Na  Na2  1  0.58346044  0.66739112  0.88893036  1
  Na  Na3  1  0.41653956  0.83260888  0.38893036  1
  Tm  Tm4  1  0.87274275  0.47630640  0.33452021  1
  Tm  Tm5  1  0.12725725  0.02369360  0.83452021  1
  Tm  Tm6  1  0.12725725  0.52369360  0.66547979  1
  Tm  Tm7  1  0.87274275  0.97630640  0.16547979  1
  B  B8  1  0.66322038  0.12661802  0.90004705  1
  B  B9  1  0.33677962  0.37338198  0.40004705  1
  B  B10  1  0.33677962  0.87338198  0.09995295  1
  B  B11  1  0.66322038  0.62661802  0.59995295  1
  Te  Te12  1  -0.00000000  0.50000000  0.00000000  1
  Te  Te13  1  -0.00000000  0.00000000  0.50000000  1
  O  O14  1  0.52238560  0.44680571  0.32907892  1
  O  O15  1  0.47761440  0.05319429  0.82907892  1
  O  O16  1  0.47761440  0.55319429  0.67092108  1
  O  O17  1  0.52238560  0.94680571  0.17092108  1
  O  O18  1  0.00119215  0.31992454  0.15214721  1
  O  O19  1  0.99880785  0.18007546  0.65214721  1
  O  O20  1  0.99880785  0.68007546  0.84785279  1
  O  O21  1  0.00119215  0.81992454  0.34785279  1
  O  O22  1  0.70845026  0.33727401  0.93655358  1
  O  O23  1  0.29154974  0.16272599  0.43655358  1
  O  O24  1  0.29154974  0.66272599  0.06344642  1
  O  O25  1  0.70845026  0.83727401  0.56344642  1
  O  O26  1  0.19633144  0.49134486  0.43790835  1
  O  O27  1  0.80366856  0.00865514  0.93790835  1
  O  O28  1  0.80366856  0.50865514  0.56209165  1
  O  O29  1  0.19633144  0.99134486  0.06209165  1
  O  O30  1  0.16273766  0.36286574  0.88249610  1
  O  O31  1  0.83726234  0.13713426  0.38249610  1
  O  O32  1  0.83726234  0.63713426  0.11750390  1
  O  O33  1  0.16273766  0.86286574  0.61750390  1
