# generated using pymatgen
data_Zn3Te2P2(PbO7)2
_symmetry_space_group_name_H-M   'P 1'
_cell_length_a   5.35155587
_cell_length_b   8.06722371
_cell_length_c   15.46132087
_cell_angle_alpha   90.00000000
_cell_angle_beta   90.05964379
_cell_angle_gamma   90.00000000
_symmetry_Int_Tables_number   1
_chemical_formula_structural   Zn3Te2P2(PbO7)2
_chemical_formula_sum   'Zn6 Te4 P4 Pb4 O28'
_cell_volume   667.49885105
_cell_formula_units_Z   2
loop_
 _symmetry_equiv_pos_site_id
 _symmetry_equiv_pos_as_xyz
  1  'x, y, z'
loop_
 _atom_site_type_symbol
 _atom_site_label
 _atom_site_symmetry_multiplicity
 _atom_site_fract_x
 _atom_site_fract_y
 _atom_site_fract_z
 _atom_site_occupancy
  Zn  Zn0  1  0.99053084  0.39036301  0.38502215  1
  Zn  Zn1  1  0.00946916  0.89036301  0.11497785  1
  Zn  Zn2  1  0.00946916  0.60963699  0.61497785  1
  Zn  Zn3  1  0.99053084  0.10963699  0.88502215  1
  Zn  Zn4  1  -0.00000000  0.50000000  -0.00000000  1
  Zn  Zn5  1  -0.00000000  0.00000000  0.50000000  1
  Te  Te6  1  0.51603817  0.27753563  0.51154227  1
  Te  Te7  1  0.48396183  0.77753563  0.98845773  1
  Te  Te8  1  0.48396183  0.72246437  0.48845773  1
  Te  Te9  1  0.51603817  0.22246437  0.01154227  1
  P  P10  1  0.96367412  0.26185865  0.19216040  1
  P  P11  1  0.03632588  0.76185865  0.30783960  1
  P  P12  1  0.03632588  0.73814135  0.80783960  1
  P  P13  1  0.96367412  0.23814135  0.69216040  1
  Pb  Pb14  1  0.50323823  0.06015407  0.30156228  1
  Pb  Pb15  1  0.49676177  0.56015407  0.19843772  1
  Pb  Pb16  1  0.49676177  0.93984593  0.69843772  1
  Pb  Pb17  1  0.50323823  0.43984593  0.80156228  1
  O  O18  1  0.81504353  0.30314959  0.27798372  1
  O  O19  1  0.18495647  0.80314959  0.22201628  1
  O  O20  1  0.18495647  0.69685041  0.72201628  1
  O  O21  1  0.81504353  0.19685041  0.77798372  1
  O  O22  1  0.24796473  0.25213069  0.21052742  1
  O  O23  1  0.75203527  0.75213069  0.28947258  1
  O  O24  1  0.75203527  0.74786931  0.78947258  1
  O  O25  1  0.24796473  0.24786931  0.71052742  1
  O  O26  1  0.90519265  0.40071653  0.12582794  1
  O  O27  1  0.09480735  0.90071653  0.37417206  1
  O  O28  1  0.09480735  0.59928347  0.87417206  1
  O  O29  1  0.90519265  0.09928347  0.62582794  1
  O  O30  1  0.14918914  0.59416237  0.33969594  1
  O  O31  1  0.85081086  0.09416237  0.16030406  1
  O  O32  1  0.85081086  0.40583763  0.66030406  1
  O  O33  1  0.14918914  0.90583763  0.83969594  1
  O  O34  1  0.70788384  0.11049605  0.44991346  1
  O  O35  1  0.29211616  0.61049605  0.05008654  1
  O  O36  1  0.29211616  0.88950395  0.55008654  1
  O  O37  1  0.70788384  0.38950395  0.94991346  1
  O  O38  1  0.70633410  0.45269061  0.45952887  1
  O  O39  1  0.29366590  0.95269061  0.04047113  1
  O  O40  1  0.29366590  0.54730939  0.54047113  1
  O  O41  1  0.70633410  0.04730939  0.95952887  1
  O  O42  1  0.25184815  0.23991009  0.42926225  1
  O  O43  1  0.74815185  0.73991009  0.07073775  1
  O  O44  1  0.74815185  0.76008991  0.57073775  1
  O  O45  1  0.25184815  0.26008991  0.92926225  1
