# generated using pymatgen
data_BaTh2S5
_symmetry_space_group_name_H-M   'P 1'
_cell_length_a   7.69538729
_cell_length_b   8.67420140
_cell_length_c   12.16835956
_cell_angle_alpha   90.29507130
_cell_angle_beta   90.00000000
_cell_angle_gamma   90.00000000
_symmetry_Int_Tables_number   1
_chemical_formula_structural   BaTh2S5
_chemical_formula_sum   'Ba4 Th8 S20'
_cell_volume   812.24352509
_cell_formula_units_Z   4
loop_
 _symmetry_equiv_pos_site_id
 _symmetry_equiv_pos_as_xyz
  1  'x, y, z'
loop_
 _atom_site_type_symbol
 _atom_site_label
 _atom_site_symmetry_multiplicity
 _atom_site_fract_x
 _atom_site_fract_y
 _atom_site_fract_z
 _atom_site_occupancy
  Ba  Ba0  1  0.55096300  0.49058470  0.16850623  1
  Ba  Ba1  1  0.05096300  0.50941530  0.33149377  1
  Ba  Ba2  1  0.44903700  0.50941530  0.83149377  1
  Ba  Ba3  1  0.94903700  0.49058470  0.66850623  1
  Th  Th4  1  0.52106512  0.99814175  0.17883551  1
  Th  Th5  1  0.02106512  0.00185825  0.32116449  1
  Th  Th6  1  0.47893488  0.00185825  0.82116449  1
  Th  Th7  1  0.97893488  0.99814175  0.67883551  1
  Th  Th8  1  0.56930590  0.75286430  0.49109843  1
  Th  Th9  1  0.06930590  0.24713570  0.00890157  1
  Th  Th10  1  0.43069410  0.24713570  0.50890157  1
  Th  Th11  1  0.93069410  0.75286430  0.99109843  1
  S  S12  1  0.16058712  0.95942702  0.10049734  1
  S  S13  1  0.66058712  0.04057298  0.39950266  1
  S  S14  1  0.83941288  0.04057298  0.89950266  1
  S  S15  1  0.33941288  0.95942702  0.60049734  1
  S  S16  1  0.95151112  0.78960345  0.49809730  1
  S  S17  1  0.45151112  0.21039655  0.00190270  1
  S  S18  1  0.04848888  0.21039655  0.50190270  1
  S  S19  1  0.54848888  0.78960345  0.99809730  1
  S  S20  1  0.33491336  0.78486773  0.31231980  1
  S  S21  1  0.83491336  0.21513227  0.18768020  1
  S  S22  1  0.66508664  0.21513227  0.68768020  1
  S  S23  1  0.16508664  0.78486773  0.81231980  1
  S  S24  1  0.80893088  0.77412764  0.21586709  1
  S  S25  1  0.30893088  0.22587236  0.28413291  1
  S  S26  1  0.19106912  0.22587236  0.78413291  1
  S  S27  1  0.69106912  0.77412764  0.71586709  1
  S  S28  1  0.67503966  0.46338116  0.42285404  1
  S  S29  1  0.17503966  0.53661884  0.07714596  1
  S  S30  1  0.32496034  0.53661884  0.57714596  1
  S  S31  1  0.82496034  0.46338116  0.92285404  1
