# generated using pymatgen
data_Ba3TaN3Cl2
_symmetry_space_group_name_H-M   'P 1'
_cell_length_a   6.46332250
_cell_length_b   15.23990253
_cell_length_c   15.23975659
_cell_angle_alpha   120.00031795
_cell_angle_beta   90.00000000
_cell_angle_gamma   90.00000000
_symmetry_Int_Tables_number   1
_chemical_formula_structural   Ba3TaN3Cl2
_chemical_formula_sum   'Ba18 Ta6 N18 Cl12'
_cell_volume   1300.00578986
_cell_formula_units_Z   6
loop_
 _symmetry_equiv_pos_site_id
 _symmetry_equiv_pos_as_xyz
  1  'x, y, z'
loop_
 _atom_site_type_symbol
 _atom_site_label
 _atom_site_symmetry_multiplicity
 _atom_site_fract_x
 _atom_site_fract_y
 _atom_site_fract_z
 _atom_site_occupancy
  Ba  Ba0  1  0.50177220  0.79991173  1.00000000  1
  Ba  Ba1  1  0.50177366  0.20008847  0.20008947  1
  Ba  Ba2  1  0.50177366  0.99999900  0.79991053  1
  Ba  Ba3  1  0.00177220  0.20008827  0.00000000  1
  Ba  Ba4  1  0.00177366  0.79991153  0.79991053  1
  Ba  Ba5  1  0.00177366  0.00000100  0.20008947  1
  Ba  Ba6  1  0.43678361  0.68995910  0.53092698  1
  Ba  Ba7  1  0.43679978  0.84097394  0.31003844  1
  Ba  Ba8  1  0.43678966  0.46906306  0.15902610  1
  Ba  Ba9  1  0.43678361  0.15903212  0.46907302  1
  Ba  Ba10  1  0.43679978  0.53093550  0.68996156  1
  Ba  Ba11  1  0.43678966  0.31003697  0.84097390  1
  Ba  Ba12  1  0.93678361  0.31004090  0.46907302  1
  Ba  Ba13  1  0.93679978  0.15902606  0.68996156  1
  Ba  Ba14  1  0.93678966  0.53093694  0.84097390  1
  Ba  Ba15  1  0.93678361  0.84096788  0.53092698  1
  Ba  Ba16  1  0.93679978  0.46906450  0.31003844  1
  Ba  Ba17  1  0.93678966  0.68996303  0.15902610  1
  Ta  Ta18  1  0.47124689  0.57659985  0.00000000  1
  Ta  Ta19  1  0.47125083  0.42340048  0.42339525  1
  Ta  Ta20  1  0.47125083  0.00000523  0.57660475  1
  Ta  Ta21  1  0.97124689  0.42340015  1.00000000  1
  Ta  Ta22  1  0.97125083  0.57659952  0.57660475  1
  Ta  Ta23  1  0.97125083  -0.00000523  0.42339525  1
  N  N24  1  0.19732033  0.51218792  1.00000000  1
  N  N25  1  0.19730715  0.48781263  0.48781239  1
  N  N26  1  0.19730715  0.00000024  0.51218761  1
  N  N27  1  0.69732033  0.48781208  0.00000000  1
  N  N28  1  0.69730715  0.51218737  0.51218761  1
  N  N29  1  0.69730715  0.99999976  0.48781239  1
  N  N30  1  0.01112704  0.71026505  0.59591997  1
  N  N31  1  0.01111666  0.88566643  0.28973882  1
  N  N32  1  0.01112970  0.40407393  0.11433966  1
  N  N33  1  0.01112704  0.11434507  0.40408003  1
  N  N34  1  0.01111666  0.59592761  0.71026118  1
  N  N35  1  0.01112970  0.28973426  0.88566034  1
  N  N36  1  0.51112704  0.28973495  0.40408003  1
  N  N37  1  0.51111666  0.11433357  0.71026118  1
  N  N38  1  0.51112970  0.59592607  0.88566034  1
  N  N39  1  0.51112704  0.88565493  0.59591997  1
  N  N40  1  0.51111666  0.40407239  0.28973882  1
  N  N41  1  0.51112970  0.71026574  0.11433966  1
  Cl  Cl42  1  0.24989298  0.99999905  -0.00000000  1
  Cl  Cl43  1  0.74989298  0.00000095  0.00000000  1
  Cl  Cl44  1  0.20047307  0.66668063  0.33333594  1
  Cl  Cl45  1  0.20047307  0.33334469  0.66666406  1
  Cl  Cl46  1  0.70047307  0.33331937  0.66666406  1
  Cl  Cl47  1  0.70047307  0.66665531  0.33333594  1
  Cl  Cl48  1  0.99746492  0.77106170  0.00000000  1
  Cl  Cl49  1  0.99746017  0.22894051  0.22894357  1
  Cl  Cl50  1  0.99746017  0.99999694  0.77105643  1
  Cl  Cl51  1  0.49746492  0.22893830  1.00000000  1
  Cl  Cl52  1  0.49746017  0.77105949  0.77105643  1
  Cl  Cl53  1  0.49746017  0.00000306  0.22894357  1
