# generated using pymatgen
data_Gd2HfS5
_symmetry_space_group_name_H-M   'P 1'
_cell_length_a   7.31082486
_cell_length_b   7.82741795
_cell_length_c   11.57888156
_cell_angle_alpha   90.00000000
_cell_angle_beta   90.00000000
_cell_angle_gamma   90.00000000
_symmetry_Int_Tables_number   1
_chemical_formula_structural   Gd2HfS5
_chemical_formula_sum   'Gd8 Hf4 S20'
_cell_volume   662.60012793
_cell_formula_units_Z   4
loop_
 _symmetry_equiv_pos_site_id
 _symmetry_equiv_pos_as_xyz
  1  'x, y, z'
loop_
 _atom_site_type_symbol
 _atom_site_label
 _atom_site_symmetry_multiplicity
 _atom_site_fract_x
 _atom_site_fract_y
 _atom_site_fract_z
 _atom_site_occupancy
  Gd  Gd0  1  0.97640087  0.00225716  0.17853009  1
  Gd  Gd1  1  0.52359913  0.49774284  0.67853009  1
  Gd  Gd2  1  0.02359913  0.50225716  0.82146991  1
  Gd  Gd3  1  0.47640087  0.99774284  0.32146991  1
  Gd  Gd4  1  0.02359913  0.99774284  0.82146991  1
  Gd  Gd5  1  0.47640087  0.50225716  0.32146991  1
  Gd  Gd6  1  0.97640087  0.49774284  0.17853009  1
  Gd  Gd7  1  0.52359913  0.00225716  0.67853009  1
  Hf  Hf8  1  0.42433085  0.75000000  0.00647870  1
  Hf  Hf9  1  0.07566915  0.75000000  0.50647870  1
  Hf  Hf10  1  0.57566915  0.25000000  0.99352130  1
  Hf  Hf11  1  0.92433085  0.25000000  0.49352130  1
  S  S12  1  0.66118136  0.53651201  0.90886883  1
  S  S13  1  0.83881864  0.96348799  0.40886883  1
  S  S14  1  0.33881864  0.03651201  0.09113117  1
  S  S15  1  0.16118136  0.46348799  0.59113117  1
  S  S16  1  0.33881864  0.46348799  0.09113117  1
  S  S17  1  0.16118136  0.03651201  0.59113117  1
  S  S18  1  0.66118136  0.96348799  0.90886883  1
  S  S19  1  0.83881864  0.53651201  0.40886883  1
  S  S20  1  0.66397528  0.75000000  0.18125167  1
  S  S21  1  0.83602472  0.75000000  0.68125167  1
  S  S22  1  0.33602472  0.25000000  0.81874833  1
  S  S23  1  0.16397528  0.25000000  0.31874833  1
  S  S24  1  0.05485219  0.75000000  0.00471459  1
  S  S25  1  0.44514781  0.75000000  0.50471459  1
  S  S26  1  0.94514781  0.25000000  0.99528541  1
  S  S27  1  0.55485219  0.25000000  0.49528541  1
  S  S28  1  0.31277991  0.75000000  0.79354377  1
  S  S29  1  0.18722009  0.75000000  0.29354377  1
  S  S30  1  0.68722009  0.25000000  0.20645623  1
  S  S31  1  0.81277991  0.25000000  0.70645623  1
