# generated using pymatgen
data_Ba4InAgS6
_symmetry_space_group_name_H-M   'P 1'
_cell_length_a   8.83255204
_cell_length_b   9.00526621
_cell_length_c   18.00228543
_cell_angle_alpha   90.00000000
_cell_angle_beta   103.93881144
_cell_angle_gamma   90.00000000
_symmetry_Int_Tables_number   1
_chemical_formula_structural   Ba4InAgS6
_chemical_formula_sum   'Ba16 In4 Ag4 S24'
_cell_volume   1389.72828838
_cell_formula_units_Z   4
loop_
 _symmetry_equiv_pos_site_id
 _symmetry_equiv_pos_as_xyz
  1  'x, y, z'
loop_
 _atom_site_type_symbol
 _atom_site_label
 _atom_site_symmetry_multiplicity
 _atom_site_fract_x
 _atom_site_fract_y
 _atom_site_fract_z
 _atom_site_occupancy
  Ba  Ba0  1  0.21738658  0.41957667  0.71431952  1
  Ba  Ba1  1  0.78261342  0.91957667  0.78568048  1
  Ba  Ba2  1  0.78261342  0.58042333  0.28568048  1
  Ba  Ba3  1  0.21738658  0.08042333  0.21431952  1
  Ba  Ba4  1  0.74576801  0.42289942  0.71463153  1
  Ba  Ba5  1  0.25423199  0.92289942  0.78536847  1
  Ba  Ba6  1  0.25423199  0.57710058  0.28536847  1
  Ba  Ba7  1  0.74576801  0.07710058  0.21463153  1
  Ba  Ba8  1  0.09675472  0.24170570  0.95884827  1
  Ba  Ba9  1  0.90324528  0.74170570  0.54115173  1
  Ba  Ba10  1  0.90324528  0.75829430  0.04115173  1
  Ba  Ba11  1  0.09675472  0.25829430  0.45884827  1
  Ba  Ba12  1  0.39009295  0.73440793  0.54025540  1
  Ba  Ba13  1  0.60990705  0.23440793  0.95974460  1
  Ba  Ba14  1  0.60990705  0.26559207  0.45974460  1
  Ba  Ba15  1  0.39009295  0.76559207  0.04025540  1
  In  In16  1  0.44362220  0.11932358  0.63230651  1
  In  In17  1  0.55637780  0.61932358  0.86769349  1
  In  In18  1  0.55637780  0.88067642  0.36769349  1
  In  In19  1  0.44362220  0.38067642  0.13230651  1
  Ag  Ag20  1  0.06184653  0.62810436  0.86649435  1
  Ag  Ag21  1  0.93815347  0.12810436  0.63350565  1
  Ag  Ag22  1  0.93815347  0.37189564  0.13350565  1
  Ag  Ag23  1  0.06184653  0.87189564  0.36649435  1
  S  S24  1  0.66388213  0.98568974  0.59734871  1
  S  S25  1  0.33611787  0.48568974  0.90265129  1
  S  S26  1  0.33611787  0.01431026  0.40265129  1
  S  S27  1  0.66388213  0.51431026  0.09734871  1
  S  S28  1  0.51231034  0.17978253  0.77142450  1
  S  S29  1  0.48768966  0.67978253  0.72857550  1
  S  S30  1  0.48768966  0.82021747  0.22857550  1
  S  S31  1  0.51231034  0.32021747  0.27142450  1
  S  S32  1  0.41016501  0.37088186  0.57354667  1
  S  S33  1  0.58983499  0.87088186  0.92645333  1
  S  S34  1  0.58983499  0.62911814  0.42645333  1
  S  S35  1  0.41016501  0.12911814  0.07354667  1
  S  S36  1  0.18496966  0.99036073  0.59813327  1
  S  S37  1  0.81503034  0.49036073  0.90186673  1
  S  S38  1  0.81503034  0.00963927  0.40186673  1
  S  S39  1  0.18496966  0.50963927  0.09813327  1
  S  S40  1  0.01278232  0.18826044  0.77896600  1
  S  S41  1  0.98721768  0.68826044  0.72103400  1
  S  S42  1  0.98721768  0.81173956  0.22103400  1
  S  S43  1  0.01278232  0.31173956  0.27896600  1
  S  S44  1  0.90508120  0.38578223  0.56973097  1
  S  S45  1  0.09491880  0.88578223  0.93026903  1
  S  S46  1  0.09491880  0.61421777  0.43026903  1
  S  S47  1  0.90508120  0.11421777  0.06973097  1
