# generated using pymatgen
data_Yb3Si11Pt23
_symmetry_space_group_name_H-M   'P 1'
_cell_length_a   12.02963792
_cell_length_b   12.02963792
_cell_length_c   12.02963792
_cell_angle_alpha   60.00000000
_cell_angle_beta   60.00000000
_cell_angle_gamma   60.00000000
_symmetry_Int_Tables_number   1
_chemical_formula_structural   Yb3Si11Pt23
_chemical_formula_sum   'Yb6 Si22 Pt46'
_cell_volume   1230.95639681
_cell_formula_units_Z   2
loop_
 _symmetry_equiv_pos_site_id
 _symmetry_equiv_pos_as_xyz
  1  'x, y, z'
loop_
 _atom_site_type_symbol
 _atom_site_label
 _atom_site_symmetry_multiplicity
 _atom_site_fract_x
 _atom_site_fract_y
 _atom_site_fract_z
 _atom_site_occupancy
  Yb  Yb0  1  0.50000000  -0.00000000  -0.00000000  1
  Yb  Yb1  1  0.50000000  -0.00000000  0.50000000  1
  Yb  Yb2  1  0.50000000  0.50000000  -0.00000000  1
  Yb  Yb3  1  0.00000000  0.50000000  0.50000000  1
  Yb  Yb4  1  0.00000000  0.50000000  -0.00000000  1
  Yb  Yb5  1  0.00000000  -0.00000000  0.50000000  1
  Si  Si6  1  0.82818813  0.17181187  0.17181187  1
  Si  Si7  1  0.82818813  0.17181187  0.82818813  1
  Si  Si8  1  0.82818813  0.82818813  0.17181187  1
  Si  Si9  1  0.17181187  0.82818813  0.82818813  1
  Si  Si10  1  0.17181187  0.82818813  0.17181187  1
  Si  Si11  1  0.17181187  0.17181187  0.82818813  1
  Si  Si12  1  0.50583356  0.16472215  0.16472215  1
  Si  Si13  1  0.16472215  0.50583356  0.16472215  1
  Si  Si14  1  0.16472215  0.16472215  0.50583356  1
  Si  Si15  1  0.16472215  0.16472215  0.16472215  1
  Si  Si16  1  0.49416644  0.83527785  0.83527785  1
  Si  Si17  1  0.83527785  0.49416644  0.83527785  1
  Si  Si18  1  0.83527785  0.83527785  0.49416644  1
  Si  Si19  1  0.83527785  0.83527785  0.83527785  1
  Si  Si20  1  0.82047864  0.39317379  0.39317379  1
  Si  Si21  1  0.39317379  0.82047864  0.39317379  1
  Si  Si22  1  0.39317379  0.39317379  0.82047864  1
  Si  Si23  1  0.39317379  0.39317379  0.39317379  1
  Si  Si24  1  0.17952136  0.60682621  0.60682621  1
  Si  Si25  1  0.60682621  0.17952136  0.60682621  1
  Si  Si26  1  0.60682621  0.60682621  0.17952136  1
  Si  Si27  1  0.60682621  0.60682621  0.60682621  1
  Pt  Pt28  1  0.75168417  0.08277194  0.08277194  1
  Pt  Pt29  1  0.08277194  0.75168417  0.08277194  1
  Pt  Pt30  1  0.08277194  0.08277194  0.75168417  1
  Pt  Pt31  1  0.08277194  0.08277194  0.08277194  1
  Pt  Pt32  1  0.24831583  0.91722806  0.91722806  1
  Pt  Pt33  1  0.91722806  0.24831583  0.91722806  1
  Pt  Pt34  1  0.91722806  0.91722806  0.24831583  1
  Pt  Pt35  1  0.91722806  0.91722806  0.91722806  1
  Pt  Pt36  1  0.07712674  0.30762442  0.30762442  1
  Pt  Pt37  1  0.30762442  0.07712674  0.30762442  1
  Pt  Pt38  1  0.30762442  0.30762442  0.07712674  1
  Pt  Pt39  1  0.30762442  0.30762442  0.30762442  1
  Pt  Pt40  1  0.92287326  0.69237558  0.69237558  1
  Pt  Pt41  1  0.69237558  0.92287326  0.69237558  1
  Pt  Pt42  1  0.69237558  0.69237558  0.92287326  1
  Pt  Pt43  1  0.69237558  0.69237558  0.69237558  1
  Pt  Pt44  1  0.62451487  0.37548513  0.37548513  1
  Pt  Pt45  1  0.62451487  0.37548513  0.62451487  1
  Pt  Pt46  1  0.62451487  0.62451487  0.37548513  1
  Pt  Pt47  1  0.37548513  0.62451487  0.62451487  1
  Pt  Pt48  1  0.37548513  0.62451487  0.37548513  1
  Pt  Pt49  1  0.37548513  0.37548513  0.62451487  1
  Pt  Pt50  1  0.57727548  0.91717347  0.25277552  1
  Pt  Pt51  1  0.57727548  0.25277552  0.25277552  1
  Pt  Pt52  1  0.57727548  0.25277552  0.91717347  1
  Pt  Pt53  1  0.91717347  0.57727548  0.25277552  1
  Pt  Pt54  1  0.25277552  0.57727548  0.91717347  1
  Pt  Pt55  1  0.25277552  0.57727548  0.25277552  1
  Pt  Pt56  1  0.25277552  0.25277552  0.57727548  1
  Pt  Pt57  1  0.25277552  0.91717347  0.57727548  1
  Pt  Pt58  1  0.91717347  0.25277552  0.57727548  1
  Pt  Pt59  1  0.25277552  0.25277552  0.91717347  1
  Pt  Pt60  1  0.91717347  0.25277552  0.25277552  1
  Pt  Pt61  1  0.25277552  0.91717347  0.25277552  1
  Pt  Pt62  1  0.42272452  0.08282653  0.74722448  1
  Pt  Pt63  1  0.42272452  0.74722448  0.74722448  1
  Pt  Pt64  1  0.42272452  0.74722448  0.08282653  1
  Pt  Pt65  1  0.08282653  0.42272452  0.74722448  1
  Pt  Pt66  1  0.74722448  0.42272452  0.08282653  1
  Pt  Pt67  1  0.74722448  0.42272452  0.74722448  1
  Pt  Pt68  1  0.74722448  0.74722448  0.42272452  1
  Pt  Pt69  1  0.74722448  0.08282653  0.42272452  1
  Pt  Pt70  1  0.08282653  0.74722448  0.42272452  1
  Pt  Pt71  1  0.74722448  0.74722448  0.08282653  1
  Pt  Pt72  1  0.08282653  0.74722448  0.74722448  1
  Pt  Pt73  1  0.74722448  0.08282653  0.74722448  1
