# generated using pymatgen
data_SrFeNi2(PO4)3
_symmetry_space_group_name_H-M   'P 1'
_cell_length_a   6.58057628
_cell_length_b   9.08678810
_cell_length_c   9.08678810
_cell_angle_alpha   70.55302358
_cell_angle_beta   68.77103211
_cell_angle_gamma   68.77103211
_symmetry_Int_Tables_number   1
_chemical_formula_structural   SrFeNi2(PO4)3
_chemical_formula_sum   'Sr2 Fe2 Ni4 P6 O24'
_cell_volume   459.20270125
_cell_formula_units_Z   2
loop_
 _symmetry_equiv_pos_site_id
 _symmetry_equiv_pos_as_xyz
  1  'x, y, z'
loop_
 _atom_site_type_symbol
 _atom_site_label
 _atom_site_symmetry_multiplicity
 _atom_site_fract_x
 _atom_site_fract_y
 _atom_site_fract_z
 _atom_site_occupancy
  Sr  Sr0  1  0.65668180  0.25000000  0.25000000  1
  Sr  Sr1  1  0.34331820  0.75000000  0.75000000  1
  Fe  Fe2  1  0.50000000  -0.00000000  -0.00000000  1
  Fe  Fe3  1  0.00000000  0.50000000  0.50000000  1
  Ni  Ni4  1  0.88355031  0.61644969  0.11644969  1
  Ni  Ni5  1  0.11644969  0.88355031  0.38355031  1
  Ni  Ni6  1  0.88355031  0.11644969  0.61644969  1
  Ni  Ni7  1  0.11644969  0.38355031  0.88355031  1
  P  P8  1  0.16205921  0.25000000  0.25000000  1
  P  P9  1  0.83794079  0.75000000  0.75000000  1
  P  P10  1  0.67819260  0.82180740  0.32180740  1
  P  P11  1  0.32180740  0.67819260  0.17819260  1
  P  P12  1  0.67819260  0.32180740  0.82180740  1
  P  P13  1  0.32180740  0.17819260  0.67819260  1
  O  O14  1  0.20485651  0.34403964  0.34403964  1
  O  O15  1  0.79514349  0.65596036  0.65596036  1
  O  O16  1  0.60706421  0.84403964  0.84403964  1
  O  O17  1  0.39293579  0.15596036  0.15596036  1
  O  O18  1  0.01669632  0.36786719  0.13213281  1
  O  O19  1  0.98330368  0.86786719  0.63213281  1
  O  O20  1  0.98330368  0.63213281  0.86786719  1
  O  O21  1  0.01669632  0.13213281  0.36786719  1
  O  O22  1  0.79750993  0.92482283  0.34729892  1
  O  O23  1  0.20249007  0.65270108  0.07517717  1
  O  O24  1  0.43036831  0.42482283  0.84729892  1
  O  O25  1  0.56963169  0.15270108  0.57517717  1
  O  O26  1  0.20249007  0.07517717  0.65270108  1
  O  O27  1  0.79750993  0.34729892  0.92482283  1
  O  O28  1  0.56963169  0.57517717  0.15270108  1
  O  O29  1  0.43036831  0.84729892  0.42482283  1
  O  O30  1  0.71296831  0.85597531  0.13235446  1
  O  O31  1  0.28703169  0.86764554  0.14402469  1
  O  O32  1  0.79870192  0.35597531  0.63235446  1
  O  O33  1  0.20129808  0.36764554  0.64402469  1
  O  O34  1  0.28703169  0.14402469  0.86764554  1
  O  O35  1  0.71296831  0.13235446  0.85597531  1
  O  O36  1  0.20129808  0.64402469  0.36764554  1
  O  O37  1  0.79870192  0.63235446  0.35597531  1
