# generated using pymatgen
data_Sm2Fe14B
_symmetry_space_group_name_H-M   'P 1'
_cell_length_a   8.74772896
_cell_length_b   8.74772896
_cell_length_c   12.06148515
_cell_angle_alpha   90.00000000
_cell_angle_beta   90.00000000
_cell_angle_gamma   90.00000000
_symmetry_Int_Tables_number   1
_chemical_formula_structural   Sm2Fe14B
_chemical_formula_sum   'Sm8 Fe56 B4'
_cell_volume   922.97815699
_cell_formula_units_Z   4
loop_
 _symmetry_equiv_pos_site_id
 _symmetry_equiv_pos_as_xyz
  1  'x, y, z'
loop_
 _atom_site_type_symbol
 _atom_site_label
 _atom_site_symmetry_multiplicity
 _atom_site_fract_x
 _atom_site_fract_y
 _atom_site_fract_z
 _atom_site_occupancy
  Sm  Sm0  1  0.23240548  0.76759452  0.50000000  1
  Sm  Sm1  1  0.76759452  0.23240548  0.50000000  1
  Sm  Sm2  1  0.26759452  0.26759452  0.00000000  1
  Sm  Sm3  1  0.73240548  0.73240548  0.00000000  1
  Sm  Sm4  1  0.64335580  0.64335580  0.50000000  1
  Sm  Sm5  1  0.35664420  0.35664420  0.50000000  1
  Sm  Sm6  1  0.85664420  0.14335580  0.00000000  1
  Sm  Sm7  1  0.14335580  0.85664420  0.00000000  1
  Fe  Fe8  1  0.00000000  0.50000000  0.50000000  1
  Fe  Fe9  1  0.50000000  0.00000000  0.00000000  1
  Fe  Fe10  1  0.50000000  0.00000000  0.50000000  1
  Fe  Fe11  1  0.00000000  0.50000000  0.00000000  1
  Fe  Fe12  1  0.50000000  0.50000000  0.11473599  1
  Fe  Fe13  1  0.00000000  0.00000000  0.61473599  1
  Fe  Fe14  1  0.50000000  0.50000000  0.88526401  1
  Fe  Fe15  1  0.00000000  0.00000000  0.38526401  1
  Fe  Fe16  1  0.18263466  0.81736534  0.25420247  1
  Fe  Fe17  1  0.81736534  0.18263466  0.25420247  1
  Fe  Fe18  1  0.31736534  0.31736534  0.75420247  1
  Fe  Fe19  1  0.68263466  0.68263466  0.75420247  1
  Fe  Fe20  1  0.81736534  0.18263466  0.74579753  1
  Fe  Fe21  1  0.18263466  0.81736534  0.74579753  1
  Fe  Fe22  1  0.68263466  0.68263466  0.24579753  1
  Fe  Fe23  1  0.31736534  0.31736534  0.24579753  1
  Fe  Fe24  1  0.40252011  0.59747989  0.29643021  1
  Fe  Fe25  1  0.59747989  0.40252011  0.29643021  1
  Fe  Fe26  1  0.09747989  0.09747989  0.79643021  1
  Fe  Fe27  1  0.90252011  0.90252011  0.79643021  1
  Fe  Fe28  1  0.59747989  0.40252011  0.70356979  1
  Fe  Fe29  1  0.40252011  0.59747989  0.70356979  1
  Fe  Fe30  1  0.90252011  0.90252011  0.20356979  1
  Fe  Fe31  1  0.09747989  0.09747989  0.20356979  1
  Fe  Fe32  1  0.14015909  0.53663903  0.32418524  1
  Fe  Fe33  1  0.85984091  0.46336097  0.32418524  1
  Fe  Fe34  1  0.35984091  0.03663903  0.82418524  1
  Fe  Fe35  1  0.64015909  0.96336097  0.82418524  1
  Fe  Fe36  1  0.85984091  0.46336097  0.67581476  1
  Fe  Fe37  1  0.14015909  0.53663903  0.67581476  1
  Fe  Fe38  1  0.64015909  0.96336097  0.17581476  1
  Fe  Fe39  1  0.35984091  0.03663903  0.17581476  1
  Fe  Fe40  1  0.53663903  0.14015909  0.32418524  1
  Fe  Fe41  1  0.46336097  0.85984091  0.32418524  1
  Fe  Fe42  1  0.03663903  0.35984091  0.82418524  1
  Fe  Fe43  1  0.96336097  0.64015909  0.82418524  1
  Fe  Fe44  1  0.46336097  0.85984091  0.67581476  1
  Fe  Fe45  1  0.53663903  0.14015909  0.67581476  1
  Fe  Fe46  1  0.96336097  0.64015909  0.17581476  1
  Fe  Fe47  1  0.03663903  0.35984091  0.17581476  1
  Fe  Fe48  1  0.93324459  0.72493224  0.37293711  1
  Fe  Fe49  1  0.06675541  0.27506776  0.37293711  1
  Fe  Fe50  1  0.56675541  0.22493224  0.87293711  1
  Fe  Fe51  1  0.43324459  0.77506776  0.87293711  1
  Fe  Fe52  1  0.06675541  0.27506776  0.62706289  1
  Fe  Fe53  1  0.93324459  0.72493224  0.62706289  1
  Fe  Fe54  1  0.43324459  0.77506776  0.12706289  1
  Fe  Fe55  1  0.56675541  0.22493224  0.12706289  1
  Fe  Fe56  1  0.72493224  0.93324459  0.37293711  1
  Fe  Fe57  1  0.27506776  0.06675541  0.37293711  1
  Fe  Fe58  1  0.22493224  0.56675541  0.87293711  1
  Fe  Fe59  1  0.77506776  0.43324459  0.87293711  1
  Fe  Fe60  1  0.27506776  0.06675541  0.62706289  1
  Fe  Fe61  1  0.72493224  0.93324459  0.62706289  1
  Fe  Fe62  1  0.77506776  0.43324459  0.12706289  1
  Fe  Fe63  1  0.22493224  0.56675541  0.12706289  1
  B  B64  1  0.87568101  0.87568101  0.50000000  1
  B  B65  1  0.12431899  0.12431899  0.50000000  1
  B  B66  1  0.62431899  0.37568101  0.00000000  1
  B  B67  1  0.37568101  0.62431899  0.00000000  1
