# generated using pymatgen
data_Yb14AlSb11
_symmetry_space_group_name_H-M   'P 1'
_cell_length_a   16.21706332
_cell_length_b   16.21706332
_cell_length_c   16.21706332
_cell_angle_alpha   93.57499600
_cell_angle_beta   117.95789047
_cell_angle_gamma   117.95789047
_symmetry_Int_Tables_number   1
_chemical_formula_structural   Yb14AlSb11
_chemical_formula_sum   'Yb56 Al4 Sb44'
_cell_volume   3102.34806581
_cell_formula_units_Z   4
loop_
 _symmetry_equiv_pos_site_id
 _symmetry_equiv_pos_as_xyz
  1  'x, y, z'
loop_
 _atom_site_type_symbol
 _atom_site_label
 _atom_site_symmetry_multiplicity
 _atom_site_fract_x
 _atom_site_fract_y
 _atom_site_fract_z
 _atom_site_occupancy
  Yb  Yb0  1  0.11658489  0.90293198  0.37174196  1
  Yb  Yb1  1  0.46880998  0.75515707  0.87174196  1
  Yb  Yb2  1  0.61658489  0.87174196  0.40293198  1
  Yb  Yb3  1  0.53119002  0.28634709  0.90293198  1
  Yb  Yb4  1  0.88341511  0.09706802  0.62825804  1
  Yb  Yb5  1  0.53119002  0.24484293  0.12825804  1
  Yb  Yb6  1  0.38341511  0.12825804  0.59706802  1
  Yb  Yb7  1  0.46880998  0.71365291  0.09706802  1
  Yb  Yb8  1  0.03119002  0.40293198  0.78634709  1
  Yb  Yb9  1  0.38341511  0.25515707  0.28634709  1
  Yb  Yb10  1  0.96880998  0.37174196  0.25515707  1
  Yb  Yb11  1  0.88341511  0.78634709  0.75515707  1
  Yb  Yb12  1  0.96880998  0.59706802  0.21365291  1
  Yb  Yb13  1  0.61658489  0.74484293  0.71365291  1
  Yb  Yb14  1  0.03119002  0.62825804  0.74484293  1
  Yb  Yb15  1  0.11658489  0.21365291  0.24484293  1
  Yb  Yb16  1  0.89969105  0.88145461  0.52659104  1
  Yb  Yb17  1  0.64513644  0.12689999  0.02659104  1
  Yb  Yb18  1  0.39969105  0.02659104  0.38145461  1
  Yb  Yb19  1  0.35486356  0.48176355  0.88145461  1
  Yb  Yb20  1  0.10030895  0.11854539  0.47340896  1
  Yb  Yb21  1  0.35486356  0.87310001  0.97340896  1
  Yb  Yb22  1  0.60030895  0.97340896  0.61854539  1
  Yb  Yb23  1  0.64513644  0.51823645  0.11854539  1
  Yb  Yb24  1  0.85486356  0.38145461  0.98176355  1
  Yb  Yb25  1  0.60030895  0.62689999  0.48176355  1
  Yb  Yb26  1  0.14513644  0.52659104  0.62689999  1
  Yb  Yb27  1  0.10030895  0.98176355  0.12689999  1
  Yb  Yb28  1  0.14513644  0.61854539  0.01823645  1
  Yb  Yb29  1  0.39969105  0.37310001  0.51823645  1
  Yb  Yb30  1  0.85486356  0.47340896  0.37310001  1
  Yb  Yb31  1  0.89969105  0.01823645  0.87310001  1
  Yb  Yb32  1  0.64680410  0.25000000  0.39680410  1
  Yb  Yb33  1  0.14680410  0.25000000  0.89680410  1
  Yb  Yb34  1  0.14680410  0.89680410  0.75000000  1
  Yb  Yb35  1  0.85319590  0.10319590  0.25000000  1
  Yb  Yb36  1  0.35319590  0.75000000  0.60319590  1
  Yb  Yb37  1  0.85319590  0.75000000  0.10319590  1
  Yb  Yb38  1  0.64680410  0.39680410  0.75000000  1
  Yb  Yb39  1  0.35319590  0.60319590  0.25000000  1
  Yb  Yb40  1  0.40978381  0.43275577  0.16267461  1
  Yb  Yb41  1  0.72991884  0.25289079  0.66267461  1
  Yb  Yb42  1  0.90978381  0.66267461  0.93275577  1
  Yb  Yb43  1  0.27008116  0.52297195  0.43275577  1
  Yb  Yb44  1  0.59021619  0.56724423  0.83732539  1
  Yb  Yb45  1  0.27008116  0.74710921  0.33732539  1
  Yb  Yb46  1  0.09021619  0.33732539  0.06724423  1
  Yb  Yb47  1  0.72991884  0.47702805  0.56724423  1
  Yb  Yb48  1  0.77008116  0.93275577  0.02297195  1
  Yb  Yb49  1  0.09021619  0.75289079  0.52297195  1
  Yb  Yb50  1  0.22991884  0.16267461  0.75289079  1
  Yb  Yb51  1  0.59021619  0.02297195  0.25289079  1
  Yb  Yb52  1  0.22991884  0.06724423  0.97702805  1
  Yb  Yb53  1  0.90978381  0.24710921  0.47702805  1
  Yb  Yb54  1  0.77008116  0.83732539  0.24710921  1
  Yb  Yb55  1  0.40978381  0.97702805  0.74710921  1
  Al  Al56  1  0.75000000  0.62500000  0.37500000  1
  Al  Al57  1  0.75000000  0.12500000  0.87500000  1
  Al  Al58  1  0.25000000  0.87500000  0.12500000  1
  Al  Al59  1  0.25000000  0.37500000  0.62500000  1
  Sb  Sb60  1  0.47972790  0.73986395  0.48986395  1
  Sb  Sb61  1  0.75000000  0.51013605  0.98986395  1
  Sb  Sb62  1  0.97972790  0.98986395  0.23986395  1
  Sb  Sb63  1  0.25000000  0.76013605  0.73986395  1
  Sb  Sb64  1  0.52027210  0.26013605  0.51013605  1
  Sb  Sb65  1  0.25000000  0.48986395  0.01013605  1
  Sb  Sb66  1  0.02027210  0.01013605  0.76013605  1
  Sb  Sb67  1  0.75000000  0.23986395  0.26013605  1
  Sb  Sb68  1  0.88400680  0.69944195  0.30589194  1
  Sb  Sb69  1  0.60644999  0.92188514  0.80589194  1
  Sb  Sb70  1  0.38400680  0.80589194  0.19944195  1
  Sb  Sb71  1  0.39355001  0.31543515  0.69944195  1
  Sb  Sb72  1  0.11599320  0.30055805  0.69410806  1
  Sb  Sb73  1  0.39355001  0.07811486  0.19410806  1
  Sb  Sb74  1  0.61599320  0.19410806  0.80055805  1
  Sb  Sb75  1  0.60644999  0.68456485  0.30055805  1
  Sb  Sb76  1  0.89355001  0.19944195  0.81543515  1
  Sb  Sb77  1  0.61599320  0.42188514  0.31543515  1
  Sb  Sb78  1  0.10644999  0.30589194  0.42188514  1
  Sb  Sb79  1  0.11599320  0.81543515  0.92188514  1
  Sb  Sb80  1  0.10644999  0.80055805  0.18456485  1
  Sb  Sb81  1  0.38400680  0.57811486  0.68456485  1
  Sb  Sb82  1  0.89355001  0.69410806  0.57811486  1
  Sb  Sb83  1  0.88400680  0.18456485  0.07811486  1
  Sb  Sb84  1  0.15693674  0.97921776  0.58335795  1
  Sb  Sb85  1  0.60414019  0.92642121  0.08335795  1
  Sb  Sb86  1  0.65693674  0.08335795  0.47921776  1
  Sb  Sb87  1  0.39585981  0.32228102  0.97921776  1
  Sb  Sb88  1  0.84306326  0.02078224  0.41664205  1
  Sb  Sb89  1  0.39585981  0.07357879  0.91664205  1
  Sb  Sb90  1  0.34306326  0.91664205  0.52078224  1
  Sb  Sb91  1  0.60414019  0.67771898  0.02078224  1
  Sb  Sb92  1  0.89585981  0.47921776  0.82228102  1
  Sb  Sb93  1  0.34306326  0.42642121  0.32228102  1
  Sb  Sb94  1  0.10414019  0.58335795  0.42642121  1
  Sb  Sb95  1  0.84306326  0.82228102  0.92642121  1
  Sb  Sb96  1  0.10414019  0.52078224  0.17771898  1
  Sb  Sb97  1  0.65693674  0.57357879  0.67771898  1
  Sb  Sb98  1  0.89585981  0.41664205  0.57357879  1
  Sb  Sb99  1  0.15693674  0.17771898  0.07357879  1
  Sb  Sb100  1  0.75000000  0.87500000  0.62500000  1
  Sb  Sb101  1  0.75000000  0.37500000  0.12500000  1
  Sb  Sb102  1  0.25000000  0.12500000  0.37500000  1
  Sb  Sb103  1  0.25000000  0.62500000  0.87500000  1
