# generated using pymatgen
data_PrAs2Au
_symmetry_space_group_name_H-M   'P 1'
_cell_length_a   5.90191665
_cell_length_b   5.84778944
_cell_length_c   20.83891240
_cell_angle_alpha   90.00000000
_cell_angle_beta   90.00000000
_cell_angle_gamma   90.00000000
_symmetry_Int_Tables_number   1
_chemical_formula_structural   PrAs2Au
_chemical_formula_sum   'Pr8 As16 Au8'
_cell_volume   719.21684004
_cell_formula_units_Z   8
loop_
 _symmetry_equiv_pos_site_id
 _symmetry_equiv_pos_as_xyz
  1  'x, y, z'
loop_
 _atom_site_type_symbol
 _atom_site_label
 _atom_site_symmetry_multiplicity
 _atom_site_fract_x
 _atom_site_fract_y
 _atom_site_fract_z
 _atom_site_occupancy
  Pr  Pr0  1  0.01552883  0.75000000  0.37955462  1
  Pr  Pr1  1  0.98447117  0.25000000  0.62044538  1
  Pr  Pr2  1  0.01552883  0.25000000  0.12044538  1
  Pr  Pr3  1  0.98447117  0.75000000  0.87955462  1
  Pr  Pr4  1  0.51430556  0.25000000  0.38355495  1
  Pr  Pr5  1  0.48569444  0.75000000  0.61644505  1
  Pr  Pr6  1  0.51430556  0.75000000  0.11644505  1
  Pr  Pr7  1  0.48569444  0.25000000  0.88355495  1
  As  As8  1  0.01445113  0.25000000  0.33959336  1
  As  As9  1  0.98554887  0.75000000  0.66040664  1
  As  As10  1  0.01445113  0.75000000  0.16040664  1
  As  As11  1  0.98554887  0.25000000  0.83959336  1
  As  As12  1  0.51487990  0.75000000  0.34089435  1
  As  As13  1  0.48512010  0.25000000  0.65910565  1
  As  As14  1  0.51487990  0.25000000  0.15910565  1
  As  As15  1  0.48512010  0.75000000  0.84089435  1
  As  As16  1  0.77721721  0.97138462  0.49918737  1
  As  As17  1  0.22278279  0.47138462  0.50081263  1
  As  As18  1  0.77721721  0.02861538  0.00081263  1
  As  As19  1  0.22278279  0.52861538  0.99918737  1
  As  As20  1  0.22278279  0.02861538  0.50081263  1
  As  As21  1  0.77721721  0.52861538  0.49918737  1
  As  As22  1  0.22278279  0.97138462  0.99918737  1
  As  As23  1  0.77721721  0.47138462  0.00081263  1
  Au  Au24  1  0.26869626  0.50000000  0.25000000  1
  Au  Au25  1  0.73130374  -0.00000000  0.75000000  1
  Au  Au26  1  0.73130374  0.50000000  0.75000000  1
  Au  Au27  1  0.26869626  0.00000000  0.25000000  1
  Au  Au28  1  0.76569753  0.50000000  0.25000000  1
  Au  Au29  1  0.23430247  -0.00000000  0.75000000  1
  Au  Au30  1  0.23430247  0.50000000  0.75000000  1
  Au  Au31  1  0.76569753  0.00000000  0.25000000  1
