# generated using pymatgen
data_Nd4GaSbS9
_symmetry_space_group_name_H-M   'P 1'
_cell_length_a   10.18153362
_cell_length_b   10.18153362
_cell_length_c   13.85613754
_cell_angle_alpha   90.00000000
_cell_angle_beta   90.00000000
_cell_angle_gamma   90.87231085
_symmetry_Int_Tables_number   1
_chemical_formula_structural   Nd4GaSbS9
_chemical_formula_sum   'Nd16 Ga4 Sb4 S36'
_cell_volume   1436.21100453
_cell_formula_units_Z   4
loop_
 _symmetry_equiv_pos_site_id
 _symmetry_equiv_pos_as_xyz
  1  'x, y, z'
loop_
 _atom_site_type_symbol
 _atom_site_label
 _atom_site_symmetry_multiplicity
 _atom_site_fract_x
 _atom_site_fract_y
 _atom_site_fract_z
 _atom_site_occupancy
  Nd  Nd0  1  0.12688590  0.09094337  0.81497771  1
  Nd  Nd1  1  0.90905663  0.87311410  0.18502229  1
  Nd  Nd2  1  0.62688590  0.59094337  0.68502229  1
  Nd  Nd3  1  0.40905663  0.37311410  0.31497771  1
  Nd  Nd4  1  0.33370507  0.32258351  0.60116367  1
  Nd  Nd5  1  0.67741649  0.66629493  0.39883633  1
  Nd  Nd6  1  0.83370507  0.82258351  0.89883633  1
  Nd  Nd7  1  0.17741649  0.16629493  0.10116367  1
  Nd  Nd8  1  0.62444770  0.04409327  0.67970661  1
  Nd  Nd9  1  0.95590673  0.37555230  0.32029339  1
  Nd  Nd10  1  0.12444770  0.54409327  0.82029339  1
  Nd  Nd11  1  0.45590673  0.87555230  0.17970661  1
  Nd  Nd12  1  0.45064028  0.32492951  0.89595359  1
  Nd  Nd13  1  0.67507049  0.54935972  0.10404641  1
  Nd  Nd14  1  0.95064028  0.82492951  0.60404641  1
  Nd  Nd15  1  0.17507049  0.04935972  0.39595359  1
  Ga  Ga16  1  0.38329850  0.82510517  0.90706320  1
  Ga  Ga17  1  0.17489483  0.61670150  0.09293680  1
  Ga  Ga18  1  0.88329850  0.32510517  0.59293680  1
  Ga  Ga19  1  0.67489483  0.11670150  0.40706320  1
  Sb  Sb20  1  0.32426543  0.83094170  0.61291970  1
  Sb  Sb21  1  0.16905830  0.67573457  0.38708030  1
  Sb  Sb22  1  0.82426543  0.33094170  0.88708030  1
  Sb  Sb23  1  0.66905830  0.17573457  0.11291970  1
  S  S24  1  0.16536235  0.01284674  0.60018873  1
  S  S25  1  0.98715326  0.83463765  0.39981127  1
  S  S26  1  0.66536235  0.51284674  0.89981127  1
  S  S27  1  0.48715326  0.33463765  0.10018873  1
  S  S28  1  0.66775068  0.14733792  0.92070213  1
  S  S29  1  0.85266208  0.33224932  0.07929787  1
  S  S30  1  0.16775068  0.64733792  0.57929787  1
  S  S31  1  0.35266208  0.83224932  0.42070213  1
  S  S32  1  0.20762322  0.81832362  0.79978713  1
  S  S33  1  0.18167638  0.79237678  0.20021287  1
  S  S34  1  0.70762322  0.31832362  0.70021287  1
  S  S35  1  0.68167638  0.29237678  0.29978713  1
  S  S36  1  0.57008563  0.82163823  0.81006802  1
  S  S37  1  0.17836177  0.42991437  0.18993198  1
  S  S38  1  0.07008563  0.32163823  0.68993198  1
  S  S39  1  0.67836177  0.92991437  0.31006802  1
  S  S40  1  0.86737513  0.13262487  0.50000000  1
  S  S41  1  0.36737513  0.63262487  0.00000000  1
  S  S42  1  0.49053861  0.12170490  0.50332975  1
  S  S43  1  0.87829510  0.50946139  0.49667025  1
  S  S44  1  0.99053861  0.62170490  0.99667025  1
  S  S45  1  0.37829510  0.00946139  0.00332975  1
  S  S46  1  0.68000355  0.81542514  0.56829351  1
  S  S47  1  0.18457486  0.31999645  0.43170649  1
  S  S48  1  0.18000355  0.31542514  0.93170649  1
  S  S49  1  0.68457486  0.81999645  0.06829351  1
  S  S50  1  0.88078380  0.00374308  0.74984372  1
  S  S51  1  0.99625692  0.11921620  0.25015628  1
  S  S52  1  0.38078380  0.50374308  0.75015628  1
  S  S53  1  0.49625692  0.61921620  0.24984372  1
  S  S54  1  0.50039777  0.49960223  0.50000000  1
  S  S55  1  0.00039777  -0.00039777  0.00000000  1
  S  S56  1  0.38926163  0.14162909  0.75234289  1
  S  S57  1  0.85837091  0.61073837  0.24765711  1
  S  S58  1  0.88926163  0.64162909  0.74765711  1
  S  S59  1  0.35837091  0.11073837  0.25234289  1
