# generated using pymatgen
data_Er5(Si5Ir2)2
_symmetry_space_group_name_H-M   'P 1'
_cell_length_a   4.24603453
_cell_length_b   12.61710394
_cell_length_c   12.61710394
_cell_angle_alpha   90.00000000
_cell_angle_beta   90.00000000
_cell_angle_gamma   90.00000000
_symmetry_Int_Tables_number   1
_chemical_formula_structural   Er5(Si5Ir2)2
_chemical_formula_sum   'Er10 Si20 Ir8'
_cell_volume   675.93180692
_cell_formula_units_Z   2
loop_
 _symmetry_equiv_pos_site_id
 _symmetry_equiv_pos_as_xyz
  1  'x, y, z'
loop_
 _atom_site_type_symbol
 _atom_site_label
 _atom_site_symmetry_multiplicity
 _atom_site_fract_x
 _atom_site_fract_y
 _atom_site_fract_z
 _atom_site_occupancy
  Er  Er0  1  0.00000000  0.50000000  0.50000000  1
  Er  Er1  1  0.00000000  0.00000000  -0.00000000  1
  Er  Er2  1  0.50000000  0.17512886  0.67512886  1
  Er  Er3  1  0.50000000  0.82487114  0.32487114  1
  Er  Er4  1  0.50000000  0.32487114  0.17512886  1
  Er  Er5  1  0.50000000  0.67512886  0.82487114  1
  Er  Er6  1  0.50000000  0.38411501  0.88411501  1
  Er  Er7  1  0.50000000  0.61588499  0.11588499  1
  Er  Er8  1  0.50000000  0.11588499  0.38411501  1
  Er  Er9  1  0.50000000  0.88411501  0.61588499  1
  Si  Si10  1  -0.00000000  0.06545424  0.56545424  1
  Si  Si11  1  0.00000000  0.93454576  0.43454576  1
  Si  Si12  1  -0.00000000  0.43454576  0.06545424  1
  Si  Si13  1  0.00000000  0.56545424  0.93454576  1
  Si  Si14  1  0.00000000  0.70048505  0.66398388  1
  Si  Si15  1  -0.00000000  0.29951495  0.33601612  1
  Si  Si16  1  0.00000000  0.79951495  0.16398388  1
  Si  Si17  1  -0.00000000  0.20048505  0.83601612  1
  Si  Si18  1  0.00000000  0.66398388  0.29951495  1
  Si  Si19  1  -0.00000000  0.33601612  0.70048505  1
  Si  Si20  1  -0.00000000  0.16398388  0.20048505  1
  Si  Si21  1  0.00000000  0.83601612  0.79951495  1
  Si  Si22  1  0.50000000  0.50375475  0.65611346  1
  Si  Si23  1  0.50000000  0.49624525  0.34388654  1
  Si  Si24  1  0.50000000  0.99624525  0.15611346  1
  Si  Si25  1  0.50000000  0.00375475  0.84388654  1
  Si  Si26  1  0.50000000  0.65611346  0.49624525  1
  Si  Si27  1  0.50000000  0.34388654  0.50375475  1
  Si  Si28  1  0.50000000  0.15611346  0.00375475  1
  Si  Si29  1  0.50000000  0.84388654  0.99624525  1
  Ir  Ir30  1  0.00000000  0.52047676  0.74589348  1
  Ir  Ir31  1  -0.00000000  0.47952324  0.25410652  1
  Ir  Ir32  1  0.00000000  0.97952324  0.24589348  1
  Ir  Ir33  1  -0.00000000  0.02047676  0.75410652  1
  Ir  Ir34  1  0.00000000  0.74589348  0.47952324  1
  Ir  Ir35  1  -0.00000000  0.25410652  0.52047676  1
  Ir  Ir36  1  -0.00000000  0.24589348  0.02047676  1
  Ir  Ir37  1  0.00000000  0.75410652  0.97952324  1
