# generated using pymatgen
data_Gd2Ge(BO4)2
_symmetry_space_group_name_H-M   'P 1'
_cell_length_a   4.45951961
_cell_length_b   9.43540090
_cell_length_c   13.63324923
_cell_angle_alpha   90.00000000
_cell_angle_beta   90.00000000
_cell_angle_gamma   90.00000000
_symmetry_Int_Tables_number   1
_chemical_formula_structural   Gd2Ge(BO4)2
_chemical_formula_sum   'Gd8 Ge4 B8 O32'
_cell_volume   573.65107231
_cell_formula_units_Z   4
loop_
 _symmetry_equiv_pos_site_id
 _symmetry_equiv_pos_as_xyz
  1  'x, y, z'
loop_
 _atom_site_type_symbol
 _atom_site_label
 _atom_site_symmetry_multiplicity
 _atom_site_fract_x
 _atom_site_fract_y
 _atom_site_fract_z
 _atom_site_occupancy
  Gd  Gd0  1  0.45907619  0.52689827  0.64016237  1
  Gd  Gd1  1  0.04092381  0.02689827  0.85983763  1
  Gd  Gd2  1  0.04092381  0.47310173  0.14016237  1
  Gd  Gd3  1  0.45907619  0.97310173  0.35983763  1
  Gd  Gd4  1  0.54092381  0.47310173  0.35983763  1
  Gd  Gd5  1  0.95907619  0.97310173  0.14016237  1
  Gd  Gd6  1  0.95907619  0.52689827  0.85983763  1
  Gd  Gd7  1  0.54092381  0.02689827  0.64016237  1
  Ge  Ge8  1  0.92278431  0.75000000  0.50000000  1
  Ge  Ge9  1  0.57721569  0.25000000  -0.00000000  1
  Ge  Ge10  1  0.07721569  0.25000000  0.50000000  1
  Ge  Ge11  1  0.42278431  0.75000000  -0.00000000  1
  B  B12  1  0.52955444  0.70249101  0.20044394  1
  B  B13  1  0.97044556  0.20249101  0.29955606  1
  B  B14  1  0.97044556  0.29750899  0.70044394  1
  B  B15  1  0.52955444  0.79750899  0.79955606  1
  B  B16  1  0.47044556  0.29750899  0.79955606  1
  B  B17  1  0.02955444  0.79750899  0.70044394  1
  B  B18  1  0.02955444  0.70249101  0.29955606  1
  B  B19  1  0.47044556  0.20249101  0.20044394  1
  O  O20  1  0.53607254  0.54945446  0.19235204  1
  O  O21  1  0.96392746  0.04945446  0.30764796  1
  O  O22  1  0.96392746  0.45054554  0.69235204  1
  O  O23  1  0.53607254  0.95054554  0.80764796  1
  O  O24  1  0.46392746  0.45054554  0.80764796  1
  O  O25  1  0.03607254  0.95054554  0.69235204  1
  O  O26  1  0.03607254  0.54945446  0.30764796  1
  O  O27  1  0.46392746  0.04945446  0.19235204  1
  O  O28  1  0.65522794  0.76725996  0.10720592  1
  O  O29  1  0.84477206  0.26725996  0.39279408  1
  O  O30  1  0.84477206  0.23274004  0.60720592  1
  O  O31  1  0.65522794  0.73274004  0.89279408  1
  O  O32  1  0.34477206  0.23274004  0.89279408  1
  O  O33  1  0.15522794  0.73274004  0.60720592  1
  O  O34  1  0.15522794  0.76725996  0.39279408  1
  O  O35  1  0.34477206  0.26725996  0.10720592  1
  O  O36  1  0.21765454  0.75799598  0.21631566  1
  O  O37  1  0.28234546  0.25799598  0.28368434  1
  O  O38  1  0.28234546  0.24200402  0.71631566  1
  O  O39  1  0.21765454  0.74200402  0.78368434  1
  O  O40  1  0.78234546  0.24200402  0.78368434  1
  O  O41  1  0.71765454  0.74200402  0.71631566  1
  O  O42  1  0.71765454  0.75799598  0.28368434  1
  O  O43  1  0.78234546  0.25799598  0.21631566  1
  O  O44  1  0.70171545  0.59753903  0.49512571  1
  O  O45  1  0.79828455  0.09753903  0.00487429  1
  O  O46  1  0.79828455  0.40246097  0.99512571  1
  O  O47  1  0.70171545  0.90246097  0.50487429  1
  O  O48  1  0.29828455  0.40246097  0.50487429  1
  O  O49  1  0.20171545  0.90246097  0.99512571  1
  O  O50  1  0.20171545  0.59753903  0.00487429  1
  O  O51  1  0.29828455  0.09753903  0.49512571  1
