# generated using pymatgen
data_Nd2HfS5
_symmetry_space_group_name_H-M   'P 1'
_cell_length_a   7.39740665
_cell_length_b   7.96432290
_cell_length_c   11.69334759
_cell_angle_alpha   90.00000000
_cell_angle_beta   90.00000000
_cell_angle_gamma   90.00000000
_symmetry_Int_Tables_number   1
_chemical_formula_structural   Nd2HfS5
_chemical_formula_sum   'Nd8 Hf4 S20'
_cell_volume   688.91749268
_cell_formula_units_Z   4
loop_
 _symmetry_equiv_pos_site_id
 _symmetry_equiv_pos_as_xyz
  1  'x, y, z'
loop_
 _atom_site_type_symbol
 _atom_site_label
 _atom_site_symmetry_multiplicity
 _atom_site_fract_x
 _atom_site_fract_y
 _atom_site_fract_z
 _atom_site_occupancy
  Nd  Nd0  1  0.97193165  0.00184382  0.17740483  1
  Nd  Nd1  1  0.52806835  0.49815618  0.67740483  1
  Nd  Nd2  1  0.02806835  0.50184382  0.82259517  1
  Nd  Nd3  1  0.47193165  0.99815618  0.32259517  1
  Nd  Nd4  1  0.02806835  0.99815618  0.82259517  1
  Nd  Nd5  1  0.47193165  0.50184382  0.32259517  1
  Nd  Nd6  1  0.97193165  0.49815618  0.17740483  1
  Nd  Nd7  1  0.52806835  0.00184382  0.67740483  1
  Hf  Hf8  1  0.42608302  0.75000000  0.00656272  1
  Hf  Hf9  1  0.07391698  0.75000000  0.50656272  1
  Hf  Hf10  1  0.57391698  0.25000000  0.99343728  1
  Hf  Hf11  1  0.92608302  0.25000000  0.49343728  1
  S  S12  1  0.66053399  0.53528536  0.91248590  1
  S  S13  1  0.83946601  0.96471464  0.41248590  1
  S  S14  1  0.33946601  0.03528536  0.08751410  1
  S  S15  1  0.16053399  0.46471464  0.58751410  1
  S  S16  1  0.33946601  0.46471464  0.08751410  1
  S  S17  1  0.16053399  0.03528536  0.58751410  1
  S  S18  1  0.66053399  0.96471464  0.91248590  1
  S  S19  1  0.83946601  0.53528536  0.41248590  1
  S  S20  1  0.66105388  0.75000000  0.18057527  1
  S  S21  1  0.83894612  0.75000000  0.68057527  1
  S  S22  1  0.33894612  0.25000000  0.81942473  1
  S  S23  1  0.16105388  0.25000000  0.31942473  1
  S  S24  1  0.05966073  0.75000000  0.00541443  1
  S  S25  1  0.44033927  0.75000000  0.50541443  1
  S  S26  1  0.94033927  0.25000000  0.99458557  1
  S  S27  1  0.55966073  0.25000000  0.49458557  1
  S  S28  1  0.31673948  0.75000000  0.79576038  1
  S  S29  1  0.18326052  0.75000000  0.29576038  1
  S  S30  1  0.68326052  0.25000000  0.20423962  1
  S  S31  1  0.81673948  0.25000000  0.70423962  1
