# generated using pymatgen
data_Tm5(Co2Si7)2
_symmetry_space_group_name_H-M   'P 1'
_cell_length_a   7.71223015
_cell_length_b   7.79030959
_cell_length_c   12.32092681
_cell_angle_alpha   90.00000000
_cell_angle_beta   98.82219640
_cell_angle_gamma   90.00000000
_symmetry_Int_Tables_number   1
_chemical_formula_structural   Tm5(Co2Si7)2
_chemical_formula_sum   'Tm10 Co8 Si28'
_cell_volume   731.49155940
_cell_formula_units_Z   2
loop_
 _symmetry_equiv_pos_site_id
 _symmetry_equiv_pos_as_xyz
  1  'x, y, z'
loop_
 _atom_site_type_symbol
 _atom_site_label
 _atom_site_symmetry_multiplicity
 _atom_site_fract_x
 _atom_site_fract_y
 _atom_site_fract_z
 _atom_site_occupancy
  Tm  Tm0  1  0.50000000  0.50000000  0.50000000  1
  Tm  Tm1  1  -0.00000000  0.00000000  0.50000000  1
  Tm  Tm2  1  0.65769333  0.75175627  0.13506634  1
  Tm  Tm3  1  0.84230667  0.25175627  0.86493366  1
  Tm  Tm4  1  0.34230667  0.24824373  0.86493366  1
  Tm  Tm5  1  0.15769333  0.74824373  0.13506634  1
  Tm  Tm6  1  0.33971464  0.74894130  0.86516587  1
  Tm  Tm7  1  0.16028536  0.24894130  0.13483413  1
  Tm  Tm8  1  0.66028536  0.25105870  0.13483413  1
  Tm  Tm9  1  0.83971464  0.75105870  0.86516587  1
  Co  Co10  1  0.37269388  0.87373481  0.50023196  1
  Co  Co11  1  0.12730612  0.37373481  0.49976804  1
  Co  Co12  1  0.62730612  0.12626519  0.49976804  1
  Co  Co13  1  0.87269388  0.62626519  0.50023196  1
  Co  Co14  1  0.43898810  0.49980375  0.25004062  1
  Co  Co15  1  0.06101190  0.99980375  0.74995938  1
  Co  Co16  1  0.56101190  0.50019625  0.74995938  1
  Co  Co17  1  0.93898810  0.00019625  0.25004062  1
  Si  Si18  1  0.33404219  0.16622014  0.50051458  1
  Si  Si19  1  0.16595781  0.66622014  0.49948542  1
  Si  Si20  1  0.66595781  0.83377986  0.49948542  1
  Si  Si21  1  0.83404219  0.33377986  0.50051458  1
  Si  Si22  1  0.46129866  0.22581451  0.32159379  1
  Si  Si23  1  0.03870134  0.72581451  0.67840621  1
  Si  Si24  1  0.53870134  0.77418549  0.67840621  1
  Si  Si25  1  0.96129866  0.27418549  0.32159379  1
  Si  Si26  1  0.26857917  0.49457797  0.67818493  1
  Si  Si27  1  0.23142083  0.99457797  0.32181507  1
  Si  Si28  1  0.73142083  0.50542203  0.32181507  1
  Si  Si29  1  0.76857917  0.00542203  0.67818493  1
  Si  Si30  1  0.45004929  0.77392456  0.32170987  1
  Si  Si31  1  0.04995071  0.27392456  0.67829013  1
  Si  Si32  1  0.54995071  0.22607544  0.67829013  1
  Si  Si33  1  0.95004929  0.72607544  0.32170987  1
  Si  Si34  1  0.18131314  0.49439728  0.32133195  1
  Si  Si35  1  0.31868686  0.99439728  0.67866805  1
  Si  Si36  1  0.81868686  0.50560272  0.67866805  1
  Si  Si37  1  0.68131314  0.00560272  0.32133195  1
  Si  Si38  1  0.38900467  0.99987241  0.05975525  1
  Si  Si39  1  0.11099533  0.49987241  0.94024475  1
  Si  Si40  1  0.61099533  0.00012759  0.94024475  1
  Si  Si41  1  0.88900467  0.50012759  0.05975525  1
  Si  Si42  1  0.39055909  0.50070821  0.05968636  1
  Si  Si43  1  0.10944091  0.00070821  0.94031364  1
  Si  Si44  1  0.60944091  0.49929179  0.94031364  1
  Si  Si45  1  0.89055909  0.99929179  0.05968636  1
