# generated using pymatgen
data_CsNb2PSe10
_symmetry_space_group_name_H-M   'P 1'
_cell_length_a   8.11103269
_cell_length_b   13.79469460
_cell_length_c   15.15904349
_cell_angle_alpha   98.22085625
_cell_angle_beta   90.00000000
_cell_angle_gamma   90.00000000
_symmetry_Int_Tables_number   1
_chemical_formula_structural   CsNb2PSe10
_chemical_formula_sum   'Cs4 Nb8 P4 Se40'
_cell_volume   1678.70448465
_cell_formula_units_Z   4
loop_
 _symmetry_equiv_pos_site_id
 _symmetry_equiv_pos_as_xyz
  1  'x, y, z'
loop_
 _atom_site_type_symbol
 _atom_site_label
 _atom_site_symmetry_multiplicity
 _atom_site_fract_x
 _atom_site_fract_y
 _atom_site_fract_z
 _atom_site_occupancy
  Cs  Cs0  1  0.49374835  0.54957195  0.40703002  1
  Cs  Cs1  1  0.50625165  0.04957195  0.40703002  1
  Cs  Cs2  1  0.47206476  0.79364125  0.90914908  1
  Cs  Cs3  1  0.52793524  0.29364125  0.90914908  1
  Nb  Nb4  1  0.93326654  0.94142712  0.13495743  1
  Nb  Nb5  1  0.06673346  0.44142712  0.13495743  1
  Nb  Nb6  1  0.94081554  0.18189594  0.63210105  1
  Nb  Nb7  1  0.05918446  0.68189594  0.63210105  1
  Nb  Nb8  1  0.93732260  0.88755749  0.62769951  1
  Nb  Nb9  1  0.06267740  0.38755749  0.62769951  1
  Nb  Nb10  1  0.94443756  0.64712123  0.13116844  1
  Nb  Nb11  1  0.05556244  0.14712123  0.13116844  1
  P  P12  1  0.40650990  0.54279421  0.70261731  1
  P  P13  1  0.59349010  0.04279421  0.70261731  1
  P  P14  1  0.59379787  0.79697518  0.20448892  1
  P  P15  1  0.40620213  0.29697518  0.20448892  1
  Se  Se16  1  0.84683707  0.77135180  0.74900234  1
  Se  Se17  1  0.15316293  0.27135180  0.74900234  1
  Se  Se18  1  0.85787783  0.53083118  0.25230126  1
  Se  Se19  1  0.14212217  0.03083118  0.25230126  1
  Se  Se20  1  0.84227908  0.04988064  0.01286129  1
  Se  Se21  1  0.15772092  0.54988064  0.01286129  1
  Se  Se22  1  0.60333664  0.90517300  0.60413887  1
  Se  Se23  1  0.39666336  0.40517300  0.60413887  1
  Se  Se24  1  0.60826661  0.65847408  0.10730224  1
  Se  Se25  1  0.39173339  0.15847408  0.10730224  1
  Se  Se26  1  0.94002998  0.01480452  0.50642054  1
  Se  Se27  1  0.05997002  0.51480452  0.50642054  1
  Se  Se28  1  0.93930826  0.77385509  0.00944224  1
  Se  Se29  1  0.06069174  0.27385509  0.00944224  1
  Se  Se30  1  0.85941737  0.28750377  0.50578476  1
  Se  Se31  1  0.14058263  0.78750377  0.50578476  1
  Se  Se32  1  0.83699531  0.53061852  0.60837336  1
  Se  Se33  1  0.16300469  0.03061852  0.60837336  1
  Se  Se34  1  0.83787617  0.29385255  0.11169241  1
  Se  Se35  1  0.16212383  0.79385255  0.11169241  1
  Se  Se36  1  0.86500362  0.73875213  0.50400156  1
  Se  Se37  1  0.13499638  0.23875213  0.50400156  1
  Se  Se38  1  0.88218631  0.50079654  0.00353531  1
  Se  Se39  1  0.11781369  0.00079654  0.00353531  1
  Se  Se40  1  0.40510688  0.67937330  0.63855486  1
  Se  Se41  1  0.59489312  0.17937330  0.63855486  1
  Se  Se42  1  0.59010257  0.93230622  0.13889400  1
  Se  Se43  1  0.40989743  0.43230622  0.13889400  1
  Se  Se44  1  0.85688719  0.80963160  0.25585155  1
  Se  Se45  1  0.14311281  0.30963160  0.25585155  1
  Se  Se46  1  0.85808116  0.05096806  0.75266112  1
  Se  Se47  1  0.14191884  0.55096806  0.75266112  1
  Se  Se48  1  0.88462774  0.33664884  0.75903425  1
  Se  Se49  1  0.11537226  0.83664884  0.75903425  1
  Se  Se50  1  0.87436046  0.09786752  0.26248690  1
  Se  Se51  1  0.12563954  0.59786752  0.26248690  1
  Se  Se52  1  0.60206538  0.54151250  0.80047008  1
  Se  Se53  1  0.39793462  0.04151250  0.80047008  1
  Se  Se54  1  0.39769228  0.79446377  0.30209931  1
  Se  Se55  1  0.60230772  0.29446377  0.30209931  1
