# generated using pymatgen
data_Ga40Mo8Au
_symmetry_space_group_name_H-M   'P 1'
_cell_length_a   9.59798072
_cell_length_b   9.59798072
_cell_length_c   9.59798048
_cell_angle_alpha   94.76219008
_cell_angle_beta   94.76219008
_cell_angle_gamma   94.76219297
_symmetry_Int_Tables_number   1
_chemical_formula_structural   Ga40Mo8Au
_chemical_formula_sum   'Ga40 Mo8 Au1'
_cell_volume   874.47755348
_cell_formula_units_Z   1
loop_
 _symmetry_equiv_pos_site_id
 _symmetry_equiv_pos_as_xyz
  1  'x, y, z'
loop_
 _atom_site_type_symbol
 _atom_site_label
 _atom_site_symmetry_multiplicity
 _atom_site_fract_x
 _atom_site_fract_y
 _atom_site_fract_z
 _atom_site_occupancy
  Ga  Ga0  1  0.50000000  0.50000000  0.50000000  1
  Ga  Ga1  1  0.50000000  0.00000000  0.50000000  1
  Ga  Ga2  1  0.00000000  0.50000000  0.50000000  1
  Ga  Ga3  1  0.50000000  0.50000000  0.00000000  1
  Ga  Ga4  1  0.63446739  0.26596510  0.61135737  1
  Ga  Ga5  1  0.26596510  0.61135737  0.63446739  1
  Ga  Ga6  1  0.61135737  0.63446739  0.26596510  1
  Ga  Ga7  1  0.36553261  0.73403490  0.38864263  1
  Ga  Ga8  1  0.73403490  0.38864263  0.36553261  1
  Ga  Ga9  1  0.38864263  0.36553261  0.73403490  1
  Ga  Ga10  1  0.77902893  0.67508040  0.53762490  1
  Ga  Ga11  1  0.67508040  0.53762490  0.77902893  1
  Ga  Ga12  1  0.53762490  0.77902893  0.67508040  1
  Ga  Ga13  1  0.22097107  0.32491960  0.46237510  1
  Ga  Ga14  1  0.32491960  0.46237510  0.22097107  1
  Ga  Ga15  1  0.46237510  0.22097107  0.32491960  1
  Ga  Ga16  1  0.07438329  0.77867217  0.44955169  1
  Ga  Ga17  1  0.77867217  0.44955169  0.07438329  1
  Ga  Ga18  1  0.44955169  0.07438329  0.77867217  1
  Ga  Ga19  1  0.92561671  0.22132783  0.55044831  1
  Ga  Ga20  1  0.22132783  0.55044831  0.92561671  1
  Ga  Ga21  1  0.55044831  0.92561671  0.22132783  1
  Ga  Ga22  1  0.78676522  0.96834984  0.59952193  1
  Ga  Ga23  1  0.96834984  0.59952193  0.78676522  1
  Ga  Ga24  1  0.59952193  0.78676522  0.96834984  1
  Ga  Ga25  1  0.21323478  0.03165016  0.40047807  1
  Ga  Ga26  1  0.03165016  0.40047807  0.21323478  1
  Ga  Ga27  1  0.40047807  0.21323478  0.03165016  1
  Ga  Ga28  1  0.74148231  0.05526086  0.87422619  1
  Ga  Ga29  1  0.05526086  0.87422619  0.74148231  1
  Ga  Ga30  1  0.87422619  0.74148231  0.05526086  1
  Ga  Ga31  1  0.25851769  0.94473914  0.12577381  1
  Ga  Ga32  1  0.94473914  0.12577381  0.25851769  1
  Ga  Ga33  1  0.12577381  0.25851769  0.94473914  1
  Ga  Ga34  1  0.17663106  0.12516987  0.67904773  1
  Ga  Ga35  1  0.12516987  0.67904773  0.17663106  1
  Ga  Ga36  1  0.67904773  0.17663106  0.12516987  1
  Ga  Ga37  1  0.82336894  0.87483013  0.32095227  1
  Ga  Ga38  1  0.87483013  0.32095227  0.82336894  1
  Ga  Ga39  1  0.32095227  0.82336894  0.87483013  1
  Mo  Mo40  1  0.79959141  0.79959141  0.79959141  1
  Mo  Mo41  1  0.20040859  0.20040859  0.20040859  1
  Mo  Mo42  1  0.61256316  0.29113999  0.88781446  1
  Mo  Mo43  1  0.29113999  0.88781446  0.61256316  1
  Mo  Mo44  1  0.88781446  0.61256316  0.29113999  1
  Mo  Mo45  1  0.38743684  0.70886001  0.11218554  1
  Mo  Mo46  1  0.70886001  0.11218554  0.38743684  1
  Mo  Mo47  1  0.11218554  0.38743684  0.70886001  1
  Au  Au48  1  0.00000000  0.00000000  0.00000000  1
