# generated using pymatgen
data_Cr7C3
_symmetry_space_group_name_H-M   'P 1'
_cell_length_a   4.47658140
_cell_length_b   13.93797935
_cell_length_c   13.93797935
_cell_angle_alpha   119.98140204
_cell_angle_beta   90.00000000
_cell_angle_gamma   90.00000000
_symmetry_Int_Tables_number   1
_chemical_formula_structural   Cr7C3
_chemical_formula_sum   'Cr56 C24'
_cell_volume   753.28290112
_cell_formula_units_Z   8
loop_
 _symmetry_equiv_pos_site_id
 _symmetry_equiv_pos_as_xyz
  1  'x, y, z'
loop_
 _atom_site_type_symbol
 _atom_site_label
 _atom_site_symmetry_multiplicity
 _atom_site_fract_x
 _atom_site_fract_y
 _atom_site_fract_z
 _atom_site_occupancy
  Cr  Cr0  1  0.78198337  0.33338902  0.66661098  1
  Cr  Cr1  1  0.28198337  0.66661098  0.33338902  1
  Cr  Cr2  1  0.05607907  0.06131353  0.93868647  1
  Cr  Cr3  1  0.05590468  0.87728814  0.93859251  1
  Cr  Cr4  1  0.05590468  0.06140749  0.12271186  1
  Cr  Cr5  1  0.55607907  0.93868647  0.06131353  1
  Cr  Cr6  1  0.55590468  0.12271186  0.06140749  1
  Cr  Cr7  1  0.55590468  0.93859251  0.87728814  1
  Cr  Cr8  1  0.25822067  0.16690480  0.33371778  1
  Cr  Cr9  1  0.25859183  0.16679481  0.83320519  1
  Cr  Cr10  1  0.25822067  0.66628222  0.83309520  1
  Cr  Cr11  1  0.75822067  0.83309520  0.66628222  1
  Cr  Cr12  1  0.75859183  0.83320519  0.16679481  1
  Cr  Cr13  1  0.75822067  0.33371778  0.16690480  1
  Cr  Cr14  1  0.74902159  0.22763442  0.45525979  1
  Cr  Cr15  1  0.74927315  0.22757209  0.77242791  1
  Cr  Cr16  1  0.74902159  0.54474021  0.77236558  1
  Cr  Cr17  1  0.24902159  0.77236558  0.54474021  1
  Cr  Cr18  1  0.24927315  0.77242791  0.22757209  1
  Cr  Cr19  1  0.24902159  0.45525979  0.22763442  1
  Cr  Cr20  1  0.25275021  0.27313222  0.54600970  1
  Cr  Cr21  1  0.25301291  0.27308627  0.72691373  1
  Cr  Cr22  1  0.25275021  0.45399030  0.72686778  1
  Cr  Cr23  1  0.75275021  0.72686778  0.45399030  1
  Cr  Cr24  1  0.75301291  0.72691373  0.27308627  1
  Cr  Cr25  1  0.75275021  0.54600970  0.27313222  1
  Cr  Cr26  1  0.44797283  0.56180162  0.12361362  1
  Cr  Cr27  1  0.44765111  0.56174899  0.43825101  1
  Cr  Cr28  1  0.44797283  0.87638638  0.43819838  1
  Cr  Cr29  1  0.94797283  0.43819838  0.87638638  1
  Cr  Cr30  1  0.94765111  0.43825101  0.56174899  1
  Cr  Cr31  1  0.94797283  0.12361362  0.56180162  1
  Cr  Cr32  1  0.25682991  0.27175812  0.04464324  1
  Cr  Cr33  1  0.25686988  0.77282324  0.72831717  1
  Cr  Cr34  1  0.25684547  0.95557635  0.22704117  1
  Cr  Cr35  1  0.25684547  0.77295883  0.04442365  1
  Cr  Cr36  1  0.25682991  0.95535676  0.72824188  1
  Cr  Cr37  1  0.25686988  0.27168283  0.22717676  1
  Cr  Cr38  1  0.75682991  0.72824188  0.95535676  1
  Cr  Cr39  1  0.75686988  0.22717676  0.27168283  1
  Cr  Cr40  1  0.75684547  0.04442365  0.77295883  1
  Cr  Cr41  1  0.75684547  0.22704117  0.95557635  1
  Cr  Cr42  1  0.75682991  0.04464324  0.27175812  1
  Cr  Cr43  1  0.75686988  0.72831717  0.77282324  1
  Cr  Cr44  1  0.94744918  0.43758653  0.06227832  1
  Cr  Cr45  1  0.94752542  0.62462414  0.56244441  1
  Cr  Cr46  1  0.94762723  0.93776593  0.37532767  1
  Cr  Cr47  1  0.94762723  0.62467233  0.06223407  1
  Cr  Cr48  1  0.94744918  0.93772168  0.56241347  1
  Cr  Cr49  1  0.94752542  0.43755559  0.37537586  1
  Cr  Cr50  1  0.44744918  0.56241347  0.93772168  1
  Cr  Cr51  1  0.44752542  0.37537586  0.43755559  1
  Cr  Cr52  1  0.44762723  0.06223407  0.62467233  1
  Cr  Cr53  1  0.44762723  0.37532767  0.93776593  1
  Cr  Cr54  1  0.44744918  0.06227832  0.43758653  1
  Cr  Cr55  1  0.44752542  0.56244441  0.62462414  1
  C  C56  1  0.46556668  0.09422048  0.18852114  1
  C  C57  1  0.46555374  0.09417656  0.90582344  1
  C  C58  1  0.46556668  0.81147886  0.90577952  1
  C  C59  1  0.96556668  0.90577952  0.81147886  1
  C  C60  1  0.96555374  0.90582344  0.09417656  1
  C  C61  1  0.96556668  0.18852114  0.09422048  1
  C  C62  1  0.53665624  0.40558160  0.81097092  1
  C  C63  1  0.53657376  0.40554286  0.59445714  1
  C  C64  1  0.53665624  0.18902908  0.59441840  1
  C  C65  1  0.03665624  0.59441840  0.18902908  1
  C  C66  1  0.03657376  0.59445714  0.40554286  1
  C  C67  1  0.03665624  0.81097092  0.40558160  1
  C  C68  1  0.53212545  0.40684957  0.09429428  1
  C  C69  1  0.53217093  0.68744302  0.59314531  1
  C  C70  1  0.53210416  0.90583111  0.31252056  1
  C  C71  1  0.53210416  0.68747944  0.09416889  1
  C  C72  1  0.53212545  0.90570572  0.59315043  1
  C  C73  1  0.53217093  0.40685469  0.31255698  1
  C  C74  1  0.03212545  0.59315043  0.90570572  1
  C  C75  1  0.03217093  0.31255698  0.40685469  1
  C  C76  1  0.03210416  0.09416889  0.68747944  1
  C  C77  1  0.03210416  0.31252056  0.90583111  1
  C  C78  1  0.03212545  0.09429428  0.40684957  1
  C  C79  1  0.03217093  0.59314531  0.68744302  1
