# generated using pymatgen
data_Eu5Pt4
_symmetry_space_group_name_H-M   'P 1'
_cell_length_a   7.75558189
_cell_length_b   7.93654916
_cell_length_c   15.28540431
_cell_angle_alpha   90.00000000
_cell_angle_beta   90.00000000
_cell_angle_gamma   90.00000000
_symmetry_Int_Tables_number   1
_chemical_formula_structural   Eu5Pt4
_chemical_formula_sum   'Eu20 Pt16'
_cell_volume   940.85571906
_cell_formula_units_Z   4
loop_
 _symmetry_equiv_pos_site_id
 _symmetry_equiv_pos_as_xyz
  1  'x, y, z'
loop_
 _atom_site_type_symbol
 _atom_site_label
 _atom_site_symmetry_multiplicity
 _atom_site_fract_x
 _atom_site_fract_y
 _atom_site_fract_z
 _atom_site_occupancy
  Eu  Eu0  1  0.34296920  0.83300963  0.87766344  1
  Eu  Eu1  1  0.84296920  0.66699037  0.62233656  1
  Eu  Eu2  1  0.65703080  0.16699037  0.37766344  1
  Eu  Eu3  1  0.15703080  0.33300963  0.12233656  1
  Eu  Eu4  1  0.65703080  0.16699037  0.12233656  1
  Eu  Eu5  1  0.15703080  0.33300963  0.37766344  1
  Eu  Eu6  1  0.34296920  0.83300963  0.62233656  1
  Eu  Eu7  1  0.84296920  0.66699037  0.87766344  1
  Eu  Eu8  1  0.50064674  0.31979503  0.90603509  1
  Eu  Eu9  1  0.00064674  0.18020497  0.59396491  1
  Eu  Eu10  1  0.49935326  0.68020497  0.40603509  1
  Eu  Eu11  1  0.99935326  0.81979503  0.09396491  1
  Eu  Eu12  1  0.49935326  0.68020497  0.09396491  1
  Eu  Eu13  1  0.99935326  0.81979503  0.40603509  1
  Eu  Eu14  1  0.50064674  0.31979503  0.59396491  1
  Eu  Eu15  1  0.00064674  0.18020497  0.90603509  1
  Eu  Eu16  1  0.18265524  0.48922438  0.75000000  1
  Eu  Eu17  1  0.68265524  0.01077562  0.75000000  1
  Eu  Eu18  1  0.81734476  0.51077562  0.25000000  1
  Eu  Eu19  1  0.31734476  0.98922438  0.25000000  1
  Pt  Pt20  1  0.32256722  0.03249640  0.04072979  1
  Pt  Pt21  1  0.82256722  0.46750360  0.45927021  1
  Pt  Pt22  1  0.67743278  0.96750360  0.54072979  1
  Pt  Pt23  1  0.17743278  0.53249640  0.95927021  1
  Pt  Pt24  1  0.67743278  0.96750360  0.95927021  1
  Pt  Pt25  1  0.17743278  0.53249640  0.54072979  1
  Pt  Pt26  1  0.32256722  0.03249640  0.45927021  1
  Pt  Pt27  1  0.82256722  0.46750360  0.04072979  1
  Pt  Pt28  1  0.54976799  0.60862900  0.75000000  1
  Pt  Pt29  1  0.04976799  0.89137100  0.75000000  1
  Pt  Pt30  1  0.45023201  0.39137100  0.25000000  1
  Pt  Pt31  1  0.95023201  0.10862900  0.25000000  1
  Pt  Pt32  1  0.30677893  0.13590609  0.75000000  1
  Pt  Pt33  1  0.80677893  0.36409391  0.75000000  1
  Pt  Pt34  1  0.69322107  0.86409391  0.25000000  1
  Pt  Pt35  1  0.19322107  0.63590609  0.25000000  1
