# generated using pymatgen
data_Sm2Co5B2
_symmetry_space_group_name_H-M   'P 1'
_cell_length_a   5.09497963
_cell_length_b   5.09497963
_cell_length_c   19.93241041
_cell_angle_alpha   90.00000000
_cell_angle_beta   90.00000000
_cell_angle_gamma   119.98792558
_symmetry_Int_Tables_number   1
_chemical_formula_structural   Sm2Co5B2
_chemical_formula_sum   'Sm8 Co20 B8'
_cell_volume   448.15493606
_cell_formula_units_Z   4
loop_
 _symmetry_equiv_pos_site_id
 _symmetry_equiv_pos_as_xyz
  1  'x, y, z'
loop_
 _atom_site_type_symbol
 _atom_site_label
 _atom_site_symmetry_multiplicity
 _atom_site_fract_x
 _atom_site_fract_y
 _atom_site_fract_z
 _atom_site_occupancy
  Sm  Sm0  1  0.66671679  0.33328321  0.52188041  1
  Sm  Sm1  1  0.33328321  0.66671679  0.47811959  1
  Sm  Sm2  1  0.33328321  0.66671679  0.02188041  1
  Sm  Sm3  1  0.66671679  0.33328321  0.97811959  1
  Sm  Sm4  1  0.66668963  0.33331037  0.67473601  1
  Sm  Sm5  1  0.33331037  0.66668963  0.32526399  1
  Sm  Sm6  1  0.33331037  0.66668963  0.17473601  1
  Sm  Sm7  1  0.66668963  0.33331037  0.82526399  1
  Co  Co8  1  0.00000000  -0.00000000  0.50000000  1
  Co  Co9  1  0.00000000  -0.00000000  -0.00000000  1
  Co  Co10  1  0.16743767  0.33483901  0.75000000  1
  Co  Co11  1  0.16744703  0.83255297  0.75000000  1
  Co  Co12  1  0.66516099  0.83256233  0.75000000  1
  Co  Co13  1  0.83256233  0.66516099  0.25000000  1
  Co  Co14  1  0.83255297  0.16744703  0.25000000  1
  Co  Co15  1  0.33483901  0.16743767  0.25000000  1
  Co  Co16  1  0.16151650  0.32278837  0.60712564  1
  Co  Co17  1  0.16151544  0.83848456  0.60708083  1
  Co  Co18  1  0.67721163  0.83848350  0.60712564  1
  Co  Co19  1  0.83848350  0.67721163  0.39287436  1
  Co  Co20  1  0.83848456  0.16151544  0.39291917  1
  Co  Co21  1  0.32278837  0.16151650  0.39287436  1
  Co  Co22  1  0.83848350  0.67721163  0.10712564  1
  Co  Co23  1  0.83848456  0.16151544  0.10708083  1
  Co  Co24  1  0.32278837  0.16151650  0.10712564  1
  Co  Co25  1  0.16151650  0.32278837  0.89287436  1
  Co  Co26  1  0.16151544  0.83848456  0.89291917  1
  Co  Co27  1  0.67721163  0.83848350  0.89287436  1
  B  B28  1  0.00012542  0.99987458  0.67776926  1
  B  B29  1  0.99987458  0.00012542  0.32223074  1
  B  B30  1  0.99987458  0.00012542  0.17776926  1
  B  B31  1  0.00012542  0.99987458  0.82223074  1
  B  B32  1  0.66668137  0.33331863  0.32530104  1
  B  B33  1  0.33331863  0.66668137  0.67469896  1
  B  B34  1  0.33331863  0.66668137  0.82530104  1
  B  B35  1  0.66668137  0.33331863  0.17469896  1
