# generated using pymatgen
data_LiMn3H6(SeO3)8
_symmetry_space_group_name_H-M   'P 1'
_cell_length_a   8.28760752
_cell_length_b   8.28762163
_cell_length_c   8.28763751
_cell_angle_alpha   86.05083557
_cell_angle_beta   86.05089927
_cell_angle_gamma   86.05103388
_symmetry_Int_Tables_number   1
_chemical_formula_structural   LiMn3H6(SeO3)8
_chemical_formula_sum   'Li1 Mn3 H6 Se8 O24'
_cell_volume   565.35558288
_cell_formula_units_Z   1
loop_
 _symmetry_equiv_pos_site_id
 _symmetry_equiv_pos_as_xyz
  1  'x, y, z'
loop_
 _atom_site_type_symbol
 _atom_site_label
 _atom_site_symmetry_multiplicity
 _atom_site_fract_x
 _atom_site_fract_y
 _atom_site_fract_z
 _atom_site_occupancy
  Li  Li0  1  0.00000000  -0.00000000  -0.00000000  1
  Mn  Mn1  1  0.50000000  -0.00000000  0.50000000  1
  Mn  Mn2  1  0.00000000  0.50000000  0.50000000  1
  Mn  Mn3  1  0.50000000  0.50000000  -0.00000000  1
  H  H4  1  0.99872697  0.07379167  0.65663198  1
  H  H5  1  0.07378429  0.65663415  0.99873050  1
  H  H6  1  0.65663101  0.99873070  0.07378666  1
  H  H7  1  0.00127303  0.92620833  0.34336802  1
  H  H8  1  0.92621571  0.34336585  0.00126950  1
  H  H9  1  0.34336899  0.00126930  0.92621334  1
  Se  Se10  1  0.32858718  0.32858638  0.32858481  1
  Se  Se11  1  0.67141282  0.67141362  0.67141519  1
  Se  Se12  1  0.16770928  0.84170314  0.62961678  1
  Se  Se13  1  0.84169557  0.62961705  0.16770622  1
  Se  Se14  1  0.62961689  0.16770948  0.84169759  1
  Se  Se15  1  0.83229072  0.15829686  0.37038322  1
  Se  Se16  1  0.15830443  0.37038295  0.83229378  1
  Se  Se17  1  0.37038311  0.83229052  0.15830241  1
  O  O18  1  0.48289690  0.23130159  0.43738280  1
  O  O19  1  0.23130569  0.43737922  0.48289089  1
  O  O20  1  0.43738736  0.48289473  0.23130379  1
  O  O21  1  0.51710310  0.76869841  0.56261720  1
  O  O22  1  0.76869431  0.56262078  0.51710911  1
  O  O23  1  0.56261264  0.51710527  0.76869621  1
  O  O24  1  0.04965941  0.77549880  0.49206534  1
  O  O25  1  0.77550068  0.49206765  0.04965322  1
  O  O26  1  0.49206555  0.04965619  0.77550243  1
  O  O27  1  0.95034059  0.22450120  0.50793466  1
  O  O28  1  0.22449932  0.50793235  0.95034678  1
  O  O29  1  0.50793445  0.95034381  0.22449757  1
  O  O30  1  0.26696646  0.98731518  0.50773395  1
  O  O31  1  0.98731146  0.50773143  0.26696911  1
  O  O32  1  0.50773313  0.26696785  0.98731432  1
  O  O33  1  0.73303354  0.01268482  0.49226605  1
  O  O34  1  0.01268854  0.49226857  0.73303089  1
  O  O35  1  0.49226687  0.73303215  0.01268568  1
  O  O36  1  0.03328616  0.98494597  0.73865346  1
  O  O37  1  0.98494676  0.73865286  0.03328929  1
  O  O38  1  0.73865232  0.03328927  0.98494951  1
  O  O39  1  0.96671384  0.01505403  0.26134654  1
  O  O40  1  0.01505324  0.26134714  0.96671071  1
  O  O41  1  0.26134768  0.96671073  0.01505049  1
