# generated using pymatgen
data_Ho5Bi2Pd
_symmetry_space_group_name_H-M   'P 1'
_cell_length_a   7.98450678
_cell_length_b   9.13123610
_cell_length_c   12.28971031
_cell_angle_alpha   90.00000000
_cell_angle_beta   90.00000000
_cell_angle_gamma   90.00000000
_symmetry_Int_Tables_number   1
_chemical_formula_structural   Ho5Bi2Pd
_chemical_formula_sum   'Ho20 Bi8 Pd4'
_cell_volume   896.02331856
_cell_formula_units_Z   4
loop_
 _symmetry_equiv_pos_site_id
 _symmetry_equiv_pos_as_xyz
  1  'x, y, z'
loop_
 _atom_site_type_symbol
 _atom_site_label
 _atom_site_symmetry_multiplicity
 _atom_site_fract_x
 _atom_site_fract_y
 _atom_site_fract_z
 _atom_site_occupancy
  Ho  Ho0  1  0.33862935  0.75000000  0.28665331  1
  Ho  Ho1  1  0.16137065  0.75000000  0.78665331  1
  Ho  Ho2  1  0.66137065  0.25000000  0.71334669  1
  Ho  Ho3  1  0.83862935  0.25000000  0.21334669  1
  Ho  Ho4  1  0.04201591  0.75000000  0.50048097  1
  Ho  Ho5  1  0.45798409  0.75000000  0.00048097  1
  Ho  Ho6  1  0.95798409  0.25000000  0.49951903  1
  Ho  Ho7  1  0.54201591  0.25000000  0.99951903  1
  Ho  Ho8  1  0.86884394  0.75000000  0.19940172  1
  Ho  Ho9  1  0.63115606  0.75000000  0.69940172  1
  Ho  Ho10  1  0.13115606  0.25000000  0.80059828  1
  Ho  Ho11  1  0.36884394  0.25000000  0.30059828  1
  Ho  Ho12  1  0.67826213  0.95041968  0.43160885  1
  Ho  Ho13  1  0.82173787  0.54958032  0.93160885  1
  Ho  Ho14  1  0.32173787  0.45041968  0.56839115  1
  Ho  Ho15  1  0.17826213  0.04958032  0.06839115  1
  Ho  Ho16  1  0.32173787  0.04958032  0.56839115  1
  Ho  Ho17  1  0.17826213  0.45041968  0.06839115  1
  Ho  Ho18  1  0.67826213  0.54958032  0.43160885  1
  Ho  Ho19  1  0.82173787  0.95041968  0.93160885  1
  Bi  Bi20  1  0.57016714  0.99315486  0.17203577  1
  Bi  Bi21  1  0.92983286  0.50684514  0.67203577  1
  Bi  Bi22  1  0.42983286  0.49315486  0.82796423  1
  Bi  Bi23  1  0.07016714  0.00684514  0.32796423  1
  Bi  Bi24  1  0.42983286  0.00684514  0.82796423  1
  Bi  Bi25  1  0.07016714  0.49315486  0.32796423  1
  Bi  Bi26  1  0.57016714  0.50684514  0.17203577  1
  Bi  Bi27  1  0.92983286  0.99315486  0.67203577  1
  Pd  Pd28  1  0.08623941  0.75000000  0.01451277  1
  Pd  Pd29  1  0.41376059  0.75000000  0.51451277  1
  Pd  Pd30  1  0.91376059  0.25000000  0.98548723  1
  Pd  Pd31  1  0.58623941  0.25000000  0.48548723  1
