# generated using pymatgen
data_K2CoH12(SeO7)2
_symmetry_space_group_name_H-M   'P 1'
_cell_length_a   6.42597937
_cell_length_b   9.31666704
_cell_length_c   12.66903096
_cell_angle_alpha   90.00000000
_cell_angle_beta   90.00000000
_cell_angle_gamma   103.81333890
_symmetry_Int_Tables_number   1
_chemical_formula_structural   K2CoH12(SeO7)2
_chemical_formula_sum   'K4 Co2 H24 Se4 O28'
_cell_volume   736.54237369
_cell_formula_units_Z   2
loop_
 _symmetry_equiv_pos_site_id
 _symmetry_equiv_pos_as_xyz
  1  'x, y, z'
loop_
 _atom_site_type_symbol
 _atom_site_label
 _atom_site_symmetry_multiplicity
 _atom_site_fract_x
 _atom_site_fract_y
 _atom_site_fract_z
 _atom_site_occupancy
  K  K0  1  0.34678306  0.62930852  0.15014897  1
  K  K1  1  0.65321694  0.87069148  0.65014897  1
  K  K2  1  0.65321694  0.37069148  0.84985103  1
  K  K3  1  0.34678306  0.12930852  0.34985103  1
  Co  Co4  1  0.00000000  0.50000000  0.50000000  1
  Co  Co5  1  0.00000000  -0.00000000  0.00000000  1
  H  H6  1  0.31480948  0.71073100  0.41279370  1
  H  H7  1  0.68519052  0.78926900  0.91279370  1
  H  H8  1  0.68519052  0.28926900  0.58720630  1
  H  H9  1  0.31480948  0.21073100  0.08720630  1
  H  H10  1  0.09501024  0.74362733  0.37207635  1
  H  H11  1  0.90498976  0.75637267  0.87207635  1
  H  H12  1  0.90498976  0.25637267  0.62792365  1
  H  H13  1  0.09501024  0.24362733  0.12792365  1
  H  H14  1  0.92560681  0.23435263  0.39884077  1
  H  H15  1  0.07439319  0.26564737  0.89884077  1
  H  H16  1  0.07439319  0.76564737  0.60115923  1
  H  H17  1  0.92560681  0.73435263  0.10115923  1
  H  H18  1  0.00189532  0.36212757  0.31453474  1
  H  H19  1  0.99810468  0.13787243  0.81453474  1
  H  H20  1  0.99810468  0.63787243  0.68546526  1
  H  H21  1  0.00189532  0.86212757  0.18546526  1
  H  H22  1  0.32161475  0.38851620  0.56073967  1
  H  H23  1  0.67838525  0.11148380  0.06073967  1
  H  H24  1  0.67838525  0.61148380  0.43926033  1
  H  H25  1  0.32161475  0.88851620  0.93926033  1
  H  H26  1  0.32857942  0.52585503  0.63771721  1
  H  H27  1  0.67142058  0.97414497  0.13771721  1
  H  H28  1  0.67142058  0.47414497  0.36228279  1
  H  H29  1  0.32857942  0.02585503  0.86228279  1
  Se  Se30  1  0.73081138  0.91039922  0.35839167  1
  Se  Se31  1  0.26918862  0.58960078  0.85839167  1
  Se  Se32  1  0.26918862  0.08960078  0.64160833  1
  Se  Se33  1  0.73081138  0.41039922  0.14160833  1
  O  O34  1  0.56974106  0.90362126  0.25329560  1
  O  O35  1  0.43025894  0.59637874  0.75329560  1
  O  O36  1  0.43025894  0.09637874  0.74670440  1
  O  O37  1  0.56974106  0.40362126  0.24670440  1
  O  O38  1  0.75402016  0.07115062  0.42129520  1
  O  O39  1  0.24597984  0.42884938  0.92129520  1
  O  O40  1  0.24597984  0.92884938  0.57870480  1
  O  O41  1  0.75402016  0.57115062  0.07870480  1
  O  O42  1  0.61190159  0.77496081  0.44159526  1
  O  O43  1  0.38809841  0.72503919  0.94159526  1
  O  O44  1  0.38809841  0.22503919  0.55840474  1
  O  O45  1  0.61190159  0.27496081  0.05840474  1
  O  O46  1  0.97270988  0.88832001  0.32062882  1
  O  O47  1  0.02729012  0.61167999  0.82062882  1
  O  O48  1  0.02729012  0.11167999  0.67937118  1
  O  O49  1  0.97270988  0.38832001  0.17937118  1
  O  O50  1  0.16881945  0.66363432  0.38799415  1
  O  O51  1  0.83118055  0.83636568  0.88799415  1
  O  O52  1  0.83118055  0.33636568  0.61200585  1
  O  O53  1  0.16881945  0.16363432  0.11200585  1
  O  O54  1  0.02713029  0.33275668  0.38817232  1
  O  O55  1  0.97286971  0.16724332  0.88817232  1
  O  O56  1  0.97286971  0.66724332  0.61182768  1
  O  O57  1  0.02713029  0.83275668  0.11182768  1
  O  O58  1  0.28351000  0.48591627  0.56604134  1
  O  O59  1  0.71649000  0.01408373  0.06604134  1
  O  O60  1  0.71649000  0.51408373  0.43395866  1
  O  O61  1  0.28351000  0.98591627  0.93395866  1
