# generated using pymatgen
data_Pr4(ErS2)11
_symmetry_space_group_name_H-M   'P 1'
_cell_length_a   3.94815884
_cell_length_b   11.36293209
_cell_length_c   19.68732010
_cell_angle_alpha   91.41018693
_cell_angle_beta   95.75481160
_cell_angle_gamma   90.00000000
_symmetry_Int_Tables_number   1
_chemical_formula_structural   Pr4(ErS2)11
_chemical_formula_sum   'Pr4 Er11 S22'
_cell_volume   878.50533790
_cell_formula_units_Z   1
loop_
 _symmetry_equiv_pos_site_id
 _symmetry_equiv_pos_as_xyz
  1  'x, y, z'
loop_
 _atom_site_type_symbol
 _atom_site_label
 _atom_site_symmetry_multiplicity
 _atom_site_fract_x
 _atom_site_fract_y
 _atom_site_fract_z
 _atom_site_occupancy
  Pr  Pr0  1  0.10415180  0.01257819  0.20830360  1
  Pr  Pr1  1  0.89584820  0.98742181  0.79169640  1
  Pr  Pr2  1  0.36716799  0.34781977  0.73433597  1
  Pr  Pr3  1  0.63283201  0.65218023  0.26566403  1
  Er  Er4  1  0.79799957  0.05778722  0.59599914  1
  Er  Er5  1  0.20200043  0.94221278  0.40400086  1
  Er  Er6  1  0.46180775  0.27147843  0.92361550  1
  Er  Er7  1  0.53819225  0.72852157  0.07638450  1
  Er  Er8  1  0.65767357  0.30193869  0.31534714  1
  Er  Er9  1  0.34232643  0.69806131  0.68465286  1
  Er  Er10  1  0.26410834  0.35201856  0.52821668  1
  Er  Er11  1  0.73589166  0.64798144  0.47178332  1
  Er  Er12  1  0.06934032  0.35989845  0.13868063  1
  Er  Er13  1  0.93065968  0.64010155  0.86131937  1
  Er  Er14  1  0.00000000  -0.00000000  0.00000000  1
  S  S15  1  0.08725372  0.75246671  0.17450743  1
  S  S16  1  0.91274628  0.24753329  0.82549257  1
  S  S17  1  0.18882685  0.69224271  0.37765371  1
  S  S18  1  0.81117315  0.30775729  0.62234629  1
  S  S19  1  0.27999810  0.59005586  0.55999620  1
  S  S20  1  0.72000190  0.40994414  0.44000380  1
  S  S21  1  0.44578361  0.49545337  0.89156721  1
  S  S22  1  0.55421639  0.50454663  0.10843279  1
  S  S23  1  0.13436707  0.45335691  0.26873413  1
  S  S24  1  0.86563293  0.54664309  0.73126587  1
  S  S25  1  0.59290078  0.21244656  0.18580156  1
  S  S26  1  0.40709922  0.78755344  0.81419844  1
  S  S27  1  0.45323178  0.03147769  0.90646357  1
  S  S28  1  0.54676822  0.96852231  0.09353643  1
  S  S29  1  0.35058357  0.09183598  0.70116713  1
  S  S30  1  0.64941643  0.90816402  0.29883287  1
  S  S31  1  0.16837336  0.15161126  0.33674673  1
  S  S32  1  0.83162664  0.84838874  0.66325327  1
  S  S33  1  0.00777424  0.23872871  0.01554848  1
  S  S34  1  0.99222576  0.76127129  0.98445152  1
  S  S35  1  0.25524953  0.11923649  0.51049906  1
  S  S36  1  0.74475047  0.88076351  0.48950094  1
