# generated using pymatgen
data_KS3
_symmetry_space_group_name_H-M   'P 1'
_cell_length_a   6.59335659
_cell_length_b   12.11449442
_cell_length_c   12.19428036
_cell_angle_alpha   90.00000000
_cell_angle_beta   103.78768945
_cell_angle_gamma   90.00000000
_symmetry_Int_Tables_number   1
_chemical_formula_structural   KS3
_chemical_formula_sum   'K8 S24'
_cell_volume   945.95445686
_cell_formula_units_Z   8
loop_
 _symmetry_equiv_pos_site_id
 _symmetry_equiv_pos_as_xyz
  1  'x, y, z'
loop_
 _atom_site_type_symbol
 _atom_site_label
 _atom_site_symmetry_multiplicity
 _atom_site_fract_x
 _atom_site_fract_y
 _atom_site_fract_z
 _atom_site_occupancy
  K  K0  1  0.81023689  0.63883581  0.02265755  1
  K  K1  1  0.31023689  0.86116419  0.52265755  1
  K  K2  1  0.18976311  0.36116419  0.97734245  1
  K  K3  1  0.68976311  0.13883581  0.47734245  1
  K  K4  1  0.71732725  0.61084792  0.41054321  1
  K  K5  1  0.21732725  0.88915208  0.91054321  1
  K  K6  1  0.28267275  0.38915208  0.58945679  1
  K  K7  1  0.78267275  0.11084792  0.08945679  1
  S  S8  1  0.69858971  0.37187418  0.00039920  1
  S  S9  1  0.19858971  0.12812582  0.50039920  1
  S  S10  1  0.30141029  0.62812582  0.99960080  1
  S  S11  1  0.80141029  0.87187418  0.49960080  1
  S  S12  1  0.68908326  0.41780768  0.16159623  1
  S  S13  1  0.18908326  0.08219232  0.66159623  1
  S  S14  1  0.31091674  0.58219232  0.83840377  1
  S  S15  1  0.81091674  0.91780768  0.33840377  1
  S  S16  1  0.89672546  0.32935299  0.28077649  1
  S  S17  1  0.39672546  0.17064701  0.78077649  1
  S  S18  1  0.10327454  0.67064701  0.71922351  1
  S  S19  1  0.60327454  0.82935299  0.21922351  1
  S  S20  1  0.20845683  0.38569964  0.27198974  1
  S  S21  1  0.70845683  0.11430036  0.77198974  1
  S  S22  1  0.79154317  0.61430036  0.72801026  1
  S  S23  1  0.29154317  0.88569964  0.22801026  1
  S  S24  1  0.20526675  0.55367776  0.27513647  1
  S  S25  1  0.70526675  0.94632224  0.77513647  1
  S  S26  1  0.79473325  0.44632224  0.72486353  1
  S  S27  1  0.29473325  0.05367776  0.22486353  1
  S  S28  1  0.22236313  0.61029000  0.43596042  1
  S  S29  1  0.72236313  0.88971000  0.93596042  1
  S  S30  1  0.77763687  0.38971000  0.56403958  1
  S  S31  1  0.27763687  0.11029000  0.06403958  1
