# generated using pymatgen
data_La2H28PtN4(Cl3O13)2
_symmetry_space_group_name_H-M   'P 1'
_cell_length_a   7.02434469
_cell_length_b   13.55024008
_cell_length_c   16.68563483
_cell_angle_alpha   90.00000000
_cell_angle_beta   90.00000000
_cell_angle_gamma   93.50582578
_symmetry_Int_Tables_number   1
_chemical_formula_structural   La2H28PtN4(Cl3O13)2
_chemical_formula_sum   'La4 H56 Pt2 N8 Cl12 O52'
_cell_volume   1585.19258698
_cell_formula_units_Z   2
loop_
 _symmetry_equiv_pos_site_id
 _symmetry_equiv_pos_as_xyz
  1  'x, y, z'
loop_
 _atom_site_type_symbol
 _atom_site_label
 _atom_site_symmetry_multiplicity
 _atom_site_fract_x
 _atom_site_fract_y
 _atom_site_fract_z
 _atom_site_occupancy
  La  La0  1  0.49755770  0.85081524  0.30935046  1
  La  La1  1  0.50244230  0.64918476  0.80935046  1
  La  La2  1  0.50244230  0.14918476  0.69064954  1
  La  La3  1  0.49755770  0.35081524  0.19064954  1
  H  H4  1  0.71093940  0.56488682  0.16105726  1
  H  H5  1  0.28906060  0.93511318  0.66105726  1
  H  H6  1  0.28906060  0.43511318  0.83894274  1
  H  H7  1  0.71093940  0.06488682  0.33894274  1
  H  H8  1  0.80607080  0.52418618  0.24059551  1
  H  H9  1  0.19392920  0.97581382  0.74059551  1
  H  H10  1  0.19392920  0.47581382  0.75940449  1
  H  H11  1  0.80607080  0.02418618  0.25940449  1
  H  H12  1  0.09888950  0.79891835  0.40087661  1
  H  H13  1  0.90111050  0.70108165  0.90087661  1
  H  H14  1  0.90111050  0.20108165  0.59912339  1
  H  H15  1  0.09888950  0.29891835  0.09912339  1
  H  H16  1  0.24020504  0.72092090  0.43336131  1
  H  H17  1  0.75979496  0.77907910  0.93336131  1
  H  H18  1  0.75979496  0.27907910  0.56663869  1
  H  H19  1  0.24020504  0.22092090  0.06663869  1
  H  H20  1  0.88485004  0.81807173  0.21898112  1
  H  H21  1  0.11514996  0.68192827  0.71898112  1
  H  H22  1  0.11514996  0.18192827  0.78101888  1
  H  H23  1  0.88485004  0.31807173  0.28101888  1
  H  H24  1  0.72543629  0.76424466  0.16505505  1
  H  H25  1  0.27456371  0.73575534  0.66505505  1
  H  H26  1  0.27456371  0.23575534  0.83494495  1
  H  H27  1  0.72543629  0.26424466  0.33494495  1
  H  H28  1  0.51572616  0.61474420  0.34424266  1
  H  H29  1  0.48427384  0.88525580  0.84424266  1
  H  H30  1  0.48427384  0.38525580  0.65575734  1
  H  H31  1  0.51572616  0.11474420  0.15575734  1
  H  H32  1  0.67940764  0.66387242  0.39802803  1
  H  H33  1  0.32059236  0.83612758  0.89802803  1
  H  H34  1  0.32059236  0.33612758  0.60197197  1
  H  H35  1  0.67940764  0.16387242  0.10197197  1
  H  H36  1  0.23964236  0.01173406  0.40146508  1
  H  H37  1  0.76035764  0.48826594  0.90146508  1
  H  H38  1  0.76035764  0.98826594  0.59853492  1
  H  H39  1  0.23964236  0.51173406  0.09853492  1
  H  H40  1  0.30887619  0.05815624  0.32062624  1
  H  H41  1  0.69112381  0.44184376  0.82062624  1
  H  H42  1  0.69112381  0.94184376  0.67937376  1
  H  H43  1  0.30887619  0.55815624  0.17937376  1
  H  H44  1  0.31228187  0.94481776  0.15019121  1
  H  H45  1  0.68771813  0.55518224  0.65019121  1
  H  H46  1  0.68771813  0.05518224  0.84980879  1
  H  H47  1  0.31228187  0.44481776  0.34980879  1
  H  H48  1  0.52888289  0.93729724  0.13053696  1
  H  H49  1  0.47111711  0.56270276  0.63053696  1
  H  H50  1  0.47111711  0.06270276  0.86946304  1
  H  H51  1  0.52888289  0.43729724  0.36946304  1
  H  H52  1  0.59193106  0.64563193  0.05366293  1
  H  H53  1  0.40806894  0.85436807  0.55366293  1
  H  H54  1  0.40806894  0.35436807  0.94633707  1
  H  H55  1  0.59193106  0.14563193  0.44633707  1
  H  H56  1  0.81248554  0.66253340  0.05992980  1
  H  H57  1  0.18751446  0.83746660  0.55992980  1
  H  H58  1  0.18751446  0.33746660  0.94007020  1
  H  H59  1  0.81248554  0.16253340  0.44007020  1
  Pt  Pt60  1  0.00000000  -0.00000000  -0.00000000  1
  Pt  Pt61  1  0.00000000  0.50000000  0.50000000  1
  N  N62  1  0.78069410  0.37834254  0.04432965  1
  N  N63  1  0.21930590  0.12165746  0.54432965  1
  N  N64  1  0.21930590  0.62165746  0.95567035  1
  N  N65  1  0.78069410  0.87834254  0.45567035  1
  N  N66  1  0.17892909  0.72521344  0.21614566  1
  N  N67  1  0.82107091  0.77478656  0.71614566  1
  N  N68  1  0.82107091  0.27478656  0.78385434  1
  N  N69  1  0.17892909  0.22521344  0.28385434  1
  Cl  Cl70  1  0.01158778  0.04026495  0.13716767  1
  Cl  Cl71  1  0.98841222  0.45973505  0.63716767  1
  Cl  Cl72  1  0.98841222  0.95973505  0.86283233  1
  Cl  Cl73  1  0.01158778  0.54026495  0.36283233  1
  Cl  Cl74  1  0.70135512  0.91409688  0.01424646  1
  Cl  Cl75  1  0.29864488  0.58590312  0.51424646  1
  Cl  Cl76  1  0.29864488  0.08590312  0.98575354  1
  Cl  Cl77  1  0.70135512  0.41409688  0.48575354  1
  Cl  Cl78  1  0.84719543  0.14607525  0.97475613  1
  Cl  Cl79  1  0.15280457  0.35392475  0.47475613  1
  Cl  Cl80  1  0.15280457  0.85392475  0.02524387  1
  Cl  Cl81  1  0.84719543  0.64607525  0.52524387  1
  O  O82  1  0.71283595  0.50749115  0.19855078  1
  O  O83  1  0.28716405  0.99250885  0.69855078  1
  O  O84  1  0.28716405  0.49250885  0.80144922  1
  O  O85  1  0.71283595  0.00749115  0.30144922  1
  O  O86  1  0.23486924  0.78664436  0.40863056  1
  O  O87  1  0.76513076  0.71335564  0.90863056  1
  O  O88  1  0.76513076  0.21335564  0.59136944  1
  O  O89  1  0.23486924  0.28664436  0.09136944  1
  O  O90  1  0.74601381  0.81375408  0.20820048  1
  O  O91  1  0.25398619  0.68624592  0.70820048  1
  O  O92  1  0.25398619  0.18624592  0.79179952  1
  O  O93  1  0.74601381  0.31375408  0.29179952  1
  O  O94  1  0.58112417  0.67817906  0.35858399  1
  O  O95  1  0.41887583  0.82182094  0.85858399  1
  O  O96  1  0.41887583  0.32182094  0.64141601  1
  O  O97  1  0.58112417  0.17817906  0.14141601  1
  O  O98  1  0.30558129  0.99626073  0.35151267  1
  O  O99  1  0.69441871  0.50373927  0.85151267  1
  O  O100  1  0.69441871  0.00373927  0.64848733  1
  O  O101  1  0.30558129  0.49626073  0.14848733  1
  O  O102  1  0.44009896  0.95109127  0.17433749  1
  O  O103  1  0.55990104  0.54890873  0.67433749  1
  O  O104  1  0.55990104  0.04890873  0.82566251  1
  O  O105  1  0.44009896  0.45109127  0.32566251  1
  O  O106  1  0.84557859  0.33957856  0.10757952  1
  O  O107  1  0.15442141  0.16042144  0.60757952  1
  O  O108  1  0.15442141  0.66042144  0.89242048  1
  O  O109  1  0.84557859  0.83957856  0.39242048  1
  O  O110  1  0.60014847  0.39022808  0.04237050  1
  O  O111  1  0.39985153  0.10977192  0.54237050  1
  O  O112  1  0.39985153  0.60977192  0.95762950  1
  O  O113  1  0.60014847  0.89022808  0.45762950  1
  O  O114  1  0.88510262  0.40420175  0.98690444  1
  O  O115  1  0.11489738  0.09579825  0.48690444  1
  O  O116  1  0.11489738  0.59579825  0.01309556  1
  O  O117  1  0.88510262  0.90420175  0.51309556  1
  O  O118  1  0.14320916  0.81154449  0.24129953  1
  O  O119  1  0.85679084  0.68845551  0.74129953  1
  O  O120  1  0.85679084  0.18845551  0.75870047  1
  O  O121  1  0.14320916  0.31154449  0.25870047  1
  O  O122  1  0.35143525  0.69918627  0.22377263  1
  O  O123  1  0.64856475  0.80081373  0.72377263  1
  O  O124  1  0.64856475  0.30081373  0.77622737  1
  O  O125  1  0.35143525  0.19918627  0.27622737  1
  O  O126  1  0.05462159  0.66833408  0.18604889  1
  O  O127  1  0.94537841  0.83166592  0.68604889  1
  O  O128  1  0.94537841  0.33166592  0.81395111  1
  O  O129  1  0.05462159  0.16833408  0.31395111  1
  O  O130  1  0.69623109  0.65754742  0.09236346  1
  O  O131  1  0.30376891  0.84245258  0.59236346  1
  O  O132  1  0.30376891  0.34245258  0.90763654  1
  O  O133  1  0.69623109  0.15754742  0.40763654  1
