# generated using pymatgen
data_B2Mo(PbO2)6
_symmetry_space_group_name_H-M   'P 1'
_cell_length_a   6.46293070
_cell_length_b   9.90837886
_cell_length_c   11.92932552
_cell_angle_alpha   90.00000000
_cell_angle_beta   90.00000000
_cell_angle_gamma   109.03432962
_symmetry_Int_Tables_number   1
_chemical_formula_structural   B2Mo(PbO2)6
_chemical_formula_sum   'B4 Mo2 Pb12 O24'
_cell_volume   722.15159059
_cell_formula_units_Z   2
loop_
 _symmetry_equiv_pos_site_id
 _symmetry_equiv_pos_as_xyz
  1  'x, y, z'
loop_
 _atom_site_type_symbol
 _atom_site_label
 _atom_site_symmetry_multiplicity
 _atom_site_fract_x
 _atom_site_fract_y
 _atom_site_fract_z
 _atom_site_occupancy
  B  B0  1  0.74610502  0.49221003  0.00000000  1
  B  B1  1  0.74610502  0.49221003  0.50000000  1
  B  B2  1  0.25389498  0.50778997  0.00000000  1
  B  B3  1  0.25389498  0.50778997  0.50000000  1
  Mo  Mo4  1  0.73337251  -0.00000000  0.25000000  1
  Mo  Mo5  1  0.26662749  -0.00000000  0.75000000  1
  Pb  Pb6  1  0.48966392  0.58572635  0.25000000  1
  Pb  Pb7  1  0.09606243  0.58572635  0.75000000  1
  Pb  Pb8  1  0.51033608  0.41427365  0.75000000  1
  Pb  Pb9  1  0.90393757  0.41427365  0.25000000  1
  Pb  Pb10  1  0.34505762  0.21242748  0.09209638  1
  Pb  Pb11  1  0.86736985  0.21242748  0.90790362  1
  Pb  Pb12  1  0.34505762  0.21242748  0.40790362  1
  Pb  Pb13  1  0.86736985  0.21242748  0.59209638  1
  Pb  Pb14  1  0.65494238  0.78757252  0.90790362  1
  Pb  Pb15  1  0.13263015  0.78757252  0.09209638  1
  Pb  Pb16  1  0.65494238  0.78757252  0.59209638  1
  Pb  Pb17  1  0.13263015  0.78757252  0.40790362  1
  O  O18  1  0.27207784  0.43441579  0.09688294  1
  O  O19  1  0.16233795  0.43441579  0.90311706  1
  O  O20  1  0.27207784  0.43441579  0.40311706  1
  O  O21  1  0.16233795  0.43441579  0.59688294  1
  O  O22  1  0.72792216  0.56558421  0.90311706  1
  O  O23  1  0.83766205  0.56558421  0.09688294  1
  O  O24  1  0.72792216  0.56558421  0.59688294  1
  O  O25  1  0.83766205  0.56558421  0.40311706  1
  O  O26  1  0.67126446  0.34252891  0.00000000  1
  O  O27  1  0.67126446  0.34252891  0.50000000  1
  O  O28  1  0.32873554  0.65747109  0.00000000  1
  O  O29  1  0.32873554  0.65747109  0.50000000  1
  O  O30  1  0.51687377  0.29745182  0.25000000  1
  O  O31  1  0.78057805  0.29745182  0.75000000  1
  O  O32  1  0.48312623  0.70254818  0.75000000  1
  O  O33  1  0.21942195  0.70254818  0.25000000  1
  O  O34  1  0.97970916  0.15563496  0.25000000  1
  O  O35  1  0.17592581  0.15563496  0.75000000  1
  O  O36  1  0.02029084  0.84436504  0.75000000  1
  O  O37  1  0.82407419  0.84436504  0.25000000  1
  O  O38  1  0.57559957  -0.00000000  0.12618472  1
  O  O39  1  0.42440043  -0.00000000  0.87381528  1
  O  O40  1  0.57559957  -0.00000000  0.37381528  1
  O  O41  1  0.42440043  -0.00000000  0.62618472  1
