# generated using pymatgen
data_NaMn2Si3BH2O11
_symmetry_space_group_name_H-M   'P 1'
_cell_length_a   6.92119177
_cell_length_b   7.63549463
_cell_length_c   9.02099889
_cell_angle_alpha   100.28772627
_cell_angle_beta   102.32185648
_cell_angle_gamma   102.70941399
_symmetry_Int_Tables_number   1
_chemical_formula_structural   NaMn2Si3BH2O11
_chemical_formula_sum   'Na2 Mn4 Si6 B2 H4 O22'
_cell_volume   441.43046494
_cell_formula_units_Z   2
loop_
 _symmetry_equiv_pos_site_id
 _symmetry_equiv_pos_as_xyz
  1  'x, y, z'
loop_
 _atom_site_type_symbol
 _atom_site_label
 _atom_site_symmetry_multiplicity
 _atom_site_fract_x
 _atom_site_fract_y
 _atom_site_fract_z
 _atom_site_occupancy
  Na  Na0  1  0.11255454  0.35133150  0.18515847  1
  Na  Na1  1  0.88744546  0.64866850  0.81484153  1
  Mn  Mn2  1  0.87070158  0.12453454  0.39033822  1
  Mn  Mn3  1  0.12929842  0.87546546  0.60966178  1
  Mn  Mn4  1  0.38100079  0.13047765  0.40156661  1
  Mn  Mn5  1  0.61899921  0.86952235  0.59843339  1
  Si  Si6  1  0.26889984  0.47157718  0.61705267  1
  Si  Si7  1  0.73110016  0.52842282  0.38294733  1
  Si  Si8  1  0.53843878  0.25678974  0.78385142  1
  Si  Si9  1  0.46156122  0.74321026  0.21614858  1
  Si  Si10  1  0.98259199  0.25894703  0.77264887  1
  Si  Si11  1  0.01740801  0.74105297  0.22735113  1
  B  B12  1  0.27813131  0.12704960  0.96680457  1
  B  B13  1  0.72186869  0.87295040  0.03319543  1
  H  H14  1  0.70281828  0.13726393  0.08357276  1
  H  H15  1  0.29718172  0.86273607  0.91642724  1
  H  H16  1  0.45265044  0.23787125  0.18265639  1
  H  H17  1  0.54734956  0.76212875  0.81734361  1
  O  O18  1  0.55963275  0.92210150  0.36419474  1
  O  O19  1  0.44036725  0.07789850  0.63580526  1
  O  O20  1  0.18726300  0.31452425  0.45243838  1
  O  O21  1  0.81273700  0.68547575  0.54756162  1
  O  O22  1  0.47749685  0.21416352  0.94039241  1
  O  O23  1  0.52250315  0.78583648  0.05960759  1
  O  O24  1  0.91388794  0.07776688  0.62784815  1
  O  O25  1  0.08611206  0.92223312  0.37215185  1
  O  O26  1  0.12628486  0.22783245  0.92645486  1
  O  O27  1  0.87371514  0.77216755  0.07354514  1
  O  O28  1  0.67344692  0.31463277  0.39572708  1
  O  O29  1  0.32655308  0.68536723  0.60427292  1
  O  O30  1  0.09209762  0.44414769  0.71802144  1
  O  O31  1  0.90790238  0.55585231  0.28197856  1
  O  O32  1  0.79128766  0.32103101  0.82872818  1
  O  O33  1  0.20871234  0.67896899  0.17127182  1
  O  O34  1  0.47547163  0.43780301  0.73079617  1
  O  O35  1  0.52452837  0.56219699  0.26920383  1
  O  O36  1  0.80335249  0.07159279  0.12452488  1
  O  O37  1  0.19664751  0.92840721  0.87547512  1
  O  O38  1  0.32157310  0.14181487  0.13955639  1
  O  O39  1  0.67842690  0.85818513  0.86044361  1
