# generated using pymatgen
data_CsNbS2O9
_symmetry_space_group_name_H-M   'P 1'
_cell_length_a   5.26203355
_cell_length_b   9.18625133
_cell_length_c   18.69041901
_cell_angle_alpha   90.00000000
_cell_angle_beta   90.00000000
_cell_angle_gamma   90.00000000
_symmetry_Int_Tables_number   1
_chemical_formula_structural   CsNbS2O9
_chemical_formula_sum   'Cs4 Nb4 S8 O36'
_cell_volume   903.46425307
_cell_formula_units_Z   4
loop_
 _symmetry_equiv_pos_site_id
 _symmetry_equiv_pos_as_xyz
  1  'x, y, z'
loop_
 _atom_site_type_symbol
 _atom_site_label
 _atom_site_symmetry_multiplicity
 _atom_site_fract_x
 _atom_site_fract_y
 _atom_site_fract_z
 _atom_site_occupancy
  Cs  Cs0  1  0.75000000  0.66809059  0.42896388  1
  Cs  Cs1  1  0.75000000  0.83190941  0.92896388  1
  Cs  Cs2  1  0.25000000  0.33190941  0.57103612  1
  Cs  Cs3  1  0.25000000  0.16809059  0.07103612  1
  Nb  Nb4  1  0.75000000  0.56697113  0.18518023  1
  Nb  Nb5  1  0.75000000  0.93302887  0.68518023  1
  Nb  Nb6  1  0.25000000  0.43302887  0.81481977  1
  Nb  Nb7  1  0.25000000  0.06697113  0.31481977  1
  S  S8  1  0.75000000  0.96199872  0.20461737  1
  S  S9  1  0.75000000  0.53800128  0.70461737  1
  S  S10  1  0.25000000  0.03800128  0.79538263  1
  S  S11  1  0.25000000  0.46199872  0.29538263  1
  S  S12  1  0.25000000  0.63175213  0.07180244  1
  S  S13  1  0.25000000  0.86824787  0.57180244  1
  S  S14  1  0.75000000  0.36824787  0.92819756  1
  S  S15  1  0.75000000  0.13175213  0.42819756  1
  O  O16  1  0.01982414  0.54272101  0.26577851  1
  O  O17  1  0.48017586  0.95727899  0.76577851  1
  O  O18  1  0.51982414  0.45727899  0.73422149  1
  O  O19  1  0.98017586  0.04272101  0.23422149  1
  O  O20  1  0.98017586  0.45727899  0.73422149  1
  O  O21  1  0.51982414  0.04272101  0.23422149  1
  O  O22  1  0.48017586  0.54272101  0.26577851  1
  O  O23  1  0.01982414  0.95727899  0.76577851  1
  O  O24  1  0.02323412  0.65434592  0.12265994  1
  O  O25  1  0.47676588  0.84565408  0.62265994  1
  O  O26  1  0.52323412  0.34565408  0.87734006  1
  O  O27  1  0.97676588  0.15434592  0.37734006  1
  O  O28  1  0.97676588  0.34565408  0.87734006  1
  O  O29  1  0.52323412  0.15434592  0.37734006  1
  O  O30  1  0.47676588  0.65434592  0.12265994  1
  O  O31  1  0.02323412  0.84565408  0.62265994  1
  O  O32  1  0.75000000  0.81270573  0.23254872  1
  O  O33  1  0.75000000  0.68729427  0.73254872  1
  O  O34  1  0.25000000  0.18729427  0.76745128  1
  O  O35  1  0.25000000  0.31270573  0.26745128  1
  O  O36  1  0.25000000  0.48579256  0.04361774  1
  O  O37  1  0.25000000  0.01420744  0.54361774  1
  O  O38  1  0.75000000  0.51420744  0.95638226  1
  O  O39  1  0.75000000  0.98579256  0.45638226  1
  O  O40  1  0.25000000  0.75104228  0.02103260  1
  O  O41  1  0.25000000  0.74895772  0.52103260  1
  O  O42  1  0.75000000  0.24895772  0.97896740  1
  O  O43  1  0.75000000  0.25104228  0.47896740  1
  O  O44  1  0.75000000  0.97626972  0.12739846  1
  O  O45  1  0.75000000  0.52373028  0.62739846  1
  O  O46  1  0.25000000  0.02373028  0.87260154  1
  O  O47  1  0.25000000  0.47626972  0.37260154  1
  O  O48  1  0.25000000  0.89103001  0.34849497  1
  O  O49  1  0.25000000  0.60896999  0.84849497  1
  O  O50  1  0.75000000  0.10896999  0.65150503  1
  O  O51  1  0.75000000  0.39103001  0.15150503  1
