# generated using pymatgen
data_CrB2(PbO2)6
_symmetry_space_group_name_H-M   'P 1'
_cell_length_a   6.57327109
_cell_length_b   11.94938939
_cell_length_c   18.60945638
_cell_angle_alpha   90.00000000
_cell_angle_beta   90.00000000
_cell_angle_gamma   90.00000000
_symmetry_Int_Tables_number   1
_chemical_formula_structural   CrB2(PbO2)6
_chemical_formula_sum   'Cr4 B8 Pb24 O48'
_cell_volume   1461.70907653
_cell_formula_units_Z   4
loop_
 _symmetry_equiv_pos_site_id
 _symmetry_equiv_pos_as_xyz
  1  'x, y, z'
loop_
 _atom_site_type_symbol
 _atom_site_label
 _atom_site_symmetry_multiplicity
 _atom_site_fract_x
 _atom_site_fract_y
 _atom_site_fract_z
 _atom_site_occupancy
  Cr  Cr0  1  0.74160672  0.25000000  0.00463772  1
  Cr  Cr1  1  0.24160672  0.25000000  0.49536228  1
  Cr  Cr2  1  0.25839328  0.75000000  0.99536228  1
  Cr  Cr3  1  0.75839328  0.75000000  0.50463772  1
  B  B4  1  0.54305306  0.49795645  0.74604882  1
  B  B5  1  0.04305306  0.00204355  0.75395118  1
  B  B6  1  0.45694694  0.99795645  0.25395118  1
  B  B7  1  0.95694694  0.50204355  0.24604882  1
  B  B8  1  0.45694694  0.50204355  0.25395118  1
  B  B9  1  0.95694694  0.99795645  0.24604882  1
  B  B10  1  0.54305306  0.00204355  0.74604882  1
  B  B11  1  0.04305306  0.49795645  0.75395118  1
  Pb  Pb12  1  0.70674271  0.09390628  0.39303709  1
  Pb  Pb13  1  0.20674271  0.40609372  0.10696291  1
  Pb  Pb14  1  0.29325729  0.59390628  0.60696291  1
  Pb  Pb15  1  0.79325729  0.90609372  0.89303709  1
  Pb  Pb16  1  0.29325729  0.90609372  0.60696291  1
  Pb  Pb17  1  0.79325729  0.59390628  0.89303709  1
  Pb  Pb18  1  0.70674271  0.40609372  0.39303709  1
  Pb  Pb19  1  0.20674271  0.09390628  0.10696291  1
  Pb  Pb20  1  0.18671413  0.59367206  0.39208309  1
  Pb  Pb21  1  0.68671413  0.90632794  0.10791691  1
  Pb  Pb22  1  0.81328587  0.09367206  0.60791691  1
  Pb  Pb23  1  0.31328587  0.40632794  0.89208309  1
  Pb  Pb24  1  0.81328587  0.40632794  0.60791691  1
  Pb  Pb25  1  0.31328587  0.09367206  0.89208309  1
  Pb  Pb26  1  0.18671413  0.90632794  0.39208309  1
  Pb  Pb27  1  0.68671413  0.59367206  0.10791691  1
  Pb  Pb28  1  0.85883878  0.25000000  0.79688398  1
  Pb  Pb29  1  0.35883878  0.25000000  0.70311602  1
  Pb  Pb30  1  0.14116122  0.75000000  0.20311602  1
  Pb  Pb31  1  0.64116122  0.75000000  0.29688398  1
  Pb  Pb32  1  0.76107250  0.25000000  0.20887791  1
  Pb  Pb33  1  0.26107250  0.25000000  0.29112209  1
  Pb  Pb34  1  0.23892750  0.75000000  0.79112209  1
  Pb  Pb35  1  0.73892750  0.75000000  0.70887791  1
  O  O36  1  0.60269898  0.59352855  0.78192103  1
  O  O37  1  0.10269898  0.90647145  0.71807897  1
  O  O38  1  0.39730102  0.09352855  0.21807897  1
  O  O39  1  0.89730102  0.40647145  0.28192103  1
  O  O40  1  0.39730102  0.40647145  0.21807897  1
  O  O41  1  0.89730102  0.09352855  0.28192103  1
  O  O42  1  0.60269898  0.90647145  0.78192103  1
  O  O43  1  0.10269898  0.59352855  0.71807897  1
  O  O44  1  0.54116987  0.49493566  0.67074488  1
  O  O45  1  0.04116987  0.00506434  0.82925512  1
  O  O46  1  0.45883013  0.99493566  0.32925512  1
  O  O47  1  0.95883013  0.50506434  0.17074488  1
  O  O48  1  0.45883013  0.50506434  0.32925512  1
  O  O49  1  0.95883013  0.99493566  0.17074488  1
  O  O50  1  0.54116987  0.00506434  0.67074488  1
  O  O51  1  0.04116987  0.49493566  0.82925512  1
  O  O52  1  0.48458448  0.40216069  0.78303697  1
  O  O53  1  0.98458448  0.09783931  0.71696303  1
  O  O54  1  0.51541552  0.90216069  0.21696303  1
  O  O55  1  0.01541552  0.59783931  0.28303697  1
  O  O56  1  0.51541552  0.59783931  0.21696303  1
  O  O57  1  0.01541552  0.90216069  0.28303697  1
  O  O58  1  0.48458448  0.09783931  0.78303697  1
  O  O59  1  0.98458448  0.40216069  0.71696303  1
  O  O60  1  0.59821882  0.25000000  0.34098463  1
  O  O61  1  0.09821882  0.25000000  0.15901537  1
  O  O62  1  0.40178118  0.75000000  0.65901537  1
  O  O63  1  0.90178118  0.75000000  0.84098463  1
  O  O64  1  0.82039170  0.75000000  0.14958389  1
  O  O65  1  0.32039170  0.75000000  0.35041611  1
  O  O66  1  0.17960830  0.25000000  0.85041611  1
  O  O67  1  0.67960830  0.25000000  0.64958389  1
  O  O68  1  0.62199479  0.25000000  0.92378073  1
  O  O69  1  0.12199479  0.25000000  0.57621927  1
  O  O70  1  0.37800521  0.75000000  0.07621927  1
  O  O71  1  0.87800521  0.75000000  0.42378073  1
  O  O72  1  0.56535046  0.25000000  0.06947917  1
  O  O73  1  0.06535046  0.25000000  0.43052083  1
  O  O74  1  0.43464954  0.75000000  0.93052083  1
  O  O75  1  0.93464954  0.75000000  0.56947917  1
  O  O76  1  0.61381471  0.63584503  0.51215322  1
  O  O77  1  0.11381471  0.86415497  0.98784678  1
  O  O78  1  0.38618529  0.13584503  0.48784678  1
  O  O79  1  0.88618529  0.36415497  0.01215322  1
  O  O80  1  0.38618529  0.36415497  0.48784678  1
  O  O81  1  0.88618529  0.13584503  0.01215322  1
  O  O82  1  0.61381471  0.86415497  0.51215322  1
  O  O83  1  0.11381471  0.63584503  0.98784678  1
