# generated using pymatgen
data_Ce(Ga4Fe)2
_symmetry_space_group_name_H-M   'P 1'
_cell_length_a   4.05626754
_cell_length_b   12.51912845
_cell_length_c   14.28793313
_cell_angle_alpha   90.00000000
_cell_angle_beta   90.00000000
_cell_angle_gamma   90.00000000
_symmetry_Int_Tables_number   1
_chemical_formula_structural   Ce(Ga4Fe)2
_chemical_formula_sum   'Ce4 Ga32 Fe8'
_cell_volume   725.55459443
_cell_formula_units_Z   4
loop_
 _symmetry_equiv_pos_site_id
 _symmetry_equiv_pos_as_xyz
  1  'x, y, z'
loop_
 _atom_site_type_symbol
 _atom_site_label
 _atom_site_symmetry_multiplicity
 _atom_site_fract_x
 _atom_site_fract_y
 _atom_site_fract_z
 _atom_site_occupancy
  Ce  Ce0  1  0.00000000  0.84291145  0.18047615  1
  Ce  Ce1  1  0.00000000  0.15708855  0.81952385  1
  Ce  Ce2  1  -0.00000000  0.34291145  0.31952385  1
  Ce  Ce3  1  -0.00000000  0.65708855  0.68047615  1
  Ga  Ga4  1  0.00000000  0.50000000  0.50000000  1
  Ga  Ga5  1  0.00000000  -0.00000000  -0.00000000  1
  Ga  Ga6  1  0.50000000  0.50000000  -0.00000000  1
  Ga  Ga7  1  0.50000000  -0.00000000  0.50000000  1
  Ga  Ga8  1  0.50000000  0.73835361  0.32493783  1
  Ga  Ga9  1  0.50000000  0.26164639  0.67506217  1
  Ga  Ga10  1  0.50000000  0.23835361  0.17506217  1
  Ga  Ga11  1  0.50000000  0.76164639  0.82493783  1
  Ga  Ga12  1  0.50000000  0.95107036  0.31744158  1
  Ga  Ga13  1  0.50000000  0.04892964  0.68255842  1
  Ga  Ga14  1  0.50000000  0.45107036  0.18255842  1
  Ga  Ga15  1  0.50000000  0.54892964  0.81744158  1
  Ga  Ga16  1  0.50000000  0.66457421  0.12196907  1
  Ga  Ga17  1  0.50000000  0.33542579  0.87803093  1
  Ga  Ga18  1  0.50000000  0.16457421  0.37803093  1
  Ga  Ga19  1  0.50000000  0.83542579  0.62196907  1
  Ga  Ga20  1  0.00000000  0.83749481  0.45444283  1
  Ga  Ga21  1  0.00000000  0.16250519  0.54555717  1
  Ga  Ga22  1  -0.00000000  0.33749481  0.04555717  1
  Ga  Ga23  1  -0.00000000  0.66250519  0.95444283  1
  Ga  Ga24  1  0.00000000  0.59859544  0.24568134  1
  Ga  Ga25  1  -0.00000000  0.40140456  0.75431866  1
  Ga  Ga26  1  -0.00000000  0.09859544  0.25431866  1
  Ga  Ga27  1  0.00000000  0.90140456  0.74568134  1
  Ga  Ga28  1  0.50000000  0.83226936  0.00992861  1
  Ga  Ga29  1  0.50000000  0.16773064  0.99007139  1
  Ga  Ga30  1  0.50000000  0.33226936  0.49007139  1
  Ga  Ga31  1  0.50000000  0.66773064  0.50992861  1
  Ga  Ga32  1  0.50000000  0.52325856  0.36642459  1
  Ga  Ga33  1  0.50000000  0.47674144  0.63357541  1
  Ga  Ga34  1  0.50000000  0.02325856  0.13357541  1
  Ga  Ga35  1  0.50000000  0.97674144  0.86642459  1
  Fe  Fe36  1  -0.00000000  0.65226827  0.40295054  1
  Fe  Fe37  1  0.00000000  0.34773173  0.59704946  1
  Fe  Fe38  1  -0.00000000  0.15226827  0.09704946  1
  Fe  Fe39  1  0.00000000  0.84773173  0.90295054  1
  Fe  Fe40  1  -0.00000000  0.53427910  0.09272707  1
  Fe  Fe41  1  -0.00000000  0.46572090  0.90727293  1
  Fe  Fe42  1  0.00000000  0.03427910  0.40727293  1
  Fe  Fe43  1  0.00000000  0.96572090  0.59272707  1
