# generated using pymatgen
data_MgFe2BO5
_symmetry_space_group_name_H-M   'P 1'
_cell_length_a   3.08410825
_cell_length_b   9.45551517
_cell_length_c   12.47856712
_cell_angle_alpha   90.00000000
_cell_angle_beta   90.00000000
_cell_angle_gamma   90.00000000
_symmetry_Int_Tables_number   1
_chemical_formula_structural   MgFe2BO5
_chemical_formula_sum   'Mg4 Fe8 B4 O20'
_cell_volume   363.89788224
_cell_formula_units_Z   4
loop_
 _symmetry_equiv_pos_site_id
 _symmetry_equiv_pos_as_xyz
  1  'x, y, z'
loop_
 _atom_site_type_symbol
 _atom_site_label
 _atom_site_symmetry_multiplicity
 _atom_site_fract_x
 _atom_site_fract_y
 _atom_site_fract_z
 _atom_site_occupancy
  Mg  Mg0  1  -0.00000000  0.49978456  0.22258608  1
  Mg  Mg1  1  -0.00000000  0.00021544  0.72258608  1
  Mg  Mg2  1  -0.00000000  0.50021544  0.77741392  1
  Mg  Mg3  1  0.00000000  0.99978456  0.27741392  1
  Fe  Fe4  1  0.50000000  0.75671379  0.88693785  1
  Fe  Fe5  1  0.50000000  0.74328621  0.38693785  1
  Fe  Fe6  1  0.50000000  0.24328621  0.11306215  1
  Fe  Fe7  1  0.50000000  0.25671379  0.61306215  1
  Fe  Fe8  1  0.00000000  0.00000000  0.00000000  1
  Fe  Fe9  1  -0.00000000  0.50000000  0.50000000  1
  Fe  Fe10  1  0.50000000  0.50000000  0.00000000  1
  Fe  Fe11  1  0.50000000  0.00000000  0.50000000  1
  B  B12  1  0.50000000  0.76840719  0.14118290  1
  B  B13  1  0.50000000  0.73159281  0.64118290  1
  B  B14  1  0.50000000  0.23159281  0.85881710  1
  B  B15  1  0.50000000  0.26840719  0.35881710  1
  O  O16  1  0.50000000  0.83939577  0.04339528  1
  O  O17  1  0.50000000  0.66060423  0.54339528  1
  O  O18  1  0.50000000  0.16060423  0.95660472  1
  O  O19  1  0.50000000  0.33939577  0.45660472  1
  O  O20  1  -0.00000000  0.38399657  0.08242760  1
  O  O21  1  0.00000000  0.11600343  0.58242760  1
  O  O22  1  0.00000000  0.61600343  0.91757240  1
  O  O23  1  -0.00000000  0.88399657  0.41757240  1
  O  O24  1  0.50000000  0.62190361  0.14626660  1
  O  O25  1  0.50000000  0.87809639  0.64626660  1
  O  O26  1  0.50000000  0.37809639  0.85373340  1
  O  O27  1  0.50000000  0.12190361  0.35373340  1
  O  O28  1  0.00000000  0.88917475  0.85788485  1
  O  O29  1  0.00000000  0.61082525  0.35788485  1
  O  O30  1  0.00000000  0.11082525  0.14211515  1
  O  O31  1  0.00000000  0.38917475  0.64211515  1
  O  O32  1  0.50000000  0.34829538  0.26447934  1
  O  O33  1  0.50000000  0.15170462  0.76447934  1
  O  O34  1  0.50000000  0.65170462  0.73552066  1
  O  O35  1  0.50000000  0.84829538  0.23552066  1
