# generated using pymatgen
data_Tb10Mn13C18
_symmetry_space_group_name_H-M   'P 1'
_cell_length_a   8.76142122
_cell_length_b   8.76142122
_cell_length_c   8.76142122
_cell_angle_alpha   109.47122063
_cell_angle_beta   109.47122063
_cell_angle_gamma   109.47122063
_symmetry_Int_Tables_number   1
_chemical_formula_structural   Tb10Mn13C18
_chemical_formula_sum   'Tb10 Mn13 C18'
_cell_volume   517.72816305
_cell_formula_units_Z   1
loop_
 _symmetry_equiv_pos_site_id
 _symmetry_equiv_pos_as_xyz
  1  'x, y, z'
loop_
 _atom_site_type_symbol
 _atom_site_label
 _atom_site_symmetry_multiplicity
 _atom_site_fract_x
 _atom_site_fract_y
 _atom_site_fract_z
 _atom_site_occupancy
  Tb  Tb0  1  0.50000000  0.75000000  0.25000000  1
  Tb  Tb1  1  0.75000000  0.50000000  0.25000000  1
  Tb  Tb2  1  0.25000000  0.75000000  0.50000000  1
  Tb  Tb3  1  0.25000000  0.50000000  0.75000000  1
  Tb  Tb4  1  0.50000000  0.25000000  0.75000000  1
  Tb  Tb5  1  0.75000000  0.25000000  0.50000000  1
  Tb  Tb6  1  0.40890659  0.00000000  -0.00000000  1
  Tb  Tb7  1  -0.00000000  0.40890659  -0.00000000  1
  Tb  Tb8  1  0.00000000  0.00000000  0.40890659  1
  Tb  Tb9  1  0.59109341  0.59109341  0.59109341  1
  Mn  Mn10  1  -0.00000000  -0.00000000  -0.00000000  1
  Mn  Mn11  1  0.66722720  0.82016009  0.00000000  1
  Mn  Mn12  1  0.84706711  0.17983991  0.17983991  1
  Mn  Mn13  1  0.66722720  0.00000000  0.82016009  1
  Mn  Mn14  1  0.82016009  0.66722720  0.00000000  1
  Mn  Mn15  1  -0.00000000  0.66722720  0.82016009  1
  Mn  Mn16  1  0.17983991  0.84706711  0.17983991  1
  Mn  Mn17  1  0.17983991  0.17983991  0.84706711  1
  Mn  Mn18  1  -0.00000000  0.82016009  0.66722720  1
  Mn  Mn19  1  0.82016009  0.00000000  0.66722720  1
  Mn  Mn20  1  0.33277280  0.33277280  0.15293289  1
  Mn  Mn21  1  0.15293289  0.33277280  0.33277280  1
  Mn  Mn22  1  0.33277280  0.15293289  0.33277280  1
  C  C23  1  0.70484927  0.21798094  0.00000000  1
  C  C24  1  0.48686833  0.78201906  0.78201906  1
  C  C25  1  0.70484927  -0.00000000  0.21798094  1
  C  C26  1  0.21798094  0.70484927  -0.00000000  1
  C  C27  1  -0.00000000  0.70484927  0.21798094  1
  C  C28  1  0.78201906  0.48686833  0.78201906  1
  C  C29  1  0.78201906  0.78201906  0.48686833  1
  C  C30  1  -0.00000000  0.21798094  0.70484927  1
  C  C31  1  0.21798094  0.00000000  0.70484927  1
  C  C32  1  0.29515073  0.29515073  0.51313167  1
  C  C33  1  0.51313167  0.29515073  0.29515073  1
  C  C34  1  0.29515073  0.51313167  0.29515073  1
  C  C35  1  0.56841247  0.56841247  0.00000000  1
  C  C36  1  -0.00000000  0.43158753  0.43158753  1
  C  C37  1  0.56841247  0.00000000  0.56841247  1
  C  C38  1  0.00000000  0.56841247  0.56841247  1
  C  C39  1  0.43158753  -0.00000000  0.43158753  1
  C  C40  1  0.43158753  0.43158753  -0.00000000  1
