# generated using pymatgen
data_TePb3Cl4O3
_symmetry_space_group_name_H-M   'P 1'
_cell_length_a   7.57498829
_cell_length_b   8.63112470
_cell_length_c   16.30711061
_cell_angle_alpha   90.00000000
_cell_angle_beta   90.00000000
_cell_angle_gamma   90.00000000
_symmetry_Int_Tables_number   1
_chemical_formula_structural   TePb3Cl4O3
_chemical_formula_sum   'Te4 Pb12 Cl16 O12'
_cell_volume   1066.16979351
_cell_formula_units_Z   4
loop_
 _symmetry_equiv_pos_site_id
 _symmetry_equiv_pos_as_xyz
  1  'x, y, z'
loop_
 _atom_site_type_symbol
 _atom_site_label
 _atom_site_symmetry_multiplicity
 _atom_site_fract_x
 _atom_site_fract_y
 _atom_site_fract_z
 _atom_site_occupancy
  Te  Te0  1  0.15415029  0.07629679  0.97940157  1
  Te  Te1  1  0.84584971  0.57629679  0.02059843  1
  Te  Te2  1  0.34584971  0.57629679  0.47940157  1
  Te  Te3  1  0.65415029  0.07629679  0.52059843  1
  Pb  Pb4  1  0.70745674  0.14801845  0.02312432  1
  Pb  Pb5  1  0.29254326  0.64801845  0.97687568  1
  Pb  Pb6  1  0.79254326  0.64801845  0.52312432  1
  Pb  Pb7  1  0.20745674  0.14801845  0.47687568  1
  Pb  Pb8  1  0.95269206  0.86885207  0.81143120  1
  Pb  Pb9  1  0.04730794  0.36885207  0.18856880  1
  Pb  Pb10  1  0.54730794  0.36885207  0.31143120  1
  Pb  Pb11  1  0.45269206  0.86885207  0.68856880  1
  Pb  Pb12  1  0.94008678  0.36339102  0.81643686  1
  Pb  Pb13  1  0.05991322  0.86339102  0.18356314  1
  Pb  Pb14  1  0.55991322  0.86339102  0.31643686  1
  Pb  Pb15  1  0.44008678  0.36339102  0.68356314  1
  Cl  Cl16  1  0.60293788  0.37289109  0.89488682  1
  Cl  Cl17  1  0.39706212  0.87289109  0.10511318  1
  Cl  Cl18  1  0.89706212  0.87289109  0.39488682  1
  Cl  Cl19  1  0.10293788  0.37289109  0.60511318  1
  Cl  Cl20  1  0.63343169  0.86153319  0.90131187  1
  Cl  Cl21  1  0.36656831  0.36153319  0.09868813  1
  Cl  Cl22  1  0.86656831  0.36153319  0.40131187  1
  Cl  Cl23  1  0.13343169  0.86153319  0.59868813  1
  Cl  Cl24  1  0.75296028  0.61779099  0.71617945  1
  Cl  Cl25  1  0.24703972  0.11779099  0.28382055  1
  Cl  Cl26  1  0.74703972  0.11779099  0.21617945  1
  Cl  Cl27  1  0.25296028  0.61779099  0.78382055  1
  Cl  Cl28  1  0.75440082  0.11428364  0.71750311  1
  Cl  Cl29  1  0.24559918  0.61428364  0.28249689  1
  Cl  Cl30  1  0.74559918  0.61428364  0.21750311  1
  Cl  Cl31  1  0.25440082  0.11428364  0.78249689  1
  O  O32  1  0.95373848  0.14893428  0.91854959  1
  O  O33  1  0.04626152  0.64893428  0.08145041  1
  O  O34  1  0.54626152  0.64893428  0.41854959  1
  O  O35  1  0.45373848  0.14893428  0.58145041  1
  O  O36  1  0.01157282  0.05173600  0.07458613  1
  O  O37  1  0.98842718  0.55173600  0.92541387  1
  O  O38  1  0.48842718  0.55173600  0.57458613  1
  O  O39  1  0.51157282  0.05173600  0.42541387  1
  O  O40  1  0.13301825  0.87215248  0.93685825  1
  O  O41  1  0.86698175  0.37215248  0.06314175  1
  O  O42  1  0.36698175  0.37215248  0.43685825  1
  O  O43  1  0.63301825  0.87215248  0.56314175  1
