# generated using pymatgen
data_KAgPSe3
_symmetry_space_group_name_H-M   'P 1'
_cell_length_a   8.65968876
_cell_length_b   11.41990246
_cell_length_c   21.32191189
_cell_angle_alpha   90.00000000
_cell_angle_beta   93.19183833
_cell_angle_gamma   90.00000000
_symmetry_Int_Tables_number   1
_chemical_formula_structural   KAgPSe3
_chemical_formula_sum   'K12 Ag12 P12 Se36'
_cell_volume   2105.31255476
_cell_formula_units_Z   12
loop_
 _symmetry_equiv_pos_site_id
 _symmetry_equiv_pos_as_xyz
  1  'x, y, z'
loop_
 _atom_site_type_symbol
 _atom_site_label
 _atom_site_symmetry_multiplicity
 _atom_site_fract_x
 _atom_site_fract_y
 _atom_site_fract_z
 _atom_site_occupancy
  K  K0  1  0.18772747  0.15585803  0.70951805  1
  K  K1  1  0.81227253  0.65585803  0.79048195  1
  K  K2  1  0.81227253  0.84414197  0.29048195  1
  K  K3  1  0.18772747  0.34414197  0.20951805  1
  K  K4  1  0.53188515  0.29206087  0.00926325  1
  K  K5  1  0.46811485  0.79206087  0.49073675  1
  K  K6  1  0.46811485  0.70793913  0.99073675  1
  K  K7  1  0.53188515  0.20793913  0.50926325  1
  K  K8  1  0.86351563  0.47485325  0.60007942  1
  K  K9  1  0.13648437  0.97485325  0.89992058  1
  K  K10  1  0.13648437  0.52514675  0.39992058  1
  K  K11  1  0.86351563  0.02514675  0.10007942  1
  Ag  Ag12  1  0.54001100  0.34293668  0.77796958  1
  Ag  Ag13  1  0.45998900  0.84293668  0.72203042  1
  Ag  Ag14  1  0.45998900  0.65706332  0.22203042  1
  Ag  Ag15  1  0.54001100  0.15706332  0.27796958  1
  Ag  Ag16  1  0.18144034  0.46184532  0.86371254  1
  Ag  Ag17  1  0.81855966  0.96184532  0.63628746  1
  Ag  Ag18  1  0.81855966  0.53815468  0.13628746  1
  Ag  Ag19  1  0.18144034  0.03815468  0.36371254  1
  Ag  Ag20  1  0.86866291  0.28079823  0.89731332  1
  Ag  Ag21  1  0.13133709  0.78079823  0.60268668  1
  Ag  Ag22  1  0.13133709  0.71920177  0.10268668  1
  Ag  Ag23  1  0.86866291  0.21920177  0.39731332  1
  P  P24  1  0.59610378  0.04194254  0.86015562  1
  P  P25  1  0.40389622  0.54194254  0.63984438  1
  P  P26  1  0.40389622  0.95805746  0.13984438  1
  P  P27  1  0.59610378  0.45805746  0.36015562  1
  P  P28  1  0.72833330  0.07330630  0.76988905  1
  P  P29  1  0.27166670  0.57330630  0.73011095  1
  P  P30  1  0.27166670  0.92669370  0.23011095  1
  P  P31  1  0.72833330  0.42669370  0.26988905  1
  P  P32  1  0.07067266  0.42440753  0.02560968  1
  P  P33  1  0.92932734  0.92440753  0.47439032  1
  P  P34  1  0.92932734  0.57559247  0.97439032  1
  P  P35  1  0.07067266  0.07559247  0.52560968  1
  Se  Se36  1  0.76450128  0.07559110  0.94055109  1
  Se  Se37  1  0.23549872  0.57559110  0.55944891  1
  Se  Se38  1  0.23549872  0.92440890  0.05944891  1
  Se  Se39  1  0.76450128  0.42440890  0.44055109  1
  Se  Se40  1  0.82614963  0.25321016  0.77279101  1
  Se  Se41  1  0.17385037  0.75321016  0.72720899  1
  Se  Se42  1  0.17385037  0.74678984  0.22720899  1
  Se  Se43  1  0.82614963  0.24678984  0.27279101  1
  Se  Se44  1  0.44739404  0.55443785  0.81080257  1
  Se  Se45  1  0.55260596  0.05443785  0.68919743  1
  Se  Se46  1  0.55260596  0.44556215  0.18919743  1
  Se  Se47  1  0.44739404  0.94556215  0.31080257  1
  Se  Se48  1  0.51641919  0.85862752  0.85345949  1
  Se  Se49  1  0.48358081  0.35862752  0.64654051  1
  Se  Se50  1  0.48358081  0.14137248  0.14654051  1
  Se  Se51  1  0.51641919  0.64137248  0.35345949  1
  Se  Se52  1  0.15603743  0.30421852  0.95196134  1
  Se  Se53  1  0.84396257  0.80421852  0.54803866  1
  Se  Se54  1  0.84396257  0.69578148  0.04803866  1
  Se  Se55  1  0.15603743  0.19578148  0.45196134  1
  Se  Se56  1  0.26914593  0.51078789  0.07723590  1
  Se  Se57  1  0.73085407  0.01078789  0.42276410  1
  Se  Se58  1  0.73085407  0.48921211  0.92276410  1
  Se  Se59  1  0.26914593  0.98921211  0.57723590  1
  Se  Se60  1  0.40939898  0.17616908  0.85400625  1
  Se  Se61  1  0.59060102  0.67616908  0.64599375  1
  Se  Se62  1  0.59060102  0.82383092  0.14599375  1
  Se  Se63  1  0.40939898  0.32383092  0.35400625  1
  Se  Se64  1  0.91387072  0.33347239  0.08709804  1
  Se  Se65  1  0.08612928  0.83347239  0.41290196  1
  Se  Se66  1  0.08612928  0.66652761  0.91290196  1
  Se  Se67  1  0.91387072  0.16652761  0.58709804  1
  Se  Se68  1  0.91234765  0.93986787  0.76456303  1
  Se  Se69  1  0.08765235  0.43986787  0.73543697  1
  Se  Se70  1  0.08765235  0.06013213  0.23543697  1
  Se  Se71  1  0.91234765  0.56013213  0.26456303  1
