# generated using pymatgen
data_TbCo5P3
_symmetry_space_group_name_H-M   'P 1'
_cell_length_a   3.65381163
_cell_length_b   10.27621366
_cell_length_c   11.73057569
_cell_angle_alpha   90.00000000
_cell_angle_beta   90.00000000
_cell_angle_gamma   90.00000000
_symmetry_Int_Tables_number   1
_chemical_formula_structural   TbCo5P3
_chemical_formula_sum   'Tb4 Co20 P12'
_cell_volume   440.45201921
_cell_formula_units_Z   4
loop_
 _symmetry_equiv_pos_site_id
 _symmetry_equiv_pos_as_xyz
  1  'x, y, z'
loop_
 _atom_site_type_symbol
 _atom_site_label
 _atom_site_symmetry_multiplicity
 _atom_site_fract_x
 _atom_site_fract_y
 _atom_site_fract_z
 _atom_site_occupancy
  Tb  Tb0  1  0.25000000  0.58317467  0.70320921  1
  Tb  Tb1  1  0.25000000  0.91682533  0.20320921  1
  Tb  Tb2  1  0.75000000  0.41682533  0.29679079  1
  Tb  Tb3  1  0.75000000  0.08317467  0.79679079  1
  Co  Co4  1  0.25000000  0.71526189  0.98947046  1
  Co  Co5  1  0.25000000  0.78473811  0.48947046  1
  Co  Co6  1  0.75000000  0.28473811  0.01052954  1
  Co  Co7  1  0.75000000  0.21526189  0.51052954  1
  Co  Co8  1  0.25000000  0.40628453  0.48801573  1
  Co  Co9  1  0.25000000  0.09371547  0.98801573  1
  Co  Co10  1  0.75000000  0.59371547  0.51198427  1
  Co  Co11  1  0.75000000  0.90628453  0.01198427  1
  Co  Co12  1  0.25000000  0.22067077  0.17593641  1
  Co  Co13  1  0.25000000  0.27932923  0.67593641  1
  Co  Co14  1  0.75000000  0.77932923  0.82406359  1
  Co  Co15  1  0.75000000  0.72067077  0.32406359  1
  Co  Co16  1  0.25000000  0.88240030  0.69765167  1
  Co  Co17  1  0.25000000  0.61759970  0.19765167  1
  Co  Co18  1  0.75000000  0.11759970  0.30234833  1
  Co  Co19  1  0.75000000  0.38240030  0.80234833  1
  Co  Co20  1  0.25000000  0.46702639  0.93236686  1
  Co  Co21  1  0.25000000  0.03297361  0.43236686  1
  Co  Co22  1  0.75000000  0.53297361  0.06763314  1
  Co  Co23  1  0.75000000  0.96702639  0.56763314  1
  P  P24  1  0.25000000  0.41860404  0.11185425  1
  P  P25  1  0.25000000  0.08139596  0.61185425  1
  P  P26  1  0.75000000  0.58139596  0.88814575  1
  P  P27  1  0.75000000  0.91860404  0.38814575  1
  P  P28  1  0.25000000  0.27124868  0.86967308  1
  P  P29  1  0.25000000  0.22875132  0.36967308  1
  P  P30  1  0.75000000  0.72875132  0.13032692  1
  P  P31  1  0.75000000  0.77124868  0.63032692  1
  P  P32  1  0.25000000  0.60212729  0.39144846  1
  P  P33  1  0.25000000  0.89787271  0.89144846  1
  P  P34  1  0.75000000  0.39787271  0.60855154  1
  P  P35  1  0.75000000  0.10212729  0.10855154  1
