# generated using pymatgen
data_RbCd(BO2)3
_symmetry_space_group_name_H-M   'P 1'
_cell_length_a   7.47514731
_cell_length_b   7.71123908
_cell_length_c   13.10505895
_cell_angle_alpha   82.55500293
_cell_angle_beta   74.49434031
_cell_angle_gamma   61.00772745
_symmetry_Int_Tables_number   1
_chemical_formula_structural   RbCd(BO2)3
_chemical_formula_sum   'Rb4 Cd4 B12 O24'
_cell_volume   636.69764115
_cell_formula_units_Z   4
loop_
 _symmetry_equiv_pos_site_id
 _symmetry_equiv_pos_as_xyz
  1  'x, y, z'
loop_
 _atom_site_type_symbol
 _atom_site_label
 _atom_site_symmetry_multiplicity
 _atom_site_fract_x
 _atom_site_fract_y
 _atom_site_fract_z
 _atom_site_occupancy
  Rb  Rb0  1  0.31812255  0.98565148  0.87068156  1
  Rb  Rb1  1  0.69622597  0.98565148  0.62931844  1
  Rb  Rb2  1  0.68187745  0.01434852  0.12931844  1
  Rb  Rb3  1  0.30377403  0.01434852  0.37068156  1
  Cd  Cd4  1  0.34676251  0.64305788  0.62287801  1
  Cd  Cd5  1  0.01017961  0.64305788  0.87712199  1
  Cd  Cd6  1  0.65323749  0.35694212  0.37712199  1
  Cd  Cd7  1  0.98982039  0.35694212  0.12287801  1
  B  B8  1  0.02974967  0.47065861  0.65978825  1
  B  B9  1  0.49959172  0.47065861  0.84021175  1
  B  B10  1  0.97025033  0.52934139  0.34021175  1
  B  B11  1  0.50040828  0.52934139  0.15978825  1
  B  B12  1  0.17469805  0.11454285  0.62690603  1
  B  B13  1  0.71075911  0.11454285  0.87309397  1
  B  B14  1  0.82530195  0.88545715  0.37309397  1
  B  B15  1  0.28924089  0.88545715  0.12690603  1
  B  B16  1  0.16774655  0.64395907  0.41116393  1
  B  B17  1  0.18829438  0.64395907  0.08883607  1
  B  B18  1  0.83225345  0.35604093  0.58883607  1
  B  B19  1  0.81170562  0.35604093  0.91116393  1
  O  O20  1  0.33443705  0.93216038  0.62490443  1
  O  O21  1  0.73340257  0.93216038  0.87509557  1
  O  O22  1  0.66556295  0.06783962  0.37509557  1
  O  O23  1  0.26659743  0.06783962  0.12490443  1
  O  O24  1  0.33929974  0.61071762  0.44211853  1
  O  O25  1  0.04998264  0.61071762  0.05788147  1
  O  O26  1  0.66070026  0.38928238  0.55788147  1
  O  O27  1  0.95001736  0.38928238  0.94211853  1
  O  O28  1  0.18255183  0.27227411  0.66607201  1
  O  O29  1  0.54517406  0.27227411  0.83392799  1
  O  O30  1  0.81744817  0.72772589  0.33392799  1
  O  O31  1  0.45482594  0.72772589  0.16607201  1
  O  O32  1  0.85353329  0.50843989  0.62306440  1
  O  O33  1  0.63802682  0.50843989  0.87693560  1
  O  O34  1  0.14646671  0.49156011  0.37693560  1
  O  O35  1  0.36197318  0.49156011  0.12306440  1
  O  O36  1  0.99675060  0.16048283  0.58892482  1
  O  O37  1  0.84276657  0.16048283  0.91107518  1
  O  O38  1  0.00324940  0.83951717  0.41107518  1
  O  O39  1  0.15723343  0.83951717  0.08892482  1
  O  O40  1  0.04782816  0.62199711  0.68820766  1
  O  O41  1  0.33017473  0.62199711  0.81179234  1
  O  O42  1  0.95217184  0.37800289  0.31179234  1
  O  O43  1  0.66982527  0.37800289  0.18820766  1
