# generated using pymatgen
data_K3Ta2Cu3S8
_symmetry_space_group_name_H-M   'P 1'
_cell_length_a   5.57508212
_cell_length_b   12.21341077
_cell_length_c   13.57983515
_cell_angle_alpha   67.99481122
_cell_angle_beta   78.15466113
_cell_angle_gamma   76.80675726
_symmetry_Int_Tables_number   1
_chemical_formula_structural   K3Ta2Cu3S8
_chemical_formula_sum   'K6 Ta4 Cu6 S16'
_cell_volume   827.29445825
_cell_formula_units_Z   2
loop_
 _symmetry_equiv_pos_site_id
 _symmetry_equiv_pos_as_xyz
  1  'x, y, z'
loop_
 _atom_site_type_symbol
 _atom_site_label
 _atom_site_symmetry_multiplicity
 _atom_site_fract_x
 _atom_site_fract_y
 _atom_site_fract_z
 _atom_site_occupancy
  K  K0  1  0.72890162  0.71253399  0.90577097  1
  K  K1  1  0.34720658  0.78746601  0.59422903  1
  K  K2  1  0.27109838  0.28746601  0.09422903  1
  K  K3  1  0.65279342  0.21253399  0.40577097  1
  K  K4  1  -0.00000000  0.50000000  0.50000000  1
  K  K5  1  -0.00000000  0.00000000  0.00000000  1
  Ta  Ta6  1  0.15584248  0.47209905  0.78026779  1
  Ta  Ta7  1  0.40820932  0.02790095  0.71973221  1
  Ta  Ta8  1  0.84415752  0.52790095  0.21973221  1
  Ta  Ta9  1  0.59179068  0.97209905  0.28026779  1
  Cu  Cu10  1  0.27832742  0.25000000  0.75000000  1
  Cu  Cu11  1  0.72167258  0.75000000  0.25000000  1
  Cu  Cu12  1  0.90545094  0.03468481  0.71842360  1
  Cu  Cu13  1  0.65855935  0.46531519  0.78157640  1
  Cu  Cu14  1  0.09454906  0.96531519  0.28157640  1
  Cu  Cu15  1  0.34144065  0.53468481  0.21842360  1
  S  S16  1  0.95792516  0.30825979  0.87329817  1
  S  S17  1  0.13948312  0.19174021  0.62670183  1
  S  S18  1  0.04207484  0.69174021  0.12670183  1
  S  S19  1  0.86051688  0.80825979  0.37329817  1
  S  S20  1  0.47862514  0.41805270  0.66092128  1
  S  S21  1  0.55759912  0.08194730  0.83907872  1
  S  S22  1  0.52137486  0.58194730  0.33907872  1
  S  S23  1  0.44240088  0.91805270  0.16092128  1
  S  S24  1  0.87301563  0.62638641  0.68784218  1
  S  S25  1  0.18724422  0.87361359  0.81215782  1
  S  S26  1  0.12698437  0.37361359  0.31215782  1
  S  S27  1  0.81275578  0.12638641  0.18784218  1
  S  S28  1  0.73998676  0.97060838  0.60969925  1
  S  S29  1  0.32029438  0.52939162  0.89030075  1
  S  S30  1  0.26001324  0.02939162  0.39030075  1
  S  S31  1  0.67970562  0.47060838  0.10969925  1
