# generated using pymatgen
data_VP2H4NO7
_symmetry_space_group_name_H-M   'P 1'
_cell_length_a   7.63530197
_cell_length_b   8.38169398
_cell_length_c   10.21166279
_cell_angle_alpha   90.00000000
_cell_angle_beta   90.00000000
_cell_angle_gamma   105.92537268
_symmetry_Int_Tables_number   1
_chemical_formula_structural   VP2H4NO7
_chemical_formula_sum   'V4 P8 H16 N4 O28'
_cell_volume   628.43146747
_cell_formula_units_Z   4
loop_
 _symmetry_equiv_pos_site_id
 _symmetry_equiv_pos_as_xyz
  1  'x, y, z'
loop_
 _atom_site_type_symbol
 _atom_site_label
 _atom_site_symmetry_multiplicity
 _atom_site_fract_x
 _atom_site_fract_y
 _atom_site_fract_z
 _atom_site_occupancy
  V  V0  1  0.76108043  0.24061269  0.60259154  1
  V  V1  1  0.23891957  0.25938731  0.10259154  1
  V  V2  1  0.23891957  0.75938731  0.39740846  1
  V  V3  1  0.76108043  0.74061269  0.89740846  1
  P  P4  1  0.86694399  0.17011903  0.90412441  1
  P  P5  1  0.13305601  0.32988097  0.40412441  1
  P  P6  1  0.13305601  0.82988097  0.09587559  1
  P  P7  1  0.86694399  0.67011903  0.59587559  1
  P  P8  1  0.56454192  0.31273196  0.86831757  1
  P  P9  1  0.43545808  0.18726804  0.36831757  1
  P  P10  1  0.43545808  0.68726804  0.13168243  1
  P  P11  1  0.56454192  0.81273196  0.63168243  1
  H  H12  1  0.25986706  0.03159328  0.76646166  1
  H  H13  1  0.74013294  0.46840672  0.26646166  1
  H  H14  1  0.74013294  0.96840672  0.23353834  1
  H  H15  1  0.25986706  0.53159328  0.73353834  1
  H  H16  1  0.19054137  0.96988901  0.61195953  1
  H  H17  1  0.80945863  0.53011099  0.11195953  1
  H  H18  1  0.80945863  0.03011099  0.38804047  1
  H  H19  1  0.19054137  0.46988901  0.88804047  1
  H  H20  1  0.04433712  0.01242076  0.71910336  1
  H  H21  1  0.95566288  0.48757924  0.21910336  1
  H  H22  1  0.95566288  0.98757924  0.28089664  1
  H  H23  1  0.04433712  0.51242076  0.78089664  1
  H  H24  1  0.21733978  0.16632710  0.66006134  1
  H  H25  1  0.78266022  0.33367290  0.16006134  1
  H  H26  1  0.78266022  0.83367290  0.33993866  1
  H  H27  1  0.21733978  0.66632710  0.83993866  1
  N  N28  1  0.17849456  0.04499341  0.68952915  1
  N  N29  1  0.82150544  0.45500659  0.18952915  1
  N  N30  1  0.82150544  0.95500659  0.31047085  1
  N  N31  1  0.17849456  0.54499341  0.81047085  1
  O  O32  1  0.85173574  0.48642319  0.58912714  1
  O  O33  1  0.14826426  0.01357681  0.08912714  1
  O  O34  1  0.14826426  0.51357681  0.41087286  1
  O  O35  1  0.85173574  0.98642319  0.91087286  1
  O  O36  1  0.67954638  0.98956260  0.60487178  1
  O  O37  1  0.32045362  0.51043740  0.10487178  1
  O  O38  1  0.32045362  0.01043740  0.39512822  1
  O  O39  1  0.67954638  0.48956260  0.89512822  1
  O  O40  1  0.99631850  0.22501615  0.50040882  1
  O  O41  1  0.00368150  0.27498385  0.00040882  1
  O  O42  1  0.00368150  0.77498385  0.49959118  1
  O  O43  1  0.99631850  0.72501615  0.99959118  1
  O  O44  1  0.54949038  0.26139604  0.72409056  1
  O  O45  1  0.45050962  0.23860396  0.22409056  1
  O  O46  1  0.45050962  0.73860396  0.27590944  1
  O  O47  1  0.54949038  0.76139604  0.77590944  1
  O  O48  1  0.62583519  0.23096460  0.42961842  1
  O  O49  1  0.37416481  0.26903540  0.92961842  1
  O  O50  1  0.37416481  0.76903540  0.57038158  1
  O  O51  1  0.62583519  0.73096460  0.07038158  1
  O  O52  1  0.91048974  0.23889618  0.76400821  1
  O  O53  1  0.08951026  0.26110382  0.26400821  1
  O  O54  1  0.08951026  0.76110382  0.23599179  1
  O  O55  1  0.91048974  0.73889618  0.73599179  1
  O  O56  1  0.66937358  0.19311909  0.94495557  1
  O  O57  1  0.33062642  0.30688091  0.44495557  1
  O  O58  1  0.33062642  0.80688091  0.05504443  1
  O  O59  1  0.66937358  0.69311909  0.55504443  1
