# generated using pymatgen
data_Cs(Mg4Al3)4
_symmetry_space_group_name_H-M   'P 1'
_cell_length_a   9.27078579
_cell_length_b   9.27078660
_cell_length_c   9.27078579
_cell_angle_alpha   109.47122109
_cell_angle_beta   109.47122766
_cell_angle_gamma   109.47122109
_symmetry_Int_Tables_number   1
_chemical_formula_structural   Cs(Mg4Al3)4
_chemical_formula_sum   'Cs1 Mg16 Al12'
_cell_volume   613.37736289
_cell_formula_units_Z   1
loop_
 _symmetry_equiv_pos_site_id
 _symmetry_equiv_pos_as_xyz
  1  'x, y, z'
loop_
 _atom_site_type_symbol
 _atom_site_label
 _atom_site_symmetry_multiplicity
 _atom_site_fract_x
 _atom_site_fract_y
 _atom_site_fract_z
 _atom_site_occupancy
  Cs  Cs0  1  -0.00000000  -0.00000000  -0.00000000  1
  Mg  Mg1  1  0.68207462  0.68207462  0.28173316  1
  Mg  Mg2  1  0.59965754  0.99999900  0.31792538  1
  Mg  Mg3  1  0.99999900  0.59965754  0.31792538  1
  Mg  Mg4  1  0.00000000  0.99999900  0.36377094  1
  Mg  Mg5  1  0.40034246  0.71826884  0.40034246  1
  Mg  Mg6  1  0.71826884  0.40034246  0.40034246  1
  Mg  Mg7  1  1.00000000  0.31792438  0.59965654  1
  Mg  Mg8  1  0.31792538  0.99999900  0.59965754  1
  Mg  Mg9  1  0.63622706  0.63622706  0.63622706  1
  Mg  Mg10  1  0.28173316  0.68207462  0.68207462  1
  Mg  Mg11  1  0.68207462  0.28173316  0.68207462  1
  Mg  Mg12  1  0.40034246  0.40034246  0.71826884  1
  Mg  Mg13  1  0.31792538  0.59965754  0.99999900  1
  Mg  Mg14  1  0.99999900  0.36377194  0.99999900  1
  Mg  Mg15  1  0.36377094  0.99999900  0.00000000  1
  Mg  Mg16  1  0.59965654  0.31792438  1.00000000  1
  Al  Al17  1  0.37761775  0.37761675  0.18775002  1
  Al  Al18  1  0.18986673  0.81224998  0.18986673  1
  Al  Al19  1  0.81224898  0.18986673  0.18986673  1
  Al  Al20  1  0.37761775  0.18774902  0.37761775  1
  Al  Al21  1  0.18775002  0.37761675  0.37761775  1
  Al  Al22  1  0.81013327  1.00000000  0.62238225  1
  Al  Al23  1  0.99999900  0.81013327  0.62238325  1
  Al  Al24  1  0.99999900  0.62238325  0.81013327  1
  Al  Al25  1  0.62238225  1.00000000  0.81013327  1
  Al  Al26  1  0.18986673  0.18986673  0.81224898  1
  Al  Al27  1  0.62238325  0.81013327  0.99999900  1
  Al  Al28  1  0.81013327  0.62238325  0.99999900  1
