# generated using pymatgen
data_Tm(BRu)4
_symmetry_space_group_name_H-M   'P 1'
_cell_length_a   7.47090173
_cell_length_b   7.47090173
_cell_length_c   9.19485687
_cell_angle_alpha   113.96976044
_cell_angle_beta   113.96976044
_cell_angle_gamma   90.00000000
_symmetry_Int_Tables_number   1
_chemical_formula_structural   Tm(BRu)4
_chemical_formula_sum   'Tm4 B16 Ru16'
_cell_volume   420.04978270
_cell_formula_units_Z   4
loop_
 _symmetry_equiv_pos_site_id
 _symmetry_equiv_pos_as_xyz
  1  'x, y, z'
loop_
 _atom_site_type_symbol
 _atom_site_label
 _atom_site_symmetry_multiplicity
 _atom_site_fract_x
 _atom_site_fract_y
 _atom_site_fract_z
 _atom_site_occupancy
  Tm  Tm0  1  0.12500000  0.37500000  0.25000000  1
  Tm  Tm1  1  0.62500000  0.87500000  0.25000000  1
  Tm  Tm2  1  0.87500000  0.62500000  0.75000000  1
  Tm  Tm3  1  0.37500000  0.12500000  0.75000000  1
  B  B4  1  0.78823120  0.34729401  0.91332410  1
  B  B5  1  0.62509290  0.84729401  0.91332410  1
  B  B6  1  0.84729401  0.28823120  0.41332410  1
  B  B7  1  0.06603009  0.78823120  0.41332410  1
  B  B8  1  0.21176880  0.65270599  0.08667590  1
  B  B9  1  0.37490710  0.15270599  0.08667590  1
  B  B10  1  0.15270599  0.71176880  0.58667590  1
  B  B11  1  0.93396991  0.21176880  0.58667590  1
  B  B12  1  0.28823120  0.56603009  0.91332410  1
  B  B13  1  0.12509290  0.06603009  0.91332410  1
  B  B14  1  0.34729401  0.12509290  0.41332410  1
  B  B15  1  0.56603009  0.62509290  0.41332410  1
  B  B16  1  0.71176880  0.43396991  0.08667590  1
  B  B17  1  0.87490710  0.93396991  0.08667590  1
  B  B18  1  0.65270599  0.87490710  0.58667590  1
  B  B19  1  0.43396991  0.37490710  0.58667590  1
  Ru  Ru20  1  0.94704288  0.66406236  0.12612904  1
  Ru  Ru21  1  0.67908616  0.16406236  0.12612904  1
  Ru  Ru22  1  0.16406236  0.44704288  0.62612904  1
  Ru  Ru23  1  0.96206668  0.94704288  0.62612904  1
  Ru  Ru24  1  0.05295712  0.33593764  0.87387096  1
  Ru  Ru25  1  0.32091384  0.83593764  0.87387096  1
  Ru  Ru26  1  0.83593764  0.55295712  0.37387096  1
  Ru  Ru27  1  0.03793332  0.05295712  0.37387096  1
  Ru  Ru28  1  0.44704288  0.46206668  0.12612904  1
  Ru  Ru29  1  0.17908616  0.96206668  0.12612904  1
  Ru  Ru30  1  0.66406236  0.17908616  0.62612904  1
  Ru  Ru31  1  0.46206668  0.67908616  0.62612904  1
  Ru  Ru32  1  0.55295712  0.53793332  0.87387096  1
  Ru  Ru33  1  0.82091384  0.03793332  0.87387096  1
  Ru  Ru34  1  0.33593764  0.82091384  0.37387096  1
  Ru  Ru35  1  0.53793332  0.32091384  0.37387096  1
