# generated using pymatgen
data_La4In21Pd10
_symmetry_space_group_name_H-M   'P 1'
_cell_length_a   4.59678470
_cell_length_b   12.28251531
_cell_length_c   15.04119000
_cell_angle_alpha   81.53717101
_cell_angle_beta   81.21039457
_cell_angle_gamma   79.21482353
_symmetry_Int_Tables_number   1
_chemical_formula_structural   La4In21Pd10
_chemical_formula_sum   'La4 In21 Pd10'
_cell_volume   818.25611881
_cell_formula_units_Z   1
loop_
 _symmetry_equiv_pos_site_id
 _symmetry_equiv_pos_as_xyz
  1  'x, y, z'
loop_
 _atom_site_type_symbol
 _atom_site_label
 _atom_site_symmetry_multiplicity
 _atom_site_fract_x
 _atom_site_fract_y
 _atom_site_fract_z
 _atom_site_occupancy
  La  La0  1  0.77113664  0.13272863  0.32499810  1
  La  La1  1  0.22886336  0.86727137  0.67500190  1
  La  La2  1  0.12185217  0.58988555  0.16641012  1
  La  La3  1  0.87814783  0.41011445  0.83358988  1
  In  In4  1  0.50000000  0.00000000  0.00000000  1
  In  In5  1  0.88536613  0.17812571  0.05114203  1
  In  In6  1  0.11463387  0.82187429  0.94885797  1
  In  In7  1  0.54117930  0.78516782  0.13247358  1
  In  In8  1  0.45882070  0.21483218  0.86752642  1
  In  In9  1  0.93527390  0.83224670  0.29720550  1
  In  In10  1  0.06472610  0.16775330  0.70279450  1
  In  In11  1  0.63052869  0.43801906  0.30092356  1
  In  In12  1  0.36947131  0.56198094  0.69907644  1
  In  In13  1  0.01030863  0.57236699  0.40701574  1
  In  In14  1  0.98969137  0.42763301  0.59298426  1
  In  In15  1  0.25060988  0.29383204  0.20494820  1
  In  In16  1  0.74939012  0.70616796  0.79505180  1
  In  In17  1  0.38524275  0.02596341  0.20355109  1
  In  In18  1  0.61475725  0.97403659  0.79644891  1
  In  In19  1  0.39838975  0.70621209  0.49700841  1
  In  In20  1  0.60161025  0.29378791  0.50299159  1
  In  In21  1  0.79944328  0.89756836  0.50354509  1
  In  In22  1  0.20055672  0.10243164  0.49645491  1
  In  In23  1  0.29794483  0.40292692  0.00118342  1
  In  In24  1  0.70205517  0.59707308  0.99881658  1
  Pd  Pd25  1  0.75102166  0.38410767  0.11384900  1
  Pd  Pd26  1  0.24897834  0.61589233  0.88615100  1
  Pd  Pd27  1  0.97527017  0.93789823  0.11156143  1
  Pd  Pd28  1  0.02472983  0.06210177  0.88843857  1
  Pd  Pd29  1  0.34694111  0.91870936  0.38740842  1
  Pd  Pd30  1  0.65305889  0.08129064  0.61259158  1
  Pd  Pd31  1  0.13581058  0.33462418  0.39375465  1
  Pd  Pd32  1  0.86418942  0.66537582  0.60624535  1
  Pd  Pd33  1  0.50425493  0.67727640  0.31421374  1
  Pd  Pd34  1  0.49574507  0.32272360  0.68578626  1
