# generated using pymatgen
data_Ce9(SbO)5
_symmetry_space_group_name_H-M   'P 1'
_cell_length_a   9.18017713
_cell_length_b   10.19727737
_cell_length_c   10.19727737
_cell_angle_alpha   90.00000000
_cell_angle_beta   90.00000000
_cell_angle_gamma   90.00000000
_symmetry_Int_Tables_number   1
_chemical_formula_structural   Ce9(SbO)5
_chemical_formula_sum   'Ce18 Sb10 O10'
_cell_volume   954.59581445
_cell_formula_units_Z   2
loop_
 _symmetry_equiv_pos_site_id
 _symmetry_equiv_pos_as_xyz
  1  'x, y, z'
loop_
 _atom_site_type_symbol
 _atom_site_label
 _atom_site_symmetry_multiplicity
 _atom_site_fract_x
 _atom_site_fract_y
 _atom_site_fract_z
 _atom_site_occupancy
  Ce  Ce0  1  0.67027175  0.75000000  0.75000000  1
  Ce  Ce1  1  0.32972825  0.25000000  0.25000000  1
  Ce  Ce2  1  0.65632251  0.95321991  0.35377691  1
  Ce  Ce3  1  0.65632251  0.54678009  0.14622309  1
  Ce  Ce4  1  0.65632251  0.35377691  0.54678009  1
  Ce  Ce5  1  0.65632251  0.14622309  0.95321991  1
  Ce  Ce6  1  0.34367749  0.04678009  0.64622309  1
  Ce  Ce7  1  0.34367749  0.45321991  0.85377691  1
  Ce  Ce8  1  0.34367749  0.64622309  0.45321991  1
  Ce  Ce9  1  0.34367749  0.85377691  0.04678009  1
  Ce  Ce10  1  0.00089116  0.66960233  0.97650775  1
  Ce  Ce11  1  0.00089116  0.83039767  0.52349225  1
  Ce  Ce12  1  0.00089116  0.97650775  0.83039767  1
  Ce  Ce13  1  0.00089116  0.52349225  0.66960233  1
  Ce  Ce14  1  0.99910884  0.33039767  0.02349225  1
  Ce  Ce15  1  0.99910884  0.16960233  0.47650775  1
  Ce  Ce16  1  0.99910884  0.02349225  0.16960233  1
  Ce  Ce17  1  0.99910884  0.47650775  0.33039767  1
  Sb  Sb18  1  0.30803143  0.75000000  0.75000000  1
  Sb  Sb19  1  0.69196857  0.25000000  0.25000000  1
  Sb  Sb20  1  0.70157021  0.05305742  0.65274371  1
  Sb  Sb21  1  0.70157021  0.44694258  0.84725629  1
  Sb  Sb22  1  0.70157021  0.65274371  0.44694258  1
  Sb  Sb23  1  0.70157021  0.84725629  0.05305742  1
  Sb  Sb24  1  0.29842979  0.94694258  0.34725629  1
  Sb  Sb25  1  0.29842979  0.55305742  0.15274371  1
  Sb  Sb26  1  0.29842979  0.34725629  0.55305742  1
  Sb  Sb27  1  0.29842979  0.15274371  0.94694258  1
  O  O28  1  0.92380511  0.75000000  0.75000000  1
  O  O29  1  0.07619489  0.25000000  0.25000000  1
  O  O30  1  0.09395566  0.87228441  0.02716756  1
  O  O31  1  0.09395566  0.62771559  0.47283244  1
  O  O32  1  0.09395566  0.02716756  0.62771559  1
  O  O33  1  0.09395566  0.47283244  0.87228441  1
  O  O34  1  0.90604434  0.12771559  0.97283244  1
  O  O35  1  0.90604434  0.37228441  0.52716756  1
  O  O36  1  0.90604434  0.97283244  0.37228441  1
  O  O37  1  0.90604434  0.52716756  0.12771559  1
