# generated using pymatgen
data_Er11(In3Ge2)2
_symmetry_space_group_name_H-M   'P 1'
_cell_length_a   11.45576624
_cell_length_b   11.45576624
_cell_length_c   11.45576624
_cell_angle_alpha   89.93002161
_cell_angle_beta   120.04041026
_cell_angle_gamma   120.04041026
_symmetry_Int_Tables_number   1
_chemical_formula_structural   Er11(In3Ge2)2
_chemical_formula_sum   'Er22 In12 Ge8'
_cell_volume   1062.40897896
_cell_formula_units_Z   2
loop_
 _symmetry_equiv_pos_site_id
 _symmetry_equiv_pos_as_xyz
  1  'x, y, z'
loop_
 _atom_site_type_symbol
 _atom_site_label
 _atom_site_symmetry_multiplicity
 _atom_site_fract_x
 _atom_site_fract_y
 _atom_site_fract_z
 _atom_site_occupancy
  Er  Er0  1  0.75026641  0.06496553  0.31469912  1
  Er  Er1  1  0.24973359  0.56443271  0.31469912  1
  Er  Er2  1  0.75026641  0.31469912  0.06496553  1
  Er  Er3  1  0.24973359  0.31469912  0.56443271  1
  Er  Er4  1  0.24973359  0.93503447  0.68530088  1
  Er  Er5  1  0.75026641  0.43556729  0.68530088  1
  Er  Er6  1  0.24973359  0.68530088  0.93503447  1
  Er  Er7  1  0.75026641  0.68530088  0.43556729  1
  Er  Er8  1  0.65440851  0.75625063  0.10184211  1
  Er  Er9  1  0.34559149  0.44743360  0.10184211  1
  Er  Er10  1  0.65440851  0.10184211  0.75625063  1
  Er  Er11  1  0.34559149  0.10184211  0.44743360  1
  Er  Er12  1  0.34559149  0.24374937  0.89815789  1
  Er  Er13  1  0.65440851  0.55256640  0.89815789  1
  Er  Er14  1  0.34559149  0.89815789  0.24374937  1
  Er  Er15  1  0.65440851  0.89815789  0.55256640  1
  Er  Er16  1  0.33855078  0.66927539  0.66927539  1
  Er  Er17  1  0.66144922  0.33072461  0.33072461  1
  Er  Er18  1  -0.00000000  0.33072461  0.66927539  1
  Er  Er19  1  -0.00000000  0.66927539  0.33072461  1
  Er  Er20  1  -0.00000000  0.16868172  0.16868172  1
  Er  Er21  1  0.00000000  0.83131828  0.83131828  1
  In  In22  1  0.58871400  0.96552128  0.96552128  1
  In  In23  1  0.41128600  0.37680728  0.37680728  1
  In  In24  1  0.00000000  0.37680728  0.96552128  1
  In  In25  1  -0.00000000  0.96552128  0.37680728  1
  In  In26  1  0.41128600  0.03447872  0.03447872  1
  In  In27  1  0.58871400  0.62319272  0.62319272  1
  In  In28  1  -0.00000000  0.62319272  0.03447872  1
  In  In29  1  0.00000000  0.03447872  0.62319272  1
  In  In30  1  0.74229690  0.87114845  0.87114845  1
  In  In31  1  0.25770310  0.12885155  0.12885155  1
  In  In32  1  0.00000000  0.12885155  0.87114845  1
  In  In33  1  0.00000000  0.87114845  0.12885155  1
  Ge  Ge34  1  0.34754768  0.50000000  0.84754768  1
  Ge  Ge35  1  0.65245232  0.50000000  0.15245232  1
  Ge  Ge36  1  0.65245232  0.15245232  0.50000000  1
  Ge  Ge37  1  0.34754768  0.84754768  0.50000000  1
  Ge  Ge38  1  -0.00000000  0.38350463  0.38350463  1
  Ge  Ge39  1  0.00000000  0.61649537  0.61649537  1
  Ge  Ge40  1  0.50000000  0.75000000  0.25000000  1
  Ge  Ge41  1  0.50000000  0.25000000  0.75000000  1
