# generated using pymatgen
data_CsRb14Tl27
_symmetry_space_group_name_H-M   'P 1'
_cell_length_a   10.64773254
_cell_length_b   10.64776570
_cell_length_c   18.15640524
_cell_angle_alpha   90.00000000
_cell_angle_beta   90.00000000
_cell_angle_gamma   119.99989903
_symmetry_Int_Tables_number   1
_chemical_formula_structural   CsRb14Tl27
_chemical_formula_sum   'Cs1 Rb14 Tl27'
_cell_volume   1782.69300584
_cell_formula_units_Z   1
loop_
 _symmetry_equiv_pos_site_id
 _symmetry_equiv_pos_as_xyz
  1  'x, y, z'
loop_
 _atom_site_type_symbol
 _atom_site_label
 _atom_site_symmetry_multiplicity
 _atom_site_fract_x
 _atom_site_fract_y
 _atom_site_fract_z
 _atom_site_occupancy
  Cs  Cs0  1  0.00000036  0.00000000  0.50000000  1
  Rb  Rb1  1  0.61080731  1.00000000  0.18306692  1
  Rb  Rb2  1  0.38919058  0.38919041  0.18306566  1
  Rb  Rb3  1  0.00000016  0.61080959  0.18306566  1
  Rb  Rb4  1  0.61080731  1.00000000  0.81693308  1
  Rb  Rb5  1  0.38919058  0.38919041  0.81693434  1
  Rb  Rb6  1  0.00000016  0.61080959  0.81693434  1
  Rb  Rb7  1  0.66669612  0.33330386  0.00000000  1
  Rb  Rb8  1  0.33339226  0.66669614  0.00000000  1
  Rb  Rb9  1  0.27222449  1.00000000  0.31125898  1
  Rb  Rb10  1  0.72776968  0.72777111  0.31125906  1
  Rb  Rb11  1  0.99999857  0.27222889  0.31125906  1
  Rb  Rb12  1  0.27222449  1.00000000  0.68874102  1
  Rb  Rb13  1  0.72776968  0.72777111  0.68874094  1
  Rb  Rb14  1  0.99999857  0.27222889  0.68874094  1
  Tl  Tl15  1  0.99999866  0.00000000  0.14958318  1
  Tl  Tl16  1  0.99999866  0.00000000  0.85041682  1
  Tl  Tl17  1  0.78866940  1.00000000  0.00000000  1
  Tl  Tl18  1  0.21133007  0.21133032  0.00000000  1
  Tl  Tl19  1  0.99999975  0.78866968  0.00000000  1
  Tl  Tl20  1  0.28396093  0.00000000  0.09144541  1
  Tl  Tl21  1  0.71604006  0.71603880  0.09144672  1
  Tl  Tl22  1  0.00000127  0.28396120  0.09144672  1
  Tl  Tl23  1  0.28396093  0.00000000  0.90855459  1
  Tl  Tl24  1  0.71604006  0.71603880  0.90855328  1
  Tl  Tl25  1  0.00000127  0.28396120  0.90855328  1
  Tl  Tl26  1  0.17271545  0.46564899  0.50000000  1
  Tl  Tl27  1  0.29293239  0.82728666  0.50000000  1
  Tl  Tl28  1  0.53434409  0.70706361  0.50000000  1
  Tl  Tl29  1  0.70706645  0.53435101  0.50000000  1
  Tl  Tl30  1  0.46564573  0.17271334  0.50000000  1
  Tl  Tl31  1  0.82728048  0.29293639  0.50000000  1
  Tl  Tl32  1  0.61749596  0.00000000  0.39998097  1
  Tl  Tl33  1  0.38249975  0.38250790  0.39998121  1
  Tl  Tl34  1  0.99999185  0.61749210  0.39998121  1
  Tl  Tl35  1  0.61749596  0.00000000  0.60001903  1
  Tl  Tl36  1  0.38249975  0.38250790  0.60001879  1
  Tl  Tl37  1  0.99999185  0.61749210  0.60001879  1
  Tl  Tl38  1  0.33331184  0.66668921  0.34354573  1
  Tl  Tl39  1  0.33331184  0.66668921  0.65645427  1
  Tl  Tl40  1  0.66662262  0.33331079  0.34354573  1
  Tl  Tl41  1  0.66662262  0.33331079  0.65645427  1
