# generated using pymatgen
data_K2BiH4Cl5O2
_symmetry_space_group_name_H-M   'P 1'
_cell_length_a   8.57024248
_cell_length_b   12.58095012
_cell_length_c   22.09504625
_cell_angle_alpha   90.00000000
_cell_angle_beta   90.00000000
_cell_angle_gamma   90.00000000
_symmetry_Int_Tables_number   1
_chemical_formula_structural   K2BiH4Cl5O2
_chemical_formula_sum   'K16 Bi8 H32 Cl40 O16'
_cell_volume   2382.32750657
_cell_formula_units_Z   8
loop_
 _symmetry_equiv_pos_site_id
 _symmetry_equiv_pos_as_xyz
  1  'x, y, z'
loop_
 _atom_site_type_symbol
 _atom_site_label
 _atom_site_symmetry_multiplicity
 _atom_site_fract_x
 _atom_site_fract_y
 _atom_site_fract_z
 _atom_site_occupancy
  K  K0  1  0.05462770  0.84247696  0.25000000  1
  K  K1  1  0.55462770  0.65752304  0.25000000  1
  K  K2  1  0.94537230  0.15752304  0.75000000  1
  K  K3  1  0.44537230  0.34247696  0.75000000  1
  K  K4  1  0.21269709  0.16473949  0.25000000  1
  K  K5  1  0.71269709  0.33526051  0.25000000  1
  K  K6  1  0.78730291  0.83526051  0.75000000  1
  K  K7  1  0.28730291  0.66473949  0.75000000  1
  K  K8  1  0.47982061  0.30646471  0.54783275  1
  K  K9  1  0.97982061  0.19353529  0.95216725  1
  K  K10  1  0.52017939  0.69353529  0.04783275  1
  K  K11  1  0.02017939  0.80646471  0.45216725  1
  K  K12  1  0.52017939  0.69353529  0.45216725  1
  K  K13  1  0.02017939  0.80646471  0.04783275  1
  K  K14  1  0.47982061  0.30646471  0.95216725  1
  K  K15  1  0.97982061  0.19353529  0.54783275  1
  Bi  Bi16  1  0.13397830  0.49663246  0.34794001  1
  Bi  Bi17  1  0.63397830  0.00336754  0.15205999  1
  Bi  Bi18  1  0.86602170  0.50336754  0.84794001  1
  Bi  Bi19  1  0.36602170  0.99663246  0.65205999  1
  Bi  Bi20  1  0.86602170  0.50336754  0.65205999  1
  Bi  Bi21  1  0.36602170  0.99663246  0.84794001  1
  Bi  Bi22  1  0.13397830  0.49663246  0.15205999  1
  Bi  Bi23  1  0.63397830  0.00336754  0.34794001  1
  H  H24  1  0.22575591  0.98596348  0.13886942  1
  H  H25  1  0.72575591  0.51403652  0.36113058  1
  H  H26  1  0.77424409  0.01403652  0.63886942  1
  H  H27  1  0.27424409  0.48596348  0.86113058  1
  H  H28  1  0.77424409  0.01403652  0.86113058  1
  H  H29  1  0.27424409  0.48596348  0.63886942  1
  H  H30  1  0.22575591  0.98596348  0.36113058  1
  H  H31  1  0.72575591  0.51403652  0.13886942  1
  H  H32  1  0.30050900  0.11527618  0.48118556  1
  H  H33  1  0.80050900  0.38472382  0.01881444  1
  H  H34  1  0.69949100  0.88472382  0.98118556  1
  H  H35  1  0.19949100  0.61527618  0.51881444  1
  H  H36  1  0.69949100  0.88472382  0.51881444  1
  H  H37  1  0.19949100  0.61527618  0.98118556  1
  H  H38  1  0.30050900  0.11527618  0.01881444  1
  H  H39  1  0.80050900  0.38472382  0.48118556  1
  H  H40  1  0.05626879  0.03183731  0.13750392  1
  H  H41  1  0.55626879  0.46816269  0.36249608  1
  H  H42  1  0.94373121  0.96816269  0.63750392  1
  H  H43  1  0.44373121  0.53183731  0.86249608  1
  H  H44  1  0.94373121  0.96816269  0.86249608  1
  H  H45  1  0.44373121  0.53183731  0.63750392  1
  H  H46  1  0.05626879  0.03183731  0.36249608  1
  H  H47  1  0.55626879  0.46816269  0.13750392  1
  H  H48  1  0.27242139  0.21434461  0.44114429  1
  H  H49  1  0.77242139  0.28565539  0.05885571  1
  H  H50  1  0.72757861  0.78565539  0.94114429  1
  H  H51  1  0.22757861  0.71434461  0.55885571  1
  H  H52  1  0.72757861  0.78565539  0.55885571  1
  H  H53  1  0.22757861  0.71434461  0.94114429  1
  H  H54  1  0.27242139  0.21434461  0.05885571  1
  H  H55  1  0.77242139  0.28565539  0.44114429  1
  Cl  Cl56  1  0.00541979  0.30206821  0.34869262  1
  Cl  Cl57  1  0.50541979  0.19793179  0.15130738  1
  Cl  Cl58  1  0.99458021  0.69793179  0.84869262  1
  Cl  Cl59  1  0.49458021  0.80206821  0.65130738  1
  Cl  Cl60  1  0.99458021  0.69793179  0.65130738  1
  Cl  Cl61  1  0.49458021  0.80206821  0.84869262  1
  Cl  Cl62  1  0.00541979  0.30206821  0.15130738  1
  Cl  Cl63  1  0.50541979  0.19793179  0.34869262  1
  Cl  Cl64  1  0.32891675  0.42971154  0.25000000  1
  Cl  Cl65  1  0.82891675  0.07028846  0.25000000  1
  Cl  Cl66  1  0.67108325  0.57028846  0.75000000  1
  Cl  Cl67  1  0.17108325  0.92971154  0.75000000  1
  Cl  Cl68  1  0.35202782  0.45281504  0.43186228  1
  Cl  Cl69  1  0.85202782  0.04718496  0.06813772  1
  Cl  Cl70  1  0.64797218  0.54718496  0.93186228  1
  Cl  Cl71  1  0.14797218  0.95281504  0.56813772  1
  Cl  Cl72  1  0.64797218  0.54718496  0.56813772  1
  Cl  Cl73  1  0.14797218  0.95281504  0.93186228  1
  Cl  Cl74  1  0.35202782  0.45281504  0.06813772  1
  Cl  Cl75  1  0.85202782  0.04718496  0.43186228  1
  Cl  Cl76  1  0.94115409  0.56088551  0.25000000  1
  Cl  Cl77  1  0.44115409  0.93911449  0.25000000  1
  Cl  Cl78  1  0.05884591  0.43911449  0.75000000  1
  Cl  Cl79  1  0.55884591  0.06088551  0.75000000  1
  Cl  Cl80  1  0.25524992  0.69957977  0.34554657  1
  Cl  Cl81  1  0.75524992  0.80042023  0.15445343  1
  Cl  Cl82  1  0.74475008  0.30042023  0.84554657  1
  Cl  Cl83  1  0.24475008  0.19957977  0.65445343  1
  Cl  Cl84  1  0.74475008  0.30042023  0.65445343  1
  Cl  Cl85  1  0.24475008  0.19957977  0.84554657  1
  Cl  Cl86  1  0.25524992  0.69957977  0.15445343  1
  Cl  Cl87  1  0.75524992  0.80042023  0.34554657  1
  Cl  Cl88  1  0.91421330  0.55808582  0.42580734  1
  Cl  Cl89  1  0.41421330  0.94191418  0.07419266  1
  Cl  Cl90  1  0.08578670  0.44191418  0.92580734  1
  Cl  Cl91  1  0.58578670  0.05808582  0.57419266  1
  Cl  Cl92  1  0.08578670  0.44191418  0.57419266  1
  Cl  Cl93  1  0.58578670  0.05808582  0.92580734  1
  Cl  Cl94  1  0.91421330  0.55808582  0.07419266  1
  Cl  Cl95  1  0.41421330  0.94191418  0.42580734  1
  O  O96  1  0.13548922  0.00217316  0.16487660  1
  O  O97  1  0.63548922  0.49782684  0.33512340  1
  O  O98  1  0.86451078  0.99782684  0.66487660  1
  O  O99  1  0.36451078  0.50217316  0.83512340  1
  O  O100  1  0.86451078  0.99782684  0.83512340  1
  O  O101  1  0.36451078  0.50217316  0.66487660  1
  O  O102  1  0.13548922  0.00217316  0.33512340  1
  O  O103  1  0.63548922  0.49782684  0.16487660  1
  O  O104  1  0.26089119  0.18809702  0.48263927  1
  O  O105  1  0.76089119  0.31190298  0.01736073  1
  O  O106  1  0.73910881  0.81190298  0.98263927  1
  O  O107  1  0.23910881  0.68809702  0.51736073  1
  O  O108  1  0.73910881  0.81190298  0.51736073  1
  O  O109  1  0.23910881  0.68809702  0.98263927  1
  O  O110  1  0.26089119  0.18809702  0.01736073  1
  O  O111  1  0.76089119  0.31190298  0.48263927  1
