# generated using pymatgen
data_PrV2IO9
_symmetry_space_group_name_H-M   'P 1'
_cell_length_a   7.13385227
_cell_length_b   7.33233200
_cell_length_c   14.75730784
_cell_angle_alpha   90.00000000
_cell_angle_beta   90.00000000
_cell_angle_gamma   90.00000000
_symmetry_Int_Tables_number   1
_chemical_formula_structural   PrV2IO9
_chemical_formula_sum   'Pr4 V8 I4 O36'
_cell_volume   771.92191276
_cell_formula_units_Z   4
loop_
 _symmetry_equiv_pos_site_id
 _symmetry_equiv_pos_as_xyz
  1  'x, y, z'
loop_
 _atom_site_type_symbol
 _atom_site_label
 _atom_site_symmetry_multiplicity
 _atom_site_fract_x
 _atom_site_fract_y
 _atom_site_fract_z
 _atom_site_occupancy
  Pr  Pr0  1  0.14975501  0.25000000  0.54858806  1
  Pr  Pr1  1  0.85024499  0.75000000  0.45141194  1
  Pr  Pr2  1  0.14975501  0.75000000  0.95141194  1
  Pr  Pr3  1  0.85024499  0.25000000  0.04858806  1
  V  V4  1  0.53509993  0.50000000  0.25000000  1
  V  V5  1  0.46490007  -0.00000000  0.75000000  1
  V  V6  1  0.46490007  0.50000000  0.75000000  1
  V  V7  1  0.53509993  -0.00000000  0.25000000  1
  V  V8  1  0.18186162  0.25000000  0.27133538  1
  V  V9  1  0.81813838  0.75000000  0.72866462  1
  V  V10  1  0.18186162  0.75000000  0.22866462  1
  V  V11  1  0.81813838  0.25000000  0.77133538  1
  I  I12  1  0.70202965  0.25000000  0.44391962  1
  I  I13  1  0.29797035  0.75000000  0.55608038  1
  I  I14  1  0.70202965  0.75000000  0.05608038  1
  I  I15  1  0.29797035  0.25000000  0.94391962  1
  O  O16  1  0.82620840  0.42929776  0.50878965  1
  O  O17  1  0.17379160  0.92929776  0.49121035  1
  O  O18  1  0.82620840  0.57070224  0.99121035  1
  O  O19  1  0.17379160  0.07070224  0.00878965  1
  O  O20  1  0.17379160  0.57070224  0.49121035  1
  O  O21  1  0.82620840  0.07070224  0.50878965  1
  O  O22  1  0.17379160  0.42929776  0.00878965  1
  O  O23  1  0.82620840  0.92929776  0.99121035  1
  O  O24  1  0.47500714  0.25000000  0.49871775  1
  O  O25  1  0.52499286  0.75000000  0.50128225  1
  O  O26  1  0.47500714  0.75000000  0.00128225  1
  O  O27  1  0.52499286  0.25000000  0.99871775  1
  O  O28  1  0.66903369  0.54470805  0.34203719  1
  O  O29  1  0.33096631  0.04470805  0.65796281  1
  O  O30  1  0.66903369  0.45529195  0.15796281  1
  O  O31  1  0.33096631  0.95529195  0.84203719  1
  O  O32  1  0.33096631  0.45529195  0.65796281  1
  O  O33  1  0.66903369  0.95529195  0.34203719  1
  O  O34  1  0.33096631  0.54470805  0.84203719  1
  O  O35  1  0.66903369  0.04470805  0.15796281  1
  O  O36  1  0.46856002  0.75000000  0.22057827  1
  O  O37  1  0.53143998  0.25000000  0.77942173  1
  O  O38  1  0.46856002  0.25000000  0.27942173  1
  O  O39  1  0.53143998  0.75000000  0.72057827  1
  O  O40  1  0.26085594  0.50000000  0.25000000  1
  O  O41  1  0.73914406  -0.00000000  0.75000000  1
  O  O42  1  0.73914406  0.50000000  0.75000000  1
  O  O43  1  0.26085594  -0.00000000  0.25000000  1
  O  O44  1  0.01218884  0.25000000  0.19268323  1
  O  O45  1  0.98781116  0.75000000  0.80731677  1
  O  O46  1  0.01218884  0.75000000  0.30731677  1
  O  O47  1  0.98781116  0.25000000  0.69268323  1
  O  O48  1  0.08374992  0.25000000  0.37502909  1
  O  O49  1  0.91625008  0.75000000  0.62497091  1
  O  O50  1  0.08374992  0.75000000  0.12497091  1
  O  O51  1  0.91625008  0.25000000  0.87502909  1
