# generated using pymatgen
data_LiZn2(BH4)5
_symmetry_space_group_name_H-M   'P 1'
_cell_length_a   8.76573883
_cell_length_b   9.92065158
_cell_length_c   15.95147729
_cell_angle_alpha   90.00000000
_cell_angle_beta   90.00000000
_cell_angle_gamma   116.21830320
_symmetry_Int_Tables_number   1
_chemical_formula_structural   LiZn2(BH4)5
_chemical_formula_sum   'Li4 Zn8 B20 H80'
_cell_volume   1244.45402928
_cell_formula_units_Z   4
loop_
 _symmetry_equiv_pos_site_id
 _symmetry_equiv_pos_as_xyz
  1  'x, y, z'
loop_
 _atom_site_type_symbol
 _atom_site_label
 _atom_site_symmetry_multiplicity
 _atom_site_fract_x
 _atom_site_fract_y
 _atom_site_fract_z
 _atom_site_occupancy
  Li  Li0  1  0.35049742  0.70099484  0.94043000  1
  Li  Li1  1  0.64950258  0.29900516  0.05957000  1
  Li  Li2  1  0.14950258  0.29900516  0.44043000  1
  Li  Li3  1  0.85049742  0.70099484  0.55957000  1
  Zn  Zn4  1  0.84958674  0.69917349  0.26428911  1
  Zn  Zn5  1  0.15041326  0.30082651  0.73571089  1
  Zn  Zn6  1  0.65041326  0.30082651  0.76428911  1
  Zn  Zn7  1  0.34958674  0.69917349  0.23571089  1
  Zn  Zn8  1  0.07069370  0.14138740  0.12083698  1
  Zn  Zn9  1  0.92930630  0.85861260  0.87916302  1
  Zn  Zn10  1  0.42930630  0.85861260  0.62083698  1
  Zn  Zn11  1  0.57069370  0.14138740  0.37916302  1
  B  B12  1  0.23971474  0.47942949  0.83035970  1
  B  B13  1  0.76028526  0.52057051  0.16964030  1
  B  B14  1  0.26028526  0.52057051  0.33035970  1
  B  B15  1  0.73971474  0.47942949  0.66964030  1
  B  B16  1  0.14580261  0.29160522  0.59854613  1
  B  B17  1  0.85419739  0.70839478  0.40145387  1
  B  B18  1  0.35419739  0.70839478  0.09854613  1
  B  B19  1  0.64580261  0.29160522  0.90145387  1
  B  B20  1  0.96096576  0.92193153  0.19179129  1
  B  B21  1  0.03903424  0.07806847  0.80820871  1
  B  B22  1  0.53903424  0.07806847  0.69179129  1
  B  B23  1  0.46096576  0.92193153  0.30820871  1
  B  B24  1  0.88058617  0.22114755  0.09324883  1
  B  B25  1  0.65943862  0.77885245  0.90675117  1
  B  B26  1  0.15943862  0.77885245  0.59324883  1
  B  B27  1  0.38058617  0.22114755  0.40675117  1
  B  B28  1  0.11941383  0.77885245  0.90675117  1
  B  B29  1  0.34056138  0.22114755  0.09324883  1
  B  B30  1  0.84056138  0.22114755  0.40675117  1
  B  B31  1  0.61941383  0.77885245  0.59324883  1
  H  H32  1  0.30684051  0.61368103  0.81693198  1
  H  H33  1  0.69315949  0.38631897  0.18306802  1
  H  H34  1  0.19315949  0.38631897  0.31693198  1
  H  H35  1  0.80684051  0.61368103  0.68306802  1
  H  H36  1  0.21797981  0.43595961  0.90221619  1
  H  H37  1  0.78202019  0.56404039  0.09778381  1
  H  H38  1  0.28202019  0.56404039  0.40221619  1
  H  H39  1  0.71797981  0.43595961  0.59778381  1
  H  H40  1  0.09578816  0.43254610  0.79558826  1
  H  H41  1  0.66324207  0.56745390  0.20441174  1
  H  H42  1  0.16324207  0.56745390  0.29558826  1
  H  H43  1  0.59578816  0.43254610  0.70441174  1
  H  H44  1  0.90421184  0.56745390  0.20441174  1
  H  H45  1  0.33675793  0.43254610  0.79558826  1
  H  H46  1  0.83675793  0.43254610  0.70441174  1
  H  H47  1  0.40421184  0.56745390  0.29558826  1
  H  H48  1  0.20749350  0.41498699  0.63584915  1
  H  H49  1  0.79250650  0.58501301  0.36415085  1
  H  H50  1  0.29250650  0.58501301  0.13584915  1
  H  H51  1  0.70749350  0.41498699  0.86415085  1
  H  H52  1  0.08780236  0.17560472  0.64277101  1
  H  H53  1  0.91219764  0.82439528  0.35722899  1
  H  H54  1  0.41219764  0.82439528  0.14277101  1
  H  H55  1  0.58780236  0.17560472  0.85722899  1
  H  H56  1  0.02483704  0.28645566  0.55987547  1
  H  H57  1  0.73838138  0.71354434  0.44012453  1
  H  H58  1  0.23838138  0.71354434  0.05987547  1
  H  H59  1  0.52483704  0.28645566  0.94012453  1
  H  H60  1  0.97516296  0.71354434  0.44012453  1
  H  H61  1  0.26161862  0.28645566  0.55987547  1
  H  H62  1  0.76161862  0.28645566  0.94012453  1
  H  H63  1  0.47516296  0.71354434  0.05987547  1
  H  H64  1  0.02053424  0.04106848  0.23115393  1
  H  H65  1  0.97946576  0.95893152  0.76884607  1
  H  H66  1  0.47946576  0.95893152  0.73115393  1
  H  H67  1  0.52053424  0.04106848  0.26884607  1
  H  H68  1  0.96349113  0.92698227  0.11432429  1
  H  H69  1  0.03650887  0.07301773  0.88567571  1
  H  H70  1  0.53650887  0.07301773  0.61432429  1
  H  H71  1  0.46349113  0.92698227  0.38567571  1
  H  H72  1  0.80902941  0.85918534  0.21057676  1
  H  H73  1  0.94984407  0.14081466  0.78942324  1
  H  H74  1  0.44984407  0.14081466  0.71057676  1
  H  H75  1  0.30902941  0.85918534  0.28942324  1
  H  H76  1  0.19097059  0.14081466  0.78942324  1
  H  H77  1  0.05015593  0.85918534  0.21057676  1
  H  H78  1  0.55015593  0.85918534  0.28942324  1
  H  H79  1  0.69097059  0.14081466  0.71057676  1
  H  H80  1  0.92509384  0.15317366  0.03932736  1
  H  H81  1  0.77192018  0.84682634  0.96067264  1
  H  H82  1  0.27192018  0.84682634  0.53932736  1
  H  H83  1  0.42509384  0.15317366  0.46067264  1
  H  H84  1  0.07490616  0.84682634  0.96067264  1
  H  H85  1  0.22807982  0.15317366  0.03932736  1
  H  H86  1  0.72807982  0.15317366  0.46067264  1
  H  H87  1  0.57490616  0.84682634  0.53932736  1
  H  H88  1  0.73438238  0.13907976  0.11165875  1
  H  H89  1  0.59530263  0.86092024  0.88834125  1
  H  H90  1  0.09530263  0.86092024  0.61165875  1
  H  H91  1  0.23438238  0.13907976  0.38834125  1
  H  H92  1  0.26561762  0.86092024  0.88834125  1
  H  H93  1  0.40469737  0.13907976  0.11165875  1
  H  H94  1  0.90469737  0.13907976  0.38834125  1
  H  H95  1  0.76561762  0.86092024  0.61165875  1
  H  H96  1  0.96527453  0.25276152  0.16030837  1
  H  H97  1  0.71251301  0.74723848  0.83969163  1
  H  H98  1  0.21251301  0.74723848  0.66030837  1
  H  H99  1  0.46527453  0.25276152  0.33969163  1
  H  H100  1  0.03472547  0.74723848  0.83969163  1
  H  H101  1  0.28748699  0.25276152  0.16030837  1
  H  H102  1  0.78748699  0.25276152  0.33969163  1
  H  H103  1  0.53472547  0.74723848  0.66030837  1
  H  H104  1  0.91195779  0.34218929  0.06216082  1
  H  H105  1  0.56976850  0.65781071  0.93783918  1
  H  H106  1  0.06976850  0.65781071  0.56216082  1
  H  H107  1  0.41195779  0.34218929  0.43783918  1
  H  H108  1  0.08804221  0.65781071  0.93783918  1
  H  H109  1  0.43023150  0.34218929  0.06216082  1
  H  H110  1  0.93023150  0.34218929  0.43783918  1
  H  H111  1  0.58804221  0.65781071  0.56216082  1
