# generated using pymatgen
data_Li2Cu3(Se2O7)2
_symmetry_space_group_name_H-M   'P 1'
_cell_length_a   5.06406567
_cell_length_b   10.94332956
_cell_length_c   11.79950729
_cell_angle_alpha   81.67281196
_cell_angle_beta   77.60864191
_cell_angle_gamma   76.62185535
_symmetry_Int_Tables_number   1
_chemical_formula_structural   Li2Cu3(Se2O7)2
_chemical_formula_sum   'Li4 Cu6 Se8 O28'
_cell_volume   618.21366636
_cell_formula_units_Z   2
loop_
 _symmetry_equiv_pos_site_id
 _symmetry_equiv_pos_as_xyz
  1  'x, y, z'
loop_
 _atom_site_type_symbol
 _atom_site_label
 _atom_site_symmetry_multiplicity
 _atom_site_fract_x
 _atom_site_fract_y
 _atom_site_fract_z
 _atom_site_occupancy
  Li  Li0  1  0.68760399  0.01588557  0.12440159  1
  Li  Li1  1  0.32789115  0.48411443  0.37559841  1
  Li  Li2  1  0.31239601  0.98411443  0.87559841  1
  Li  Li3  1  0.67210885  0.51588557  0.62440159  1
  Cu  Cu4  1  0.11452863  0.24406820  0.02955425  1
  Cu  Cu5  1  0.88815107  0.25593180  0.47044575  1
  Cu  Cu6  1  0.88547137  0.75593180  0.97044575  1
  Cu  Cu7  1  0.11184893  0.74406820  0.52955425  1
  Cu  Cu8  1  0.50000000  -0.00000000  0.50000000  1
  Cu  Cu9  1  0.50000000  0.50000000  0.00000000  1
  Se  Se10  1  0.71222394  0.72808079  0.40284369  1
  Se  Se11  1  0.34314841  0.77191921  0.09715631  1
  Se  Se12  1  0.28777606  0.27191921  0.59715631  1
  Se  Se13  1  0.65685159  0.22808079  0.90284369  1
  Se  Se14  1  0.94421663  0.45863785  0.20706770  1
  Se  Se15  1  0.10992218  0.04136215  0.29293230  1
  Se  Se16  1  0.05578337  0.54136215  0.79293230  1
  Se  Se17  1  0.89007782  0.95863785  0.70706770  1
  O  O18  1  0.14382085  0.55115995  0.11458155  1
  O  O19  1  0.30956234  0.94884005  0.38541845  1
  O  O20  1  0.85617915  0.44884005  0.88541845  1
  O  O21  1  0.69043766  0.05115995  0.61458155  1
  O  O22  1  0.84943487  0.36022253  0.13157947  1
  O  O23  1  0.84123686  0.13977747  0.36842053  1
  O  O24  1  0.15056513  0.63977747  0.86842053  1
  O  O25  1  0.15876314  0.86022253  0.63157947  1
  O  O26  1  0.11456273  0.38200724  0.31083288  1
  O  O27  1  0.30740285  0.11799276  0.18916712  1
  O  O28  1  0.88543727  0.61799276  0.68916712  1
  O  O29  1  0.69259715  0.88200724  0.81083288  1
  O  O30  1  0.65097647  0.55134986  0.26579342  1
  O  O31  1  0.96811975  0.94865014  0.23420658  1
  O  O32  1  0.34902353  0.44865014  0.73420658  1
  O  O33  1  0.03188025  0.05134986  0.76579342  1
  O  O34  1  0.03536125  0.64047934  0.42032172  1
  O  O35  1  0.59616232  0.85952066  0.07967828  1
  O  O36  1  0.96463875  0.35952066  0.57967828  1
  O  O37  1  0.40383768  0.14047934  0.92032172  1
  O  O38  1  0.49901360  0.64900300  0.50785615  1
  O  O39  1  0.15587274  0.85099700  0.99214385  1
  O  O40  1  0.50098640  0.35099700  0.49214385  1
  O  O41  1  0.84412726  0.14900300  0.00785615  1
  O  O42  1  0.75680170  0.84144318  0.48965704  1
  O  O43  1  0.58790192  0.65855682  0.01034296  1
  O  O44  1  0.24319830  0.15855682  0.51034296  1
  O  O45  1  0.41209808  0.34144318  0.98965704  1
