# generated using pymatgen
data_Cs5As5Se9
_symmetry_space_group_name_H-M   'P 1'
_cell_length_a   8.20983665
_cell_length_b   12.79168121
_cell_length_c   27.51568496
_cell_angle_alpha   90.00000000
_cell_angle_beta   90.00000000
_cell_angle_gamma   90.00000000
_symmetry_Int_Tables_number   1
_chemical_formula_structural   Cs5As5Se9
_chemical_formula_sum   'Cs20 As20 Se36'
_cell_volume   2889.63156042
_cell_formula_units_Z   4
loop_
 _symmetry_equiv_pos_site_id
 _symmetry_equiv_pos_as_xyz
  1  'x, y, z'
loop_
 _atom_site_type_symbol
 _atom_site_label
 _atom_site_symmetry_multiplicity
 _atom_site_fract_x
 _atom_site_fract_y
 _atom_site_fract_z
 _atom_site_occupancy
  Cs  Cs0  1  0.46749832  0.64203974  0.75000000  1
  Cs  Cs1  1  0.96749832  0.85796026  0.75000000  1
  Cs  Cs2  1  0.53250168  0.35796026  0.25000000  1
  Cs  Cs3  1  0.03250168  0.14203974  0.25000000  1
  Cs  Cs4  1  0.47840221  0.28229610  0.64881243  1
  Cs  Cs5  1  0.97840221  0.21770390  0.85118757  1
  Cs  Cs6  1  0.52159779  0.71770390  0.14881243  1
  Cs  Cs7  1  0.02159779  0.78229610  0.35118757  1
  Cs  Cs8  1  0.52159779  0.71770390  0.35118757  1
  Cs  Cs9  1  0.02159779  0.78229610  0.14881243  1
  Cs  Cs10  1  0.47840221  0.28229610  0.85118757  1
  Cs  Cs11  1  0.97840221  0.21770390  0.64881243  1
  Cs  Cs12  1  0.44622295  0.63703085  0.55433938  1
  Cs  Cs13  1  0.94622295  0.86296915  0.94566062  1
  Cs  Cs14  1  0.55377705  0.36296915  0.05433938  1
  Cs  Cs15  1  0.05377705  0.13703085  0.44566062  1
  Cs  Cs16  1  0.55377705  0.36296915  0.44566062  1
  Cs  Cs17  1  0.05377705  0.13703085  0.05433938  1
  Cs  Cs18  1  0.44622295  0.63703085  0.94566062  1
  Cs  Cs19  1  0.94622295  0.86296915  0.55433938  1
  As  As20  1  0.52333474  0.90517121  0.48858687  1
  As  As21  1  0.02333474  0.59482879  0.01141313  1
  As  As22  1  0.47666526  0.09482879  0.98858687  1
  As  As23  1  0.97666526  0.40517121  0.51141313  1
  As  As24  1  0.47666526  0.09482879  0.51141313  1
  As  As25  1  0.97666526  0.40517121  0.98858687  1
  As  As26  1  0.52333474  0.90517121  0.01141313  1
  As  As27  1  0.02333474  0.59482879  0.48858687  1
  As  As28  1  0.51827077  0.08314322  0.38109824  1
  As  As29  1  0.01827077  0.41685678  0.11890176  1
  As  As30  1  0.48172923  0.91685678  0.88109824  1
  As  As31  1  0.98172923  0.58314322  0.61890176  1
  As  As32  1  0.48172923  0.91685678  0.61890176  1
  As  As33  1  0.98172923  0.58314322  0.88109824  1
  As  As34  1  0.51827077  0.08314322  0.11890176  1
  As  As35  1  0.01827077  0.41685678  0.38109824  1
  As  As36  1  0.59523113  0.01720734  0.25000000  1
  As  As37  1  0.09523113  0.48279266  0.25000000  1
  As  As38  1  0.40476887  0.98279266  0.75000000  1
  As  As39  1  0.90476887  0.51720734  0.75000000  1
  Se  Se40  1  0.69413206  0.94756842  0.41784896  1
  Se  Se41  1  0.19413206  0.55243158  0.08215104  1
  Se  Se42  1  0.30586794  0.05243158  0.91784896  1
  Se  Se43  1  0.80586794  0.44756842  0.58215104  1
  Se  Se44  1  0.30586794  0.05243158  0.58215104  1
  Se  Se45  1  0.80586794  0.44756842  0.91784896  1
  Se  Se46  1  0.69413206  0.94756842  0.08215104  1
  Se  Se47  1  0.19413206  0.55243158  0.41784896  1
  Se  Se48  1  0.26681540  0.86179525  0.45578340  1
  Se  Se49  1  0.76681540  0.63820475  0.04421660  1
  Se  Se50  1  0.73318460  0.13820475  0.95578340  1
  Se  Se51  1  0.23318460  0.36179525  0.54421660  1
  Se  Se52  1  0.73318460  0.13820475  0.54421660  1
  Se  Se53  1  0.23318460  0.36179525  0.95578340  1
  Se  Se54  1  0.26681540  0.86179525  0.04421660  1
  Se  Se55  1  0.76681540  0.63820475  0.45578340  1
  Se  Se56  1  0.72193156  0.18507726  0.34572836  1
  Se  Se57  1  0.22193156  0.31492274  0.15427164  1
  Se  Se58  1  0.27806844  0.81492274  0.84572836  1
  Se  Se59  1  0.77806844  0.68507726  0.65427164  1
  Se  Se60  1  0.27806844  0.81492274  0.65427164  1
  Se  Se61  1  0.77806844  0.68507726  0.84572836  1
  Se  Se62  1  0.72193156  0.18507726  0.15427164  1
  Se  Se63  1  0.22193156  0.31492274  0.34572836  1
  Se  Se64  1  0.38394461  0.98772978  0.31281980  1
  Se  Se65  1  0.88394461  0.51227022  0.18718020  1
  Se  Se66  1  0.61605539  0.01227022  0.81281980  1
  Se  Se67  1  0.11605539  0.48772978  0.68718020  1
  Se  Se68  1  0.61605539  0.01227022  0.68718020  1
  Se  Se69  1  0.11605539  0.48772978  0.81281980  1
  Se  Se70  1  0.38394461  0.98772978  0.18718020  1
  Se  Se71  1  0.88394461  0.51227022  0.31281980  1
  Se  Se72  1  0.75639195  0.86507361  0.25000000  1
  Se  Se73  1  0.25639195  0.63492639  0.25000000  1
  Se  Se74  1  0.24360805  0.13492639  0.75000000  1
  Se  Se75  1  0.74360805  0.36507361  0.75000000  1
