# generated using pymatgen
data_Sr(BiS2)2
_symmetry_space_group_name_H-M   'P 1'
_cell_length_a   4.09433113
_cell_length_b   25.28914186
_cell_length_c   25.28914187
_cell_angle_alpha   120.00000102
_cell_angle_beta   90.00000000
_cell_angle_gamma   90.00000000
_symmetry_Int_Tables_number   1
_chemical_formula_structural   Sr(BiS2)2
_chemical_formula_sum   'Sr12 Bi24 S48'
_cell_volume   2267.68003347
_cell_formula_units_Z   12
loop_
 _symmetry_equiv_pos_site_id
 _symmetry_equiv_pos_as_xyz
  1  'x, y, z'
loop_
 _atom_site_type_symbol
 _atom_site_label
 _atom_site_symmetry_multiplicity
 _atom_site_fract_x
 _atom_site_fract_y
 _atom_site_fract_z
 _atom_site_occupancy
  Sr  Sr0  1  0.75000000  0.76545820  0.44470447  1
  Sr  Sr1  1  0.75000000  0.55529553  0.32075373  1
  Sr  Sr2  1  0.75000000  0.67924627  0.23454180  1
  Sr  Sr3  1  0.25000000  0.23454180  0.55529553  1
  Sr  Sr4  1  0.25000000  0.44470447  0.67924627  1
  Sr  Sr5  1  0.25000000  0.32075373  0.76545820  1
  Sr  Sr6  1  0.75000000  0.87918852  0.64752916  1
  Sr  Sr7  1  0.75000000  0.35247084  0.23165936  1
  Sr  Sr8  1  0.75000000  0.76834064  0.12081148  1
  Sr  Sr9  1  0.25000000  0.12081148  0.35247084  1
  Sr  Sr10  1  0.25000000  0.64752916  0.76834064  1
  Sr  Sr11  1  0.25000000  0.23165936  0.87918852  1
  Bi  Bi12  1  0.75000000  0.33145590  0.05918818  1
  Bi  Bi13  1  0.75000000  0.94081182  0.27226771  1
  Bi  Bi14  1  0.75000000  0.72773229  0.66854410  1
  Bi  Bi15  1  0.25000000  0.66854410  0.94081182  1
  Bi  Bi16  1  0.25000000  0.05918818  0.72773229  1
  Bi  Bi17  1  0.25000000  0.27226771  0.33145590  1
  Bi  Bi18  1  0.75000000  0.50263978  0.85332011  1
  Bi  Bi19  1  0.75000000  0.14667989  0.64931967  1
  Bi  Bi20  1  0.75000000  0.35068033  0.49736022  1
  Bi  Bi21  1  0.25000000  0.49736022  0.14667989  1
  Bi  Bi22  1  0.25000000  0.85332011  0.35068033  1
  Bi  Bi23  1  0.25000000  0.64931967  0.50263978  1
  Bi  Bi24  1  0.75000000  0.40710781  0.94765510  1
  Bi  Bi25  1  0.75000000  0.05234490  0.45945271  1
  Bi  Bi26  1  0.75000000  0.54054729  0.59289219  1
  Bi  Bi27  1  0.25000000  0.59289219  0.05234490  1
  Bi  Bi28  1  0.25000000  0.94765510  0.54054729  1
  Bi  Bi29  1  0.25000000  0.45945271  0.40710781  1
  Bi  Bi30  1  0.75000000  0.82319130  0.97742351  1
  Bi  Bi31  1  0.75000000  0.02257649  0.84576779  1
  Bi  Bi32  1  0.75000000  0.15423221  0.17680870  1
  Bi  Bi33  1  0.25000000  0.17680870  0.02257649  1
  Bi  Bi34  1  0.25000000  0.97742351  0.15423221  1
  Bi  Bi35  1  0.25000000  0.84576779  0.82319130  1
  S  S36  1  0.75000000  0.73048987  0.54973985  1
  S  S37  1  0.75000000  0.45026015  0.18075002  1
  S  S38  1  0.75000000  0.81924998  0.26951013  1
  S  S39  1  0.25000000  0.26951013  0.45026015  1
  S  S40  1  0.25000000  0.54973985  0.81924998  1
  S  S41  1  0.25000000  0.18075002  0.73048987  1
  S  S42  1  0.75000000  0.30218640  0.84805341  1
  S  S43  1  0.75000000  0.15194659  0.45413299  1
  S  S44  1  0.75000000  0.54586701  0.69781360  1
  S  S45  1  0.25000000  0.69781360  0.15194659  1
  S  S46  1  0.25000000  0.84805341  0.54586701  1
  S  S47  1  0.25000000  0.45413299  0.30218640  1
  S  S48  1  0.75000000  0.54701754  0.45322081  1
  S  S49  1  0.75000000  0.54677919  0.09379673  1
  S  S50  1  0.75000000  0.90620327  0.45298246  1
  S  S51  1  0.25000000  0.45298246  0.54677919  1
  S  S52  1  0.25000000  0.45322081  0.90620327  1
  S  S53  1  0.25000000  0.09379673  0.54701754  1
  S  S54  1  0.75000000  0.22026662  0.96387921  1
  S  S55  1  0.75000000  0.03612079  0.25638741  1
  S  S56  1  0.75000000  0.74361259  0.77973338  1
  S  S57  1  0.25000000  0.77973338  0.03612079  1
  S  S58  1  0.25000000  0.96387921  0.74361259  1
  S  S59  1  0.25000000  0.25638741  0.22026662  1
  S  S60  1  0.75000000  0.63310222  0.99994913  1
  S  S61  1  0.75000000  0.00005087  0.63315310  1
  S  S62  1  0.75000000  0.36684690  0.36689778  1
  S  S63  1  0.25000000  0.36689778  0.00005087  1
  S  S64  1  0.25000000  0.99994913  0.36684690  1
  S  S65  1  0.25000000  0.63315310  0.63310222  1
  S  S66  1  0.75000000  0.40457532  0.74932803  1
  S  S67  1  0.75000000  0.25067197  0.65524729  1
  S  S68  1  0.75000000  0.34475271  0.59542468  1
  S  S69  1  0.25000000  0.59542468  0.25067197  1
  S  S70  1  0.25000000  0.74932803  0.34475271  1
  S  S71  1  0.25000000  0.65524729  0.40457532  1
  S  S72  1  0.75000000  0.11872541  0.81135376  1
  S  S73  1  0.75000000  0.18864624  0.30737165  1
  S  S74  1  0.75000000  0.69262835  0.88127459  1
  S  S75  1  0.25000000  0.88127459  0.18864624  1
  S  S76  1  0.25000000  0.81135376  0.69262835  1
  S  S77  1  0.25000000  0.30737165  0.11872541  1
  S  S78  1  0.75000000  0.92560748  0.86467826  1
  S  S79  1  0.75000000  0.13532174  0.06092923  1
  S  S80  1  0.75000000  0.93907077  0.07439252  1
  S  S81  1  0.25000000  0.07439252  0.13532174  1
  S  S82  1  0.25000000  0.86467826  0.93907077  1
  S  S83  1  0.25000000  0.06092923  0.92560748  1
