# generated using pymatgen
data_Tm5(Ge5Ir2)2
_symmetry_space_group_name_H-M   'P 1'
_cell_length_a   4.29287851
_cell_length_b   12.99328791
_cell_length_c   12.99328791
_cell_angle_alpha   90.00000000
_cell_angle_beta   90.00000000
_cell_angle_gamma   90.00000000
_symmetry_Int_Tables_number   1
_chemical_formula_structural   Tm5(Ge5Ir2)2
_chemical_formula_sum   'Tm10 Ge20 Ir8'
_cell_volume   724.74749273
_cell_formula_units_Z   2
loop_
 _symmetry_equiv_pos_site_id
 _symmetry_equiv_pos_as_xyz
  1  'x, y, z'
loop_
 _atom_site_type_symbol
 _atom_site_label
 _atom_site_symmetry_multiplicity
 _atom_site_fract_x
 _atom_site_fract_y
 _atom_site_fract_z
 _atom_site_occupancy
  Tm  Tm0  1  -0.00000000  0.50000000  0.50000000  1
  Tm  Tm1  1  -0.00000000  -0.00000000  0.00000000  1
  Tm  Tm2  1  0.50000000  0.17464572  0.67464572  1
  Tm  Tm3  1  0.50000000  0.82535428  0.32535428  1
  Tm  Tm4  1  0.50000000  0.32535428  0.17464572  1
  Tm  Tm5  1  0.50000000  0.67464572  0.82535428  1
  Tm  Tm6  1  0.50000000  0.38275910  0.88275910  1
  Tm  Tm7  1  0.50000000  0.61724090  0.11724090  1
  Tm  Tm8  1  0.50000000  0.11724090  0.38275910  1
  Tm  Tm9  1  0.50000000  0.88275910  0.61724090  1
  Ge  Ge10  1  -0.00000000  0.06642273  0.56642273  1
  Ge  Ge11  1  0.00000000  0.93357727  0.43357727  1
  Ge  Ge12  1  -0.00000000  0.43357727  0.06642273  1
  Ge  Ge13  1  0.00000000  0.56642273  0.93357727  1
  Ge  Ge14  1  0.00000000  0.70026942  0.66310340  1
  Ge  Ge15  1  -0.00000000  0.29973058  0.33689660  1
  Ge  Ge16  1  0.00000000  0.79973058  0.16310340  1
  Ge  Ge17  1  -0.00000000  0.20026942  0.83689660  1
  Ge  Ge18  1  0.00000000  0.66310340  0.29973058  1
  Ge  Ge19  1  -0.00000000  0.33689660  0.70026942  1
  Ge  Ge20  1  -0.00000000  0.16310340  0.20026942  1
  Ge  Ge21  1  0.00000000  0.83689660  0.79973058  1
  Ge  Ge22  1  0.50000000  0.50798259  0.65393796  1
  Ge  Ge23  1  0.50000000  0.49201741  0.34606204  1
  Ge  Ge24  1  0.50000000  0.99201741  0.15393796  1
  Ge  Ge25  1  0.50000000  0.00798259  0.84606204  1
  Ge  Ge26  1  0.50000000  0.65393796  0.49201741  1
  Ge  Ge27  1  0.50000000  0.34606204  0.50798259  1
  Ge  Ge28  1  0.50000000  0.15393796  0.00798259  1
  Ge  Ge29  1  0.50000000  0.84606204  0.99201741  1
  Ir  Ir30  1  0.00000000  0.52131712  0.74695095  1
  Ir  Ir31  1  -0.00000000  0.47868288  0.25304905  1
  Ir  Ir32  1  0.00000000  0.97868288  0.24695095  1
  Ir  Ir33  1  -0.00000000  0.02131712  0.75304905  1
  Ir  Ir34  1  -0.00000000  0.74695095  0.47868288  1
  Ir  Ir35  1  0.00000000  0.25304905  0.52131712  1
  Ir  Ir36  1  0.00000000  0.24695095  0.02131712  1
  Ir  Ir37  1  -0.00000000  0.75304905  0.97868288  1
