# generated using pymatgen
data_Gd2USe5
_symmetry_space_group_name_H-M   'P 1'
_cell_length_a   7.67847697
_cell_length_b   8.26551250
_cell_length_c   12.05951113
_cell_angle_alpha   90.00000000
_cell_angle_beta   90.00000000
_cell_angle_gamma   90.00000000
_symmetry_Int_Tables_number   1
_chemical_formula_structural   Gd2USe5
_chemical_formula_sum   'Gd8 U4 Se20'
_cell_volume   765.37553447
_cell_formula_units_Z   4
loop_
 _symmetry_equiv_pos_site_id
 _symmetry_equiv_pos_as_xyz
  1  'x, y, z'
loop_
 _atom_site_type_symbol
 _atom_site_label
 _atom_site_symmetry_multiplicity
 _atom_site_fract_x
 _atom_site_fract_y
 _atom_site_fract_z
 _atom_site_occupancy
  Gd  Gd0  1  0.96997213  0.00142936  0.17793456  1
  Gd  Gd1  1  0.53002787  0.49857064  0.67793456  1
  Gd  Gd2  1  0.03002787  0.50142936  0.82206544  1
  Gd  Gd3  1  0.46997213  0.99857064  0.32206544  1
  Gd  Gd4  1  0.03002787  0.99857064  0.82206544  1
  Gd  Gd5  1  0.46997213  0.50142936  0.32206544  1
  Gd  Gd6  1  0.96997213  0.49857064  0.17793456  1
  Gd  Gd7  1  0.53002787  0.00142936  0.67793456  1
  U  U8  1  0.42277116  0.75000000  0.01070478  1
  U  U9  1  0.07722884  0.75000000  0.51070478  1
  U  U10  1  0.57722884  0.25000000  0.98929522  1
  U  U11  1  0.92277116  0.25000000  0.48929522  1
  Se  Se12  1  0.67176225  0.54847084  0.90641611  1
  Se  Se13  1  0.82823775  0.95152916  0.40641611  1
  Se  Se14  1  0.32823775  0.04847084  0.09358389  1
  Se  Se15  1  0.17176225  0.45152916  0.59358389  1
  Se  Se16  1  0.32823775  0.45152916  0.09358389  1
  Se  Se17  1  0.17176225  0.04847084  0.59358389  1
  Se  Se18  1  0.67176225  0.95152916  0.90641611  1
  Se  Se19  1  0.82823775  0.54847084  0.40641611  1
  Se  Se20  1  0.67103946  0.75000000  0.18740551  1
  Se  Se21  1  0.82896054  0.75000000  0.68740551  1
  Se  Se22  1  0.32896054  0.25000000  0.81259449  1
  Se  Se23  1  0.17103946  0.25000000  0.31259449  1
  Se  Se24  1  0.03729533  0.75000000  0.99977300  1
  Se  Se25  1  0.46270467  0.75000000  0.49977300  1
  Se  Se26  1  0.96270467  0.25000000  0.00022700  1
  Se  Se27  1  0.53729533  0.25000000  0.50022700  1
  Se  Se28  1  0.30556511  0.75000000  0.78025901  1
  Se  Se29  1  0.19443489  0.75000000  0.28025901  1
  Se  Se30  1  0.69443489  0.25000000  0.21974099  1
  Se  Se31  1  0.80556511  0.25000000  0.71974099  1
