# generated using pymatgen
data_SnH4SNO4F
_symmetry_space_group_name_H-M   'P 1'
_cell_length_a   4.93633489
_cell_length_b   8.14981134
_cell_length_c   15.47190365
_cell_angle_alpha   90.00000000
_cell_angle_beta   90.00000000
_cell_angle_gamma   89.61269005
_symmetry_Int_Tables_number   1
_chemical_formula_structural   SnH4SNO4F
_chemical_formula_sum   'Sn4 H16 S4 N4 O16 F4'
_cell_volume   622.42352668
_cell_formula_units_Z   4
loop_
 _symmetry_equiv_pos_site_id
 _symmetry_equiv_pos_as_xyz
  1  'x, y, z'
loop_
 _atom_site_type_symbol
 _atom_site_label
 _atom_site_symmetry_multiplicity
 _atom_site_fract_x
 _atom_site_fract_y
 _atom_site_fract_z
 _atom_site_occupancy
  Sn  Sn0  1  0.79323964  0.02798685  0.72253514  1
  Sn  Sn1  1  0.20676036  0.47201315  0.22253514  1
  Sn  Sn2  1  0.20676036  0.97201315  0.27746486  1
  Sn  Sn3  1  0.79323964  0.52798685  0.77746486  1
  H  H4  1  0.23275366  0.61012672  0.56273034  1
  H  H5  1  0.76724634  0.88987328  0.06273034  1
  H  H6  1  0.76724634  0.38987328  0.43726966  1
  H  H7  1  0.23275366  0.11012672  0.93726966  1
  H  H8  1  0.42138062  0.78162979  0.58203591  1
  H  H9  1  0.57861938  0.71837021  0.08203591  1
  H  H10  1  0.57861938  0.21837021  0.41796409  1
  H  H11  1  0.42138062  0.28162979  0.91796409  1
  H  H12  1  0.26564344  0.75582557  0.48601700  1
  H  H13  1  0.73435656  0.74417443  0.98601700  1
  H  H14  1  0.73435656  0.24417443  0.51398300  1
  H  H15  1  0.26564344  0.25582557  0.01398300  1
  H  H16  1  0.07651283  0.79390022  0.57481963  1
  H  H17  1  0.92348717  0.70609978  0.07481963  1
  H  H18  1  0.92348717  0.20609978  0.42518037  1
  H  H19  1  0.07651283  0.29390022  0.92518037  1
  S  S20  1  0.26288673  0.76912749  0.85424107  1
  S  S21  1  0.73711327  0.73087251  0.35424107  1
  S  S22  1  0.73711327  0.23087251  0.14575893  1
  S  S23  1  0.26288673  0.26912749  0.64575893  1
  N  N24  1  0.24942492  0.73594502  0.55162962  1
  N  N25  1  0.75057508  0.76405498  0.05162962  1
  N  N26  1  0.75057508  0.26405498  0.44837038  1
  N  N27  1  0.24942492  0.23594502  0.94837038  1
  O  O28  1  0.20154338  0.82838828  0.76517408  1
  O  O29  1  0.79845662  0.67161172  0.26517408  1
  O  O30  1  0.79845662  0.17161172  0.23482592  1
  O  O31  1  0.20154338  0.32838828  0.73482592  1
  O  O32  1  0.55829125  0.22089565  0.63916520  1
  O  O33  1  0.44170875  0.27910435  0.13916520  1
  O  O34  1  0.44170875  0.77910435  0.36083480  1
  O  O35  1  0.55829125  0.72089565  0.86083480  1
  O  O36  1  0.10176623  0.11357868  0.62984529  1
  O  O37  1  0.89823377  0.38642132  0.12984529  1
  O  O38  1  0.89823377  0.88642132  0.37015471  1
  O  O39  1  0.10176623  0.61357868  0.87015471  1
  O  O40  1  0.20083810  0.89059661  0.92115114  1
  O  O41  1  0.79916190  0.60940339  0.42115114  1
  O  O42  1  0.79916190  0.10940339  0.07884886  1
  O  O43  1  0.20083810  0.39059661  0.57884886  1
  F  F44  1  0.73933822  0.85444871  0.62503388  1
  F  F45  1  0.26066178  0.64555129  0.12503388  1
  F  F46  1  0.26066178  0.14555129  0.37496612  1
  F  F47  1  0.73933822  0.35444871  0.87496612  1
