# generated using pymatgen
data_NaInBP2HO9
_symmetry_space_group_name_H-M   'P 1'
_cell_length_a   5.26157820
_cell_length_b   7.90582108
_cell_length_c   17.00347789
_cell_angle_alpha   90.00000000
_cell_angle_beta   90.00000000
_cell_angle_gamma   94.53613565
_symmetry_Int_Tables_number   1
_chemical_formula_structural   NaInBP2HO9
_chemical_formula_sum   'Na4 In4 B4 P8 H4 O36'
_cell_volume   705.07980492
_cell_formula_units_Z   4
loop_
 _symmetry_equiv_pos_site_id
 _symmetry_equiv_pos_as_xyz
  1  'x, y, z'
loop_
 _atom_site_type_symbol
 _atom_site_label
 _atom_site_symmetry_multiplicity
 _atom_site_fract_x
 _atom_site_fract_y
 _atom_site_fract_z
 _atom_site_occupancy
  Na  Na0  1  0.14118805  0.66021525  0.16031908  1
  Na  Na1  1  0.35881195  0.83978475  0.66031908  1
  Na  Na2  1  0.85881195  0.33978475  0.83968092  1
  Na  Na3  1  0.64118805  0.16021525  0.33968092  1
  In  In4  1  0.67185098  0.70573342  0.34033803  1
  In  In5  1  0.82814902  0.79426658  0.84033803  1
  In  In6  1  0.32814902  0.29426658  0.65966197  1
  In  In7  1  0.17185098  0.20573342  0.15966197  1
  B  B8  1  0.89197084  0.74689376  0.52509297  1
  B  B9  1  0.60802916  0.75310624  0.02509297  1
  B  B10  1  0.10802916  0.25310624  0.47490703  1
  B  B11  1  0.39197084  0.24689376  0.97490703  1
  P  P12  1  0.85601258  0.57482079  0.66760502  1
  P  P13  1  0.64398742  0.92517921  0.16760502  1
  P  P14  1  0.14398742  0.42517921  0.33239498  1
  P  P15  1  0.35601258  0.07482079  0.83239498  1
  P  P16  1  0.32999238  0.56511466  0.91211607  1
  P  P17  1  0.17000762  0.93488534  0.41211607  1
  P  P18  1  0.67000762  0.43488534  0.08788393  1
  P  P19  1  0.82999238  0.06511466  0.58788393  1
  H  H20  1  0.73779692  0.52842851  0.47553936  1
  H  H21  1  0.76220308  0.97157149  0.97553936  1
  H  H22  1  0.26220308  0.47157149  0.52446064  1
  H  H23  1  0.23779692  0.02842851  0.02446064  1
  O  O24  1  0.56739659  0.52722900  0.65703348  1
  O  O25  1  0.93260341  0.97277100  0.15703348  1
  O  O26  1  0.43260341  0.47277100  0.34296652  1
  O  O27  1  0.06739659  0.02722900  0.84296652  1
  O  O28  1  0.57854835  0.56745152  0.86503333  1
  O  O29  1  0.92145165  0.93254848  0.36503333  1
  O  O30  1  0.42145165  0.43254848  0.13496667  1
  O  O31  1  0.07854835  0.06745152  0.63496667  1
  O  O32  1  0.89929333  0.73416313  0.71970370  1
  O  O33  1  0.60070667  0.76583687  0.21970370  1
  O  O34  1  0.10070667  0.26583687  0.28029630  1
  O  O35  1  0.39929333  0.23416313  0.78029630  1
  O  O36  1  0.75465687  0.62084251  0.05963151  1
  O  O37  1  0.74534313  0.87915749  0.55963151  1
  O  O38  1  0.24534313  0.37915749  0.94036849  1
  O  O39  1  0.25465687  0.12084251  0.44036849  1
  O  O40  1  0.71707107  0.64948125  0.47003919  1
  O  O41  1  0.78292893  0.85051875  0.97003919  1
  O  O42  1  0.28292893  0.35051875  0.52996081  1
  O  O43  1  0.21707107  0.14948125  0.02996081  1
  O  O44  1  0.37024589  0.68114984  0.98690366  1
  O  O45  1  0.12975411  0.81885016  0.48690366  1
  O  O46  1  0.62975411  0.31885016  0.01309634  1
  O  O47  1  0.87024589  0.18114984  0.51309634  1
  O  O48  1  0.98209421  0.62841123  0.58506628  1
  O  O49  1  0.51790579  0.87158877  0.08506628  1
  O  O50  1  0.01790579  0.37158877  0.41493372  1
  O  O51  1  0.48209421  0.12841123  0.91493372  1
  O  O52  1  0.00047466  0.57468857  0.30210688  1
  O  O53  1  0.49952534  0.92531143  0.80210688  1
  O  O54  1  0.99952534  0.42531143  0.69789312  1
  O  O55  1  0.50047466  0.07468857  0.19789312  1
  O  O56  1  0.10226485  0.61433302  0.86528017  1
  O  O57  1  0.39773515  0.88566698  0.36528017  1
  O  O58  1  0.89773515  0.38566698  0.13471983  1
  O  O59  1  0.60226485  0.11433302  0.63471983  1
