# generated using pymatgen
data_GaH18(NO6)3
_symmetry_space_group_name_H-M   'P 1'
_cell_length_a   10.08901164
_cell_length_b   11.05022165
_cell_length_c   14.19903027
_cell_angle_alpha   95.80713830
_cell_angle_beta   90.00000000
_cell_angle_gamma   90.00000000
_symmetry_Int_Tables_number   1
_chemical_formula_structural   GaH18(NO6)3
_chemical_formula_sum   'Ga4 H72 N12 O72'
_cell_volume   1574.86672836
_cell_formula_units_Z   4
loop_
 _symmetry_equiv_pos_site_id
 _symmetry_equiv_pos_as_xyz
  1  'x, y, z'
loop_
 _atom_site_type_symbol
 _atom_site_label
 _atom_site_symmetry_multiplicity
 _atom_site_fract_x
 _atom_site_fract_y
 _atom_site_fract_z
 _atom_site_occupancy
  Ga  Ga0  1  0.50000000  0.50000000  0.50000000  1
  Ga  Ga1  1  0.00000000  0.00000000  0.50000000  1
  Ga  Ga2  1  0.50000000  0.00000000  -0.00000000  1
  Ga  Ga3  1  0.00000000  0.50000000  -0.00000000  1
  H  H4  1  0.35813559  0.63589377  0.62966473  1
  H  H5  1  0.85813559  0.86410623  0.37033527  1
  H  H6  1  0.64186441  0.36410623  0.37033527  1
  H  H7  1  0.14186441  0.13589377  0.62966473  1
  H  H8  1  0.40907450  0.72625605  0.55253014  1
  H  H9  1  0.90907450  0.77374395  0.44746986  1
  H  H10  1  0.59092550  0.27374395  0.44746986  1
  H  H11  1  0.09092550  0.22625605  0.55253014  1
  H  H12  1  0.29894147  0.37902690  0.56187489  1
  H  H13  1  0.79894147  0.12097310  0.43812511  1
  H  H14  1  0.70105853  0.62097310  0.43812511  1
  H  H15  1  0.20105853  0.87902690  0.56187489  1
  H  H16  1  0.42442005  0.36746709  0.63688421  1
  H  H17  1  0.92442005  0.13253291  0.36311579  1
  H  H18  1  0.57557995  0.63253291  0.36311579  1
  H  H19  1  0.07557995  0.86746709  0.63688421  1
  H  H20  1  0.30345478  0.56896566  0.39403347  1
  H  H21  1  0.80345478  0.93103434  0.60596653  1
  H  H22  1  0.69654522  0.43103434  0.60596653  1
  H  H23  1  0.19654522  0.06896566  0.39403347  1
  H  H24  1  0.34951404  0.42778702  0.35360663  1
  H  H25  1  0.84951404  0.07221298  0.64639337  1
  H  H26  1  0.65048596  0.57221298  0.64639337  1
  H  H27  1  0.15048596  0.92778702  0.35360663  1
  H  H28  1  0.40530941  0.22468210  0.06269599  1
  H  H29  1  0.90530941  0.27531790  0.93730401  1
  H  H30  1  0.59469059  0.77531790  0.93730401  1
  H  H31  1  0.09469059  0.72468210  0.06269599  1
  H  H32  1  0.37596323  0.12467822  0.13839098  1
  H  H33  1  0.87596323  0.37532178  0.86160902  1
  H  H34  1  0.62403677  0.87532178  0.86160902  1
  H  H35  1  0.12403677  0.62467822  0.13839098  1
  H  H36  1  0.42335197  0.81282356  0.09749959  1
  H  H37  1  0.92335197  0.68717644  0.90250041  1
  H  H38  1  0.57664803  0.18717644  0.90250041  1
  H  H39  1  0.07664803  0.31282356  0.09749959  1
  H  H40  1  0.29479410  0.88133043  0.05854291  1
  H  H41  1  0.79479410  0.61866957  0.94145709  1
  H  H42  1  0.70520590  0.11866957  0.94145709  1
  H  H43  1  0.20520590  0.38133043  0.05854291  1
  H  H44  1  0.35028007  0.92683948  0.85314105  1
  H  H45  1  0.85028007  0.57316052  0.14685895  1
  H  H46  1  0.64971993  0.07316052  0.14685895  1
  H  H47  1  0.14971993  0.42683948  0.85314105  1
  H  H48  1  0.31216948  0.07178672  0.88645870  1
  H  H49  1  0.81216948  0.42821328  0.11354130  1
  H  H50  1  0.68783052  0.92821328  0.11354130  1
  H  H51  1  0.18783052  0.57178672  0.88645870  1
  H  H52  1  0.39114059  0.88577770  0.47071650  1
  H  H53  1  0.89114059  0.61422230  0.52928350  1
  H  H54  1  0.60885941  0.11422230  0.52928350  1
  H  H55  1  0.10885941  0.38577770  0.47071650  1
  H  H56  1  0.42320474  0.92760559  0.57757388  1
  H  H57  1  0.92320474  0.57239441  0.42242612  1
  H  H58  1  0.57679526  0.07239441  0.42242612  1
  H  H59  1  0.07679526  0.42760559  0.57757388  1
  H  H60  1  0.07491070  0.91863236  0.10149382  1
  H  H61  1  0.57491070  0.58136764  0.89850618  1
  H  H62  1  0.92508930  0.08136764  0.89850618  1
  H  H63  1  0.42508930  0.41863236  0.10149382  1
  H  H64  1  0.07743215  0.87588282  0.99093882  1
  H  H65  1  0.57743215  0.62411718  0.00906118  1
  H  H66  1  0.92256785  0.12411718  0.00906118  1
  H  H67  1  0.42256785  0.37588282  0.99093882  1
  H  H68  1  0.41661740  0.99361193  0.31896680  1
  H  H69  1  0.91661740  0.50638807  0.68103320  1
  H  H70  1  0.58338260  0.00638807  0.68103320  1
  H  H71  1  0.08338260  0.49361193  0.31896680  1
  H  H72  1  0.52224617  0.89126849  0.32417578  1
  H  H73  1  0.02224617  0.60873151  0.67582422  1
  H  H74  1  0.47775383  0.10873151  0.67582422  1
  H  H75  1  0.97775383  0.39126849  0.32417578  1
  N  N76  1  0.49272612  0.62557910  0.19209672  1
  N  N77  1  0.99272612  0.87442090  0.80790328  1
  N  N78  1  0.50727388  0.37442090  0.80790328  1
  N  N79  1  0.00727388  0.12557910  0.19209672  1
  N  N80  1  0.31184062  0.20545280  0.29958221  1
  N  N81  1  0.81184062  0.29454720  0.70041779  1
  N  N82  1  0.68815938  0.79454720  0.70041779  1
  N  N83  1  0.18815938  0.70545280  0.29958221  1
  N  N84  1  0.21369655  0.21678031  0.78620412  1
  N  N85  1  0.71369655  0.28321969  0.21379588  1
  N  N86  1  0.78630345  0.78321969  0.21379588  1
  N  N87  1  0.28630345  0.71678031  0.78620412  1
  O  O88  1  0.41670144  0.64147952  0.57249097  1
  O  O89  1  0.91670144  0.85852048  0.42750903  1
  O  O90  1  0.58329856  0.35852048  0.42750903  1
  O  O91  1  0.08329856  0.14147952  0.57249097  1
  O  O92  1  0.39717645  0.38460744  0.57181504  1
  O  O93  1  0.89717645  0.11539256  0.42818496  1
  O  O94  1  0.60282355  0.61539256  0.42818496  1
  O  O95  1  0.10282355  0.88460744  0.57181504  1
  O  O96  1  0.35446793  0.49424204  0.40692052  1
  O  O97  1  0.85446793  0.00575796  0.59307948  1
  O  O98  1  0.64553207  0.50575796  0.59307948  1
  O  O99  1  0.14553207  0.99424204  0.40692052  1
  O  O100  1  0.40796253  0.13517110  0.07250939  1
  O  O101  1  0.90796253  0.36482890  0.92749061  1
  O  O102  1  0.59203747  0.86482890  0.92749061  1
  O  O103  1  0.09203747  0.63517110  0.07250939  1
  O  O104  1  0.39078997  0.89057853  0.07526974  1
  O  O105  1  0.89078997  0.60942147  0.92473026  1
  O  O106  1  0.60921003  0.10942147  0.92473026  1
  O  O107  1  0.10921003  0.39057853  0.07526974  1
  O  O108  1  0.35631519  0.99573219  0.90494106  1
  O  O109  1  0.85631519  0.50426781  0.09505894  1
  O  O110  1  0.64368481  0.00426781  0.09505894  1
  O  O111  1  0.14368481  0.49573219  0.90494106  1
  O  O112  1  0.46629535  0.67033603  0.11453239  1
  O  O113  1  0.96629535  0.82966397  0.88546761  1
  O  O114  1  0.53370465  0.32966397  0.88546761  1
  O  O115  1  0.03370465  0.17033603  0.11453239  1
  O  O116  1  0.50958164  0.69633218  0.26743119  1
  O  O117  1  0.00958164  0.80366782  0.73256881  1
  O  O118  1  0.49041836  0.30366782  0.73256881  1
  O  O119  1  0.99041836  0.19633218  0.26743119  1
  O  O120  1  0.50195615  0.51264473  0.19308394  1
  O  O121  1  0.00195615  0.98735527  0.80691606  1
  O  O122  1  0.49804385  0.48735527  0.80691606  1
  O  O123  1  0.99804385  0.01264473  0.19308394  1
  O  O124  1  0.23513009  0.13130983  0.72110867  1
  O  O125  1  0.73513009  0.36869017  0.27889133  1
  O  O126  1  0.76486991  0.86869017  0.27889133  1
  O  O127  1  0.26486991  0.63130983  0.72110867  1
  O  O128  1  0.24564365  0.20324479  0.87081441  1
  O  O129  1  0.74564365  0.29675521  0.12918559  1
  O  O130  1  0.75435635  0.79675521  0.12918559  1
  O  O131  1  0.25435635  0.70324479  0.87081441  1
  O  O132  1  0.16155029  0.31524624  0.76631132  1
  O  O133  1  0.66155029  0.18475376  0.23368868  1
  O  O134  1  0.83844971  0.68475376  0.23368868  1
  O  O135  1  0.33844971  0.81524624  0.76631132  1
  O  O136  1  0.33690522  0.30603298  0.26965564  1
  O  O137  1  0.83690522  0.19396702  0.73034436  1
  O  O138  1  0.66309478  0.69396702  0.73034436  1
  O  O139  1  0.16309478  0.80603298  0.26965564  1
  O  O140  1  0.32497447  0.10651021  0.24463630  1
  O  O141  1  0.82497447  0.39348979  0.75536370  1
  O  O142  1  0.67502553  0.89348979  0.75536370  1
  O  O143  1  0.17502553  0.60651021  0.24463630  1
  O  O144  1  0.27361211  0.19857604  0.38385726  1
  O  O145  1  0.77361211  0.30142396  0.61614274  1
  O  O146  1  0.72638789  0.80142396  0.61614274  1
  O  O147  1  0.22638789  0.69857604  0.38385726  1
  O  O148  1  0.37089187  0.86717708  0.53568440  1
  O  O149  1  0.87089187  0.63282292  0.46431560  1
  O  O150  1  0.62910813  0.13282292  0.46431560  1
  O  O151  1  0.12910813  0.36717708  0.53568440  1
  O  O152  1  0.12138100  0.86462208  0.05139768  1
  O  O153  1  0.62138100  0.63537792  0.94860232  1
  O  O154  1  0.87861900  0.13537792  0.94860232  1
  O  O155  1  0.37861900  0.36462208  0.05139768  1
  O  O156  1  0.47495440  0.95532583  0.36329513  1
  O  O157  1  0.97495440  0.54467417  0.63670487  1
  O  O158  1  0.52504560  0.04467417  0.63670487  1
  O  O159  1  0.02504560  0.45532583  0.36329513  1
