# generated using pymatgen
data_Rb2NiP4(HO2)8
_symmetry_space_group_name_H-M   'P 1'
_cell_length_a   7.04593647
_cell_length_b   7.41333466
_cell_length_c   7.76468570
_cell_angle_alpha   82.50858353
_cell_angle_beta   71.69130976
_cell_angle_gamma   86.92841842
_symmetry_Int_Tables_number   1
_chemical_formula_structural   Rb2NiP4(HO2)8
_chemical_formula_sum   'Rb2 Ni1 P4 H8 O16'
_cell_volume   381.72741054
_cell_formula_units_Z   1
loop_
 _symmetry_equiv_pos_site_id
 _symmetry_equiv_pos_as_xyz
  1  'x, y, z'
loop_
 _atom_site_type_symbol
 _atom_site_label
 _atom_site_symmetry_multiplicity
 _atom_site_fract_x
 _atom_site_fract_y
 _atom_site_fract_z
 _atom_site_occupancy
  Rb  Rb0  1  0.40273644  0.28431352  0.21129066  1
  Rb  Rb1  1  0.59726356  0.71568648  0.78870934  1
  Ni  Ni2  1  0.00000000  0.50000000  -0.00000000  1
  P  P3  1  0.73851290  0.79927697  0.25200390  1
  P  P4  1  0.26148710  0.20072303  0.74799610  1
  P  P5  1  0.14970560  0.73889226  0.26090740  1
  P  P6  1  0.85029440  0.26110774  0.73909260  1
  H  H7  1  0.42030409  0.73429032  0.41374525  1
  H  H8  1  0.57969591  0.26570968  0.58625475  1
  H  H9  1  0.23432809  0.96901551  0.04242732  1
  H  H10  1  0.76567191  0.03098449  0.95757268  1
  H  H11  1  0.88182827  0.31686982  0.34460663  1
  H  H12  1  0.11817173  0.68313018  0.65539337  1
  H  H13  1  0.88308955  0.18070962  0.20022835  1
  H  H14  1  0.11691045  0.81929038  0.79977165  1
  O  O15  1  0.74810875  0.64801632  0.13543140  1
  O  O16  1  0.25189125  0.35198368  0.86456860  1
  O  O17  1  0.55099030  0.78318934  0.42724390  1
  O  O18  1  0.44900970  0.21681066  0.57275610  1
  O  O19  1  0.76045713  0.99248574  0.15259856  1
  O  O20  1  0.23954287  0.00751426  0.84740144  1
  O  O21  1  0.91154942  0.76985143  0.35224786  1
  O  O22  1  0.08845058  0.23014857  0.64775214  1
  O  O23  1  0.18644948  0.61551103  0.11197140  1
  O  O24  1  0.81355052  0.38448897  0.88802860  1
  O  O25  1  0.22642985  0.66885368  0.41940617  1
  O  O26  1  0.77357015  0.33114632  0.58059383  1
  O  O27  1  0.24036479  0.93246090  0.17535483  1
  O  O28  1  0.75963521  0.06753910  0.82464517  1
  O  O29  1  0.94700438  0.29047255  0.21696635  1
  O  O30  1  0.05299562  0.70952745  0.78303365  1
