# generated using pymatgen
data_Dy2B6Ru
_symmetry_space_group_name_H-M   'P 1'
_cell_length_a   3.66884877
_cell_length_b   9.14444328
_cell_length_c   11.51047620
_cell_angle_alpha   90.00000000
_cell_angle_beta   90.00000000
_cell_angle_gamma   90.00000000
_symmetry_Int_Tables_number   1
_chemical_formula_structural   Dy2B6Ru
_chemical_formula_sum   'Dy8 B24 Ru4'
_cell_volume   386.17163613
_cell_formula_units_Z   4
loop_
 _symmetry_equiv_pos_site_id
 _symmetry_equiv_pos_as_xyz
  1  'x, y, z'
loop_
 _atom_site_type_symbol
 _atom_site_label
 _atom_site_symmetry_multiplicity
 _atom_site_fract_x
 _atom_site_fract_y
 _atom_site_fract_z
 _atom_site_occupancy
  Dy  Dy0  1  0.00000000  0.32258430  0.41428597  1
  Dy  Dy1  1  0.00000000  0.67741570  0.58571403  1
  Dy  Dy2  1  0.00000000  0.82258430  0.08571403  1
  Dy  Dy3  1  -0.00000000  0.17741570  0.91428597  1
  Dy  Dy4  1  -0.00000000  0.94457386  0.37224758  1
  Dy  Dy5  1  -0.00000000  0.05542614  0.62775242  1
  Dy  Dy6  1  -0.00000000  0.44457386  0.12775242  1
  Dy  Dy7  1  -0.00000000  0.55542614  0.87224758  1
  B  B8  1  0.50000000  0.55478094  0.43304286  1
  B  B9  1  0.50000000  0.44521906  0.56695714  1
  B  B10  1  0.50000000  0.05478094  0.06695714  1
  B  B11  1  0.50000000  0.94521906  0.93304286  1
  B  B12  1  0.50000000  0.74874798  0.42002335  1
  B  B13  1  0.50000000  0.25125202  0.57997665  1
  B  B14  1  0.50000000  0.24874798  0.07997665  1
  B  B15  1  0.50000000  0.75125202  0.92002335  1
  B  B16  1  0.50000000  0.79154064  0.26652337  1
  B  B17  1  0.50000000  0.20845936  0.73347663  1
  B  B18  1  0.50000000  0.29154064  0.23347663  1
  B  B19  1  0.50000000  0.70845936  0.76652337  1
  B  B20  1  0.50000000  0.63273540  0.18523021  1
  B  B21  1  0.50000000  0.36726460  0.81476979  1
  B  B22  1  0.50000000  0.13273540  0.31476979  1
  B  B23  1  0.50000000  0.86726460  0.68523021  1
  B  B24  1  0.50000000  0.98508455  0.21251617  1
  B  B25  1  0.50000000  0.01491545  0.78748383  1
  B  B26  1  0.50000000  0.48508455  0.28748383  1
  B  B27  1  0.50000000  0.51491545  0.71251617  1
  B  B28  1  0.50000000  0.60978013  0.03016085  1
  B  B29  1  0.50000000  0.39021987  0.96983915  1
  B  B30  1  0.50000000  0.10978013  0.46983915  1
  B  B31  1  0.50000000  0.89021987  0.53016085  1
  Ru  Ru32  1  0.00000000  0.63882659  0.32119131  1
  Ru  Ru33  1  0.00000000  0.36117341  0.67880869  1
  Ru  Ru34  1  -0.00000000  0.13882659  0.17880869  1
  Ru  Ru35  1  0.00000000  0.86117341  0.82119131  1
