# generated using pymatgen
data_Eu2Mo3H2Se2O17
_symmetry_space_group_name_H-M   'P 1'
_cell_length_a   7.04136588
_cell_length_b   7.39966062
_cell_length_c   14.72505499
_cell_angle_alpha   90.00000000
_cell_angle_beta   100.24550004
_cell_angle_gamma   90.00000000
_symmetry_Int_Tables_number   1
_chemical_formula_structural   Eu2Mo3H2Se2O17
_chemical_formula_sum   'Eu4 Mo6 H4 Se4 O34'
_cell_volume   754.99637301
_cell_formula_units_Z   2
loop_
 _symmetry_equiv_pos_site_id
 _symmetry_equiv_pos_as_xyz
  1  'x, y, z'
loop_
 _atom_site_type_symbol
 _atom_site_label
 _atom_site_symmetry_multiplicity
 _atom_site_fract_x
 _atom_site_fract_y
 _atom_site_fract_z
 _atom_site_occupancy
  Eu  Eu0  1  0.61650300  0.75000000  0.54916412  1
  Eu  Eu1  1  0.38349700  0.25000000  0.45083588  1
  Eu  Eu2  1  0.24992012  0.75000000  0.11695590  1
  Eu  Eu3  1  0.75007988  0.25000000  0.88304410  1
  Mo  Mo4  1  0.78587809  0.99511694  0.14050114  1
  Mo  Mo5  1  0.21412191  0.49511694  0.85949886  1
  Mo  Mo6  1  0.21412191  0.00488306  0.85949886  1
  Mo  Mo7  1  0.78587809  0.50488306  0.14050114  1
  Mo  Mo8  1  0.87124428  0.25000000  0.33007174  1
  Mo  Mo9  1  0.12875572  0.75000000  0.66992826  1
  H  H10  1  0.74751828  0.64499285  0.36469057  1
  H  H11  1  0.25248172  0.14499285  0.63530943  1
  H  H12  1  0.25248172  0.35500715  0.63530943  1
  H  H13  1  0.74751828  0.85500715  0.36469057  1
  Se  Se14  1  0.21761998  0.75000000  0.38300461  1
  Se  Se15  1  0.78238002  0.25000000  0.61699539  1
  Se  Se16  1  0.23867926  0.25000000  0.18664830  1
  Se  Se17  1  0.76132074  0.75000000  0.81335170  1
  O  O18  1  0.34261351  0.92547360  0.44470441  1
  O  O19  1  0.65738649  0.42547360  0.55529559  1
  O  O20  1  0.65738649  0.07452640  0.55529559  1
  O  O21  1  0.34261351  0.57452640  0.44470441  1
  O  O22  1  0.28630663  0.75000000  0.27907193  1
  O  O23  1  0.71369337  0.25000000  0.72092807  1
  O  O24  1  0.19331121  0.25000000  0.29771455  1
  O  O25  1  0.80668879  0.75000000  0.70228545  1
  O  O26  1  0.10540301  0.06232160  0.14174772  1
  O  O27  1  0.89459699  0.56232160  0.85825228  1
  O  O28  1  0.89459699  0.93767840  0.85825228  1
  O  O29  1  0.10540301  0.43767840  0.14174772  1
  O  O30  1  0.89506884  0.75000000  0.13541297  1
  O  O31  1  0.10493116  0.25000000  0.86458703  1
  O  O32  1  0.75518145  0.05956412  0.02329235  1
  O  O33  1  0.24481855  0.55956412  0.97670765  1
  O  O34  1  0.24481855  0.94043588  0.97670765  1
  O  O35  1  0.75518145  0.44043588  0.02329235  1
  O  O36  1  0.55041129  0.92838113  0.14959896  1
  O  O37  1  0.44958871  0.42838113  0.85040104  1
  O  O38  1  0.44958871  0.07161887  0.85040104  1
  O  O39  1  0.55041129  0.57161887  0.14959896  1
  O  O40  1  0.88043776  0.00628888  0.28691108  1
  O  O41  1  0.11956224  0.50628888  0.71308892  1
  O  O42  1  0.11956224  0.99371112  0.71308892  1
  O  O43  1  0.88043776  0.49371112  0.28691108  1
  O  O44  1  0.76929714  0.25000000  0.17844549  1
  O  O45  1  0.23070286  0.75000000  0.82155451  1
  O  O46  1  0.63666777  0.25000000  0.35971973  1
  O  O47  1  0.36333223  0.75000000  0.64028027  1
  O  O48  1  0.02509156  0.25000000  0.43982341  1
  O  O49  1  0.97490844  0.75000000  0.56017659  1
  O  O50  1  0.69058308  0.75000000  0.39132861  1
  O  O51  1  0.30941692  0.25000000  0.60867139  1
