# generated using pymatgen
data_Te6RuBr8
_symmetry_space_group_name_H-M   'P 1'
_cell_length_a   9.83332377
_cell_length_b   13.13636507
_cell_length_c   17.12602793
_cell_angle_alpha   90.00000000
_cell_angle_beta   90.00000000
_cell_angle_gamma   99.45737844
_symmetry_Int_Tables_number   1
_chemical_formula_structural   Te6RuBr8
_chemical_formula_sum   'Te24 Ru4 Br32'
_cell_volume   2182.17124480
_cell_formula_units_Z   4
loop_
 _symmetry_equiv_pos_site_id
 _symmetry_equiv_pos_as_xyz
  1  'x, y, z'
loop_
 _atom_site_type_symbol
 _atom_site_label
 _atom_site_symmetry_multiplicity
 _atom_site_fract_x
 _atom_site_fract_y
 _atom_site_fract_z
 _atom_site_occupancy
  Te  Te0  1  0.60271416  0.63783386  0.57727984  1
  Te  Te1  1  0.10271416  0.13783386  0.92272016  1
  Te  Te2  1  0.39728584  0.36216614  0.42272016  1
  Te  Te3  1  0.89728584  0.86216614  0.07727984  1
  Te  Te4  1  0.34028338  0.57053627  0.42288562  1
  Te  Te5  1  0.84028338  0.07053627  0.07711438  1
  Te  Te6  1  0.65971662  0.42946373  0.57711438  1
  Te  Te7  1  0.15971662  0.92946373  0.92288562  1
  Te  Te8  1  0.67187574  0.47176455  0.41015146  1
  Te  Te9  1  0.17187574  0.97176455  0.08984854  1
  Te  Te10  1  0.32812426  0.52823545  0.58984854  1
  Te  Te11  1  0.82812426  0.02823545  0.91015146  1
  Te  Te12  1  0.54472445  0.84896690  0.44001316  1
  Te  Te13  1  0.04472445  0.34896690  0.05998684  1
  Te  Te14  1  0.45527555  0.15103310  0.55998684  1
  Te  Te15  1  0.95527555  0.65103310  0.94001316  1
  Te  Te16  1  0.61522828  0.67663540  0.26756893  1
  Te  Te17  1  0.11522828  0.17663540  0.23243107  1
  Te  Te18  1  0.38477172  0.32336460  0.73243107  1
  Te  Te19  1  0.88477172  0.82336460  0.76756893  1
  Te  Te20  1  0.86523954  0.74929275  0.42163105  1
  Te  Te21  1  0.36523954  0.24929275  0.07836895  1
  Te  Te22  1  0.13476046  0.25070725  0.57836895  1
  Te  Te23  1  0.63476046  0.75070725  0.92163105  1
  Ru  Ru24  1  0.60550043  0.66085791  0.42197465  1
  Ru  Ru25  1  0.10550043  0.16085791  0.07802535  1
  Ru  Ru26  1  0.39449957  0.33914209  0.57802535  1
  Ru  Ru27  1  0.89449957  0.83914209  0.92197465  1
  Br  Br28  1  0.45193614  0.83194495  0.58722015  1
  Br  Br29  1  0.95193614  0.33194495  0.91277985  1
  Br  Br30  1  0.54806386  0.16805505  0.41277985  1
  Br  Br31  1  0.04806386  0.66805505  0.08722015  1
  Br  Br32  1  0.29531494  0.83581267  0.38825316  1
  Br  Br33  1  0.79531494  0.33581267  0.11174684  1
  Br  Br34  1  0.70468506  0.16418733  0.61174684  1
  Br  Br35  1  0.20468506  0.66418733  0.88825316  1
  Br  Br36  1  0.66118848  0.89444793  0.28079753  1
  Br  Br37  1  0.16118848  0.39444793  0.21920247  1
  Br  Br38  1  0.33881152  0.10555207  0.71920247  1
  Br  Br39  1  0.83881152  0.60555207  0.78079753  1
  Br  Br40  1  0.37214474  0.67997232  0.21478036  1
  Br  Br41  1  0.87214474  0.17997232  0.28521964  1
  Br  Br42  1  0.62785526  0.32002768  0.78521964  1
  Br  Br43  1  0.12785526  0.82002768  0.71478036  1
  Br  Br44  1  0.57801356  0.46869415  0.24088150  1
  Br  Br45  1  0.07801356  0.96869415  0.25911850  1
  Br  Br46  1  0.42198644  0.53130585  0.75911850  1
  Br  Br47  1  0.92198644  0.03130585  0.74088150  1
  Br  Br48  1  0.93602246  0.63363905  0.29971854  1
  Br  Br49  1  0.43602246  0.13363905  0.20028146  1
  Br  Br50  1  0.06397754  0.36636095  0.70028146  1
  Br  Br51  1  0.56397754  0.86636095  0.79971854  1
  Br  Br52  1  0.97382858  0.64717742  0.52774182  1
  Br  Br53  1  0.47382858  0.14717742  0.97225818  1
  Br  Br54  1  0.02617142  0.35282258  0.47225818  1
  Br  Br55  1  0.52617142  0.85282258  0.02774182  1
  Br  Br56  1  0.81740190  0.89931146  0.52779179  1
  Br  Br57  1  0.31740190  0.39931146  0.97220821  1
  Br  Br58  1  0.18259810  0.10068854  0.47220821  1
  Br  Br59  1  0.68259810  0.60068854  0.02779179  1
