# generated using pymatgen
data_Eu(Ga4Rh)2
_symmetry_space_group_name_H-M   'P 1'
_cell_length_a   4.16743626
_cell_length_b   12.73888899
_cell_length_c   14.71329240
_cell_angle_alpha   90.00000000
_cell_angle_beta   90.00000000
_cell_angle_gamma   90.00000000
_symmetry_Int_Tables_number   1
_chemical_formula_structural   Eu(Ga4Rh)2
_chemical_formula_sum   'Eu4 Ga32 Rh8'
_cell_volume   781.10673965
_cell_formula_units_Z   4
loop_
 _symmetry_equiv_pos_site_id
 _symmetry_equiv_pos_as_xyz
  1  'x, y, z'
loop_
 _atom_site_type_symbol
 _atom_site_label
 _atom_site_symmetry_multiplicity
 _atom_site_fract_x
 _atom_site_fract_y
 _atom_site_fract_z
 _atom_site_occupancy
  Eu  Eu0  1  0.50000000  0.15774560  0.31883376  1
  Eu  Eu1  1  0.50000000  0.84225440  0.68116624  1
  Eu  Eu2  1  0.50000000  0.65774560  0.18116624  1
  Eu  Eu3  1  0.50000000  0.34225440  0.81883376  1
  Ga  Ga4  1  0.00000000  0.50000000  0.50000000  1
  Ga  Ga5  1  -0.00000000  0.00000000  0.00000000  1
  Ga  Ga6  1  0.50000000  0.50000000  0.00000000  1
  Ga  Ga7  1  0.50000000  0.00000000  0.50000000  1
  Ga  Ga8  1  0.50000000  0.65958513  0.45704647  1
  Ga  Ga9  1  0.50000000  0.34041487  0.54295353  1
  Ga  Ga10  1  0.50000000  0.15958513  0.04295353  1
  Ga  Ga11  1  0.50000000  0.84041487  0.95704647  1
  Ga  Ga12  1  0.50000000  0.40135910  0.25132744  1
  Ga  Ga13  1  0.50000000  0.59864090  0.74867256  1
  Ga  Ga14  1  0.50000000  0.90135910  0.24867256  1
  Ga  Ga15  1  0.50000000  0.09864090  0.75132744  1
  Ga  Ga16  1  -0.00000000  0.55011153  0.31535856  1
  Ga  Ga17  1  0.00000000  0.44988847  0.68464144  1
  Ga  Ga18  1  -0.00000000  0.05011153  0.18464144  1
  Ga  Ga19  1  0.00000000  0.94988847  0.81535856  1
  Ga  Ga20  1  -0.00000000  0.33433474  0.37676050  1
  Ga  Ga21  1  -0.00000000  0.66566526  0.62323950  1
  Ga  Ga22  1  0.00000000  0.83433474  0.12323950  1
  Ga  Ga23  1  0.00000000  0.16566526  0.87676050  1
  Ga  Ga24  1  0.00000000  0.16965858  0.48689700  1
  Ga  Ga25  1  0.00000000  0.83034142  0.51310300  1
  Ga  Ga26  1  0.00000000  0.66965858  0.01310300  1
  Ga  Ga27  1  -0.00000000  0.33034142  0.98689700  1
  Ga  Ga28  1  0.00000000  0.75900074  0.32380753  1
  Ga  Ga29  1  -0.00000000  0.24099926  0.67619247  1
  Ga  Ga30  1  0.00000000  0.25900074  0.17619247  1
  Ga  Ga31  1  -0.00000000  0.74099926  0.82380753  1
  Ga  Ga32  1  0.00000000  0.97860427  0.36727301  1
  Ga  Ga33  1  -0.00000000  0.02139573  0.63272699  1
  Ga  Ga34  1  0.00000000  0.47860427  0.13272699  1
  Ga  Ga35  1  -0.00000000  0.52139573  0.86727301  1
  Rh  Rh36  1  0.50000000  0.84458220  0.40523782  1
  Rh  Rh37  1  0.50000000  0.15541780  0.59476218  1
  Rh  Rh38  1  0.50000000  0.34458220  0.09476218  1
  Rh  Rh39  1  0.50000000  0.65541780  0.90523782  1
  Rh  Rh40  1  0.50000000  0.46464268  0.40352731  1
  Rh  Rh41  1  0.50000000  0.53535732  0.59647269  1
  Rh  Rh42  1  0.50000000  0.96464268  0.09647269  1
  Rh  Rh43  1  0.50000000  0.03535732  0.90352731  1
