# generated using pymatgen
data_KGdH2S2O9
_symmetry_space_group_name_H-M   'P 1'
_cell_length_a   8.45823200
_cell_length_b   10.28840389
_cell_length_c   10.50541534
_cell_angle_alpha   119.53430984
_cell_angle_beta   90.00000000
_cell_angle_gamma   90.00000000
_symmetry_Int_Tables_number   1
_chemical_formula_structural   KGdH2S2O9
_chemical_formula_sum   'K4 Gd4 H8 S8 O36'
_cell_volume   795.40874478
_cell_formula_units_Z   4
loop_
 _symmetry_equiv_pos_site_id
 _symmetry_equiv_pos_as_xyz
  1  'x, y, z'
loop_
 _atom_site_type_symbol
 _atom_site_label
 _atom_site_symmetry_multiplicity
 _atom_site_fract_x
 _atom_site_fract_y
 _atom_site_fract_z
 _atom_site_occupancy
  K  K0  1  0.67747680  0.21017342  0.69133336  1
  K  K1  1  0.17747680  0.78982658  0.80866664  1
  K  K2  1  0.32252320  0.78982658  0.30866664  1
  K  K3  1  0.82252320  0.21017342  0.19133336  1
  Gd  Gd4  1  0.64920452  0.74185210  0.96206620  1
  Gd  Gd5  1  0.14920452  0.25814790  0.53793380  1
  Gd  Gd6  1  0.35079548  0.25814790  0.03793380  1
  Gd  Gd7  1  0.85079548  0.74185210  0.46206620  1
  H  H8  1  0.51926009  0.72093095  0.55412375  1
  H  H9  1  0.01926009  0.27906905  0.94587625  1
  H  H10  1  0.48073991  0.27906905  0.44587625  1
  H  H11  1  0.98073991  0.72093095  0.05412375  1
  H  H12  1  0.51479706  0.58688177  0.39472978  1
  H  H13  1  0.01479706  0.41311823  0.10527022  1
  H  H14  1  0.48520294  0.41311823  0.60527022  1
  H  H15  1  0.98520294  0.58688177  0.89472978  1
  S  S16  1  0.63373259  0.94860629  0.82014304  1
  S  S17  1  0.13373259  0.05139371  0.67985696  1
  S  S18  1  0.36626741  0.05139371  0.17985696  1
  S  S19  1  0.86626741  0.94860629  0.32014304  1
  S  S20  1  0.80405422  0.49989473  0.60123568  1
  S  S21  1  0.30405422  0.50010527  0.89876432  1
  S  S22  1  0.19594578  0.50010527  0.39876432  1
  S  S23  1  0.69594578  0.49989473  0.10123568  1
  O  O24  1  0.71290382  0.92512236  0.68461520  1
  O  O25  1  0.21290382  0.07487764  0.81538480  1
  O  O26  1  0.28709618  0.07487764  0.31538480  1
  O  O27  1  0.78709618  0.92512236  0.18461520  1
  O  O28  1  0.75062782  0.94288396  0.92485197  1
  O  O29  1  0.25062782  0.05711604  0.57514803  1
  O  O30  1  0.24937218  0.05711604  0.07514803  1
  O  O31  1  0.74937218  0.94288396  0.42485197  1
  O  O32  1  0.51648753  0.82774314  0.78823073  1
  O  O33  1  0.01648753  0.17225686  0.71176927  1
  O  O34  1  0.48351247  0.17225686  0.21176927  1
  O  O35  1  0.98351247  0.82774314  0.28823073  1
  O  O36  1  0.55723015  0.09811097  0.88836659  1
  O  O37  1  0.05723015  0.90188903  0.61163341  1
  O  O38  1  0.44276985  0.90188903  0.11163341  1
  O  O39  1  0.94276985  0.09811097  0.38836659  1
  O  O40  1  0.91966095  0.40417040  0.62375379  1
  O  O41  1  0.41966095  0.59582960  0.87624621  1
  O  O42  1  0.08033905  0.59582960  0.37624621  1
  O  O43  1  0.58033905  0.40417040  0.12375379  1
  O  O44  1  0.68254403  0.54476617  0.71974477  1
  O  O45  1  0.18254403  0.45523383  0.78025523  1
  O  O46  1  0.31745597  0.45523383  0.28025523  1
  O  O47  1  0.81745597  0.54476617  0.21974477  1
  O  O48  1  0.61626373  0.63872124  0.12017605  1
  O  O49  1  0.11626373  0.36127876  0.37982395  1
  O  O50  1  0.38373627  0.36127876  0.87982395  1
  O  O51  1  0.88373627  0.63872124  0.62017605  1
  O  O52  1  0.72773485  0.41999436  0.45744800  1
  O  O53  1  0.22773485  0.58000564  0.04255200  1
  O  O54  1  0.27226515  0.58000564  0.54255200  1
  O  O55  1  0.77226515  0.41999436  0.95744800  1
  O  O56  1  0.56053928  0.68704516  0.45497064  1
  O  O57  1  0.06053928  0.31295484  0.04502936  1
  O  O58  1  0.43946072  0.31295484  0.54502936  1
  O  O59  1  0.93946072  0.68704516  0.95497064  1
