# generated using pymatgen
data_Zn3H6C6(IO6)2
_symmetry_space_group_name_H-M   'P 1'
_cell_length_a   10.20372769
_cell_length_b   11.69823393
_cell_length_c   15.04770094
_cell_angle_alpha   88.40292190
_cell_angle_beta   90.00000000
_cell_angle_gamma   90.00000000
_symmetry_Int_Tables_number   1
_chemical_formula_structural   Zn3H6C6(IO6)2
_chemical_formula_sum   'Zn12 H24 C24 I8 O48'
_cell_volume   1795.48000501
_cell_formula_units_Z   4
loop_
 _symmetry_equiv_pos_site_id
 _symmetry_equiv_pos_as_xyz
  1  'x, y, z'
loop_
 _atom_site_type_symbol
 _atom_site_label
 _atom_site_symmetry_multiplicity
 _atom_site_fract_x
 _atom_site_fract_y
 _atom_site_fract_z
 _atom_site_occupancy
  Zn  Zn0  1  0.57977913  0.25754393  0.36761546  1
  Zn  Zn1  1  0.07977913  0.24245607  0.13238454  1
  Zn  Zn2  1  0.42022087  0.74245607  0.63238454  1
  Zn  Zn3  1  0.92022087  0.75754393  0.86761546  1
  Zn  Zn4  1  0.39372873  0.24076750  0.18757269  1
  Zn  Zn5  1  0.89372873  0.25923250  0.31242731  1
  Zn  Zn6  1  0.60627127  0.75923250  0.81242731  1
  Zn  Zn7  1  0.10627127  0.74076750  0.68757269  1
  Zn  Zn8  1  0.50000000  -0.00000000  0.50000000  1
  Zn  Zn9  1  -0.00000000  0.50000000  -0.00000000  1
  Zn  Zn10  1  0.50000000  0.50000000  0.50000000  1
  Zn  Zn11  1  -0.00000000  -0.00000000  -0.00000000  1
  H  H12  1  0.74962768  0.36354429  0.13212762  1
  H  H13  1  0.24962768  0.13645571  0.36787238  1
  H  H14  1  0.25037232  0.63645571  0.86787238  1
  H  H15  1  0.75037232  0.86354429  0.63212762  1
  H  H16  1  0.46354756  0.97781611  0.23171311  1
  H  H17  1  0.96354756  0.52218389  0.26828689  1
  H  H18  1  0.53645244  0.02218389  0.76828689  1
  H  H19  1  0.03645244  0.47781611  0.73171311  1
  H  H20  1  0.88814718  0.05683314  0.45583138  1
  H  H21  1  0.38814718  0.44316686  0.04416862  1
  H  H22  1  0.11185282  0.94316686  0.54416862  1
  H  H23  1  0.61185282  0.55683314  0.95583138  1
  H  H24  1  0.31330028  0.48635614  0.26441465  1
  H  H25  1  0.81330028  0.01364386  0.23558535  1
  H  H26  1  0.68669972  0.51364386  0.73558535  1
  H  H27  1  0.18669972  0.98635614  0.76441465  1
  H  H28  1  0.34407919  0.19217145  0.57338436  1
  H  H29  1  0.84407919  0.30782855  0.92661564  1
  H  H30  1  0.65592081  0.80782855  0.42661564  1
  H  H31  1  0.15592081  0.69217145  0.07338436  1
  H  H32  1  0.79827513  0.49270597  0.49203052  1
  H  H33  1  0.29827513  0.00729403  0.00796948  1
  H  H34  1  0.20172487  0.50729403  0.50796948  1
  H  H35  1  0.70172487  0.99270597  0.99203052  1
  C  C36  1  0.67080127  0.32766187  0.17471460  1
  C  C37  1  0.17080127  0.17233813  0.32528540  1
  C  C38  1  0.32919873  0.67233813  0.82528540  1
  C  C39  1  0.82919873  0.82766187  0.67471460  1
  C  C40  1  0.48500783  0.02473799  0.29288684  1
  C  C41  1  0.98500783  0.47526201  0.20711316  1
  C  C42  1  0.51499217  0.97526201  0.70711316  1
  C  C43  1  0.01499217  0.52473799  0.79288684  1
  C  C44  1  0.78268506  0.07612390  0.44748600  1
  C  C45  1  0.28268506  0.42387610  0.05251400  1
  C  C46  1  0.21731494  0.92387610  0.55251400  1
  C  C47  1  0.71731494  0.57612390  0.94748600  1
  C  C48  1  0.38085514  0.45272543  0.31646793  1
  C  C49  1  0.88085514  0.04727457  0.18353207  1
  C  C50  1  0.61914486  0.54727457  0.68353207  1
  C  C51  1  0.11914486  0.95272543  0.81646793  1
  C  C52  1  0.40372296  0.24468946  0.52664631  1
  C  C53  1  0.90372296  0.25531054  0.97335369  1
  C  C54  1  0.59627704  0.75531054  0.47335369  1
  C  C55  1  0.09627704  0.74468946  0.02664631  1
  C  C56  1  0.77734166  0.42424243  0.44526653  1
  C  C57  1  0.27734166  0.07575757  0.05473347  1
  C  C58  1  0.22265834  0.57575757  0.55473347  1
  C  C59  1  0.72265834  0.92424243  0.94526653  1
  I  I60  1  0.19375139  0.77327259  0.28546492  1
  I  I61  1  0.69375139  0.72672741  0.21453508  1
  I  I62  1  0.80624861  0.22672741  0.71453508  1
  I  I63  1  0.30624861  0.27327259  0.78546492  1
  I  I64  1  0.96119630  0.76779144  0.37553281  1
  I  I65  1  0.46119630  0.73220856  0.12446719  1
  I  I66  1  0.03880370  0.23220856  0.62446719  1
  I  I67  1  0.53880370  0.26779144  0.87553281  1
  O  O68  1  0.70070013  0.30477590  0.25595378  1
  O  O69  1  0.20070013  0.19522410  0.24404622  1
  O  O70  1  0.29929987  0.69522410  0.74404622  1
  O  O71  1  0.79929987  0.80477590  0.75595378  1
  O  O72  1  0.56096309  0.31445660  0.13795793  1
  O  O73  1  0.06096309  0.18554340  0.36204207  1
  O  O74  1  0.43903691  0.68554340  0.86204207  1
  O  O75  1  0.93903691  0.81445660  0.63795793  1
  O  O76  1  0.49359567  0.13399421  0.28303298  1
  O  O77  1  0.99359567  0.36600579  0.21696702  1
  O  O78  1  0.50640433  0.86600579  0.71696702  1
  O  O79  1  0.00640433  0.63399421  0.78303298  1
  O  O80  1  0.49871468  0.96745023  0.36383274  1
  O  O81  1  0.99871468  0.53254977  0.13616726  1
  O  O82  1  0.50128532  0.03254977  0.63616726  1
  O  O83  1  0.00128532  0.46745023  0.86383274  1
  O  O84  1  0.75511508  0.15573250  0.38971009  1
  O  O85  1  0.25511508  0.34426750  0.11028991  1
  O  O86  1  0.24488492  0.84426750  0.61028991  1
  O  O87  1  0.74488492  0.65573250  0.88971009  1
  O  O88  1  0.70352487  0.01880633  0.49443421  1
  O  O89  1  0.20352487  0.48119367  0.00556579  1
  O  O90  1  0.29647513  0.98119367  0.50556579  1
  O  O91  1  0.79647513  0.51880633  0.99443421  1
  O  O92  1  0.42397559  0.35092368  0.30502196  1
  O  O93  1  0.92397559  0.14907632  0.19497804  1
  O  O94  1  0.57602441  0.64907632  0.69497804  1
  O  O95  1  0.07602441  0.85092368  0.80502196  1
  O  O96  1  0.40631799  0.51742057  0.37898803  1
  O  O97  1  0.90631799  0.98257943  0.12101197  1
  O  O98  1  0.59368201  0.48257943  0.62101197  1
  O  O99  1  0.09368201  0.01742057  0.87898803  1
  O  O100  1  0.47851997  0.18676514  0.47519442  1
  O  O101  1  0.97851997  0.31323486  0.02480558  1
  O  O102  1  0.52148003  0.81323486  0.52480558  1
  O  O103  1  0.02148003  0.68676514  0.97519442  1
  O  O104  1  0.39198273  0.35085730  0.52813674  1
  O  O105  1  0.89198273  0.14914270  0.97186326  1
  O  O106  1  0.60801727  0.64914270  0.47186326  1
  O  O107  1  0.10801727  0.85085730  0.02813674  1
  O  O108  1  0.65623017  0.39539256  0.43828256  1
  O  O109  1  0.15623017  0.10460744  0.06171744  1
  O  O110  1  0.34376983  0.60460744  0.56171744  1
  O  O111  1  0.84376983  0.89539256  0.93828256  1
  O  O112  1  0.87387733  0.38325741  0.40480016  1
  O  O113  1  0.37387733  0.11674259  0.09519984  1
  O  O114  1  0.12612267  0.61674259  0.59519984  1
  O  O115  1  0.62612267  0.88325741  0.90480016  1
