# generated using pymatgen
data_Na7U5(SiO6)4
_symmetry_space_group_name_H-M   'P 1'
_cell_length_a   6.87474531
_cell_length_b   7.01120767
_cell_length_c   12.02572730
_cell_angle_alpha   95.59932117
_cell_angle_beta   98.35183060
_cell_angle_gamma   90.84196204
_symmetry_Int_Tables_number   1
_chemical_formula_structural   Na7U5(SiO6)4
_chemical_formula_sum   'Na7 U5 Si4 O24'
_cell_volume   570.51431106
_cell_formula_units_Z   1
loop_
 _symmetry_equiv_pos_site_id
 _symmetry_equiv_pos_as_xyz
  1  'x, y, z'
loop_
 _atom_site_type_symbol
 _atom_site_label
 _atom_site_symmetry_multiplicity
 _atom_site_fract_x
 _atom_site_fract_y
 _atom_site_fract_z
 _atom_site_occupancy
  Na  Na0  1  0.50000000  -0.00000000  -0.00000000  1
  Na  Na1  1  0.25019448  0.51032104  0.99058921  1
  Na  Na2  1  0.74980552  0.48967896  0.00941079  1
  Na  Na3  1  0.23548654  0.98676234  0.44663478  1
  Na  Na4  1  0.76451346  0.01323766  0.55336522  1
  Na  Na5  1  0.24079272  0.48991874  0.44211629  1
  Na  Na6  1  0.75920728  0.51008126  0.55788371  1
  U  U7  1  -0.00000000  -0.00000000  -0.00000000  1
  U  U8  1  0.82868841  0.21378778  0.28019962  1
  U  U9  1  0.17131159  0.78621222  0.71980038  1
  U  U10  1  0.55785944  0.70922384  0.27259155  1
  U  U11  1  0.44214056  0.29077616  0.72740845  1
  Si  Si12  1  0.35072050  0.19541959  0.23598209  1
  Si  Si13  1  0.64927950  0.80458041  0.76401791  1
  Si  Si14  1  0.01120651  0.71726275  0.23033781  1
  Si  Si15  1  0.98879349  0.28273725  0.76966219  1
  O  O16  1  0.16610952  0.21585264  0.30686559  1
  O  O17  1  0.83389048  0.78414736  0.69313441  1
  O  O18  1  0.50870866  0.03394443  0.27910893  1
  O  O19  1  0.49129134  0.96605557  0.72089107  1
  O  O20  1  0.50114307  0.38380670  0.25920688  1
  O  O21  1  0.49885693  0.61619330  0.74079312  1
  O  O22  1  0.73661985  0.85559886  0.89932168  1
  O  O23  1  0.26338015  0.14440114  0.10067832  1
  O  O24  1  0.98492678  0.26345973  0.90560516  1
  O  O25  1  0.01507322  0.73654027  0.09439484  1
  O  O26  1  0.87351628  0.52940557  0.24646094  1
  O  O27  1  0.12648372  0.47059443  0.75353906  1
  O  O28  1  0.23212514  0.71217010  0.29888542  1
  O  O29  1  0.76787486  0.28782990  0.70111458  1
  O  O30  1  0.88332476  0.89295706  0.28384081  1
  O  O31  1  0.11667524  0.10704294  0.71615919  1
  O  O32  1  0.80722093  0.15203778  0.10528784  1
  O  O33  1  0.19277907  0.84796222  0.89471216  1
  O  O34  1  0.85805578  0.25710375  0.44158432  1
  O  O35  1  0.14194422  0.74289625  0.55841568  1
  O  O36  1  0.51093679  0.69266407  0.11107194  1
  O  O37  1  0.48906321  0.30733593  0.88892806  1
  O  O38  1  0.60930126  0.72600154  0.43348619  1
  O  O39  1  0.39069874  0.27399846  0.56651381  1
