# generated using pymatgen
data_Ba2B6H4O13
_symmetry_space_group_name_H-M   'P 1'
_cell_length_a   6.97048718
_cell_length_b   8.60615907
_cell_length_c   8.80480422
_cell_angle_alpha   90.00000000
_cell_angle_beta   90.00000000
_cell_angle_gamma   101.14432798
_symmetry_Int_Tables_number   1
_chemical_formula_structural   Ba2B6H4O13
_chemical_formula_sum   'Ba4 B12 H8 O26'
_cell_volume   518.23256683
_cell_formula_units_Z   2
loop_
 _symmetry_equiv_pos_site_id
 _symmetry_equiv_pos_as_xyz
  1  'x, y, z'
loop_
 _atom_site_type_symbol
 _atom_site_label
 _atom_site_symmetry_multiplicity
 _atom_site_fract_x
 _atom_site_fract_y
 _atom_site_fract_z
 _atom_site_occupancy
  Ba  Ba0  1  0.19616122  0.28321969  0.06792418  1
  Ba  Ba1  1  0.80383878  0.71678031  0.56792418  1
  Ba  Ba2  1  0.24108302  0.76492931  0.92725596  1
  Ba  Ba3  1  0.75891698  0.23507069  0.42725596  1
  B  B4  1  0.45891003  0.45372544  0.77443449  1
  B  B5  1  0.54108997  0.54627456  0.27443449  1
  B  B6  1  0.63933045  0.59183883  0.99846595  1
  B  B7  1  0.36066955  0.40816117  0.49846595  1
  B  B8  1  0.89816309  0.63422227  0.20196856  1
  B  B9  1  0.10183691  0.36577773  0.70196856  1
  B  B10  1  0.92651710  0.94060576  0.21171051  1
  B  B11  1  0.07348290  0.05939424  0.71171051  1
  B  B12  1  0.13803632  0.04977226  0.43152281  1
  B  B13  1  0.86196368  0.95022774  0.93152281  1
  B  B14  1  0.36140871  0.96305501  0.60405080  1
  B  B15  1  0.63859129  0.03694499  0.10405080  1
  H  H16  1  0.44534603  0.21175328  0.79847004  1
  H  H17  1  0.55465397  0.78824672  0.29847004  1
  H  H18  1  0.17703255  0.61424782  0.25969101  1
  H  H19  1  0.82296745  0.38575218  0.75969101  1
  H  H20  1  0.31377718  0.73466833  0.52882599  1
  H  H21  1  0.68622282  0.26533167  0.02882599  1
  H  H22  1  0.61624564  0.98760770  0.72525351  1
  H  H23  1  0.38375436  0.01239230  0.22525351  1
  O  O24  1  0.51422971  0.31206196  0.84655985  1
  O  O25  1  0.48577029  0.68793804  0.34655985  1
  O  O26  1  0.25320928  0.46569671  0.79615844  1
  O  O27  1  0.74679072  0.53430329  0.29615844  1
  O  O28  1  0.58736961  0.59411078  0.84543700  1
  O  O29  1  0.41263039  0.40588922  0.34543700  1
  O  O30  1  0.49398343  0.54644029  0.10639571  1
  O  O31  1  0.50601657  0.45355971  0.60639571  1
  O  O32  1  0.83023319  0.63983412  0.04032489  1
  O  O33  1  0.16976681  0.36016588  0.54032489  1
  O  O34  1  0.07723758  0.56286507  0.18855890  1
  O  O35  1  0.92276242  0.43713493  0.68855890  1
  O  O36  1  0.95653052  0.79165845  0.27285892  1
  O  O37  1  0.04346948  0.20834155  0.77285892  1
  O  O38  1  0.99168874  0.96363160  0.05052408  1
  O  O39  1  0.00831126  0.03636840  0.55052408  1
  O  O40  1  0.06264662  0.07616408  0.29098826  1
  O  O41  1  0.93735338  0.92383592  0.79098826  1
  O  O42  1  0.32895134  0.03501078  0.45165570  1
  O  O43  1  0.67104866  0.96498922  0.95165570  1
  O  O44  1  0.27938580  0.04143459  0.72853538  1
  O  O45  1  0.72061420  0.95856541  0.22853538  1
  O  O46  1  0.57543002  0.98049990  0.61852019  1
  O  O47  1  0.42456998  0.01950010  0.11852019  1
  O  O48  1  0.25803066  0.79289621  0.60749889  1
  O  O49  1  0.74196934  0.20710379  0.10749889  1
