# generated using pymatgen
data_Na2Cu(NO3)4
_symmetry_space_group_name_H-M   'P 1'
_cell_length_a   7.03978391
_cell_length_b   7.74947314
_cell_length_c   9.07520014
_cell_angle_alpha   90.00000000
_cell_angle_beta   90.12612614
_cell_angle_gamma   90.00000000
_symmetry_Int_Tables_number   1
_chemical_formula_structural   Na2Cu(NO3)4
_chemical_formula_sum   'Na4 Cu2 N8 O24'
_cell_volume   495.09286161
_cell_formula_units_Z   2
loop_
 _symmetry_equiv_pos_site_id
 _symmetry_equiv_pos_as_xyz
  1  'x, y, z'
loop_
 _atom_site_type_symbol
 _atom_site_label
 _atom_site_symmetry_multiplicity
 _atom_site_fract_x
 _atom_site_fract_y
 _atom_site_fract_z
 _atom_site_occupancy
  Na  Na0  1  0.27615384  0.05581981  0.38529287  1
  Na  Na1  1  0.72384616  0.55581981  0.11470713  1
  Na  Na2  1  0.72384616  0.94418019  0.61470713  1
  Na  Na3  1  0.27615384  0.44418019  0.88529287  1
  Cu  Cu4  1  0.00000000  0.50000000  0.50000000  1
  Cu  Cu5  1  0.00000000  -0.00000000  -0.00000000  1
  N  N6  1  0.14834716  0.39664453  0.22832548  1
  N  N7  1  0.85165284  0.89664453  0.27167452  1
  N  N8  1  0.85165284  0.60335547  0.77167452  1
  N  N9  1  0.14834716  0.10335547  0.72832548  1
  N  N10  1  0.68994749  0.29071299  0.44101426  1
  N  N11  1  0.31005251  0.79071299  0.05898574  1
  N  N12  1  0.31005251  0.70928701  0.55898574  1
  N  N13  1  0.68994749  0.20928701  0.94101426  1
  O  O14  1  0.15464240  0.35306705  0.36784248  1
  O  O15  1  0.84535760  0.85306705  0.13215752  1
  O  O16  1  0.84535760  0.64693295  0.63215752  1
  O  O17  1  0.15464240  0.14693295  0.86784248  1
  O  O18  1  0.24235305  0.30738193  0.14110789  1
  O  O19  1  0.75764695  0.80738193  0.35889211  1
  O  O20  1  0.75764695  0.69261807  0.85889211  1
  O  O21  1  0.24235305  0.19261807  0.64110789  1
  O  O22  1  0.94986972  0.02359198  0.30948798  1
  O  O23  1  0.05013028  0.52359198  0.19051202  1
  O  O24  1  0.05013028  0.97640802  0.69051202  1
  O  O25  1  0.94986972  0.47640802  0.80948798  1
  O  O26  1  0.82685229  0.29802605  0.53817537  1
  O  O27  1  0.17314771  0.79802605  0.96182463  1
  O  O28  1  0.17314771  0.70197395  0.46182463  1
  O  O29  1  0.82685229  0.20197395  0.03817537  1
  O  O30  1  0.41440534  0.83983564  0.55543546  1
  O  O31  1  0.58559466  0.33983564  0.94456454  1
  O  O32  1  0.58559466  0.16016436  0.44456454  1
  O  O33  1  0.41440534  0.66016436  0.05543546  1
  O  O34  1  0.32986593  0.91104848  0.14864754  1
  O  O35  1  0.67013407  0.41104848  0.35135246  1
  O  O36  1  0.67013407  0.08895152  0.85135246  1
  O  O37  1  0.32986593  0.58895152  0.64864754  1
