# generated using pymatgen
data_Fe2P12W
_symmetry_space_group_name_H-M   'P 1'
_cell_length_a   5.68602979
_cell_length_b   11.12187221
_cell_length_c   13.75994894
_cell_angle_alpha   90.00000000
_cell_angle_beta   90.00000000
_cell_angle_gamma   90.00000000
_symmetry_Int_Tables_number   1
_chemical_formula_structural   Fe2P12W
_chemical_formula_sum   'Fe8 P48 W4'
_cell_volume   870.16949368
_cell_formula_units_Z   4
loop_
 _symmetry_equiv_pos_site_id
 _symmetry_equiv_pos_as_xyz
  1  'x, y, z'
loop_
 _atom_site_type_symbol
 _atom_site_label
 _atom_site_symmetry_multiplicity
 _atom_site_fract_x
 _atom_site_fract_y
 _atom_site_fract_z
 _atom_site_occupancy
  Fe  Fe0  1  0.89648235  0.95900235  0.34967462  1
  Fe  Fe1  1  0.60351765  0.45900235  0.15032538  1
  Fe  Fe2  1  0.60351765  0.04099765  0.84967462  1
  Fe  Fe3  1  0.89648235  0.54099765  0.65032538  1
  Fe  Fe4  1  0.10351765  0.04099765  0.65032538  1
  Fe  Fe5  1  0.39648235  0.54099765  0.84967462  1
  Fe  Fe6  1  0.39648235  0.95900235  0.15032538  1
  Fe  Fe7  1  0.10351765  0.45900235  0.34967462  1
  P  P8  1  0.01684606  0.69562319  0.16794424  1
  P  P9  1  0.48315394  0.19562319  0.33205576  1
  P  P10  1  0.48315394  0.30437681  0.66794424  1
  P  P11  1  0.01684606  0.80437681  0.83205576  1
  P  P12  1  0.98315394  0.30437681  0.83205576  1
  P  P13  1  0.51684606  0.80437681  0.66794424  1
  P  P14  1  0.51684606  0.69562319  0.33205576  1
  P  P15  1  0.98315394  0.19562319  0.16794424  1
  P  P16  1  0.88091342  0.77138100  0.31061417  1
  P  P17  1  0.61908658  0.27138100  0.18938583  1
  P  P18  1  0.61908658  0.22861900  0.81061417  1
  P  P19  1  0.88091342  0.72861900  0.68938583  1
  P  P20  1  0.11908658  0.22861900  0.68938583  1
  P  P21  1  0.38091342  0.72861900  0.81061417  1
  P  P22  1  0.38091342  0.77138100  0.18938583  1
  P  P23  1  0.11908658  0.27138100  0.31061417  1
  P  P24  1  0.74383088  0.89795606  0.49145606  1
  P  P25  1  0.75616912  0.39795606  0.00854394  1
  P  P26  1  0.75616912  0.10204394  0.99145606  1
  P  P27  1  0.74383088  0.60204394  0.50854394  1
  P  P28  1  0.25616912  0.10204394  0.50854394  1
  P  P29  1  0.24383088  0.60204394  0.99145606  1
  P  P30  1  0.24383088  0.89795606  0.00854394  1
  P  P31  1  0.25616912  0.39795606  0.49145606  1
  P  P32  1  0.56222593  0.64442402  0.08678881  1
  P  P33  1  0.93777407  0.14442402  0.41321119  1
  P  P34  1  0.93777407  0.35557598  0.58678881  1
  P  P35  1  0.56222593  0.85557598  0.91321119  1
  P  P36  1  0.43777407  0.35557598  0.91321119  1
  P  P37  1  0.06222593  0.85557598  0.58678881  1
  P  P38  1  0.06222593  0.64442402  0.41321119  1
  P  P39  1  0.43777407  0.14442402  0.08678881  1
  P  P40  1  0.76489501  0.93880676  0.09152411  1
  P  P41  1  0.73510499  0.43880676  0.40847589  1
  P  P42  1  0.73510499  0.06119324  0.59152411  1
  P  P43  1  0.76489501  0.56119324  0.90847589  1
  P  P44  1  0.23510499  0.06119324  0.90847589  1
  P  P45  1  0.26489501  0.56119324  0.59152411  1
  P  P46  1  0.26489501  0.93880676  0.40847589  1
  P  P47  1  0.23510499  0.43880676  0.09152411  1
  P  P48  1  0.53297029  0.99991589  0.29721290  1
  P  P49  1  0.96702971  0.49991589  0.20278710  1
  P  P50  1  0.96702971  0.00008411  0.79721290  1
  P  P51  1  0.53297029  0.50008411  0.70278710  1
  P  P52  1  0.46702971  0.00008411  0.70278710  1
  P  P53  1  0.03297029  0.50008411  0.79721290  1
  P  P54  1  0.03297029  0.99991589  0.20278710  1
  P  P55  1  0.46702971  0.49991589  0.29721290  1
  W  W56  1  0.89937431  0.75000000  0.00000000  1
  W  W57  1  0.60062569  0.25000000  0.50000000  1
  W  W58  1  0.10062569  0.25000000  0.00000000  1
  W  W59  1  0.39937431  0.75000000  0.50000000  1
