# generated using pymatgen
data_Yb5(Ge5Ir2)2
_symmetry_space_group_name_H-M   'P 1'
_cell_length_a   4.37913592
_cell_length_b   13.02838896
_cell_length_c   13.02838896
_cell_angle_alpha   90.00000000
_cell_angle_beta   90.00000000
_cell_angle_gamma   90.00000000
_symmetry_Int_Tables_number   1
_chemical_formula_structural   Yb5(Ge5Ir2)2
_chemical_formula_sum   'Yb10 Ge20 Ir8'
_cell_volume   743.30979675
_cell_formula_units_Z   2
loop_
 _symmetry_equiv_pos_site_id
 _symmetry_equiv_pos_as_xyz
  1  'x, y, z'
loop_
 _atom_site_type_symbol
 _atom_site_label
 _atom_site_symmetry_multiplicity
 _atom_site_fract_x
 _atom_site_fract_y
 _atom_site_fract_z
 _atom_site_occupancy
  Yb  Yb0  1  -0.00000000  0.50000000  0.50000000  1
  Yb  Yb1  1  -0.00000000  -0.00000000  0.00000000  1
  Yb  Yb2  1  0.50000000  0.17174722  0.67174722  1
  Yb  Yb3  1  0.50000000  0.82825278  0.32825278  1
  Yb  Yb4  1  0.50000000  0.32825278  0.17174722  1
  Yb  Yb5  1  0.50000000  0.67174722  0.82825278  1
  Yb  Yb6  1  0.50000000  0.38660659  0.88660659  1
  Yb  Yb7  1  0.50000000  0.61339341  0.11339341  1
  Yb  Yb8  1  0.50000000  0.11339341  0.38660659  1
  Yb  Yb9  1  0.50000000  0.88660659  0.61339341  1
  Ge  Ge10  1  -0.00000000  0.06729716  0.56729716  1
  Ge  Ge11  1  0.00000000  0.93270284  0.43270284  1
  Ge  Ge12  1  0.00000000  0.43270284  0.06729716  1
  Ge  Ge13  1  -0.00000000  0.56729716  0.93270284  1
  Ge  Ge14  1  0.00000000  0.69592284  0.66207909  1
  Ge  Ge15  1  -0.00000000  0.30407716  0.33792091  1
  Ge  Ge16  1  -0.00000000  0.80407716  0.16207909  1
  Ge  Ge17  1  0.00000000  0.19592284  0.83792091  1
  Ge  Ge18  1  -0.00000000  0.66207909  0.30407716  1
  Ge  Ge19  1  0.00000000  0.33792091  0.69592284  1
  Ge  Ge20  1  -0.00000000  0.16207909  0.19592284  1
  Ge  Ge21  1  0.00000000  0.83792091  0.80407716  1
  Ge  Ge22  1  0.50000000  0.50811502  0.65453058  1
  Ge  Ge23  1  0.50000000  0.49188498  0.34546942  1
  Ge  Ge24  1  0.50000000  0.99188498  0.15453058  1
  Ge  Ge25  1  0.50000000  0.00811502  0.84546942  1
  Ge  Ge26  1  0.50000000  0.65453058  0.49188498  1
  Ge  Ge27  1  0.50000000  0.34546942  0.50811502  1
  Ge  Ge28  1  0.50000000  0.15453058  0.00811502  1
  Ge  Ge29  1  0.50000000  0.84546942  0.99188498  1
  Ir  Ir30  1  0.00000000  0.51886648  0.74684813  1
  Ir  Ir31  1  -0.00000000  0.48113352  0.25315187  1
  Ir  Ir32  1  -0.00000000  0.98113352  0.24684813  1
  Ir  Ir33  1  0.00000000  0.01886648  0.75315187  1
  Ir  Ir34  1  -0.00000000  0.74684813  0.48113352  1
  Ir  Ir35  1  0.00000000  0.25315187  0.51886648  1
  Ir  Ir36  1  -0.00000000  0.24684813  0.01886648  1
  Ir  Ir37  1  0.00000000  0.75315187  0.98113352  1
