# generated using pymatgen
data_La4(HoS2)11
_symmetry_space_group_name_H-M   'P 1'
_cell_length_a   3.97800755
_cell_length_b   11.40314361
_cell_length_c   19.78144360
_cell_angle_alpha   91.43737498
_cell_angle_beta   95.77078348
_cell_angle_gamma   90.00000000
_symmetry_Int_Tables_number   1
_chemical_formula_structural   La4(HoS2)11
_chemical_formula_sum   'La4 Ho11 S22'
_cell_volume   892.49039977
_cell_formula_units_Z   1
loop_
 _symmetry_equiv_pos_site_id
 _symmetry_equiv_pos_as_xyz
  1  'x, y, z'
loop_
 _atom_site_type_symbol
 _atom_site_label
 _atom_site_symmetry_multiplicity
 _atom_site_fract_x
 _atom_site_fract_y
 _atom_site_fract_z
 _atom_site_occupancy
  La  La0  1  0.10407913  0.01200958  0.20815827  1
  La  La1  1  0.89592087  0.98799042  0.79184173  1
  La  La2  1  0.36714683  0.34712150  0.73429365  1
  La  La3  1  0.63285317  0.65287850  0.26570635  1
  Ho  Ho4  1  0.79787390  0.05795958  0.59574780  1
  Ho  Ho5  1  0.20212610  0.94204042  0.40425220  1
  Ho  Ho6  1  0.46199993  0.27121955  0.92399987  1
  Ho  Ho7  1  0.53800007  0.72878045  0.07600013  1
  Ho  Ho8  1  0.65765201  0.30153393  0.31530403  1
  Ho  Ho9  1  0.34234799  0.69846607  0.68469597  1
  Ho  Ho10  1  0.26391506  0.35188021  0.52783012  1
  Ho  Ho11  1  0.73608494  0.64811979  0.47216988  1
  Ho  Ho12  1  0.06934382  0.36038400  0.13868763  1
  Ho  Ho13  1  0.93065618  0.63961600  0.86131237  1
  Ho  Ho14  1  0.00000000  -0.00000000  0.00000000  1
  S  S15  1  0.08716884  0.75170743  0.17433768  1
  S  S16  1  0.91283116  0.24829257  0.82566232  1
  S  S17  1  0.18902293  0.69193891  0.37804587  1
  S  S18  1  0.81097707  0.30806109  0.62195413  1
  S  S19  1  0.27993581  0.59006195  0.55987162  1
  S  S20  1  0.72006419  0.40993805  0.44012838  1
  S  S21  1  0.44568709  0.49543788  0.89137418  1
  S  S22  1  0.55431291  0.50456212  0.10862582  1
  S  S23  1  0.13439584  0.45293140  0.26879169  1
  S  S24  1  0.86560416  0.54706860  0.73120831  1
  S  S25  1  0.59289638  0.21272231  0.18579276  1
  S  S26  1  0.40710362  0.78727769  0.81420724  1
  S  S27  1  0.45331617  0.03150961  0.90663235  1
  S  S28  1  0.54668383  0.96849039  0.09336765  1
  S  S29  1  0.35050316  0.09120951  0.70100632  1
  S  S30  1  0.64949684  0.90879049  0.29899368  1
  S  S31  1  0.16845481  0.15186181  0.33690963  1
  S  S32  1  0.83154519  0.84813819  0.66309037  1
  S  S33  1  0.00773027  0.23892248  0.01546054  1
  S  S34  1  0.99226973  0.76107752  0.98453946  1
  S  S35  1  0.25533455  0.11891120  0.51066909  1
  S  S36  1  0.74466545  0.88108880  0.48933091  1
