# generated using pymatgen
data_CaFeBP2(HO5)2
_symmetry_space_group_name_H-M   'P 1'
_cell_length_a   6.64857354
_cell_length_b   6.64857354
_cell_length_c   9.27647268
_cell_angle_alpha   69.20853266
_cell_angle_beta   69.20853266
_cell_angle_gamma   77.78104769
_symmetry_Int_Tables_number   1
_chemical_formula_structural   CaFeBP2(HO5)2
_chemical_formula_sum   'Ca2 Fe2 B2 P4 H4 O20'
_cell_volume   356.66043768
_cell_formula_units_Z   2
loop_
 _symmetry_equiv_pos_site_id
 _symmetry_equiv_pos_as_xyz
  1  'x, y, z'
loop_
 _atom_site_type_symbol
 _atom_site_label
 _atom_site_symmetry_multiplicity
 _atom_site_fract_x
 _atom_site_fract_y
 _atom_site_fract_z
 _atom_site_occupancy
  Ca  Ca0  1  0.85098729  0.14901271  0.25000000  1
  Ca  Ca1  1  0.14901271  0.85098729  0.75000000  1
  Fe  Fe2  1  -0.00000000  0.50000000  0.50000000  1
  Fe  Fe3  1  0.50000000  -0.00000000  0.00000000  1
  B  B4  1  0.47355465  0.52644535  0.25000000  1
  B  B5  1  0.52644535  0.47355465  0.75000000  1
  P  P6  1  0.85098703  0.72099950  0.17414287  1
  P  P7  1  0.27900050  0.14901297  0.32585713  1
  P  P8  1  0.14901297  0.27900050  0.82585713  1
  P  P9  1  0.72099950  0.85098703  0.67414287  1
  H  H10  1  0.33292375  0.70748891  0.41232283  1
  H  H11  1  0.29251109  0.66707625  0.08767717  1
  H  H12  1  0.66707625  0.29251109  0.58767717  1
  H  H13  1  0.70748891  0.33292375  0.91232283  1
  O  O14  1  0.94874362  0.31659261  0.96109590  1
  O  O15  1  0.68340739  0.05125638  0.53890410  1
  O  O16  1  0.05125638  0.68340739  0.03890410  1
  O  O17  1  0.31659261  0.94874362  0.46109590  1
  O  O18  1  0.91147707  0.73978077  0.31534198  1
  O  O19  1  0.26021923  0.08852293  0.18465802  1
  O  O20  1  0.08852293  0.26021923  0.68465802  1
  O  O21  1  0.73978077  0.91147707  0.81534198  1
  O  O22  1  0.06502092  0.29174596  0.37714659  1
  O  O23  1  0.70825404  0.93497908  0.12285341  1
  O  O24  1  0.93497908  0.70825404  0.62285341  1
  O  O25  1  0.29174596  0.06502092  0.87714659  1
  O  O26  1  0.70259622  0.52883738  0.23943113  1
  O  O27  1  0.47116262  0.29740378  0.26056887  1
  O  O28  1  0.29740378  0.47116262  0.76056887  1
  O  O29  1  0.52883738  0.70259622  0.73943113  1
  O  O30  1  0.31908581  0.56951582  0.39795675  1
  O  O31  1  0.43048418  0.68091419  0.10204325  1
  O  O32  1  0.68091419  0.43048418  0.60204325  1
  O  O33  1  0.56951582  0.31908581  0.89795675  1
