# generated using pymatgen
data_NaB5PbO9
_symmetry_space_group_name_H-M   'P 1'
_cell_length_a   6.59844771
_cell_length_b   8.69382061
_cell_length_c   13.18039119
_cell_angle_alpha   90.00000000
_cell_angle_beta   90.00000000
_cell_angle_gamma   104.98616792
_symmetry_Int_Tables_number   1
_chemical_formula_structural   NaB5PbO9
_chemical_formula_sum   'Na4 B20 Pb4 O36'
_cell_volume   730.38628908
_cell_formula_units_Z   4
loop_
 _symmetry_equiv_pos_site_id
 _symmetry_equiv_pos_as_xyz
  1  'x, y, z'
loop_
 _atom_site_type_symbol
 _atom_site_label
 _atom_site_symmetry_multiplicity
 _atom_site_fract_x
 _atom_site_fract_y
 _atom_site_fract_z
 _atom_site_occupancy
  Na  Na0  1  0.46574093  0.63187307  0.91152359  1
  Na  Na1  1  0.53425907  0.86812693  0.41152359  1
  Na  Na2  1  0.53425907  0.36812693  0.08847641  1
  Na  Na3  1  0.46574093  0.13187307  0.58847641  1
  B  B4  1  0.41697652  0.87929517  0.75358324  1
  B  B5  1  0.58302348  0.62070483  0.25358324  1
  B  B6  1  0.58302348  0.12070483  0.24641676  1
  B  B7  1  0.41697652  0.37929517  0.74641676  1
  B  B8  1  0.91336405  0.13240140  0.56254670  1
  B  B9  1  0.08663595  0.36759860  0.06254670  1
  B  B10  1  0.08663595  0.86759860  0.43745330  1
  B  B11  1  0.91336405  0.63240140  0.93745330  1
  B  B12  1  0.16323074  0.27071590  0.88857012  1
  B  B13  1  0.83676926  0.22928410  0.38857012  1
  B  B14  1  0.83676926  0.72928410  0.11142988  1
  B  B15  1  0.16323074  0.77071590  0.61142988  1
  B  B16  1  0.54752795  0.85686247  0.15108944  1
  B  B17  1  0.45247205  0.64313753  0.65108944  1
  B  B18  1  0.45247205  0.14313753  0.84891056  1
  B  B19  1  0.54752795  0.35686247  0.34891056  1
  B  B20  1  0.20837757  0.74944848  0.05124162  1
  B  B21  1  0.79162243  0.75055152  0.55124162  1
  B  B22  1  0.79162243  0.25055152  0.94875838  1
  B  B23  1  0.20837757  0.24944848  0.44875838  1
  Pb  Pb24  1  0.90983921  0.94221762  0.78874187  1
  Pb  Pb25  1  0.09016079  0.55778238  0.28874187  1
  Pb  Pb26  1  0.09016079  0.05778238  0.21125813  1
  Pb  Pb27  1  0.90983921  0.44221762  0.71125813  1
  O  O28  1  0.50803207  0.75334825  0.74281467  1
  O  O29  1  0.49196793  0.74665175  0.24281467  1
  O  O30  1  0.49196793  0.24665175  0.25718533  1
  O  O31  1  0.50803207  0.25334825  0.75718533  1
  O  O32  1  0.83713549  0.07223128  0.65252018  1
  O  O33  1  0.16286451  0.42776872  0.15252018  1
  O  O34  1  0.16286451  0.92776872  0.34747982  1
  O  O35  1  0.83713549  0.57223128  0.84747982  1
  O  O36  1  0.23118207  0.12644686  0.87265357  1
  O  O37  1  0.76881793  0.37355314  0.37265357  1
  O  O38  1  0.76881793  0.87355314  0.12734643  1
  O  O39  1  0.23118207  0.62644686  0.62734643  1
  O  O40  1  0.41802322  0.78296056  0.06328307  1
  O  O41  1  0.58197678  0.71703944  0.56328307  1
  O  O42  1  0.58197678  0.21703944  0.93671693  1
  O  O43  1  0.41802322  0.28296056  0.43671693  1
  O  O44  1  0.25243457  0.89394214  0.69192802  1
  O  O45  1  0.74756543  0.60605786  0.19192802  1
  O  O46  1  0.74756543  0.10605786  0.30807198  1
  O  O47  1  0.25243457  0.39394214  0.80807198  1
  O  O48  1  0.07033521  0.77341768  0.12507637  1
  O  O49  1  0.92966479  0.72658232  0.62507637  1
  O  O50  1  0.92966479  0.22658232  0.87492363  1
  O  O51  1  0.07033521  0.27341768  0.37492363  1
  O  O52  1  0.22499444  0.34671321  0.98775005  1
  O  O53  1  0.77500556  0.15328679  0.48775005  1
  O  O54  1  0.77500556  0.65328679  0.01224995  1
  O  O55  1  0.22499444  0.84671321  0.51224995  1
  O  O56  1  0.13060721  0.68273541  0.95759313  1
  O  O57  1  0.86939279  0.81726459  0.45759313  1
  O  O58  1  0.86939279  0.31726459  0.04240687  1
  O  O59  1  0.13060721  0.18273541  0.54240687  1
  O  O60  1  0.50033066  0.99015304  0.82618369  1
  O  O61  1  0.49966934  0.50984696  0.32618369  1
  O  O62  1  0.49966934  0.00984696  0.17381631  1
  O  O63  1  0.50033066  0.49015304  0.67381631  1
