# generated using pymatgen
data_Cs2TeMo2(PO7)2
_symmetry_space_group_name_H-M   'P 1'
_cell_length_a   9.75750105
_cell_length_b   11.77935414
_cell_length_c   12.54626042
_cell_angle_alpha   90.00000000
_cell_angle_beta   90.00000000
_cell_angle_gamma   90.00000000
_symmetry_Int_Tables_number   1
_chemical_formula_structural   Cs2TeMo2(PO7)2
_chemical_formula_sum   'Cs8 Te4 Mo8 P8 O56'
_cell_volume   1442.03029155
_cell_formula_units_Z   4
loop_
 _symmetry_equiv_pos_site_id
 _symmetry_equiv_pos_as_xyz
  1  'x, y, z'
loop_
 _atom_site_type_symbol
 _atom_site_label
 _atom_site_symmetry_multiplicity
 _atom_site_fract_x
 _atom_site_fract_y
 _atom_site_fract_z
 _atom_site_occupancy
  Cs  Cs0  1  0.96845913  0.78683244  0.33546702  1
  Cs  Cs1  1  0.53154087  0.28683244  0.16453298  1
  Cs  Cs2  1  0.53154087  0.21316756  0.83546702  1
  Cs  Cs3  1  0.96845913  0.71316756  0.66453298  1
  Cs  Cs4  1  0.03154087  0.21316756  0.66453298  1
  Cs  Cs5  1  0.46845913  0.71316756  0.83546702  1
  Cs  Cs6  1  0.46845913  0.78683244  0.16453298  1
  Cs  Cs7  1  0.03154087  0.28683244  0.33546702  1
  Te  Te8  1  0.88048076  0.75000000  -0.00000000  1
  Te  Te9  1  0.61951924  0.25000000  0.50000000  1
  Te  Te10  1  0.11951924  0.25000000  0.00000000  1
  Te  Te11  1  0.38048076  0.75000000  0.50000000  1
  Mo  Mo12  1  0.76177002  0.01829678  0.12166782  1
  Mo  Mo13  1  0.73822998  0.51829678  0.37833218  1
  Mo  Mo14  1  0.73822998  0.98170322  0.62166782  1
  Mo  Mo15  1  0.76177002  0.48170322  0.87833218  1
  Mo  Mo16  1  0.23822998  0.98170322  0.87833218  1
  Mo  Mo17  1  0.26177002  0.48170322  0.62166782  1
  Mo  Mo18  1  0.26177002  0.01829678  0.37833218  1
  Mo  Mo19  1  0.23822998  0.51829678  0.12166782  1
  P  P20  1  0.87461322  0.50281968  0.13629228  1
  P  P21  1  0.62538678  0.00281968  0.36370772  1
  P  P22  1  0.62538678  0.49718032  0.63629228  1
  P  P23  1  0.87461322  0.99718032  0.86370772  1
  P  P24  1  0.12538678  0.49718032  0.86370772  1
  P  P25  1  0.37461322  0.99718032  0.63629228  1
  P  P26  1  0.37461322  0.50281968  0.36370772  1
  P  P27  1  0.12538678  0.00281968  0.13629228  1
  O  O28  1  0.75569055  0.84401123  0.07347661  1
  O  O29  1  0.74430945  0.34401123  0.42652339  1
  O  O30  1  0.74430945  0.15598877  0.57347661  1
  O  O31  1  0.75569055  0.65598877  0.92652339  1
  O  O32  1  0.24430945  0.15598877  0.92652339  1
  O  O33  1  0.25569055  0.65598877  0.57347661  1
  O  O34  1  0.25569055  0.84401123  0.42652339  1
  O  O35  1  0.24430945  0.34401123  0.07347661  1
  O  O36  1  0.72199899  0.95823027  0.27281479  1
  O  O37  1  0.77800101  0.45823027  0.22718521  1
  O  O38  1  0.77800101  0.04176973  0.77281479  1
  O  O39  1  0.72199899  0.54176973  0.72718521  1
  O  O40  1  0.27800101  0.04176973  0.72718521  1
  O  O41  1  0.22199899  0.54176973  0.77281479  1
  O  O42  1  0.22199899  0.95823027  0.22718521  1
  O  O43  1  0.27800101  0.45823027  0.27281479  1
  O  O44  1  0.58797565  0.03810139  0.09651475  1
  O  O45  1  0.91202435  0.53810139  0.40348525  1
  O  O46  1  0.91202435  0.96189861  0.59651475  1
  O  O47  1  0.58797565  0.46189861  0.90348525  1
  O  O48  1  0.41202435  0.96189861  0.90348525  1
  O  O49  1  0.08797565  0.46189861  0.59651475  1
  O  O50  1  0.08797565  0.03810139  0.40348525  1
  O  O51  1  0.41202435  0.53810139  0.09651475  1
  O  O52  1  0.81147334  0.15345578  0.16164503  1
  O  O53  1  0.68852666  0.65345578  0.33835497  1
  O  O54  1  0.68852666  0.84654422  0.66164503  1
  O  O55  1  0.81147334  0.34654422  0.83835497  1
  O  O56  1  0.18852666  0.84654422  0.83835497  1
  O  O57  1  0.31147334  0.34654422  0.66164503  1
  O  O58  1  0.31147334  0.15345578  0.33835497  1
  O  O59  1  0.18852666  0.65345578  0.16164503  1
  O  O60  1  0.82249066  0.05038921  0.96953055  1
  O  O61  1  0.67750934  0.55038921  0.53046945  1
  O  O62  1  0.67750934  0.94961079  0.46953055  1
  O  O63  1  0.82249066  0.44961079  0.03046945  1
  O  O64  1  0.17750934  0.94961079  0.03046945  1
  O  O65  1  0.32249066  0.44961079  0.46953055  1
  O  O66  1  0.32249066  0.05038921  0.53046945  1
  O  O67  1  0.17750934  0.55038921  0.96953055  1
  O  O68  1  0.97856291  0.96121366  0.15553342  1
  O  O69  1  0.52143709  0.46121366  0.34446658  1
  O  O70  1  0.52143709  0.03878634  0.65553342  1
  O  O71  1  0.97856291  0.53878634  0.84446658  1
  O  O72  1  0.02143709  0.03878634  0.84446658  1
  O  O73  1  0.47856291  0.53878634  0.65553342  1
  O  O74  1  0.47856291  0.96121366  0.34446658  1
  O  O75  1  0.02143709  0.46121366  0.15553342  1
  O  O76  1  0.86366203  0.63439846  0.13268559  1
  O  O77  1  0.63633797  0.13439846  0.36731441  1
  O  O78  1  0.63633797  0.36560154  0.63268559  1
  O  O79  1  0.86366203  0.86560154  0.86731441  1
  O  O80  1  0.13633797  0.36560154  0.86731441  1
  O  O81  1  0.36366203  0.86560154  0.63268559  1
  O  O82  1  0.36366203  0.63439846  0.36731441  1
  O  O83  1  0.13633797  0.13439846  0.13268559  1
