# generated using pymatgen
data_Lu5Ge4
_symmetry_space_group_name_H-M   'P 1'
_cell_length_a   7.48612263
_cell_length_b   7.55310414
_cell_length_c   14.38676511
_cell_angle_alpha   90.00000000
_cell_angle_beta   90.00000000
_cell_angle_gamma   90.00000000
_symmetry_Int_Tables_number   1
_chemical_formula_structural   Lu5Ge4
_chemical_formula_sum   'Lu20 Ge16'
_cell_volume   813.47753262
_cell_formula_units_Z   4
loop_
 _symmetry_equiv_pos_site_id
 _symmetry_equiv_pos_as_xyz
  1  'x, y, z'
loop_
 _atom_site_type_symbol
 _atom_site_label
 _atom_site_symmetry_multiplicity
 _atom_site_fract_x
 _atom_site_fract_y
 _atom_site_fract_z
 _atom_site_occupancy
  Lu  Lu0  1  0.37979865  0.83854311  0.88189473  1
  Lu  Lu1  1  0.87979865  0.66145689  0.61810527  1
  Lu  Lu2  1  0.62020135  0.16145689  0.38189473  1
  Lu  Lu3  1  0.12020135  0.33854311  0.11810527  1
  Lu  Lu4  1  0.62020135  0.16145689  0.11810527  1
  Lu  Lu5  1  0.12020135  0.33854311  0.38189473  1
  Lu  Lu6  1  0.37979865  0.83854311  0.61810527  1
  Lu  Lu7  1  0.87979865  0.66145689  0.88189473  1
  Lu  Lu8  1  0.53038478  0.32380534  0.89985227  1
  Lu  Lu9  1  0.03038478  0.17619466  0.60014773  1
  Lu  Lu10  1  0.46961522  0.67619466  0.39985227  1
  Lu  Lu11  1  0.96961522  0.82380534  0.10014773  1
  Lu  Lu12  1  0.46961522  0.67619466  0.10014773  1
  Lu  Lu13  1  0.96961522  0.82380534  0.39985227  1
  Lu  Lu14  1  0.53038478  0.32380534  0.60014773  1
  Lu  Lu15  1  0.03038478  0.17619466  0.89985227  1
  Lu  Lu16  1  0.21523106  0.50143597  0.75000000  1
  Lu  Lu17  1  0.71523106  0.99856403  0.75000000  1
  Lu  Lu18  1  0.78476894  0.49856403  0.25000000  1
  Lu  Lu19  1  0.28476894  0.00143597  0.25000000  1
  Ge  Ge20  1  0.28056455  0.03218198  0.04382267  1
  Ge  Ge21  1  0.78056455  0.46781802  0.45617733  1
  Ge  Ge22  1  0.71943545  0.96781802  0.54382267  1
  Ge  Ge23  1  0.21943545  0.53218198  0.95617733  1
  Ge  Ge24  1  0.71943545  0.96781802  0.95617733  1
  Ge  Ge25  1  0.21943545  0.53218198  0.54382267  1
  Ge  Ge26  1  0.28056455  0.03218198  0.45617733  1
  Ge  Ge27  1  0.78056455  0.46781802  0.04382267  1
  Ge  Ge28  1  0.58278386  0.62030520  0.75000000  1
  Ge  Ge29  1  0.08278386  0.87969480  0.75000000  1
  Ge  Ge30  1  0.41721614  0.37969480  0.25000000  1
  Ge  Ge31  1  0.91721614  0.12030520  0.25000000  1
  Ge  Ge32  1  0.33923542  0.14093837  0.75000000  1
  Ge  Ge33  1  0.83923542  0.35906163  0.75000000  1
  Ge  Ge34  1  0.66076458  0.85906163  0.25000000  1
  Ge  Ge35  1  0.16076458  0.64093837  0.25000000  1
