# generated using pymatgen
data_K4Ba2B14H16O33
_symmetry_space_group_name_H-M   'P 1'
_cell_length_a   9.21606105
_cell_length_b   13.10616150
_cell_length_c   13.48418400
_cell_angle_alpha   106.25881325
_cell_angle_beta   94.71883222
_cell_angle_gamma   106.17989337
_symmetry_Int_Tables_number   1
_chemical_formula_structural   K4Ba2B14H16O33
_chemical_formula_sum   'K8 Ba4 B28 H32 O66'
_cell_volume   1478.78230552
_cell_formula_units_Z   2
loop_
 _symmetry_equiv_pos_site_id
 _symmetry_equiv_pos_as_xyz
  1  'x, y, z'
loop_
 _atom_site_type_symbol
 _atom_site_label
 _atom_site_symmetry_multiplicity
 _atom_site_fract_x
 _atom_site_fract_y
 _atom_site_fract_z
 _atom_site_occupancy
  K  K0  1  0.19658577  0.58409508  0.61758417  1
  K  K1  1  0.80341423  0.41590492  0.38241583  1
  K  K2  1  0.15522398  0.62937410  0.08860985  1
  K  K3  1  0.84477602  0.37062590  0.91139015  1
  K  K4  1  0.55882531  0.16342588  0.60221549  1
  K  K5  1  0.44117469  0.83657412  0.39778451  1
  K  K6  1  0.55669372  0.16520514  0.10185025  1
  K  K7  1  0.44330628  0.83479486  0.89814975  1
  Ba  Ba8  1  0.17905079  0.13944190  0.40403829  1
  Ba  Ba9  1  0.82094921  0.86055810  0.59596171  1
  Ba  Ba10  1  0.16936462  0.12366137  0.89679115  1
  Ba  Ba11  1  0.83063538  0.87633863  0.10320885  1
  B  B12  1  0.36456012  0.36998292  0.85751466  1
  B  B13  1  0.63543988  0.63001708  0.14248534  1
  B  B14  1  0.21033628  0.49212665  0.83634110  1
  B  B15  1  0.78966372  0.50787335  0.16365890  1
  B  B16  1  0.08376864  0.28304578  0.75589011  1
  B  B17  1  0.91623136  0.71695422  0.24410989  1
  B  B18  1  0.92109736  0.14159534  0.58925380  1
  B  B19  1  0.07890264  0.85840466  0.41074620  1
  B  B20  1  0.84397036  0.12005551  0.75977103  1
  B  B21  1  0.15602964  0.87994449  0.24022897  1
  B  B22  1  0.61503556  0.11898919  0.85071066  1
  B  B23  1  0.38496444  0.88101081  0.14928934  1
  B  B24  1  0.78657282  0.01905986  0.89498984  1
  B  B25  1  0.21342718  0.98094014  0.10501016  1
  B  B26  1  0.91782582  0.14942562  0.09040480  1
  B  B27  1  0.08217418  0.85057438  0.90959520  1
  B  B28  1  0.08644300  0.29172832  0.25697198  1
  B  B29  1  0.91355700  0.70827168  0.74302802  1
  B  B30  1  0.22105160  0.49697009  0.30299151  1
  B  B31  1  0.77894840  0.50302991  0.69700849  1
  B  B32  1  0.38501118  0.37039497  0.29578949  1
  B  B33  1  0.61498882  0.62960503  0.70421051  1
  B  B34  1  0.83936714  0.13405703  0.26382324  1
  B  B35  1  0.16063286  0.86594297  0.73617676  1
  B  B36  1  0.78572768  0.02516111  0.39370151  1
  B  B37  1  0.21427232  0.97483889  0.60629849  1
  B  B38  1  0.61835600  0.13440487  0.36167273  1
  B  B39  1  0.38164400  0.86559513  0.63832727  1
  H  H40  1  0.99469548  0.68074808  0.55998650  1
  H  H41  1  0.00530452  0.31925192  0.44001350  1
  H  H42  1  0.98004262  0.67133951  0.44055197  1
  H  H43  1  0.01995738  0.32866049  0.55944803  1
  H  H44  1  0.20362489  0.39662005  0.01819961  1
  H  H45  1  0.79637511  0.60337995  0.98180039  1
  H  H46  1  0.08496952  0.35247437  0.08415666  1
  H  H47  1  0.91503048  0.64752563  0.91584334  1
  H  H48  1  0.31662164  0.31595737  0.64697688  1
  H  H49  1  0.68337836  0.68404263  0.35302312  1
  H  H50  1  0.46294058  0.39518923  0.62303911  1
  H  H51  1  0.53705942  0.60481077  0.37696089  1
  H  H52  1  0.55752754  0.40353890  0.79018367  1
  H  H53  1  0.44247246  0.59646110  0.20981633  1
  H  H54  1  0.43916112  0.39299386  0.01333745  1
  H  H55  1  0.56083888  0.60700614  0.98666255  1
  H  H56  1  0.11105330  0.60520024  0.29801290  1
  H  H57  1  0.88894670  0.39479976  0.70198710  1
  H  H58  1  0.51702409  0.40567601  0.18822102  1
  H  H59  1  0.48297591  0.59432399  0.81177898  1
  H  H60  1  0.76078258  0.84856755  0.84644306  1
  H  H61  1  0.23921742  0.15143245  0.15355694  1
  H  H62  1  0.75804048  0.85491697  0.33695339  1
  H  H63  1  0.24195952  0.14508303  0.66304661  1
  H  H64  1  0.50570347  0.25212938  0.38348269  1
  H  H65  1  0.49429653  0.74787062  0.61651731  1
  H  H66  1  0.50712492  0.23169340  0.85205650  1
  H  H67  1  0.49287508  0.76830660  0.14794350  1
  H  H68  1  0.44551703  0.39816596  0.45468030  1
  H  H69  1  0.55448297  0.60183404  0.54531970  1
  H  H70  1  0.09652442  0.59779062  0.82710163  1
  H  H71  1  0.90347558  0.40220938  0.17289837  1
  O  O72  1  0.51829230  0.36463410  0.83924863  1
  O  O73  1  0.48170770  0.63536590  0.16075137  1
  O  O74  1  0.34619710  0.35066125  0.96061658  1
  O  O75  1  0.65380290  0.64933875  0.03938342  1
  O  O76  1  0.35269068  0.48371080  0.86278873  1
  O  O77  1  0.64730932  0.51628920  0.13721127  1
  O  O78  1  0.24377048  0.28133916  0.77592699  1
  O  O79  1  0.75622952  0.71866084  0.22407301  1
  O  O80  1  0.20012444  0.60041242  0.85509687  1
  O  O81  1  0.79987556  0.39958758  0.14490313  1
  O  O82  1  0.08065274  0.40234573  0.79248353  1
  O  O83  1  0.91934726  0.59765427  0.20751647  1
  O  O84  1  0.03144736  0.24309597  0.64078550  1
  O  O85  1  0.96855264  0.75690403  0.35921450  1
  O  O86  1  0.90851069  0.10669872  0.48269868  1
  O  O87  1  0.09148931  0.89330128  0.51730132  1
  O  O88  1  0.82924526  0.08054140  0.64215365  1
  O  O89  1  0.17075474  0.91945860  0.35784635  1
  O  O90  1  0.98349467  0.21513620  0.80721978  1
  O  O91  1  0.01650533  0.78486380  0.19278022  1
  O  O92  1  0.70536395  0.15582117  0.78395523  1
  O  O93  1  0.29463605  0.84417883  0.21604477  1
  O  O94  1  0.49905873  0.16620148  0.87756755  1
  O  O95  1  0.50094127  0.83379852  0.12243245  1
  O  O96  1  0.63749118  0.04482997  0.89910164  1
  O  O97  1  0.36250882  0.95517003  0.10089836  1
  O  O98  1  0.76440805  0.90925567  0.90992135  1
  O  O99  1  0.23559195  0.09074433  0.09007865  1
  O  O100  1  0.84319616  0.02399450  0.79692618  1
  O  O101  1  0.15680384  0.97600550  0.20307382  1
  O  O102  1  0.90381296  0.10771488  0.98379947  1
  O  O103  1  0.09618704  0.89228512  0.01620053  1
  O  O104  1  0.03441346  0.24764541  0.14077234  1
  O  O105  1  0.96558654  0.75235459  0.85922766  1
  O  O106  1  0.08683688  0.41160709  0.28767243  1
  O  O107  1  0.91316312  0.58839291  0.71232757  1
  O  O108  1  0.21748195  0.60506716  0.31232719  1
  O  O109  1  0.78251805  0.39493284  0.68767281  1
  O  O110  1  0.36452737  0.48429051  0.31058520  1
  O  O111  1  0.63547263  0.51570949  0.68941480  1
  O  O112  1  0.46215731  0.34027268  0.20724594  1
  O  O113  1  0.53784269  0.65972732  0.79275406  1
  O  O114  1  0.49173387  0.37956914  0.39238871  1
  O  O115  1  0.50826613  0.62043086  0.60761129  1
  O  O116  1  0.23925302  0.28430670  0.28560455  1
  O  O117  1  0.76074698  0.71569330  0.71439545  1
  O  O118  1  0.98111003  0.22886628  0.31090828  1
  O  O119  1  0.01888997  0.77113372  0.68909172  1
  O  O120  1  0.70477674  0.17278259  0.29380497  1
  O  O121  1  0.29522326  0.82721741  0.70619503  1
  O  O122  1  0.50231579  0.17871903  0.39479669  1
  O  O123  1  0.49768421  0.82128097  0.60520331  1
  O  O124  1  0.64139666  0.05604983  0.40477148  1
  O  O125  1  0.35860334  0.94395017  0.59522852  1
  O  O126  1  0.75740482  0.91188430  0.40204017  1
  O  O127  1  0.24259518  0.08811570  0.59795983  1
  O  O128  1  0.83979539  0.03563642  0.29669947  1
  O  O129  1  0.16020461  0.96436358  0.70330053  1
  O  O130  1  0.82038212  0.09575264  0.14597979  1
  O  O131  1  0.17961788  0.90424736  0.85402021  1
  O  O132  1  0.98218686  0.62679862  0.48880941  1
  O  O133  1  0.01781314  0.37320138  0.51119059  1
  O  O134  1  0.11530100  0.41196778  0.05036883  1
  O  O135  1  0.88469900  0.58803222  0.94963117  1
  O  O136  1  0.37218761  0.32788123  0.58950320  1
  O  O137  1  0.62781239  0.67211877  0.41049680  1
