# generated using pymatgen
data_Ba2CdP4(H3O8)2
_symmetry_space_group_name_H-M   'P 1'
_cell_length_a   5.51880869
_cell_length_b   10.52039436
_cell_length_c   12.27286353
_cell_angle_alpha   90.00000000
_cell_angle_beta   99.98761010
_cell_angle_gamma   90.00000000
_symmetry_Int_Tables_number   1
_chemical_formula_structural   Ba2CdP4(H3O8)2
_chemical_formula_sum   'Ba4 Cd2 P8 H12 O32'
_cell_volume   701.76430203
_cell_formula_units_Z   2
loop_
 _symmetry_equiv_pos_site_id
 _symmetry_equiv_pos_as_xyz
  1  'x, y, z'
loop_
 _atom_site_type_symbol
 _atom_site_label
 _atom_site_symmetry_multiplicity
 _atom_site_fract_x
 _atom_site_fract_y
 _atom_site_fract_z
 _atom_site_occupancy
  Ba  Ba0  1  0.14307585  0.65188936  0.82167323  1
  Ba  Ba1  1  0.85692415  0.15188936  0.67832677  1
  Ba  Ba2  1  0.85692415  0.34811064  0.17832677  1
  Ba  Ba3  1  0.14307585  0.84811064  0.32167323  1
  Cd  Cd4  1  -0.00000000  0.50000000  0.50000000  1
  Cd  Cd5  1  -0.00000000  0.00000000  0.00000000  1
  P  P6  1  0.76453213  0.69707222  0.05442852  1
  P  P7  1  0.23546787  0.19707222  0.44557148  1
  P  P8  1  0.23546787  0.30292778  0.94557148  1
  P  P9  1  0.76453213  0.80292778  0.55442852  1
  P  P10  1  0.41155708  0.99301091  0.80117586  1
  P  P11  1  0.58844292  0.49301091  0.69882414  1
  P  P12  1  0.58844292  0.00698909  0.19882414  1
  P  P13  1  0.41155708  0.50698909  0.30117586  1
  H  H14  1  0.71100632  0.53653736  0.93657280  1
  H  H15  1  0.28899368  0.03653736  0.56342720  1
  H  H16  1  0.28899368  0.46346264  0.06342720  1
  H  H17  1  0.71100632  0.96346264  0.43657280  1
  H  H18  1  0.43394776  0.81539192  0.05783896  1
  H  H19  1  0.56605224  0.31539192  0.44216104  1
  H  H20  1  0.56605224  0.18460808  0.94216104  1
  H  H21  1  0.43394776  0.68460808  0.55783896  1
  H  H22  1  0.61643378  0.82772557  0.74616776  1
  H  H23  1  0.38356622  0.32772557  0.75383224  1
  H  H24  1  0.38356622  0.17227443  0.25383224  1
  H  H25  1  0.61643378  0.67227443  0.24616776  1
  O  O26  1  0.76337088  0.55085134  0.02055423  1
  O  O27  1  0.23662912  0.05085134  0.47944577  1
  O  O28  1  0.23662912  0.44914866  0.97944577  1
  O  O29  1  0.76337088  0.94914866  0.52055423  1
  O  O30  1  0.48175858  0.73613230  0.01851722  1
  O  O31  1  0.51824142  0.23613230  0.48148278  1
  O  O32  1  0.51824142  0.26386770  0.98148278  1
  O  O33  1  0.48175858  0.76386770  0.51851722  1
  O  O34  1  0.83287877  0.69988080  0.17999041  1
  O  O35  1  0.16712123  0.19988080  0.32000959  1
  O  O36  1  0.16712123  0.30011920  0.82000959  1
  O  O37  1  0.83287877  0.80011920  0.67999041  1
  O  O38  1  0.92939321  0.77253508  0.99027685  1
  O  O39  1  0.07060679  0.27253508  0.50972315  1
  O  O40  1  0.07060679  0.22746492  0.00972315  1
  O  O41  1  0.92939321  0.72746492  0.49027685  1
  O  O42  1  0.47582855  0.84591563  0.78837553  1
  O  O43  1  0.52417145  0.34591563  0.71162447  1
  O  O44  1  0.52417145  0.15408437  0.21162447  1
  O  O45  1  0.47582855  0.65408437  0.28837553  1
  O  O46  1  0.63085918  0.05926990  0.87673517  1
  O  O47  1  0.36914082  0.55926990  0.62326483  1
  O  O48  1  0.36914082  0.94073010  0.12326483  1
  O  O49  1  0.63085918  0.44073010  0.37673517  1
  O  O50  1  0.37645680  0.05600284  0.68623016  1
  O  O51  1  0.62354320  0.55600284  0.81376984  1
  O  O52  1  0.62354320  0.94399716  0.31376984  1
  O  O53  1  0.37645680  0.44399716  0.18623016  1
  O  O54  1  0.17031804  0.99375119  0.84670983  1
  O  O55  1  0.82968196  0.49375119  0.65329017  1
  O  O56  1  0.82968196  0.00624881  0.15329017  1
  O  O57  1  0.17031804  0.50624881  0.34670983  1
