# generated using pymatgen
data_Gd5P12Ru19
_symmetry_space_group_name_H-M   'P 1'
_cell_length_a   3.99316532
_cell_length_b   12.57759115
_cell_length_c   12.56192022
_cell_angle_alpha   120.04127544
_cell_angle_beta   90.00000000
_cell_angle_gamma   90.00000000
_symmetry_Int_Tables_number   1
_chemical_formula_structural   Gd5P12Ru19
_chemical_formula_sum   'Gd5 P12 Ru19'
_cell_volume   546.16094992
_cell_formula_units_Z   1
loop_
 _symmetry_equiv_pos_site_id
 _symmetry_equiv_pos_as_xyz
  1  'x, y, z'
loop_
 _atom_site_type_symbol
 _atom_site_label
 _atom_site_symmetry_multiplicity
 _atom_site_fract_x
 _atom_site_fract_y
 _atom_site_fract_z
 _atom_site_occupancy
  Gd  Gd0  1  0.50000000  0.99993927  0.18308291  1
  Gd  Gd1  1  0.50000000  0.18352141  0.00000000  1
  Gd  Gd2  1  0.50000000  0.81685635  0.81691709  1
  Gd  Gd3  1  0.00000000  0.33324777  0.66681906  1
  Gd  Gd4  1  -0.00000000  0.66642871  0.33318094  1
  P  P5  1  0.00000000  0.00024858  0.81460330  1
  P  P6  1  0.00000000  0.81426078  1.00000000  1
  P  P7  1  0.00000000  0.18564528  0.18539670  1
  P  P8  1  0.50000000  0.30556361  0.47719667  1
  P  P9  1  0.50000000  0.17105758  0.69363707  1
  P  P10  1  0.50000000  0.52269762  0.82875763  1
  P  P11  1  0.50000000  0.82836695  0.52280333  1
  P  P12  1  0.50000000  0.47742051  0.30636293  1
  P  P13  1  0.50000000  0.69393999  0.17124237  1
  P  P14  1  0.00000000  0.00022251  0.37339568  1
  P  P15  1  0.00000000  0.37349140  0.00000000  1
  P  P16  1  0.00000000  0.62682683  0.62660432  1
  Ru  Ru17  1  0.00000000  0.00051883  0.55463907  1
  Ru  Ru18  1  0.00000000  0.55473785  1.00000000  1
  Ru  Ru19  1  0.00000000  0.44587976  0.44536093  1
  Ru  Ru20  1  0.50000000  -0.00021725  0.71590794  1
  Ru  Ru21  1  0.50000000  0.71600296  1.00000000  1
  Ru  Ru22  1  0.50000000  0.28387481  0.28409206  1
  Ru  Ru23  1  0.00000000  0.19283568  0.37721436  1
  Ru  Ru24  1  0.00000000  0.18501538  0.80756287  1
  Ru  Ru25  1  0.00000000  0.62265684  0.81494294  1
  Ru  Ru26  1  0.00000000  0.81562132  0.62278564  1
  Ru  Ru27  1  -0.00000000  0.37745251  0.19243713  1
  Ru  Ru28  1  0.00000000  0.80771390  0.18505706  1
  Ru  Ru29  1  0.50000000  0.12514268  0.49124702  1
  Ru  Ru30  1  0.50000000  0.36590786  0.87431830  1
  Ru  Ru31  1  0.50000000  0.50778899  0.63381587  1
  Ru  Ru32  1  0.50000000  0.63389566  0.50875298  1
  Ru  Ru33  1  0.50000000  0.49158957  0.12568170  1
  Ru  Ru34  1  0.50000000  0.87397311  0.36618413  1
  Ru  Ru35  1  -0.00000000  0.99977439  0.00000000  1
