# generated using pymatgen
data_Yb2VO5
_symmetry_space_group_name_H-M   'P 1'
_cell_length_a   7.02993522
_cell_length_b   8.34547431
_cell_length_c   9.69474486
_cell_angle_alpha   69.40172665
_cell_angle_beta   68.74224269
_cell_angle_gamma   65.09073475
_symmetry_Int_Tables_number   1
_chemical_formula_structural   Yb2VO5
_chemical_formula_sum   'Yb8 V4 O20'
_cell_volume   467.23477936
_cell_formula_units_Z   4
loop_
 _symmetry_equiv_pos_site_id
 _symmetry_equiv_pos_as_xyz
  1  'x, y, z'
loop_
 _atom_site_type_symbol
 _atom_site_label
 _atom_site_symmetry_multiplicity
 _atom_site_fract_x
 _atom_site_fract_y
 _atom_site_fract_z
 _atom_site_occupancy
  Yb  Yb0  1  0.76024469  0.05363219  0.66079296  1
  Yb  Yb1  1  0.47466984  0.44636781  0.83920704  1
  Yb  Yb2  1  0.23975531  0.94636781  0.33920704  1
  Yb  Yb3  1  0.52533016  0.55363219  0.16079296  1
  Yb  Yb4  1  0.79883809  0.87684855  0.04224224  1
  Yb  Yb5  1  0.71792889  0.62315145  0.45775776  1
  Yb  Yb6  1  0.20116191  0.12315145  0.95775776  1
  Yb  Yb7  1  0.28207111  0.37684855  0.54224224  1
  V  V8  1  0.90968869  0.55669071  0.80712892  1
  V  V9  1  0.27350833  0.94330929  0.69287108  1
  V  V10  1  0.09031131  0.44330929  0.19287108  1
  V  V11  1  0.72649167  0.05669071  0.30712892  1
  O  O12  1  0.84694319  0.77411660  0.82449758  1
  O  O13  1  0.44555737  0.72588340  0.67550242  1
  O  O14  1  0.15305681  0.22588340  0.17550242  1
  O  O15  1  0.55444263  0.27411660  0.32449758  1
  O  O16  1  0.87686953  0.95142251  0.44329884  1
  O  O17  1  0.27159088  0.54857749  0.05670116  1
  O  O18  1  0.12313047  0.04857749  0.55670116  1
  O  O19  1  0.72840912  0.45142251  0.94329884  1
  O  O20  1  0.41039507  0.08354949  0.68318989  1
  O  O21  1  0.17713446  0.41645051  0.81681011  1
  O  O22  1  0.58960493  0.91645051  0.31681011  1
  O  O23  1  0.82286554  0.58354949  0.18318989  1
  O  O24  1  0.09202296  0.95143620  0.86767871  1
  O  O25  1  0.91113786  0.54856380  0.63232129  1
  O  O26  1  0.90797704  0.04856380  0.13232129  1
  O  O27  1  0.08886214  0.45143620  0.36767871  1
  O  O28  1  0.55927150  0.11331116  0.91298881  1
  O  O29  1  0.58557148  0.38668884  0.58701119  1
  O  O30  1  0.44072850  0.88668884  0.08701119  1
  O  O31  1  0.41442852  0.61331116  0.41298881  1
