# generated using pymatgen
data_Lu2B6Os
_symmetry_space_group_name_H-M   'P 1'
_cell_length_a   3.59853566
_cell_length_b   9.03291773
_cell_length_c   11.39971441
_cell_angle_alpha   90.00000000
_cell_angle_beta   90.00000000
_cell_angle_gamma   90.00000000
_symmetry_Int_Tables_number   1
_chemical_formula_structural   Lu2B6Os
_chemical_formula_sum   'Lu8 B24 Os4'
_cell_volume   370.55086966
_cell_formula_units_Z   4
loop_
 _symmetry_equiv_pos_site_id
 _symmetry_equiv_pos_as_xyz
  1  'x, y, z'
loop_
 _atom_site_type_symbol
 _atom_site_label
 _atom_site_symmetry_multiplicity
 _atom_site_fract_x
 _atom_site_fract_y
 _atom_site_fract_z
 _atom_site_occupancy
  Lu  Lu0  1  0.00000000  0.32056608  0.41388832  1
  Lu  Lu1  1  -0.00000000  0.67943392  0.58611168  1
  Lu  Lu2  1  0.00000000  0.82056608  0.08611168  1
  Lu  Lu3  1  -0.00000000  0.17943392  0.91388832  1
  Lu  Lu4  1  0.00000000  0.94537502  0.37363786  1
  Lu  Lu5  1  0.00000000  0.05462498  0.62636214  1
  Lu  Lu6  1  -0.00000000  0.44537502  0.12636214  1
  Lu  Lu7  1  -0.00000000  0.55462498  0.87363786  1
  B  B8  1  0.50000000  0.55426080  0.43379896  1
  B  B9  1  0.50000000  0.44573920  0.56620104  1
  B  B10  1  0.50000000  0.05426080  0.06620104  1
  B  B11  1  0.50000000  0.94573920  0.93379896  1
  B  B12  1  0.50000000  0.74978977  0.42109161  1
  B  B13  1  0.50000000  0.25021023  0.57890839  1
  B  B14  1  0.50000000  0.24978977  0.07890839  1
  B  B15  1  0.50000000  0.75021023  0.92109161  1
  B  B16  1  0.50000000  0.79320577  0.26672450  1
  B  B17  1  0.50000000  0.20679423  0.73327550  1
  B  B18  1  0.50000000  0.29320577  0.23327550  1
  B  B19  1  0.50000000  0.70679423  0.76672450  1
  B  B20  1  0.50000000  0.63228501  0.18501014  1
  B  B21  1  0.50000000  0.36771499  0.81498986  1
  B  B22  1  0.50000000  0.13228501  0.31498986  1
  B  B23  1  0.50000000  0.86771499  0.68501014  1
  B  B24  1  0.50000000  0.98311040  0.21295727  1
  B  B25  1  0.50000000  0.01688960  0.78704273  1
  B  B26  1  0.50000000  0.48311040  0.28704273  1
  B  B27  1  0.50000000  0.51688960  0.71295727  1
  B  B28  1  0.50000000  0.60838893  0.03017630  1
  B  B29  1  0.50000000  0.39161107  0.96982370  1
  B  B30  1  0.50000000  0.10838893  0.46982370  1
  B  B31  1  0.50000000  0.89161107  0.53017630  1
  Os  Os32  1  0.00000000  0.63874329  0.32128440  1
  Os  Os33  1  -0.00000000  0.36125671  0.67871560  1
  Os  Os34  1  -0.00000000  0.13874329  0.17871560  1
  Os  Os35  1  -0.00000000  0.86125671  0.82128440  1
