# generated using pymatgen
data_Sr2V4Te2H2O17
_symmetry_space_group_name_H-M   'P 1'
_cell_length_a   5.21348704
_cell_length_b   10.97970143
_cell_length_c   15.01204015
_cell_angle_alpha   77.44614280
_cell_angle_beta   80.00027088
_cell_angle_gamma   76.26599070
_symmetry_Int_Tables_number   1
_chemical_formula_structural   Sr2V4Te2H2O17
_chemical_formula_sum   'Sr4 V8 Te4 H4 O34'
_cell_volume   808.02316371
_cell_formula_units_Z   2
loop_
 _symmetry_equiv_pos_site_id
 _symmetry_equiv_pos_as_xyz
  1  'x, y, z'
loop_
 _atom_site_type_symbol
 _atom_site_label
 _atom_site_symmetry_multiplicity
 _atom_site_fract_x
 _atom_site_fract_y
 _atom_site_fract_z
 _atom_site_occupancy
  Sr  Sr0  1  0.37205926  0.34550210  0.61798192  1
  Sr  Sr1  1  0.33554328  0.15449790  0.88201808  1
  Sr  Sr2  1  0.62794074  0.65449790  0.38201808  1
  Sr  Sr3  1  0.66445672  0.84550210  0.11798192  1
  V  V4  1  0.04511281  0.13797979  0.51045180  1
  V  V5  1  0.69354439  0.36202021  0.98954820  1
  V  V6  1  0.95488719  0.86202021  0.48954820  1
  V  V7  1  0.30645561  0.63797979  0.01045180  1
  V  V8  1  0.25519804  0.38533090  0.35855840  1
  V  V9  1  0.99908734  0.11466910  0.14144160  1
  V  V10  1  0.74480196  0.61466910  0.64144160  1
  V  V11  1  0.00091266  0.88533090  0.85855840  1
  Te  Te12  1  0.58932194  0.97826596  0.68473672  1
  Te  Te13  1  0.25232462  0.52173404  0.81526328  1
  Te  Te14  1  0.41067806  0.02173404  0.31526328  1
  Te  Te15  1  0.74767538  0.47826596  0.18473672  1
  H  H16  1  0.84318029  0.31333756  0.76845192  1
  H  H17  1  0.92496978  0.18666244  0.73154808  1
  H  H18  1  0.15681971  0.68666244  0.23154808  1
  H  H19  1  0.07503022  0.81333756  0.26845192  1
  O  O20  1  0.86785428  0.99456308  0.57232960  1
  O  O21  1  0.43474697  0.50543692  0.92767040  1
  O  O22  1  0.13214572  0.00543692  0.42767040  1
  O  O23  1  0.56525303  0.49456308  0.07232960  1
  O  O24  1  0.00111355  0.25000000  0.75000000  1
  O  O25  1  -0.00111355  0.75000000  0.25000000  1
  O  O26  1  0.86872249  0.87390206  0.75780103  1
  O  O27  1  0.50042558  0.62609794  0.74219897  1
  O  O28  1  0.13127751  0.12609794  0.24219897  1
  O  O29  1  0.49957442  0.37390206  0.25780103  1
  O  O30  1  0.60650973  0.12949706  0.71862273  1
  O  O31  1  0.45462952  0.37050294  0.78137727  1
  O  O32  1  0.39349027  0.87050294  0.28137727  1
  O  O33  1  0.54537048  0.62949706  0.21862273  1
  O  O34  1  0.77641338  0.25313668  0.52048977  1
  O  O35  1  0.55003983  0.24686332  0.97951023  1
  O  O36  1  0.22358662  0.74686332  0.47951023  1
  O  O37  1  0.44996017  0.75313668  0.02048977  1
  O  O38  1  0.23829800  0.13466297  0.59147470  1
  O  O39  1  0.96443567  0.36533703  0.90852530  1
  O  O40  1  0.76170200  0.86533703  0.40852530  1
  O  O41  1  0.03556433  0.63466297  0.09147470  1
  O  O42  1  0.24265954  0.22398232  0.40776575  1
  O  O43  1  0.87440761  0.27601768  0.09223425  1
  O  O44  1  0.75734046  0.77601768  0.59223425  1
  O  O45  1  0.12559239  0.72398232  0.90776575  1
  O  O46  1  0.33271096  0.46184775  0.43298394  1
  O  O47  1  0.22754264  0.03815225  0.06701606  1
  O  O48  1  0.66728904  0.53815225  0.56701606  1
  O  O49  1  0.77245736  0.96184775  0.93298394  1
  O  O50  1  0.95163793  0.46626349  0.32474961  1
  O  O51  1  0.74265103  0.03373651  0.17525039  1
  O  O52  1  0.04836207  0.53373651  0.67525039  1
  O  O53  1  0.25734897  0.96626349  0.82474961  1
