# generated using pymatgen
data_Zn4P3H7(NO6)2
_symmetry_space_group_name_H-M   'P 1'
_cell_length_a   5.31267023
_cell_length_b   8.19616084
_cell_length_c   16.14735844
_cell_angle_alpha   94.45176938
_cell_angle_beta   92.21980970
_cell_angle_gamma   108.46891516
_symmetry_Int_Tables_number   1
_chemical_formula_structural   Zn4P3H7(NO6)2
_chemical_formula_sum   'Zn8 P6 H14 N4 O24'
_cell_volume   663.39477040
_cell_formula_units_Z   2
loop_
 _symmetry_equiv_pos_site_id
 _symmetry_equiv_pos_as_xyz
  1  'x, y, z'
loop_
 _atom_site_type_symbol
 _atom_site_label
 _atom_site_symmetry_multiplicity
 _atom_site_fract_x
 _atom_site_fract_y
 _atom_site_fract_z
 _atom_site_occupancy
  Zn  Zn0  1  0.21342720  0.33490580  0.04377370  1
  Zn  Zn1  1  0.78657280  0.66509420  0.95622630  1
  Zn  Zn2  1  0.61350229  0.13301851  0.12949875  1
  Zn  Zn3  1  0.38649771  0.86698149  0.87050125  1
  Zn  Zn4  1  0.18969269  0.49801617  0.39329578  1
  Zn  Zn5  1  0.81030731  0.50198383  0.60670422  1
  Zn  Zn6  1  0.92082415  0.07664406  0.38638028  1
  Zn  Zn7  1  0.07917585  0.92335594  0.61361972  1
  P  P8  1  0.63654042  0.25894218  0.94150606  1
  P  P9  1  0.36345958  0.74105782  0.05849394  1
  P  P10  1  0.17535583  0.25379988  0.22733431  1
  P  P11  1  0.82464417  0.74620012  0.77266569  1
  P  P12  1  0.79366429  0.70253362  0.44717078  1
  P  P13  1  0.20633571  0.29746638  0.55282922  1
  H  H14  1  0.55149994  0.18443054  0.43724079  1
  H  H15  1  0.44850006  0.81556946  0.56275921  1
  H  H16  1  0.49925162  0.13026351  0.33534650  1
  H  H17  1  0.50074838  0.86973649  0.66465350  1
  H  H18  1  0.41763489  0.97810015  0.40087539  1
  H  H19  1  0.58236511  0.02189985  0.59912461  1
  H  H20  1  0.96882999  0.65030264  0.17614845  1
  H  H21  1  0.03117001  0.34969736  0.82385155  1
  H  H22  1  0.84352328  0.59344862  0.26861020  1
  H  H23  1  0.15647672  0.40655138  0.73138980  1
  H  H24  1  0.64795175  0.61870239  0.18694067  1
  H  H25  1  0.35204825  0.38129761  0.81305933  1
  H  H26  1  0.88166643  0.79329693  0.23798167  1
  H  H27  1  0.11833357  0.20670307  0.76201833  1
  N  N28  1  0.55557756  0.09308754  0.39047318  1
  N  N29  1  0.44442244  0.90691246  0.60952682  1
  N  N30  1  0.83549967  0.66349434  0.21874279  1
  N  N31  1  0.16450033  0.33650566  0.78125721  1
  O  O32  1  0.49300389  0.21678768  0.02536419  1
  O  O33  1  0.50699611  0.78321232  0.97463581  1
  O  O34  1  0.58612573  0.42496004  0.91527344  1
  O  O35  1  0.41387427  0.57503996  0.08472656  1
  O  O36  1  0.93635429  0.28479213  0.95437416  1
  O  O37  1  0.06364571  0.71520787  0.04562584  1
  O  O38  1  0.50638257  0.11462079  0.87167938  1
  O  O39  1  0.49361743  0.88537921  0.12832062  1
  O  O40  1  0.01089748  0.23473404  0.14057011  1
  O  O41  1  0.98910252  0.76526596  0.85942989  1
  O  O42  1  0.03280962  0.09299974  0.27221340  1
  O  O43  1  0.96719038  0.90700026  0.72778660  1
  O  O44  1  0.18199098  0.42589043  0.27491566  1
  O  O45  1  0.81800902  0.57410957  0.72508434  1
  O  O46  1  0.46203890  0.25996150  0.21007476  1
  O  O47  1  0.53796110  0.74003850  0.78992524  1
  O  O48  1  0.84887461  0.70951315  0.54489359  1
  O  O49  1  0.15112539  0.29048685  0.45510641  1
  O  O50  1  0.98453261  0.86990253  0.41847763  1
  O  O51  1  0.01546739  0.13009747  0.58152237  1
  O  O52  1  0.50024519  0.69315278  0.43179064  1
  O  O53  1  0.49975481  0.30684722  0.56820936  1
  O  O54  1  0.84804858  0.54390893  0.40369384  1
  O  O55  1  0.15195142  0.45609107  0.59630616  1
