# generated using pymatgen
data_U(Zn10Ru)2
_symmetry_space_group_name_H-M   'P 1'
_cell_length_a   10.06978889
_cell_length_b   10.06978889
_cell_length_c   10.06978889
_cell_angle_alpha   60.00000000
_cell_angle_beta   60.00000000
_cell_angle_gamma   60.00000000
_symmetry_Int_Tables_number   1
_chemical_formula_structural   U(Zn10Ru)2
_chemical_formula_sum   'U2 Zn40 Ru4'
_cell_volume   722.01479966
_cell_formula_units_Z   2
loop_
 _symmetry_equiv_pos_site_id
 _symmetry_equiv_pos_as_xyz
  1  'x, y, z'
loop_
 _atom_site_type_symbol
 _atom_site_label
 _atom_site_symmetry_multiplicity
 _atom_site_fract_x
 _atom_site_fract_y
 _atom_site_fract_z
 _atom_site_occupancy
  U  U0  1  0.12500000  0.12500000  0.12500000  1
  U  U1  1  0.87500000  0.87500000  0.87500000  1
  Zn  Zn2  1  -0.00000000  -0.00000000  0.50000000  1
  Zn  Zn3  1  -0.00000000  0.50000000  -0.00000000  1
  Zn  Zn4  1  0.50000000  -0.00000000  -0.00000000  1
  Zn  Zn5  1  -0.00000000  -0.00000000  -0.00000000  1
  Zn  Zn6  1  0.48851504  0.76148496  0.76148496  1
  Zn  Zn7  1  0.76148496  0.48851504  0.48851504  1
  Zn  Zn8  1  0.76148496  0.48851504  0.76148496  1
  Zn  Zn9  1  0.48851504  0.76148496  0.48851504  1
  Zn  Zn10  1  0.76148496  0.76148496  0.48851504  1
  Zn  Zn11  1  0.48851504  0.48851504  0.76148496  1
  Zn  Zn12  1  0.51148496  0.23851504  0.23851504  1
  Zn  Zn13  1  0.23851504  0.51148496  0.51148496  1
  Zn  Zn14  1  0.23851504  0.51148496  0.23851504  1
  Zn  Zn15  1  0.51148496  0.23851504  0.51148496  1
  Zn  Zn16  1  0.23851504  0.23851504  0.51148496  1
  Zn  Zn17  1  0.51148496  0.51148496  0.23851504  1
  Zn  Zn18  1  0.32448246  0.32448246  0.05647147  1
  Zn  Zn19  1  0.79456360  0.05647147  0.32448246  1
  Zn  Zn20  1  0.05647147  0.79456360  0.32448246  1
  Zn  Zn21  1  0.32448246  0.32448246  0.79456360  1
  Zn  Zn22  1  0.05647147  0.32448246  0.32448246  1
  Zn  Zn23  1  0.32448246  0.79456360  0.05647147  1
  Zn  Zn24  1  0.32448246  0.05647147  0.79456360  1
  Zn  Zn25  1  0.79456360  0.32448246  0.32448246  1
  Zn  Zn26  1  0.32448246  0.05647147  0.32448246  1
  Zn  Zn27  1  0.05647147  0.32448246  0.79456360  1
  Zn  Zn28  1  0.79456360  0.32448246  0.05647147  1
  Zn  Zn29  1  0.32448246  0.79456360  0.32448246  1
  Zn  Zn30  1  0.67551754  0.67551754  0.94352853  1
  Zn  Zn31  1  0.20543640  0.94352853  0.67551754  1
  Zn  Zn32  1  0.94352853  0.20543640  0.67551754  1
  Zn  Zn33  1  0.67551754  0.67551754  0.20543640  1
  Zn  Zn34  1  0.94352853  0.67551754  0.67551754  1
  Zn  Zn35  1  0.67551754  0.20543640  0.94352853  1
  Zn  Zn36  1  0.67551754  0.94352853  0.20543640  1
  Zn  Zn37  1  0.20543640  0.67551754  0.67551754  1
  Zn  Zn38  1  0.67551754  0.94352853  0.67551754  1
  Zn  Zn39  1  0.94352853  0.67551754  0.20543640  1
  Zn  Zn40  1  0.20543640  0.67551754  0.94352853  1
  Zn  Zn41  1  0.67551754  0.20543640  0.67551754  1
  Ru  Ru42  1  0.50000000  0.50000000  -0.00000000  1
  Ru  Ru43  1  0.50000000  -0.00000000  0.50000000  1
  Ru  Ru44  1  -0.00000000  0.50000000  0.50000000  1
  Ru  Ru45  1  0.50000000  0.50000000  0.50000000  1
