# generated using pymatgen
data_Tl2NiH12(SO7)2
_symmetry_space_group_name_H-M   'P 1'
_cell_length_a   6.32988948
_cell_length_b   9.19246324
_cell_length_c   12.57161871
_cell_angle_alpha   90.00000000
_cell_angle_beta   90.00000000
_cell_angle_gamma   105.39019248
_symmetry_Int_Tables_number   1
_chemical_formula_structural   Tl2NiH12(SO7)2
_chemical_formula_sum   'Tl4 Ni2 H24 S4 O28'
_cell_volume   705.27698502
_cell_formula_units_Z   2
loop_
 _symmetry_equiv_pos_site_id
 _symmetry_equiv_pos_as_xyz
  1  'x, y, z'
loop_
 _atom_site_type_symbol
 _atom_site_label
 _atom_site_symmetry_multiplicity
 _atom_site_fract_x
 _atom_site_fract_y
 _atom_site_fract_z
 _atom_site_occupancy
  Tl  Tl0  1  0.34299382  0.62272291  0.14083265  1
  Tl  Tl1  1  0.65700618  0.87727709  0.64083265  1
  Tl  Tl2  1  0.65700618  0.37727709  0.85916735  1
  Tl  Tl3  1  0.34299382  0.12272291  0.35916735  1
  Ni  Ni4  1  -0.00000000  0.50000000  0.50000000  1
  Ni  Ni5  1  -0.00000000  0.00000000  0.00000000  1
  H  H6  1  0.31715601  0.71037529  0.40499382  1
  H  H7  1  0.68284399  0.78962471  0.90499382  1
  H  H8  1  0.68284399  0.28962471  0.59500618  1
  H  H9  1  0.31715601  0.21037529  0.09500618  1
  H  H10  1  0.08563007  0.74041744  0.37237060  1
  H  H11  1  0.91436993  0.75958256  0.87237060  1
  H  H12  1  0.91436993  0.25958256  0.62762940  1
  H  H13  1  0.08563007  0.24041744  0.12762940  1
  H  H14  1  0.92505418  0.22724834  0.40142027  1
  H  H15  1  0.07494582  0.27275166  0.90142027  1
  H  H16  1  0.07494582  0.77275166  0.59857973  1
  H  H17  1  0.92505418  0.72724834  0.09857973  1
  H  H18  1  0.99677133  0.35501378  0.31410724  1
  H  H19  1  0.00322867  0.14498622  0.81410724  1
  H  H20  1  0.00322867  0.64498622  0.68589276  1
  H  H21  1  0.99677133  0.85501378  0.18589276  1
  H  H22  1  0.33282555  0.39895517  0.55961072  1
  H  H23  1  0.66717445  0.10104483  0.05961072  1
  H  H24  1  0.66717445  0.60104483  0.44038928  1
  H  H25  1  0.33282555  0.89895517  0.94038928  1
  H  H26  1  0.31848196  0.52711140  0.64070303  1
  H  H27  1  0.68151804  0.97288860  0.14070303  1
  H  H28  1  0.68151804  0.47288860  0.35929697  1
  H  H29  1  0.31848196  0.02711140  0.85929697  1
  S  S30  1  0.73238859  0.90225108  0.35829896  1
  S  S31  1  0.26761141  0.59774892  0.85829896  1
  S  S32  1  0.26761141  0.09774892  0.64170104  1
  S  S33  1  0.73238859  0.40225108  0.14170104  1
  O  O34  1  0.59595826  0.91357327  0.26355571  1
  O  O35  1  0.40404174  0.58642673  0.76355571  1
  O  O36  1  0.40404174  0.08642673  0.73644429  1
  O  O37  1  0.59595826  0.41357327  0.23644429  1
  O  O38  1  0.77549639  0.04315270  0.42287207  1
  O  O39  1  0.22450361  0.45684730  0.92287207  1
  O  O40  1  0.22450361  0.95684730  0.57712793  1
  O  O41  1  0.77549639  0.54315270  0.07712793  1
  O  O42  1  0.60694043  0.77390950  0.42654460  1
  O  O43  1  0.39305957  0.72609050  0.92654460  1
  O  O44  1  0.39305957  0.22609050  0.57345540  1
  O  O45  1  0.60694043  0.27390950  0.07345540  1
  O  O46  1  0.94453279  0.87339186  0.32316175  1
  O  O47  1  0.05546721  0.62660814  0.82316175  1
  O  O48  1  0.05546721  0.12660814  0.67683825  1
  O  O49  1  0.94453279  0.37339186  0.17683825  1
  O  O50  1  0.16106883  0.66128385  0.38836777  1
  O  O51  1  0.83893117  0.83871615  0.88836777  1
  O  O52  1  0.83893117  0.33871615  0.61163223  1
  O  O53  1  0.16106883  0.16128385  0.11163223  1
  O  O54  1  0.02367810  0.32989332  0.38898762  1
  O  O55  1  0.97632190  0.17010668  0.88898762  1
  O  O56  1  0.97632190  0.67010668  0.61101238  1
  O  O57  1  0.02367810  0.82989332  0.11101238  1
  O  O58  1  0.29383022  0.49634265  0.56472825  1
  O  O59  1  0.70616978  0.00365735  0.06472825  1
  O  O60  1  0.70616978  0.50365735  0.43527175  1
  O  O61  1  0.29383022  0.99634265  0.93527175  1
