# generated using pymatgen
data_Bi2Mo2Se2O13
_symmetry_space_group_name_H-M   'P 1'
_cell_length_a   6.71349373
_cell_length_b   7.06878284
_cell_length_c   11.84808632
_cell_angle_alpha   89.46705944
_cell_angle_beta   82.38984187
_cell_angle_gamma   86.71007926
_symmetry_Int_Tables_number   1
_chemical_formula_structural   Bi2Mo2Se2O13
_chemical_formula_sum   'Bi4 Mo4 Se4 O26'
_cell_volume   556.39379400
_cell_formula_units_Z   2
loop_
 _symmetry_equiv_pos_site_id
 _symmetry_equiv_pos_as_xyz
  1  'x, y, z'
loop_
 _atom_site_type_symbol
 _atom_site_label
 _atom_site_symmetry_multiplicity
 _atom_site_fract_x
 _atom_site_fract_y
 _atom_site_fract_z
 _atom_site_occupancy
  Bi  Bi0  1  0.19263805  0.87463763  0.88784938  1
  Bi  Bi1  1  0.80736195  0.12536237  0.11215062  1
  Bi  Bi2  1  0.63263941  0.59878139  0.64843525  1
  Bi  Bi3  1  0.36736059  0.40121861  0.35156475  1
  Mo  Mo4  1  0.74963707  0.11366229  0.81164723  1
  Mo  Mo5  1  0.25036293  0.88633771  0.18835277  1
  Mo  Mo6  1  0.12267054  0.36032276  0.69965000  1
  Mo  Mo7  1  0.87732946  0.63967724  0.30035000  1
  Se  Se8  1  0.18032660  0.78805659  0.56613907  1
  Se  Se9  1  0.81967340  0.21194341  0.43386093  1
  Se  Se10  1  0.23771198  0.41666433  0.06017094  1
  Se  Se11  1  0.76228802  0.58333567  0.93982906  1
  O  O12  1  0.37310707  0.65322711  0.49089193  1
  O  O13  1  0.62689293  0.34677289  0.50910807  1
  O  O14  1  0.02112968  0.60273431  0.62176432  1
  O  O15  1  0.97887032  0.39726569  0.37823568  1
  O  O16  1  0.30537002  0.83702712  0.67894837  1
  O  O17  1  0.69462998  0.16297288  0.32105163  1
  O  O18  1  0.39968986  0.34465083  0.15598886  1
  O  O19  1  0.60031014  0.65534917  0.84401114  1
  O  O20  1  0.26328343  0.66392499  0.04990209  1
  O  O21  1  0.73671657  0.33607501  0.95009791  1
  O  O22  1  0.00280340  0.58470677  0.86047298  1
  O  O23  1  0.99719660  0.41529323  0.13952702  1
  O  O24  1  0.48954615  0.09970828  0.85066906  1
  O  O25  1  0.51045385  0.90029172  0.14933094  1
  O  O26  1  0.84866412  0.96354992  0.93519965  1
  O  O27  1  0.15133588  0.03645008  0.06480035  1
  O  O28  1  0.08386923  0.16668312  0.80604578  1
  O  O29  1  0.91613077  0.83331688  0.19395422  1
  O  O30  1  0.80274916  0.94849915  0.70000677  1
  O  O31  1  0.19725084  0.05150085  0.29999323  1
  O  O32  1  0.18603664  0.23728167  0.57206453  1
  O  O33  1  0.81396336  0.76271833  0.42793547  1
  O  O34  1  0.80491291  0.34063721  0.71629435  1
  O  O35  1  0.19508709  0.65936279  0.28370565  1
  O  O36  1  0.35828891  0.44790408  0.72376472  1
  O  O37  1  0.64171109  0.55209592  0.27623528  1
