# generated using pymatgen
data_Yb6Ti4Al43
_symmetry_space_group_name_H-M   'P 1'
_cell_length_a   11.16384308
_cell_length_b   11.16380641
_cell_length_c   17.90142113
_cell_angle_alpha   90.00000000
_cell_angle_beta   90.00000000
_cell_angle_gamma   120.00011188
_symmetry_Int_Tables_number   1
_chemical_formula_structural   Yb6Ti4Al43
_chemical_formula_sum   'Yb12 Ti8 Al86'
_cell_volume   1932.16260262
_cell_formula_units_Z   2
loop_
 _symmetry_equiv_pos_site_id
 _symmetry_equiv_pos_as_xyz
  1  'x, y, z'
loop_
 _atom_site_type_symbol
 _atom_site_label
 _atom_site_symmetry_multiplicity
 _atom_site_fract_x
 _atom_site_fract_y
 _atom_site_fract_z
 _atom_site_occupancy
  Yb  Yb0  1  0.46944018  1.00000000  0.59439732  1
  Yb  Yb1  1  0.53055364  0.53056104  0.59439525  1
  Yb  Yb2  1  0.99999259  0.46943896  0.59439525  1
  Yb  Yb3  1  0.53055848  0.00000000  0.40560228  1
  Yb  Yb4  1  0.46944792  0.46944060  0.40560412  1
  Yb  Yb5  1  0.00000731  0.53055940  0.40560412  1
  Yb  Yb6  1  0.53055982  0.00000000  0.09439732  1
  Yb  Yb7  1  0.46944636  0.46943896  0.09439525  1
  Yb  Yb8  1  0.00000741  0.53056104  0.09439525  1
  Yb  Yb9  1  0.46944152  1.00000000  0.90560228  1
  Yb  Yb10  1  0.53055208  0.53055940  0.90560412  1
  Yb  Yb11  1  0.99999269  0.46944060  0.90560412  1
  Ti  Ti12  1  0.27079489  1.00000000  0.75000042  1
  Ti  Ti13  1  0.72924711  0.72926062  0.74999966  1
  Ti  Ti14  1  -0.00001351  0.27073938  0.74999966  1
  Ti  Ti15  1  0.72920511  0.00000000  0.25000042  1
  Ti  Ti16  1  0.27075289  0.27073938  0.24999966  1
  Ti  Ti17  1  0.00001351  0.72926062  0.24999966  1
  Ti  Ti18  1  0.00000034  -0.00000000  0.49999821  1
  Ti  Ti19  1  0.99999966  0.00000000  -0.00000179  1
  Al  Al20  1  0.23484708  0.39250418  0.66422210  1
  Al  Al21  1  0.15764810  0.76517395  0.66423070  1
  Al  Al22  1  0.60750265  0.84234788  0.66422252  1
  Al  Al23  1  0.84234289  0.60749582  0.66422210  1
  Al  Al24  1  0.39247415  0.23482605  0.66423070  1
  Al  Al25  1  0.76515477  0.15765212  0.66422252  1
  Al  Al26  1  0.76515320  0.60749578  0.33577793  1
  Al  Al27  1  0.84235163  0.23482563  0.33576926  1
  Al  Al28  1  0.39249710  0.15765243  0.33577753  1
  Al  Al29  1  0.15765742  0.39250422  0.33577793  1
  Al  Al30  1  0.60752599  0.76517437  0.33576926  1
  Al  Al31  1  0.23484467  0.84234757  0.33577753  1
  Al  Al32  1  0.76515292  0.60749582  0.16422210  1
  Al  Al33  1  0.84235190  0.23482605  0.16423070  1
  Al  Al34  1  0.39249735  0.15765212  0.16422252  1
  Al  Al35  1  0.15765711  0.39250418  0.16422210  1
  Al  Al36  1  0.60752585  0.76517395  0.16423070  1
  Al  Al37  1  0.23484523  0.84234788  0.16422252  1
  Al  Al38  1  0.23484680  0.39250422  0.83577793  1
  Al  Al39  1  0.15764837  0.76517437  0.83576926  1
  Al  Al40  1  0.60750290  0.84234757  0.83577753  1
  Al  Al41  1  0.84234258  0.60749578  0.83577793  1
  Al  Al42  1  0.39247401  0.23482563  0.83576926  1
  Al  Al43  1  0.76515533  0.15765243  0.83577753  1
  Al  Al44  1  0.15501416  1.00000000  0.61590606  1
  Al  Al45  1  0.84499185  0.84499189  0.61589795  1
  Al  Al46  1  -0.00000004  0.15500811  0.61589795  1
  Al  Al47  1  0.84498653  0.00000000  0.38409420  1
  Al  Al48  1  0.15500766  0.15500745  0.38410219  1
  Al  Al49  1  0.00000021  0.84499255  0.38410219  1
  Al  Al50  1  0.84498584  0.00000000  0.11590606  1
  Al  Al51  1  0.15500815  0.15500811  0.11589795  1
  Al  Al52  1  0.00000004  0.84499189  0.11589795  1
  Al  Al53  1  0.15501347  1.00000000  0.88409420  1
  Al  Al54  1  0.84499234  0.84499255  0.88410219  1
  Al  Al55  1  -0.00000021  0.15500745  0.88410219  1
  Al  Al56  1  0.25119660  1.00000000  0.03057332  1
  Al  Al57  1  0.74880229  0.74880274  0.03057292  1
  Al  Al58  1  -0.00000046  0.25119726  0.03057292  1
  Al  Al59  1  0.74880249  0.00000000  0.96942700  1
  Al  Al60  1  0.25119815  0.25119780  0.96942723  1
  Al  Al61  1  0.00000035  0.74880220  0.96942723  1
  Al  Al62  1  0.74880340  0.00000000  0.53057332  1
  Al  Al63  1  0.25119771  0.25119726  0.53057292  1
  Al  Al64  1  0.00000046  0.74880274  0.53057292  1
  Al  Al65  1  0.25119751  1.00000000  0.46942700  1
  Al  Al66  1  0.74880185  0.74880220  0.46942723  1
  Al  Al67  1  0.99999965  0.25119780  0.46942723  1
  Al  Al68  1  0.14969105  0.55175094  0.75000009  1
  Al  Al69  1  0.40204927  0.85032310  0.74999991  1
  Al  Al70  1  0.44824533  0.59794944  0.75000000  1
  Al  Al71  1  0.59794011  0.44824906  0.75000009  1
  Al  Al72  1  0.55172617  0.14967690  0.74999991  1
  Al  Al73  1  0.85029588  0.40205056  0.75000000  1
  Al  Al74  1  0.85030895  0.44824906  0.25000009  1
  Al  Al75  1  0.59795073  0.14967690  0.24999991  1
  Al  Al76  1  0.55175467  0.40205056  0.25000000  1
  Al  Al77  1  0.40205989  0.55175094  0.25000009  1
  Al  Al78  1  0.44827383  0.85032310  0.24999991  1
  Al  Al79  1  0.14970412  0.59794944  0.25000000  1
  Al  Al80  1  0.24714608  0.49428987  0.50000028  1
  Al  Al81  1  0.24713971  0.75285718  0.49999614  1
  Al  Al82  1  0.50571730  0.75285924  0.50000449  1
  Al  Al83  1  0.75285621  0.50571013  0.50000028  1
  Al  Al84  1  0.49428254  0.24714282  0.49999614  1
  Al  Al85  1  0.75285806  0.24714076  0.50000449  1
  Al  Al86  1  0.75285392  0.50571013  0.00000028  1
  Al  Al87  1  0.75286029  0.24714282  0.99999614  1
  Al  Al88  1  0.49428270  0.24714076  0.00000449  1
  Al  Al89  1  0.24714379  0.49428987  0.00000028  1
  Al  Al90  1  0.50571746  0.75285718  0.99999614  1
  Al  Al91  1  0.24714194  0.75285924  0.00000449  1
  Al  Al92  1  0.33332818  0.66667167  0.62564989  1
  Al  Al93  1  0.66665651  0.33332833  0.62564989  1
  Al  Al94  1  0.66667193  0.33332845  0.37435018  1
  Al  Al95  1  0.33334347  0.66667155  0.37435018  1
  Al  Al96  1  0.66667182  0.33332833  0.12564989  1
  Al  Al97  1  0.33334349  0.66667167  0.12564989  1
  Al  Al98  1  0.33332807  0.66667155  0.87435018  1
  Al  Al99  1  0.66665653  0.33332845  0.87435018  1
  Al  Al100  1  0.85245127  1.00000000  0.75000022  1
  Al  Al101  1  0.14755481  0.14753779  0.75000014  1
  Al  Al102  1  0.00001702  0.85246221  0.75000014  1
  Al  Al103  1  0.14754873  0.00000000  0.25000022  1
  Al  Al104  1  0.85244519  0.85246221  0.25000014  1
  Al  Al105  1  -0.00001702  0.14753779  0.25000014  1
