# generated using pymatgen
data_Tm5B2(O2F3)3
_symmetry_space_group_name_H-M   'P 1'
_cell_length_a   6.01982256
_cell_length_b   8.20977032
_cell_length_c   10.61937089
_cell_angle_alpha   99.84603452
_cell_angle_beta   106.46537935
_cell_angle_gamma   90.00000000
_symmetry_Int_Tables_number   1
_chemical_formula_structural   Tm5B2(O2F3)3
_chemical_formula_sum   'Tm10 B4 O12 F18'
_cell_volume   495.23529776
_cell_formula_units_Z   2
loop_
 _symmetry_equiv_pos_site_id
 _symmetry_equiv_pos_as_xyz
  1  'x, y, z'
loop_
 _atom_site_type_symbol
 _atom_site_label
 _atom_site_symmetry_multiplicity
 _atom_site_fract_x
 _atom_site_fract_y
 _atom_site_fract_z
 _atom_site_occupancy
  Tm  Tm0  1  0.18608751  0.68018343  0.61209019  1
  Tm  Tm1  1  0.57399732  0.81981657  0.38790981  1
  Tm  Tm2  1  0.81391249  0.31981657  0.38790981  1
  Tm  Tm3  1  0.42600268  0.18018343  0.61209019  1
  Tm  Tm4  1  0.00004766  0.09271234  0.78078039  1
  Tm  Tm5  1  0.21926727  0.40728766  0.21921961  1
  Tm  Tm6  1  0.99995234  0.90728766  0.21921961  1
  Tm  Tm7  1  0.78073273  0.59271234  0.78078039  1
  Tm  Tm8  1  0.38809739  0.75000000  -0.00000000  1
  Tm  Tm9  1  0.61190261  0.25000000  -0.00000000  1
  B  B10  1  0.48275256  0.93709120  0.77682763  1
  B  B11  1  0.70592493  0.56290880  0.22317237  1
  B  B12  1  0.51724744  0.06290880  0.22317237  1
  B  B13  1  0.29407507  0.43709120  0.77682763  1
  O  O14  1  0.64892264  0.06542156  0.81834440  1
  O  O15  1  0.83057823  0.43457844  0.18165560  1
  O  O16  1  0.35107736  0.93457844  0.18165560  1
  O  O17  1  0.16942177  0.56542156  0.81834440  1
  O  O18  1  0.27819209  0.96126424  0.68156364  1
  O  O19  1  0.59662845  0.53873576  0.31843636  1
  O  O20  1  0.72180791  0.03873576  0.31843636  1
  O  O21  1  0.40337155  0.46126424  0.68156364  1
  O  O22  1  0.30391290  0.28267514  0.81367487  1
  O  O23  1  0.49023803  0.21732486  0.18632513  1
  O  O24  1  0.69608710  0.71732486  0.18632513  1
  O  O25  1  0.50976197  0.78267514  0.81367487  1
  F  F26  1  0.86615367  0.51993663  0.57911949  1
  F  F27  1  0.28703419  0.98006337  0.42088051  1
  F  F28  1  0.13384633  0.48006337  0.42088051  1
  F  F29  1  0.71296581  0.01993663  0.57911949  1
  F  F30  1  0.79401344  0.31352270  0.73687727  1
  F  F31  1  0.05713617  0.18647730  0.26312273  1
  F  F32  1  0.20598656  0.68647730  0.26312273  1
  F  F33  1  0.94286383  0.81352270  0.73687727  1
  F  F34  1  0.01538354  0.75000000  -0.00000000  1
  F  F35  1  0.98461646  0.25000000  -0.00000000  1
  F  F36  1  0.49134289  0.71635269  0.54733646  1
  F  F37  1  0.94400643  0.78364731  0.45266354  1
  F  F38  1  0.50865711  0.28364731  0.45266354  1
  F  F39  1  0.05599357  0.21635269  0.54733646  1
  F  F40  1  0.28342385  0.01332841  0.93663252  1
  F  F41  1  0.34679133  0.48667159  0.06336748  1
  F  F42  1  0.71657615  0.98667159  0.06336748  1
  F  F43  1  0.65320867  0.51332841  0.93663252  1
