# generated using pymatgen
data_CsV3B2P4(H4O11)2
_symmetry_space_group_name_H-M   'P 1'
_cell_length_a   5.11934901
_cell_length_b   9.20954328
_cell_length_c   10.54726783
_cell_angle_alpha   113.07704898
_cell_angle_beta   99.34761497
_cell_angle_gamma   100.59357584
_symmetry_Int_Tables_number   1
_chemical_formula_structural   CsV3B2P4(H4O11)2
_chemical_formula_sum   'Cs1 V3 B2 P4 H8 O22'
_cell_volume   434.30063052
_cell_formula_units_Z   1
loop_
 _symmetry_equiv_pos_site_id
 _symmetry_equiv_pos_as_xyz
  1  'x, y, z'
loop_
 _atom_site_type_symbol
 _atom_site_label
 _atom_site_symmetry_multiplicity
 _atom_site_fract_x
 _atom_site_fract_y
 _atom_site_fract_z
 _atom_site_occupancy
  Cs  Cs0  1  0.50000000  -0.00000000  0.00000000  1
  V  V1  1  0.00000000  0.50000000  0.50000000  1
  V  V2  1  0.50000000  -0.00000000  0.50000000  1
  V  V3  1  0.50000000  0.50000000  0.00000000  1
  B  B4  1  0.83401189  0.83401189  0.66802378  1
  B  B5  1  0.16598811  0.16598811  0.33197622  1
  P  P6  1  0.59960218  0.57589178  0.72142088  1
  P  P7  1  0.87818130  0.85447090  0.27857912  1
  P  P8  1  0.40039782  0.42410822  0.27857912  1
  P  P9  1  0.12181870  0.14552910  0.72142088  1
  H  H10  1  0.02226040  0.78063586  0.50143596  1
  H  H11  1  0.52082444  0.27919990  0.49856404  1
  H  H12  1  0.97773960  0.21936414  0.49856404  1
  H  H13  1  0.47917556  0.72080010  0.50143596  1
  H  H14  1  0.07990679  0.60592734  0.91754397  1
  H  H15  1  0.16236283  0.68838337  0.08245603  1
  H  H16  1  0.92009321  0.39407266  0.08245603  1
  H  H17  1  0.83763717  0.31161663  0.91754397  1
  O  O18  1  0.98849811  0.73782096  0.57432576  1
  O  O19  1  0.41417235  0.16349520  0.42567424  1
  O  O20  1  0.01150189  0.26217904  0.42567424  1
  O  O21  1  0.58582765  0.83650480  0.57432576  1
  O  O22  1  0.76895201  0.75886420  0.76425591  1
  O  O23  1  0.00469610  0.99460829  0.23574409  1
  O  O24  1  0.23104799  0.24113580  0.23574409  1
  O  O25  1  0.99530390  0.00539171  0.76425591  1
  O  O26  1  0.70929762  0.44271177  0.32055247  1
  O  O27  1  0.38874515  0.12215930  0.67944753  1
  O  O28  1  0.29070238  0.55728823  0.67944753  1
  O  O29  1  0.61125485  0.87784070  0.32055247  1
  O  O30  1  0.69824099  0.45903551  0.60013699  1
  O  O31  1  0.09810400  0.85889852  0.39986301  1
  O  O32  1  0.30175901  0.54096449  0.39986301  1
  O  O33  1  0.90189600  0.14110148  0.60013699  1
  O  O34  1  0.67576581  0.54809298  0.85630147  1
  O  O35  1  0.81946434  0.69179151  0.14369853  1
  O  O36  1  0.32423419  0.45190702  0.14369853  1
  O  O37  1  0.18053566  0.30820849  0.85630147  1
  O  O38  1  0.24415913  0.65716047  1.00000000  1
  O  O39  1  0.75584087  0.34283953  0.00000000  1
