# generated using pymatgen
data_Pr5(Sn5Rh2)2
_symmetry_space_group_name_H-M   'P 1'
_cell_length_a   4.65536145
_cell_length_b   14.27374875
_cell_length_c   14.27374875
_cell_angle_alpha   90.00000000
_cell_angle_beta   90.00000000
_cell_angle_gamma   90.00000000
_symmetry_Int_Tables_number   1
_chemical_formula_structural   Pr5(Sn5Rh2)2
_chemical_formula_sum   'Pr10 Sn20 Rh8'
_cell_volume   948.48289201
_cell_formula_units_Z   2
loop_
 _symmetry_equiv_pos_site_id
 _symmetry_equiv_pos_as_xyz
  1  'x, y, z'
loop_
 _atom_site_type_symbol
 _atom_site_label
 _atom_site_symmetry_multiplicity
 _atom_site_fract_x
 _atom_site_fract_y
 _atom_site_fract_z
 _atom_site_occupancy
  Pr  Pr0  1  0.00000000  0.50000000  0.50000000  1
  Pr  Pr1  1  0.00000000  -0.00000000  0.00000000  1
  Pr  Pr2  1  0.50000000  0.17794768  0.67794768  1
  Pr  Pr3  1  0.50000000  0.82205232  0.32205232  1
  Pr  Pr4  1  0.50000000  0.32205232  0.17794768  1
  Pr  Pr5  1  0.50000000  0.67794768  0.82205232  1
  Pr  Pr6  1  0.50000000  0.38798082  0.88798082  1
  Pr  Pr7  1  0.50000000  0.61201918  0.11201918  1
  Pr  Pr8  1  0.50000000  0.11201918  0.38798082  1
  Pr  Pr9  1  0.50000000  0.88798082  0.61201918  1
  Sn  Sn10  1  -0.00000000  0.06935080  0.56935080  1
  Sn  Sn11  1  0.00000000  0.93064920  0.43064920  1
  Sn  Sn12  1  -0.00000000  0.43064920  0.06935080  1
  Sn  Sn13  1  0.00000000  0.56935080  0.93064920  1
  Sn  Sn14  1  0.00000000  0.69758745  0.65409794  1
  Sn  Sn15  1  -0.00000000  0.30241255  0.34590206  1
  Sn  Sn16  1  0.00000000  0.80241255  0.15409794  1
  Sn  Sn17  1  -0.00000000  0.19758745  0.84590206  1
  Sn  Sn18  1  -0.00000000  0.65409794  0.30241255  1
  Sn  Sn19  1  0.00000000  0.34590206  0.69758745  1
  Sn  Sn20  1  0.00000000  0.15409794  0.19758745  1
  Sn  Sn21  1  -0.00000000  0.84590206  0.80241255  1
  Sn  Sn22  1  0.50000000  0.50492744  0.66376139  1
  Sn  Sn23  1  0.50000000  0.49507256  0.33623861  1
  Sn  Sn24  1  0.50000000  0.99507256  0.16376139  1
  Sn  Sn25  1  0.50000000  0.00492744  0.83623861  1
  Sn  Sn26  1  0.50000000  0.66376139  0.49507256  1
  Sn  Sn27  1  0.50000000  0.33623861  0.50492744  1
  Sn  Sn28  1  0.50000000  0.16376139  0.00492744  1
  Sn  Sn29  1  0.50000000  0.83623861  0.99507256  1
  Rh  Rh30  1  -0.00000000  0.52763842  0.74624803  1
  Rh  Rh31  1  0.00000000  0.47236158  0.25375197  1
  Rh  Rh32  1  -0.00000000  0.97236158  0.24624803  1
  Rh  Rh33  1  0.00000000  0.02763842  0.75375197  1
  Rh  Rh34  1  0.00000000  0.74624803  0.47236158  1
  Rh  Rh35  1  -0.00000000  0.25375197  0.52763842  1
  Rh  Rh36  1  -0.00000000  0.24624803  0.02763842  1
  Rh  Rh37  1  0.00000000  0.75375197  0.97236158  1
