# generated using pymatgen
data_Na2MnH4(SeO5)2
_symmetry_space_group_name_H-M   'P 1'
_cell_length_a   5.79068876
_cell_length_b   6.02711594
_cell_length_c   13.70450480
_cell_angle_alpha   90.00000000
_cell_angle_beta   90.00000000
_cell_angle_gamma   105.82983221
_symmetry_Int_Tables_number   1
_chemical_formula_structural   Na2MnH4(SeO5)2
_chemical_formula_sum   'Na4 Mn2 H8 Se4 O20'
_cell_volume   460.16389425
_cell_formula_units_Z   2
loop_
 _symmetry_equiv_pos_site_id
 _symmetry_equiv_pos_as_xyz
  1  'x, y, z'
loop_
 _atom_site_type_symbol
 _atom_site_label
 _atom_site_symmetry_multiplicity
 _atom_site_fract_x
 _atom_site_fract_y
 _atom_site_fract_z
 _atom_site_occupancy
  Na  Na0  1  0.73783082  0.57343341  0.37694600  1
  Na  Na1  1  0.76216918  0.42656659  0.87694600  1
  Na  Na2  1  0.26216918  0.42656659  0.62305400  1
  Na  Na3  1  0.23783082  0.57343341  0.12305400  1
  Mn  Mn4  1  0.50000000  0.00000000  0.50000000  1
  Mn  Mn5  1  0.00000000  0.00000000  0.00000000  1
  H  H6  1  0.49603137  0.90576233  0.30126609  1
  H  H7  1  0.00396863  0.09423767  0.80126609  1
  H  H8  1  0.50396863  0.09423767  0.69873391  1
  H  H9  1  0.99603137  0.90576233  0.19873391  1
  H  H10  1  0.31010009  0.69499756  0.35088826  1
  H  H11  1  0.18989991  0.30500244  0.85088826  1
  H  H12  1  0.68989991  0.30500244  0.64911174  1
  H  H13  1  0.81010009  0.69499756  0.14911174  1
  Se  Se14  1  0.06656402  0.22420462  0.38153003  1
  Se  Se15  1  0.43343598  0.77579538  0.88153003  1
  Se  Se16  1  0.93343598  0.77579538  0.61846997  1
  Se  Se17  1  0.56656402  0.22420462  0.11846997  1
  O  O18  1  0.00433789  0.97291392  0.32321684  1
  O  O19  1  0.49566211  0.02708608  0.82321684  1
  O  O20  1  0.99566211  0.02708608  0.67678316  1
  O  O21  1  0.50433789  0.97291392  0.17678316  1
  O  O22  1  0.32291665  0.26718370  0.44689518  1
  O  O23  1  0.17708335  0.73281630  0.94689518  1
  O  O24  1  0.67708335  0.73281630  0.55310482  1
  O  O25  1  0.82291665  0.26718370  0.05310482  1
  O  O26  1  0.84207352  0.23432182  0.45889202  1
  O  O27  1  0.65792648  0.76567818  0.95889202  1
  O  O28  1  0.15792648  0.76567818  0.54110798  1
  O  O29  1  0.34207352  0.23432182  0.04110798  1
  O  O30  1  0.09130578  0.44906969  0.30659056  1
  O  O31  1  0.40869422  0.55093031  0.80659056  1
  O  O32  1  0.90869422  0.55093031  0.69340944  1
  O  O33  1  0.59130578  0.44906969  0.19340944  1
  O  O34  1  0.46633426  0.81272565  0.36217878  1
  O  O35  1  0.03366574  0.18727435  0.86217878  1
  O  O36  1  0.53366574  0.18727435  0.63782122  1
  O  O37  1  0.96633426  0.81272565  0.13782122  1
