# generated using pymatgen
data_Hf3(VGa2)2
_symmetry_space_group_name_H-M   'P 1'
_cell_length_a   5.38018334
_cell_length_b   13.64395770
_cell_length_c   16.76992842
_cell_angle_alpha   90.00000000
_cell_angle_beta   90.00000000
_cell_angle_gamma   90.00000000
_symmetry_Int_Tables_number   1
_chemical_formula_structural   Hf3(VGa2)2
_chemical_formula_sum   'Hf24 V16 Ga32'
_cell_volume   1231.03003338
_cell_formula_units_Z   8
loop_
 _symmetry_equiv_pos_site_id
 _symmetry_equiv_pos_as_xyz
  1  'x, y, z'
loop_
 _atom_site_type_symbol
 _atom_site_label
 _atom_site_symmetry_multiplicity
 _atom_site_fract_x
 _atom_site_fract_y
 _atom_site_fract_z
 _atom_site_occupancy
  Hf  Hf0  1  0.25000000  0.35405581  0.46378992  1
  Hf  Hf1  1  0.25000000  0.14594419  0.96378992  1
  Hf  Hf2  1  0.75000000  0.64594419  0.53621008  1
  Hf  Hf3  1  0.75000000  0.85405581  0.03621008  1
  Hf  Hf4  1  0.25000000  0.96870893  0.43434424  1
  Hf  Hf5  1  0.25000000  0.53129107  0.93434424  1
  Hf  Hf6  1  0.75000000  0.03129107  0.56565576  1
  Hf  Hf7  1  0.75000000  0.46870893  0.06565576  1
  Hf  Hf8  1  0.25000000  0.72968143  0.44288320  1
  Hf  Hf9  1  0.25000000  0.77031857  0.94288320  1
  Hf  Hf10  1  0.75000000  0.27031857  0.55711680  1
  Hf  Hf11  1  0.75000000  0.22968143  0.05711680  1
  Hf  Hf12  1  0.25000000  0.97350731  0.67332930  1
  Hf  Hf13  1  0.25000000  0.52649269  0.17332930  1
  Hf  Hf14  1  0.75000000  0.02649269  0.32667070  1
  Hf  Hf15  1  0.75000000  0.47350731  0.82667070  1
  Hf  Hf16  1  0.25000000  0.82069693  0.15162803  1
  Hf  Hf17  1  0.25000000  0.67930307  0.65162803  1
  Hf  Hf18  1  0.75000000  0.17930307  0.84837197  1
  Hf  Hf19  1  0.75000000  0.32069693  0.34837197  1
  Hf  Hf20  1  0.25000000  0.18655874  0.28684541  1
  Hf  Hf21  1  0.25000000  0.31344126  0.78684541  1
  Hf  Hf22  1  0.75000000  0.81344126  0.71315459  1
  Hf  Hf23  1  0.75000000  0.68655874  0.21315459  1
  V  V24  1  0.00934786  0.95994676  0.86937988  1
  V  V25  1  0.49065214  0.54005324  0.36937988  1
  V  V26  1  0.50934786  0.04005324  0.13062012  1
  V  V27  1  0.99065214  0.45994676  0.63062012  1
  V  V28  1  0.99065214  0.04005324  0.13062012  1
  V  V29  1  0.50934786  0.45994676  0.63062012  1
  V  V30  1  0.49065214  0.95994676  0.86937988  1
  V  V31  1  0.00934786  0.54005324  0.36937988  1
  V  V32  1  0.01514678  0.83777459  0.31438929  1
  V  V33  1  0.48485322  0.66222541  0.81438929  1
  V  V34  1  0.51514678  0.16222541  0.68561071  1
  V  V35  1  0.98485322  0.33777459  0.18561071  1
  V  V36  1  0.98485322  0.16222541  0.68561071  1
  V  V37  1  0.51514678  0.33777459  0.18561071  1
  V  V38  1  0.48485322  0.83777459  0.31438929  1
  V  V39  1  0.01514678  0.66222541  0.81438929  1
  Ga  Ga40  1  0.25000000  0.12313833  0.55831971  1
  Ga  Ga41  1  0.25000000  0.37686167  0.05831971  1
  Ga  Ga42  1  0.75000000  0.87686167  0.44168029  1
  Ga  Ga43  1  0.75000000  0.62313833  0.94168029  1
  Ga  Ga44  1  0.25000000  0.94970740  0.01626871  1
  Ga  Ga45  1  0.25000000  0.55029260  0.51626871  1
  Ga  Ga46  1  0.75000000  0.05029260  0.98373129  1
  Ga  Ga47  1  0.75000000  0.44970740  0.48373129  1
  Ga  Ga48  1  0.25000000  0.10920893  0.80594049  1
  Ga  Ga49  1  0.25000000  0.39079107  0.30594049  1
  Ga  Ga50  1  0.75000000  0.89079107  0.19405951  1
  Ga  Ga51  1  0.75000000  0.60920893  0.69405951  1
  Ga  Ga52  1  0.25000000  0.19915204  0.12073378  1
  Ga  Ga53  1  0.25000000  0.30084796  0.62073378  1
  Ga  Ga54  1  0.75000000  0.80084796  0.87926622  1
  Ga  Ga55  1  0.75000000  0.69915204  0.37926622  1
  Ga  Ga56  1  0.25000000  0.82413713  0.78108911  1
  Ga  Ga57  1  0.25000000  0.67586287  0.28108911  1
  Ga  Ga58  1  0.75000000  0.17586287  0.21891089  1
  Ga  Ga59  1  0.75000000  0.32413713  0.71891089  1
  Ga  Ga60  1  0.25000000  0.98818337  0.26094054  1
  Ga  Ga61  1  0.25000000  0.51181663  0.76094054  1
  Ga  Ga62  1  0.75000000  0.01181663  0.73905946  1
  Ga  Ga63  1  0.75000000  0.48818337  0.23905946  1
  Ga  Ga64  1  0.99303802  0.16044800  0.43108998  1
  Ga  Ga65  1  0.50696198  0.33955200  0.93108998  1
  Ga  Ga66  1  0.49303802  0.83955200  0.56891002  1
  Ga  Ga67  1  0.00696198  0.66044800  0.06891002  1
  Ga  Ga68  1  0.00696198  0.83955200  0.56891002  1
  Ga  Ga69  1  0.49303802  0.66044800  0.06891002  1
  Ga  Ga70  1  0.50696198  0.16044800  0.43108998  1
  Ga  Ga71  1  0.99303802  0.33955200  0.93108998  1
