# generated using pymatgen
data_Cs3As(PSe3)3
_symmetry_space_group_name_H-M   'P 1'
_cell_length_a   8.33011903
_cell_length_b   13.69555847
_cell_length_c   20.22363211
_cell_angle_alpha   101.63696323
_cell_angle_beta   90.00000000
_cell_angle_gamma   90.00000000
_symmetry_Int_Tables_number   1
_chemical_formula_structural   Cs3As(PSe3)3
_chemical_formula_sum   'Cs12 As4 P12 Se36'
_cell_volume   2259.80157674
_cell_formula_units_Z   4
loop_
 _symmetry_equiv_pos_site_id
 _symmetry_equiv_pos_as_xyz
  1  'x, y, z'
loop_
 _atom_site_type_symbol
 _atom_site_label
 _atom_site_symmetry_multiplicity
 _atom_site_fract_x
 _atom_site_fract_y
 _atom_site_fract_z
 _atom_site_occupancy
  Cs  Cs0  1  0.96800066  0.69801715  0.07953019  1
  Cs  Cs1  1  0.46800066  0.80198285  0.92046981  1
  Cs  Cs2  1  0.03199934  0.30198285  0.92046981  1
  Cs  Cs3  1  0.53199934  0.19801715  0.07953019  1
  Cs  Cs4  1  0.47279632  0.91705952  0.26260820  1
  Cs  Cs5  1  0.97279632  0.58294048  0.73739180  1
  Cs  Cs6  1  0.52720368  0.08294048  0.73739180  1
  Cs  Cs7  1  0.02720368  0.41705952  0.26260820  1
  Cs  Cs8  1  0.47785188  0.68848827  0.56670606  1
  Cs  Cs9  1  0.97785188  0.81151173  0.43329394  1
  Cs  Cs10  1  0.52214812  0.31151173  0.43329394  1
  Cs  Cs11  1  0.02214812  0.18848827  0.56670606  1
  As  As12  1  0.49979213  0.56075529  0.17668026  1
  As  As13  1  0.99979213  0.93924471  0.82331974  1
  As  As14  1  0.50020787  0.43924471  0.82331974  1
  As  As15  1  0.00020787  0.06075529  0.17668026  1
  P  P16  1  0.39120122  0.65359214  0.35796203  1
  P  P17  1  0.89120122  0.84640786  0.64203797  1
  P  P18  1  0.60879878  0.34640786  0.64203797  1
  P  P19  1  0.10879878  0.15359214  0.35796203  1
  P  P20  1  0.12245539  0.93167806  0.67572929  1
  P  P21  1  0.62245539  0.56832194  0.32427071  1
  P  P22  1  0.87754461  0.06832194  0.32427071  1
  P  P23  1  0.37754461  0.43167806  0.67572929  1
  P  P24  1  0.38826717  0.54425046  0.02013712  1
  P  P25  1  0.88826717  0.95574954  0.97986288  1
  P  P26  1  0.61173283  0.45574954  0.97986288  1
  P  P27  1  0.11173283  0.04425046  0.02013712  1
  Se  Se28  1  0.24600217  0.56323554  0.41040448  1
  Se  Se29  1  0.74600217  0.93676446  0.58959552  1
  Se  Se30  1  0.75399783  0.43676446  0.58959552  1
  Se  Se31  1  0.25399783  0.06323554  0.41040448  1
  Se  Se32  1  0.45688258  0.80097802  0.41077962  1
  Se  Se33  1  0.95688258  0.69902198  0.58922038  1
  Se  Se34  1  0.54311742  0.19902198  0.58922038  1
  Se  Se35  1  0.04311742  0.30097802  0.41077962  1
  Se  Se36  1  0.28504940  0.65565910  0.25175582  1
  Se  Se37  1  0.78504940  0.84434090  0.74824418  1
  Se  Se38  1  0.71495060  0.34434090  0.74824418  1
  Se  Se39  1  0.21495060  0.15565910  0.25175582  1
  Se  Se40  1  0.25909892  0.95439987  0.59068408  1
  Se  Se41  1  0.75909892  0.54560013  0.40931592  1
  Se  Se42  1  0.74090108  0.04560013  0.40931592  1
  Se  Se43  1  0.24090108  0.45439987  0.59068408  1
  Se  Se44  1  0.96814071  0.92951108  0.25366063  1
  Se  Se45  1  0.46814071  0.57048892  0.74633937  1
  Se  Se46  1  0.03185929  0.07048892  0.74633937  1
  Se  Se47  1  0.53185929  0.42951108  0.25366063  1
  Se  Se48  1  0.73740598  0.65736596  0.25562739  1
  Se  Se49  1  0.23740598  0.84263404  0.74437261  1
  Se  Se50  1  0.26259402  0.34263404  0.74437261  1
  Se  Se51  1  0.76259402  0.15736596  0.25562739  1
  Se  Se52  1  0.22080492  0.95550476  0.08993421  1
  Se  Se53  1  0.72080492  0.54449524  0.91006579  1
  Se  Se54  1  0.77919508  0.04449524  0.91006579  1
  Se  Se55  1  0.27919508  0.45550476  0.08993421  1
  Se  Se56  1  0.47535669  0.68769336  0.08014520  1
  Se  Se57  1  0.97535669  0.81230664  0.91985480  1
  Se  Se58  1  0.52464331  0.31230664  0.91985480  1
  Se  Se59  1  0.02464331  0.18769336  0.08014520  1
  Se  Se60  1  0.74050473  0.94415251  0.06630943  1
  Se  Se61  1  0.24050473  0.55584749  0.93369057  1
  Se  Se62  1  0.25949527  0.05584749  0.93369057  1
  Se  Se63  1  0.75949527  0.44415251  0.06630943  1
