# generated using pymatgen
data_Tm2Re3Si5
_symmetry_space_group_name_H-M   'P 1'
_cell_length_a   5.49456806
_cell_length_b   10.96561395
_cell_length_c   10.96561395
_cell_angle_alpha   90.00000000
_cell_angle_beta   90.00000000
_cell_angle_gamma   90.00000000
_symmetry_Int_Tables_number   1
_chemical_formula_structural   Tm2Re3Si5
_chemical_formula_sum   'Tm8 Re12 Si20'
_cell_volume   660.69262921
_cell_formula_units_Z   4
loop_
 _symmetry_equiv_pos_site_id
 _symmetry_equiv_pos_as_xyz
  1  'x, y, z'
loop_
 _atom_site_type_symbol
 _atom_site_label
 _atom_site_symmetry_multiplicity
 _atom_site_fract_x
 _atom_site_fract_y
 _atom_site_fract_z
 _atom_site_occupancy
  Tm  Tm0  1  0.50000000  0.73782891  0.57714205  1
  Tm  Tm1  1  0.50000000  0.26217109  0.42285795  1
  Tm  Tm2  1  0.00000000  0.76217109  0.07714205  1
  Tm  Tm3  1  -0.00000000  0.23782891  0.92285795  1
  Tm  Tm4  1  0.50000000  0.57714205  0.26217109  1
  Tm  Tm5  1  0.50000000  0.42285795  0.73782891  1
  Tm  Tm6  1  0.00000000  0.07714205  0.23782891  1
  Tm  Tm7  1  -0.00000000  0.92285795  0.76217109  1
  Re  Re8  1  0.50000000  0.85369956  0.87589808  1
  Re  Re9  1  0.50000000  0.14630044  0.12410192  1
  Re  Re10  1  -0.00000000  0.64630044  0.37589808  1
  Re  Re11  1  0.00000000  0.35369956  0.62410192  1
  Re  Re12  1  0.50000000  0.87589808  0.14630044  1
  Re  Re13  1  0.50000000  0.12410192  0.85369956  1
  Re  Re14  1  0.00000000  0.37589808  0.35369956  1
  Re  Re15  1  -0.00000000  0.62410192  0.64630044  1
  Re  Re16  1  0.25000000  0.00000000  0.50000000  1
  Re  Re17  1  0.75000000  0.50000000  -0.00000000  1
  Re  Re18  1  0.25000000  0.50000000  -0.00000000  1
  Re  Re19  1  0.75000000  0.00000000  0.50000000  1
  Si  Si20  1  0.25000000  0.17340414  0.67340414  1
  Si  Si21  1  0.25000000  0.82659586  0.32659586  1
  Si  Si22  1  0.75000000  0.32659586  0.17340414  1
  Si  Si23  1  0.75000000  0.67340414  0.82659586  1
  Si  Si24  1  0.25000000  0.67340414  0.82659586  1
  Si  Si25  1  0.25000000  0.32659586  0.17340414  1
  Si  Si26  1  0.75000000  0.17340414  0.67340414  1
  Si  Si27  1  0.75000000  0.82659586  0.32659586  1
  Si  Si28  1  0.26035172  0.50000000  0.50000000  1
  Si  Si29  1  0.76035172  0.00000000  -0.00000000  1
  Si  Si30  1  0.73964828  0.50000000  0.50000000  1
  Si  Si31  1  0.23964828  0.00000000  -0.00000000  1
  Si  Si32  1  0.50000000  0.97187710  0.68592622  1
  Si  Si33  1  0.50000000  0.02812290  0.31407378  1
  Si  Si34  1  -0.00000000  0.52812290  0.18592622  1
  Si  Si35  1  0.00000000  0.47187710  0.81407378  1
  Si  Si36  1  0.50000000  0.68592622  0.02812290  1
  Si  Si37  1  0.50000000  0.31407378  0.97187710  1
  Si  Si38  1  0.00000000  0.18592622  0.47187710  1
  Si  Si39  1  -0.00000000  0.81407378  0.52812290  1
