# generated using pymatgen
data_KIn3
_symmetry_space_group_name_H-M   'P 1'
_cell_length_a   5.54069339
_cell_length_b   5.54069339
_cell_length_c   5.54069339
_cell_angle_alpha   120.30551132
_cell_angle_beta   120.30551132
_cell_angle_gamma   89.47164840
_symmetry_Int_Tables_number   1
_chemical_formula_structural   KIn3
_chemical_formula_sum   'K1 In3'
_cell_volume   119.71462531
_cell_formula_units_Z   1
loop_
 _symmetry_equiv_pos_site_id
 _symmetry_equiv_pos_as_xyz
  1  'x, y, z'
loop_
 _atom_site_type_symbol
 _atom_site_label
 _atom_site_symmetry_multiplicity
 _atom_site_fract_x
 _atom_site_fract_y
 _atom_site_fract_z
 _atom_site_occupancy
  K  K0  1  0.00000000  0.00000000  0.00000000  1
  In  In1  1  0.75000000  0.24999900  0.50000000  1
  In  In2  1  0.24999900  0.75000000  0.50000000  1
  In  In3  1  0.50000000  0.50000000  0.00000000  1
