# generated using pymatgen
data_Dy3Si11Pt23
_symmetry_space_group_name_H-M   'P 1'
_cell_length_a   12.02021669
_cell_length_b   12.02021669
_cell_length_c   12.02021669
_cell_angle_alpha   60.00000000
_cell_angle_beta   60.00000000
_cell_angle_gamma   60.00000000
_symmetry_Int_Tables_number   1
_chemical_formula_structural   Dy3Si11Pt23
_chemical_formula_sum   'Dy6 Si22 Pt46'
_cell_volume   1228.06652159
_cell_formula_units_Z   2
loop_
 _symmetry_equiv_pos_site_id
 _symmetry_equiv_pos_as_xyz
  1  'x, y, z'
loop_
 _atom_site_type_symbol
 _atom_site_label
 _atom_site_symmetry_multiplicity
 _atom_site_fract_x
 _atom_site_fract_y
 _atom_site_fract_z
 _atom_site_occupancy
  Dy  Dy0  1  0.50000000  -0.00000000  0.00000000  1
  Dy  Dy1  1  0.50000000  -0.00000000  0.50000000  1
  Dy  Dy2  1  0.50000000  0.50000000  0.00000000  1
  Dy  Dy3  1  -0.00000000  0.50000000  0.50000000  1
  Dy  Dy4  1  -0.00000000  0.50000000  0.00000000  1
  Dy  Dy5  1  -0.00000000  -0.00000000  0.50000000  1
  Si  Si6  1  0.82883300  0.17116700  0.17116700  1
  Si  Si7  1  0.82883300  0.17116700  0.82883300  1
  Si  Si8  1  0.82883300  0.82883300  0.17116700  1
  Si  Si9  1  0.17116700  0.82883300  0.82883300  1
  Si  Si10  1  0.17116700  0.82883300  0.17116700  1
  Si  Si11  1  0.17116700  0.17116700  0.82883300  1
  Si  Si12  1  0.50447951  0.16517350  0.16517350  1
  Si  Si13  1  0.16517350  0.50447951  0.16517350  1
  Si  Si14  1  0.16517350  0.16517350  0.50447951  1
  Si  Si15  1  0.16517350  0.16517350  0.16517350  1
  Si  Si16  1  0.49552049  0.83482650  0.83482650  1
  Si  Si17  1  0.83482650  0.49552049  0.83482650  1
  Si  Si18  1  0.83482650  0.83482650  0.49552049  1
  Si  Si19  1  0.83482650  0.83482650  0.83482650  1
  Si  Si20  1  0.81941896  0.39352701  0.39352701  1
  Si  Si21  1  0.39352701  0.81941896  0.39352701  1
  Si  Si22  1  0.39352701  0.39352701  0.81941896  1
  Si  Si23  1  0.39352701  0.39352701  0.39352701  1
  Si  Si24  1  0.18058104  0.60647299  0.60647299  1
  Si  Si25  1  0.60647299  0.18058104  0.60647299  1
  Si  Si26  1  0.60647299  0.60647299  0.18058104  1
  Si  Si27  1  0.60647299  0.60647299  0.60647299  1
  Pt  Pt28  1  0.75177025  0.08274325  0.08274325  1
  Pt  Pt29  1  0.08274325  0.75177025  0.08274325  1
  Pt  Pt30  1  0.08274325  0.08274325  0.75177025  1
  Pt  Pt31  1  0.08274325  0.08274325  0.08274325  1
  Pt  Pt32  1  0.24822975  0.91725675  0.91725675  1
  Pt  Pt33  1  0.91725675  0.24822975  0.91725675  1
  Pt  Pt34  1  0.91725675  0.91725675  0.24822975  1
  Pt  Pt35  1  0.91725675  0.91725675  0.91725675  1
  Pt  Pt36  1  0.07546421  0.30817860  0.30817860  1
  Pt  Pt37  1  0.30817860  0.07546421  0.30817860  1
  Pt  Pt38  1  0.30817860  0.30817860  0.07546421  1
  Pt  Pt39  1  0.30817860  0.30817860  0.30817860  1
  Pt  Pt40  1  0.92453579  0.69182140  0.69182140  1
  Pt  Pt41  1  0.69182140  0.92453579  0.69182140  1
  Pt  Pt42  1  0.69182140  0.69182140  0.92453579  1
  Pt  Pt43  1  0.69182140  0.69182140  0.69182140  1
  Pt  Pt44  1  0.62548661  0.37451339  0.37451339  1
  Pt  Pt45  1  0.62548661  0.37451339  0.62548661  1
  Pt  Pt46  1  0.62548661  0.62548661  0.37451339  1
  Pt  Pt47  1  0.37451339  0.62548661  0.62548661  1
  Pt  Pt48  1  0.37451339  0.62548661  0.37451339  1
  Pt  Pt49  1  0.37451339  0.37451339  0.62548661  1
  Pt  Pt50  1  0.57841753  0.91726548  0.25215850  1
  Pt  Pt51  1  0.57841753  0.25215850  0.25215850  1
  Pt  Pt52  1  0.57841753  0.25215850  0.91726548  1
  Pt  Pt53  1  0.91726548  0.57841753  0.25215850  1
  Pt  Pt54  1  0.25215850  0.57841753  0.91726548  1
  Pt  Pt55  1  0.25215850  0.57841753  0.25215850  1
  Pt  Pt56  1  0.25215850  0.25215850  0.57841753  1
  Pt  Pt57  1  0.25215850  0.91726548  0.57841753  1
  Pt  Pt58  1  0.91726548  0.25215850  0.57841753  1
  Pt  Pt59  1  0.25215850  0.25215850  0.91726548  1
  Pt  Pt60  1  0.91726548  0.25215850  0.25215850  1
  Pt  Pt61  1  0.25215850  0.91726548  0.25215850  1
  Pt  Pt62  1  0.42158247  0.08273452  0.74784150  1
  Pt  Pt63  1  0.42158247  0.74784150  0.74784150  1
  Pt  Pt64  1  0.42158247  0.74784150  0.08273452  1
  Pt  Pt65  1  0.08273452  0.42158247  0.74784150  1
  Pt  Pt66  1  0.74784150  0.42158247  0.08273452  1
  Pt  Pt67  1  0.74784150  0.42158247  0.74784150  1
  Pt  Pt68  1  0.74784150  0.74784150  0.42158247  1
  Pt  Pt69  1  0.74784150  0.08273452  0.42158247  1
  Pt  Pt70  1  0.08273452  0.74784150  0.42158247  1
  Pt  Pt71  1  0.74784150  0.74784150  0.08273452  1
  Pt  Pt72  1  0.08273452  0.74784150  0.74784150  1
  Pt  Pt73  1  0.74784150  0.08273452  0.74784150  1
