# generated using pymatgen
data_KTa3(TeO6)2
_symmetry_space_group_name_H-M   'P 1'
_cell_length_a   3.98561102
_cell_length_b   15.17885826
_cell_length_c   17.65517173
_cell_angle_alpha   90.00000000
_cell_angle_beta   90.00000000
_cell_angle_gamma   90.00000000
_symmetry_Int_Tables_number   1
_chemical_formula_structural   KTa3(TeO6)2
_chemical_formula_sum   'K4 Ta12 Te8 O48'
_cell_volume   1068.08536115
_cell_formula_units_Z   4
loop_
 _symmetry_equiv_pos_site_id
 _symmetry_equiv_pos_as_xyz
  1  'x, y, z'
loop_
 _atom_site_type_symbol
 _atom_site_label
 _atom_site_symmetry_multiplicity
 _atom_site_fract_x
 _atom_site_fract_y
 _atom_site_fract_z
 _atom_site_occupancy
  K  K0  1  0.22152995  0.07095332  0.75000000  1
  K  K1  1  0.77847005  0.92904668  0.25000000  1
  K  K2  1  0.22152995  0.42904668  0.25000000  1
  K  K3  1  0.77847005  0.57095332  0.75000000  1
  Ta  Ta4  1  0.25240982  0.79373559  0.75000000  1
  Ta  Ta5  1  0.74759018  0.20626441  0.25000000  1
  Ta  Ta6  1  0.25240982  0.70626441  0.25000000  1
  Ta  Ta7  1  0.74759018  0.29373559  0.75000000  1
  Ta  Ta8  1  0.75099756  0.14990688  0.56949468  1
  Ta  Ta9  1  0.24900244  0.85009312  0.06949468  1
  Ta  Ta10  1  0.75099756  0.35009312  0.43050532  1
  Ta  Ta11  1  0.24900244  0.64990688  0.93050532  1
  Ta  Ta12  1  0.24900244  0.85009312  0.43050532  1
  Ta  Ta13  1  0.75099756  0.14990688  0.93050532  1
  Ta  Ta14  1  0.24900244  0.64990688  0.56949468  1
  Ta  Ta15  1  0.75099756  0.35009312  0.06949468  1
  Te  Te16  1  0.62008416  0.91419291  0.59759667  1
  Te  Te17  1  0.37991584  0.08580709  0.09759667  1
  Te  Te18  1  0.62008416  0.58580709  0.40240333  1
  Te  Te19  1  0.37991584  0.41419291  0.90240333  1
  Te  Te20  1  0.37991584  0.08580709  0.40240333  1
  Te  Te21  1  0.62008416  0.91419291  0.90240333  1
  Te  Te22  1  0.37991584  0.41419291  0.59759667  1
  Te  Te23  1  0.62008416  0.58580709  0.09759667  1
  O  O24  1  0.27996918  0.93319216  0.52325424  1
  O  O25  1  0.72003082  0.06680784  0.02325424  1
  O  O26  1  0.27996918  0.56680784  0.47674576  1
  O  O27  1  0.72003082  0.43319216  0.97674576  1
  O  O28  1  0.72003082  0.06680784  0.47674576  1
  O  O29  1  0.27996918  0.93319216  0.97674576  1
  O  O30  1  0.72003082  0.43319216  0.52325424  1
  O  O31  1  0.27996918  0.56680784  0.02325424  1
  O  O32  1  0.70296329  0.03151000  0.62966652  1
  O  O33  1  0.29703671  0.96849000  0.12966652  1
  O  O34  1  0.70296329  0.46849000  0.37033348  1
  O  O35  1  0.29703671  0.53151000  0.87033348  1
  O  O36  1  0.29703671  0.96849000  0.37033348  1
  O  O37  1  0.70296329  0.03151000  0.87033348  1
  O  O38  1  0.29703671  0.53151000  0.62966652  1
  O  O39  1  0.70296329  0.46849000  0.12966652  1
  O  O40  1  0.28596792  0.89637890  0.67367754  1
  O  O41  1  0.71403208  0.10362110  0.17367754  1
  O  O42  1  0.28596792  0.60362110  0.32632246  1
  O  O43  1  0.71403208  0.39637890  0.82632246  1
  O  O44  1  0.71403208  0.10362110  0.32632246  1
  O  O45  1  0.28596792  0.89637890  0.82632246  1
  O  O46  1  0.71403208  0.39637890  0.67367754  1
  O  O47  1  0.28596792  0.60362110  0.17367754  1
  O  O48  1  0.28733073  0.70752341  0.66821682  1
  O  O49  1  0.71266927  0.29247659  0.16821682  1
  O  O50  1  0.28733073  0.79247659  0.33178318  1
  O  O51  1  0.71266927  0.20752341  0.83178318  1
  O  O52  1  0.71266927  0.29247659  0.33178318  1
  O  O53  1  0.28733073  0.70752341  0.83178318  1
  O  O54  1  0.71266927  0.20752341  0.66821682  1
  O  O55  1  0.28733073  0.79247659  0.16821682  1
  O  O56  1  0.78282657  0.80239172  0.75000000  1
  O  O57  1  0.21717343  0.19760828  0.25000000  1
  O  O58  1  0.78282657  0.69760828  0.25000000  1
  O  O59  1  0.21717343  0.30239172  0.75000000  1
  O  O60  1  0.70903816  0.25000000  0.50000000  1
  O  O61  1  0.29096184  0.75000000  0.00000000  1
  O  O62  1  0.29096184  0.75000000  0.50000000  1
  O  O63  1  0.70903816  0.25000000  0.00000000  1
  O  O64  1  0.21848360  0.14470577  0.56741602  1
  O  O65  1  0.78151640  0.85529423  0.06741602  1
  O  O66  1  0.21848360  0.35529423  0.43258398  1
  O  O67  1  0.78151640  0.64470577  0.93258398  1
  O  O68  1  0.78151640  0.85529423  0.43258398  1
  O  O69  1  0.21848360  0.14470577  0.93258398  1
  O  O70  1  0.78151640  0.64470577  0.56741602  1
  O  O71  1  0.21848360  0.35529423  0.06741602  1
