# generated using pymatgen
data_Cs2BiPWO8
_symmetry_space_group_name_H-M   'P 1'
_cell_length_a   7.24676165
_cell_length_b   12.86201116
_cell_length_c   13.18829106
_cell_angle_alpha   119.18492309
_cell_angle_beta   105.94665600
_cell_angle_gamma   90.00000000
_symmetry_Int_Tables_number   1
_chemical_formula_structural   Cs2BiPWO8
_chemical_formula_sum   'Cs8 Bi4 P4 W4 O32'
_cell_volume   1018.67481833
_cell_formula_units_Z   4
loop_
 _symmetry_equiv_pos_site_id
 _symmetry_equiv_pos_as_xyz
  1  'x, y, z'
loop_
 _atom_site_type_symbol
 _atom_site_label
 _atom_site_symmetry_multiplicity
 _atom_site_fract_x
 _atom_site_fract_y
 _atom_site_fract_z
 _atom_site_occupancy
  Cs  Cs0  1  0.12758497  0.57394854  0.81700182  1
  Cs  Cs1  1  0.18941685  0.24305328  0.81700182  1
  Cs  Cs2  1  0.37241503  0.25694672  0.18299818  1
  Cs  Cs3  1  0.31058315  0.92605146  0.18299818  1
  Cs  Cs4  1  0.87241503  0.42605146  0.18299818  1
  Cs  Cs5  1  0.81058315  0.75694672  0.18299818  1
  Cs  Cs6  1  0.62758497  0.74305328  0.81700182  1
  Cs  Cs7  1  0.68941685  0.07394854  0.81700182  1
  Bi  Bi8  1  0.75000000  0.66116556  0.50000000  1
  Bi  Bi9  1  0.25000000  0.83883444  0.50000000  1
  Bi  Bi10  1  0.25000000  0.33883444  0.50000000  1
  Bi  Bi11  1  0.75000000  0.16116556  0.50000000  1
  P  P12  1  0.75000000  0.42664417  0.50000000  1
  P  P13  1  0.25000000  0.07335583  0.50000000  1
  P  P14  1  0.25000000  0.57335583  0.50000000  1
  P  P15  1  0.75000000  0.92664417  0.50000000  1
  W  W16  1  0.15600385  0.90600385  0.81200769  1
  W  W17  1  0.34399615  0.59399615  0.18799231  1
  W  W18  1  0.84399615  0.09399615  0.18799231  1
  W  W19  1  0.65600385  0.40600385  0.81200769  1
  O  O20  1  0.92729583  0.36040345  0.51601558  1
  O  O21  1  0.08871975  0.15561213  0.51601558  1
  O  O22  1  0.57270417  0.34438787  0.48398442  1
  O  O23  1  0.41128025  0.13959655  0.48398442  1
  O  O24  1  0.07270417  0.63959655  0.48398442  1
  O  O25  1  0.91128025  0.84438787  0.48398442  1
  O  O26  1  0.42729583  0.65561213  0.51601558  1
  O  O27  1  0.58871975  0.86040345  0.51601558  1
  O  O28  1  0.71468128  0.44521976  0.38814741  1
  O  O29  1  0.17346613  0.94292765  0.38814741  1
  O  O30  1  0.78531872  0.55707235  0.61185259  1
  O  O31  1  0.32653387  0.05478024  0.61185259  1
  O  O32  1  0.28531872  0.55478024  0.61185259  1
  O  O33  1  0.82653387  0.05707235  0.61185259  1
  O  O34  1  0.21468128  0.44292765  0.38814741  1
  O  O35  1  0.67346613  0.94521976  0.38814741  1
  O  O36  1  0.90977226  0.82261186  0.71752331  1
  O  O37  1  0.30775105  0.89491145  0.71752331  1
  O  O38  1  0.59022774  0.60508855  0.28247669  1
  O  O39  1  0.19224895  0.67738814  0.28247669  1
  O  O40  1  0.09022774  0.17738814  0.28247669  1
  O  O41  1  0.69224895  0.10508855  0.28247669  1
  O  O42  1  0.40977226  0.39491145  0.71752331  1
  O  O43  1  0.80775105  0.32261186  0.71752331  1
  O  O44  1  0.13973427  0.06291106  0.90713911  1
  O  O45  1  0.26740484  0.84422805  0.90713911  1
  O  O46  1  0.36026573  0.65577195  0.09286089  1
  O  O47  1  0.23259516  0.43708894  0.09286089  1
  O  O48  1  0.86026573  0.93708894  0.09286089  1
  O  O49  1  0.73259516  0.15577195  0.09286089  1
  O  O50  1  0.63973427  0.34422805  0.90713911  1
  O  O51  1  0.76740484  0.56291106  0.90713911  1
