# generated using pymatgen
data_Tl4Si5O12
_symmetry_space_group_name_H-M   'P 1'
_cell_length_a   7.53613852
_cell_length_b   7.53613852
_cell_length_c   13.32759527
_cell_angle_alpha   92.83461508
_cell_angle_beta   92.83461508
_cell_angle_gamma   103.07284781
_symmetry_Int_Tables_number   1
_chemical_formula_structural   Tl4Si5O12
_chemical_formula_sum   'Tl8 Si10 O24'
_cell_volume   734.96843025
_cell_formula_units_Z   2
loop_
 _symmetry_equiv_pos_site_id
 _symmetry_equiv_pos_as_xyz
  1  'x, y, z'
loop_
 _atom_site_type_symbol
 _atom_site_label
 _atom_site_symmetry_multiplicity
 _atom_site_fract_x
 _atom_site_fract_y
 _atom_site_fract_z
 _atom_site_occupancy
  Tl  Tl0  1  0.07539366  0.13344358  0.87721266  1
  Tl  Tl1  1  0.86655642  0.92460634  0.62278734  1
  Tl  Tl2  1  0.92460634  0.86655642  0.12278734  1
  Tl  Tl3  1  0.13344358  0.07539366  0.37721266  1
  Tl  Tl4  1  0.03389747  0.62920018  0.86789508  1
  Tl  Tl5  1  0.37079982  0.96610253  0.63210492  1
  Tl  Tl6  1  0.96610253  0.37079982  0.13210492  1
  Tl  Tl7  1  0.62920018  0.03389747  0.36789508  1
  Si  Si8  1  0.63763115  0.24603182  0.91785948  1
  Si  Si9  1  0.75396818  0.36236885  0.58214052  1
  Si  Si10  1  0.36236885  0.75396818  0.08214052  1
  Si  Si11  1  0.24603182  0.63763115  0.41785948  1
  Si  Si12  1  0.38187387  0.16694436  0.10202135  1
  Si  Si13  1  0.83305564  0.61812613  0.39797865  1
  Si  Si14  1  0.61812613  0.83305564  0.89797865  1
  Si  Si15  1  0.16694436  0.38187387  0.60202135  1
  Si  Si16  1  0.51051623  0.48948377  0.75000000  1
  Si  Si17  1  0.48948377  0.51051623  0.25000000  1
  O  O18  1  0.53435755  0.35938603  0.84074684  1
  O  O19  1  0.64061397  0.46564245  0.65925316  1
  O  O20  1  0.46564245  0.64061397  0.15925316  1
  O  O21  1  0.35938603  0.53435755  0.34074684  1
  O  O22  1  0.56436883  0.70267893  0.79201066  1
  O  O23  1  0.29732107  0.43563117  0.70798934  1
  O  O24  1  0.43563117  0.29732107  0.20798934  1
  O  O25  1  0.70267893  0.56436883  0.29201066  1
  O  O26  1  0.85360192  0.33111867  0.93613843  1
  O  O27  1  0.66888133  0.14639808  0.56386157  1
  O  O28  1  0.14639808  0.66888133  0.06386157  1
  O  O29  1  0.33111867  0.85360192  0.43613843  1
  O  O30  1  0.53834420  0.24786887  0.02464551  1
  O  O31  1  0.75213113  0.46165580  0.47535449  1
  O  O32  1  0.46165580  0.75213113  0.97535449  1
  O  O33  1  0.24786887  0.53834420  0.52464551  1
  O  O34  1  0.59055196  0.03498349  0.86747057  1
  O  O35  1  0.96501651  0.40944804  0.63252943  1
  O  O36  1  0.40944804  0.96501651  0.13252943  1
  O  O37  1  0.03498349  0.59055196  0.36747057  1
  O  O38  1  0.17646433  0.15819515  0.05940179  1
  O  O39  1  0.84180485  0.82353567  0.44059821  1
  O  O40  1  0.82353567  0.84180485  0.94059821  1
  O  O41  1  0.15819515  0.17646433  0.55940179  1
