# generated using pymatgen
data_Y5P12Ru19
_symmetry_space_group_name_H-M   'P 1'
_cell_length_a   3.97234363
_cell_length_b   12.54954129
_cell_length_c   12.55046087
_cell_angle_alpha   119.99757251
_cell_angle_beta   90.00000000
_cell_angle_gamma   90.00000000
_symmetry_Int_Tables_number   1
_chemical_formula_structural   Y5P12Ru19
_chemical_formula_sum   'Y5 P12 Ru19'
_cell_volume   541.84564937
_cell_formula_units_Z   1
loop_
 _symmetry_equiv_pos_site_id
 _symmetry_equiv_pos_as_xyz
  1  'x, y, z'
loop_
 _atom_site_type_symbol
 _atom_site_label
 _atom_site_symmetry_multiplicity
 _atom_site_fract_x
 _atom_site_fract_y
 _atom_site_fract_z
 _atom_site_occupancy
  Y  Y0  1  0.50000000  0.00000702  0.18454453  1
  Y  Y1  1  0.50000000  0.18453878  0.00000000  1
  Y  Y2  1  0.50000000  0.81546249  0.81545547  1
  Y  Y3  1  -0.00000000  0.33330651  0.66668110  1
  Y  Y4  1  -0.00000000  0.66662541  0.33331890  1
  P  P5  1  -0.00000000  0.99998845  0.81600266  1
  P  P6  1  -0.00000000  0.81602176  0.00000000  1
  P  P7  1  -0.00000000  0.18398579  0.18399734  1
  P  P8  1  0.50000000  0.30749571  0.47763776  1
  P  P9  1  0.50000000  0.17013201  0.69249817  1
  P  P10  1  0.50000000  0.52235312  0.82985293  1
  P  P11  1  0.50000000  0.82985795  0.52236224  1
  P  P12  1  0.50000000  0.47763384  0.30750183  1
  P  P13  1  0.50000000  0.69250019  0.17014707  1
  P  P14  1  -0.00000000  0.00000311  0.37265288  1
  P  P15  1  -0.00000000  0.37266262  1.00000000  1
  P  P16  1  -0.00000000  0.62735023  0.62734712  1
  Ru  Ru17  1  -0.00000000  0.99999477  0.55453768  1
  Ru  Ru18  1  -0.00000000  0.55454896  0.00000000  1
  Ru  Ru19  1  -0.00000000  0.44545709  0.44546232  1
  Ru  Ru20  1  0.50000000  0.99999899  0.71703781  1
  Ru  Ru21  1  0.50000000  0.71701867  0.00000000  1
  Ru  Ru22  1  0.50000000  0.28296117  0.28296219  1
  Ru  Ru23  1  0.00000000  0.19262761  0.37703864  1
  Ru  Ru24  1  0.00000000  0.18441862  0.80736957  1
  Ru  Ru25  1  -0.00000000  0.62295767  0.81560090  1
  Ru  Ru26  1  -0.00000000  0.81558897  0.62296136  1
  Ru  Ru27  1  0.00000000  0.37704905  0.19263043  1
  Ru  Ru28  1  -0.00000000  0.80735677  0.18439910  1
  Ru  Ru29  1  0.50000000  0.12605688  0.49120141  1
  Ru  Ru30  1  0.50000000  0.36513624  0.87396555  1
  Ru  Ru31  1  0.50000000  0.50881433  0.63487349  1
  Ru  Ru32  1  0.50000000  0.63485547  0.50879859  1
  Ru  Ru33  1  0.50000000  0.49117069  0.12603445  1
  Ru  Ru34  1  0.50000000  0.87394084  0.36512651  1
  Ru  Ru35  1  -0.00000000  0.00002222  1.00000000  1
