# generated using pymatgen
data_Li7CuSi2
_symmetry_space_group_name_H-M   'P 1'
_cell_length_a   4.39138737
_cell_length_b   7.90307898
_cell_length_c   17.15721900
_cell_angle_alpha   90.00000000
_cell_angle_beta   90.00000000
_cell_angle_gamma   90.00000000
_symmetry_Int_Tables_number   1
_chemical_formula_structural   Li7CuSi2
_chemical_formula_sum   'Li28 Cu4 Si8'
_cell_volume   595.44954174
_cell_formula_units_Z   4
loop_
 _symmetry_equiv_pos_site_id
 _symmetry_equiv_pos_as_xyz
  1  'x, y, z'
loop_
 _atom_site_type_symbol
 _atom_site_label
 _atom_site_symmetry_multiplicity
 _atom_site_fract_x
 _atom_site_fract_y
 _atom_site_fract_z
 _atom_site_occupancy
  Li  Li0  1  0.75000000  0.46965378  0.68202349  1
  Li  Li1  1  0.75000000  0.96965378  0.81797651  1
  Li  Li2  1  0.25000000  0.53034622  0.31797651  1
  Li  Li3  1  0.25000000  0.03034622  0.18202349  1
  Li  Li4  1  0.75000000  0.44650687  0.53313545  1
  Li  Li5  1  0.75000000  0.94650687  0.96686455  1
  Li  Li6  1  0.25000000  0.55349313  0.46686455  1
  Li  Li7  1  0.25000000  0.05349313  0.03313545  1
  Li  Li8  1  0.75000000  0.19079659  0.24315892  1
  Li  Li9  1  0.75000000  0.69079659  0.25684108  1
  Li  Li10  1  0.25000000  0.80920341  0.75684108  1
  Li  Li11  1  0.25000000  0.30920341  0.74315892  1
  Li  Li12  1  0.75000000  0.14482655  0.68935836  1
  Li  Li13  1  0.75000000  0.64482655  0.81064164  1
  Li  Li14  1  0.25000000  0.85517345  0.31064164  1
  Li  Li15  1  0.25000000  0.35517345  0.18935836  1
  Li  Li16  1  0.75000000  0.11060105  0.54319753  1
  Li  Li17  1  0.75000000  0.61060105  0.95680247  1
  Li  Li18  1  0.25000000  0.88939895  0.45680247  1
  Li  Li19  1  0.25000000  0.38939895  0.04319753  1
  Li  Li20  1  0.75000000  0.02378061  0.37868180  1
  Li  Li21  1  0.75000000  0.52378061  0.12131820  1
  Li  Li22  1  0.25000000  0.97621939  0.62131820  1
  Li  Li23  1  0.25000000  0.47621939  0.87868180  1
  Li  Li24  1  0.75000000  0.86202320  0.12040460  1
  Li  Li25  1  0.75000000  0.36202320  0.37959540  1
  Li  Li26  1  0.25000000  0.13797680  0.87959540  1
  Li  Li27  1  0.25000000  0.63797680  0.62040460  1
  Cu  Cu28  1  0.75000000  0.27489926  0.96227707  1
  Cu  Cu29  1  0.75000000  0.77489926  0.53772293  1
  Cu  Cu30  1  0.25000000  0.72510074  0.03772293  1
  Cu  Cu31  1  0.25000000  0.22510074  0.46227707  1
  Si  Si32  1  0.75000000  0.31212620  0.82881781  1
  Si  Si33  1  0.75000000  0.81212620  0.67118219  1
  Si  Si34  1  0.25000000  0.68787380  0.17118219  1
  Si  Si35  1  0.25000000  0.18787380  0.32881781  1
  Si  Si36  1  0.75000000  0.19705536  0.09312120  1
  Si  Si37  1  0.75000000  0.69705536  0.40687880  1
  Si  Si38  1  0.25000000  0.80294464  0.90687880  1
  Si  Si39  1  0.25000000  0.30294464  0.59312120  1
