# generated using pymatgen
data_Tb4Te3N2
_symmetry_space_group_name_H-M   'P 1'
_cell_length_a   7.35487617
_cell_length_b   11.08079504
_cell_length_c   11.73480576
_cell_angle_alpha   90.00000000
_cell_angle_beta   90.00000000
_cell_angle_gamma   90.00000000
_symmetry_Int_Tables_number   1
_chemical_formula_structural   Tb4Te3N2
_chemical_formula_sum   'Tb16 Te12 N8'
_cell_volume   956.36173749
_cell_formula_units_Z   4
loop_
 _symmetry_equiv_pos_site_id
 _symmetry_equiv_pos_as_xyz
  1  'x, y, z'
loop_
 _atom_site_type_symbol
 _atom_site_label
 _atom_site_symmetry_multiplicity
 _atom_site_fract_x
 _atom_site_fract_y
 _atom_site_fract_z
 _atom_site_occupancy
  Tb  Tb0  1  0.33718563  0.11800816  0.84694767  1
  Tb  Tb1  1  0.16281437  0.11800816  0.15305233  1
  Tb  Tb2  1  0.33718563  0.38199184  0.65305233  1
  Tb  Tb3  1  0.16281437  0.38199184  0.34694767  1
  Tb  Tb4  1  0.66281437  0.88199184  0.15305233  1
  Tb  Tb5  1  0.83718563  0.88199184  0.84694767  1
  Tb  Tb6  1  0.66281437  0.61800816  0.34694767  1
  Tb  Tb7  1  0.83718563  0.61800816  0.65305233  1
  Tb  Tb8  1  0.02477520  0.17720885  0.59160746  1
  Tb  Tb9  1  0.47522480  0.17720885  0.40839254  1
  Tb  Tb10  1  0.02477520  0.32279115  0.90839254  1
  Tb  Tb11  1  0.47522480  0.32279115  0.09160746  1
  Tb  Tb12  1  0.97522480  0.82279115  0.40839254  1
  Tb  Tb13  1  0.52477520  0.82279115  0.59160746  1
  Tb  Tb14  1  0.97522480  0.67720885  0.09160746  1
  Tb  Tb15  1  0.52477520  0.67720885  0.90839254  1
  Te  Te16  1  0.25000000  0.60901213  0.50000000  1
  Te  Te17  1  0.25000000  0.89098787  0.00000000  1
  Te  Te18  1  0.75000000  0.39098787  0.50000000  1
  Te  Te19  1  0.75000000  0.10901213  0.00000000  1
  Te  Te20  1  0.13067415  0.91763272  0.66116855  1
  Te  Te21  1  0.36932585  0.91763272  0.33883145  1
  Te  Te22  1  0.13067415  0.58236728  0.83883145  1
  Te  Te23  1  0.36932585  0.58236728  0.16116855  1
  Te  Te24  1  0.86932585  0.08236728  0.33883145  1
  Te  Te25  1  0.63067415  0.08236728  0.66116855  1
  Te  Te26  1  0.86932585  0.41763272  0.16116855  1
  Te  Te27  1  0.63067415  0.41763272  0.83883145  1
  N  N28  1  0.25000000  0.27455024  0.50000000  1
  N  N29  1  0.25000000  0.22544976  0.00000000  1
  N  N30  1  0.75000000  0.72544976  0.50000000  1
  N  N31  1  0.75000000  0.77455024  0.00000000  1
  N  N32  1  0.15758639  0.25000000  0.75000000  1
  N  N33  1  0.34241361  0.25000000  0.25000000  1
  N  N34  1  0.84241361  0.75000000  0.25000000  1
  N  N35  1  0.65758639  0.75000000  0.75000000  1
