# generated using pymatgen
data_Mg16Al12Os
_symmetry_space_group_name_H-M   'P 1'
_cell_length_a   9.38935722
_cell_length_b   8.93810086
_cell_length_c   8.93810085
_cell_angle_alpha   108.42599194
_cell_angle_beta   110.49724432
_cell_angle_gamma   110.49724015
_symmetry_Int_Tables_number   1
_chemical_formula_structural   Mg16Al12Os
_chemical_formula_sum   'Mg16 Al12 Os1'
_cell_volume   569.96463212
_cell_formula_units_Z   1
loop_
 _symmetry_equiv_pos_site_id
 _symmetry_equiv_pos_as_xyz
  1  'x, y, z'
loop_
 _atom_site_type_symbol
 _atom_site_label
 _atom_site_symmetry_multiplicity
 _atom_site_fract_x
 _atom_site_fract_y
 _atom_site_fract_z
 _atom_site_occupancy
  Mg  Mg0  1  0.00509977  0.35875222  1.00000000  1
  Mg  Mg1  1  0.31894155  0.59087368  1.00000000  1
  Mg  Mg2  1  0.56259146  0.24770791  1.00000000  1
  Mg  Mg3  1  0.98441563  0.99999900  1.00000000  1
  Mg  Mg4  1  0.56259146  1.00000000  0.24770791  1
  Mg  Mg5  1  0.68081528  0.67110461  0.27263972  1
  Mg  Mg6  1  0.00971066  0.60153511  0.32889539  1
  Mg  Mg7  1  0.00510077  1.00000000  0.35875222  1
  Mg  Mg8  1  0.40817555  0.72736028  0.39846489  1
  Mg  Mg9  1  0.72806887  0.40912732  0.40912632  1
  Mg  Mg10  1  0.31894255  1.00000000  0.59087268  1
  Mg  Mg11  1  0.00971066  0.32889539  0.60153511  1
  Mg  Mg12  1  0.64634756  0.64124678  0.64124678  1
  Mg  Mg13  1  0.68081528  0.27263972  0.67110361  1
  Mg  Mg14  1  0.40817555  0.39846489  0.72736028  1
  Mg  Mg15  1  0.31488256  0.75229109  0.75229109  1
  Al  Al16  1  0.81104039  0.60800243  0.00000000  1
  Al  Al17  1  0.65403033  0.80631470  0.00000100  1
  Al  Al18  1  0.18404778  0.81780020  0.17898917  1
  Al  Al19  1  0.36624758  0.36118898  0.18219880  1
  Al  Al20  1  0.84771363  0.19368530  0.19368430  1
  Al  Al21  1  0.36624758  0.18219880  0.36118898  1
  Al  Al22  1  0.20303796  0.39199957  0.39199857  1
  Al  Al23  1  0.81104039  0.00000000  0.60800143  1
  Al  Al24  1  0.00505860  0.82101083  0.63881102  1
  Al  Al25  1  0.65403033  1.00000000  0.80631470  1
  Al  Al26  1  0.18404778  0.17898917  0.81780020  1
  Al  Al27  1  0.00505860  0.63881102  0.82101083  1
  Os  Os28  1  0.26401388  0.00000000  0.00000000  1
