# generated using pymatgen
data_NpH6Cl2O13
_symmetry_space_group_name_H-M   'P 1'
_cell_length_a   5.75931764
_cell_length_b   10.81826694
_cell_length_c   18.35887100
_cell_angle_alpha   90.00000000
_cell_angle_beta   90.00000000
_cell_angle_gamma   91.57967150
_symmetry_Int_Tables_number   1
_chemical_formula_structural   NpH6Cl2O13
_chemical_formula_sum   'Np4 H24 Cl8 O52'
_cell_volume   1143.43008220
_cell_formula_units_Z   4
loop_
 _symmetry_equiv_pos_site_id
 _symmetry_equiv_pos_as_xyz
  1  'x, y, z'
loop_
 _atom_site_type_symbol
 _atom_site_label
 _atom_site_symmetry_multiplicity
 _atom_site_fract_x
 _atom_site_fract_y
 _atom_site_fract_z
 _atom_site_occupancy
  Np  Np0  1  0.47353912  0.80863580  0.85810143  1
  Np  Np1  1  0.52646088  0.69136420  0.35810143  1
  Np  Np2  1  0.52646088  0.19136420  0.14189857  1
  Np  Np3  1  0.47353912  0.30863580  0.64189857  1
  H  H4  1  0.14389011  0.61733442  0.78451859  1
  H  H5  1  0.85610989  0.88266558  0.28451859  1
  H  H6  1  0.85610989  0.38266558  0.21548141  1
  H  H7  1  0.14389011  0.11733442  0.71548141  1
  H  H8  1  0.19595694  0.71434670  0.72231192  1
  H  H9  1  0.80404306  0.78565330  0.22231192  1
  H  H10  1  0.80404306  0.28565330  0.27768808  1
  H  H11  1  0.19595694  0.21434670  0.77768808  1
  H  H12  1  0.83288691  0.00633057  0.91286725  1
  H  H13  1  0.16711309  0.49366943  0.41286725  1
  H  H14  1  0.16711309  0.99366943  0.08713275  1
  H  H15  1  0.83288691  0.50633057  0.58713275  1
  H  H16  1  0.64497911  0.08209767  0.87092842  1
  H  H17  1  0.35502089  0.41790233  0.37092842  1
  H  H18  1  0.35502089  0.91790233  0.12907158  1
  H  H19  1  0.64497911  0.58209767  0.62907158  1
  H  H20  1  0.33948320  0.54833663  0.91895647  1
  H  H21  1  0.66051680  0.95166337  0.41895647  1
  H  H22  1  0.66051680  0.45166337  0.08104353  1
  H  H23  1  0.33948320  0.04833663  0.58104353  1
  H  H24  1  0.13606123  0.63224451  0.94659982  1
  H  H25  1  0.86393877  0.86775549  0.44659982  1
  H  H26  1  0.86393877  0.36775549  0.05340018  1
  H  H27  1  0.13606123  0.13224451  0.55340018  1
  Cl  Cl28  1  0.76503528  0.77698974  0.03152608  1
  Cl  Cl29  1  0.23496472  0.72301026  0.53152608  1
  Cl  Cl30  1  0.23496472  0.22301026  0.96847392  1
  Cl  Cl31  1  0.76503528  0.27698974  0.46847392  1
  Cl  Cl32  1  0.73778345  0.88505485  0.68657393  1
  Cl  Cl33  1  0.26221655  0.61494515  0.18657393  1
  Cl  Cl34  1  0.26221655  0.11494515  0.31342607  1
  Cl  Cl35  1  0.73778345  0.38505485  0.81342607  1
  O  O36  1  0.72762459  0.72245416  0.84735004  1
  O  O37  1  0.27237541  0.77754584  0.34735004  1
  O  O38  1  0.27237541  0.27754584  0.15264996  1
  O  O39  1  0.72762459  0.22245416  0.65264996  1
  O  O40  1  0.22225333  0.89726892  0.87001914  1
  O  O41  1  0.77774667  0.60273108  0.37001914  1
  O  O42  1  0.77774667  0.10273108  0.12998086  1
  O  O43  1  0.22225333  0.39726892  0.62998086  1
  O  O44  1  0.55701835  0.81255531  0.98709353  1
  O  O45  1  0.44298165  0.68744469  0.48709353  1
  O  O46  1  0.44298165  0.18744469  0.01290647  1
  O  O47  1  0.55701835  0.31255531  0.51290647  1
  O  O48  1  0.95722925  0.85967964  0.01232013  1
  O  O49  1  0.04277075  0.64032036  0.51232013  1
  O  O50  1  0.04277075  0.14032036  0.98767987  1
  O  O51  1  0.95722925  0.35967964  0.48767987  1
  O  O52  1  0.82108431  0.64977921  0.01490578  1
  O  O53  1  0.17891569  0.85022079  0.51490578  1
  O  O54  1  0.17891569  0.35022079  0.98509422  1
  O  O55  1  0.82108431  0.14977921  0.48509422  1
  O  O56  1  0.69834053  0.79105369  0.10682001  1
  O  O57  1  0.30165947  0.70894631  0.60682001  1
  O  O58  1  0.30165947  0.20894631  0.89317999  1
  O  O59  1  0.69834053  0.29105369  0.39317999  1
  O  O60  1  0.54287798  0.89532438  0.74268165  1
  O  O61  1  0.45712202  0.60467562  0.24268165  1
  O  O62  1  0.45712202  0.10467562  0.25731835  1
  O  O63  1  0.54287798  0.39532438  0.75731835  1
  O  O64  1  0.93734269  0.95289720  0.71453814  1
  O  O65  1  0.06265731  0.54710280  0.21453814  1
  O  O66  1  0.06265731  0.04710280  0.28546186  1
  O  O67  1  0.93734269  0.45289720  0.78546186  1
  O  O68  1  0.65133295  0.93765045  0.62020541  1
  O  O69  1  0.34866705  0.56234955  0.12020541  1
  O  O70  1  0.34866705  0.06234955  0.37979459  1
  O  O71  1  0.65133295  0.43765045  0.87979459  1
  O  O72  1  0.78788675  0.75540688  0.67811200  1
  O  O73  1  0.21211325  0.74459312  0.17811200  1
  O  O74  1  0.21211325  0.24459312  0.32188800  1
  O  O75  1  0.78788675  0.25540688  0.82188800  1
  O  O76  1  0.25678348  0.67990794  0.76732228  1
  O  O77  1  0.74321652  0.82009206  0.26732228  1
  O  O78  1  0.74321652  0.32009206  0.23267772  1
  O  O79  1  0.25678348  0.17990794  0.73267772  1
  O  O80  1  0.69461694  0.99870937  0.88228447  1
  O  O81  1  0.30538306  0.50129063  0.38228447  1
  O  O82  1  0.30538306  0.00129063  0.11771553  1
  O  O83  1  0.69461694  0.49870937  0.61771553  1
  O  O84  1  0.26623799  0.62784859  0.91252606  1
  O  O85  1  0.73376201  0.87215141  0.41252606  1
  O  O86  1  0.73376201  0.37215141  0.08747394  1
  O  O87  1  0.26623799  0.12784859  0.58747394  1
