# generated using pymatgen
data_K2Hf2O5
_symmetry_space_group_name_H-M   'P 1'
_cell_length_a   5.86274343
_cell_length_b   8.81616344
_cell_length_c   10.75291942
_cell_angle_alpha   90.00000000
_cell_angle_beta   90.00000000
_cell_angle_gamma   90.00000000
_symmetry_Int_Tables_number   1
_chemical_formula_structural   K2Hf2O5
_chemical_formula_sum   'K8 Hf8 O20'
_cell_volume   555.78511685
_cell_formula_units_Z   4
loop_
 _symmetry_equiv_pos_site_id
 _symmetry_equiv_pos_as_xyz
  1  'x, y, z'
loop_
 _atom_site_type_symbol
 _atom_site_label
 _atom_site_symmetry_multiplicity
 _atom_site_fract_x
 _atom_site_fract_y
 _atom_site_fract_z
 _atom_site_occupancy
  K  K0  1  0.06654987  0.42409171  0.83349896  1
  K  K1  1  0.43345013  0.42409171  0.16650104  1
  K  K2  1  0.06654987  0.07590829  0.66650104  1
  K  K3  1  0.43345013  0.07590829  0.33349896  1
  K  K4  1  0.93345013  0.57590829  0.16650104  1
  K  K5  1  0.56654987  0.57590829  0.83349896  1
  K  K6  1  0.93345013  0.92409171  0.33349896  1
  K  K7  1  0.56654987  0.92409171  0.66650104  1
  Hf  Hf8  1  0.53221198  0.34088318  0.57598128  1
  Hf  Hf9  1  0.96778802  0.34088318  0.42401872  1
  Hf  Hf10  1  0.53221198  0.15911682  0.92401872  1
  Hf  Hf11  1  0.96778802  0.15911682  0.07598128  1
  Hf  Hf12  1  0.46778802  0.65911682  0.42401872  1
  Hf  Hf13  1  0.03221198  0.65911682  0.57598128  1
  Hf  Hf14  1  0.46778802  0.84088318  0.07598128  1
  Hf  Hf15  1  0.03221198  0.84088318  0.92401872  1
  O  O16  1  0.37251580  0.95040154  0.89415178  1
  O  O17  1  0.12748420  0.95040154  0.10584822  1
  O  O18  1  0.37251580  0.54959846  0.60584822  1
  O  O19  1  0.12748420  0.54959846  0.39415178  1
  O  O20  1  0.62748420  0.04959846  0.10584822  1
  O  O21  1  0.87251580  0.04959846  0.89415178  1
  O  O22  1  0.62748420  0.45040154  0.39415178  1
  O  O23  1  0.87251580  0.45040154  0.60584822  1
  O  O24  1  0.25000000  0.24725715  0.50000000  1
  O  O25  1  0.25000000  0.25274285  -0.00000000  1
  O  O26  1  0.75000000  0.75274285  0.50000000  1
  O  O27  1  0.75000000  0.74725715  -0.00000000  1
  O  O28  1  0.25000000  0.82099166  0.50000000  1
  O  O29  1  0.25000000  0.67900834  -0.00000000  1
  O  O30  1  0.75000000  0.17900834  0.50000000  1
  O  O31  1  0.75000000  0.32099166  -0.00000000  1
  O  O32  1  0.49607438  0.25000000  0.75000000  1
  O  O33  1  0.00392562  0.25000000  0.25000000  1
  O  O34  1  0.50392562  0.75000000  0.25000000  1
  O  O35  1  0.99607438  0.75000000  0.75000000  1
