# generated using pymatgen
data_ZnSb4H18S7N6
_symmetry_space_group_name_H-M   'P 1'
_cell_length_a   7.31389222
_cell_length_b   12.11058325
_cell_length_c   13.05980078
_cell_angle_alpha   76.66159349
_cell_angle_beta   90.13459363
_cell_angle_gamma   80.18297932
_symmetry_Int_Tables_number   1
_chemical_formula_structural   ZnSb4H18S7N6
_chemical_formula_sum   'Zn2 Sb8 H36 S14 N12'
_cell_volume   1108.04350369
_cell_formula_units_Z   2
loop_
 _symmetry_equiv_pos_site_id
 _symmetry_equiv_pos_as_xyz
  1  'x, y, z'
loop_
 _atom_site_type_symbol
 _atom_site_label
 _atom_site_symmetry_multiplicity
 _atom_site_fract_x
 _atom_site_fract_y
 _atom_site_fract_z
 _atom_site_occupancy
  Zn  Zn0  1  0.67270070  0.25644340  0.84823553  1
  Zn  Zn1  1  0.32729930  0.74355660  0.15176447  1
  Sb  Sb2  1  0.75881296  0.97964375  0.49799056  1
  Sb  Sb3  1  0.24118704  0.02035625  0.50200944  1
  Sb  Sb4  1  0.78529846  0.79967705  0.77931473  1
  Sb  Sb5  1  0.21470154  0.20032295  0.22068527  1
  Sb  Sb6  1  0.30887647  0.72528720  0.67955742  1
  Sb  Sb7  1  0.69112353  0.27471280  0.32044258  1
  Sb  Sb8  1  0.88579334  0.61940731  0.55366130  1
  Sb  Sb9  1  0.11420666  0.38059269  0.44633870  1
  H  H10  1  0.43592953  0.43126633  0.90799576  1
  H  H11  1  0.56407047  0.56873367  0.09200424  1
  H  H12  1  0.32330633  0.39054401  0.81841536  1
  H  H13  1  0.67669367  0.60945599  0.18158464  1
  H  H14  1  0.34708714  0.31222310  0.94151104  1
  H  H15  1  0.65291286  0.68777690  0.05848896  1
  H  H16  1  0.91125684  0.06546769  0.81940173  1
  H  H17  1  0.08874316  0.93453231  0.18059827  1
  H  H18  1  0.97222060  0.17787135  0.73760292  1
  H  H19  1  0.02777940  0.82212865  0.26239708  1
  H  H20  1  0.02998444  0.14822266  0.86571631  1
  H  H21  1  0.97001556  0.85177734  0.13428369  1
  H  H22  1  0.83732106  0.14347297  0.03945072  1
  H  H23  1  0.16267894  0.85652703  0.96054928  1
  H  H24  1  0.61538190  0.18798276  0.05860058  1
  H  H25  1  0.38461810  0.81201724  0.94139942  1
  H  H26  1  0.67765530  0.07209512  0.01143683  1
  H  H27  1  0.32234470  0.92790488  0.98856317  1
  H  H28  1  0.53026882  0.34862125  0.64546912  1
  H  H29  1  0.46973118  0.65137875  0.35453088  1
  H  H30  1  0.63090176  0.44506416  0.68191194  1
  H  H31  1  0.36909824  0.55493584  0.31808806  1
  H  H32  1  0.75741942  0.33730107  0.64177821  1
  H  H33  1  0.24258058  0.66269893  0.35822179  1
  H  H34  1  0.93600694  0.32747711  0.95468779  1
  H  H35  1  0.06399306  0.67252289  0.04531221  1
  H  H36  1  0.91940689  0.41027554  0.83414517  1
  H  H37  1  0.08059311  0.58972446  0.16585483  1
  H  H38  1  0.76674386  0.43974788  0.91878321  1
  H  H39  1  0.23325614  0.56025212  0.08121679  1
  H  H40  1  0.38433656  0.13924643  0.84816681  1
  H  H41  1  0.61566344  0.86075357  0.15183319  1
  H  H42  1  0.46828273  0.14755379  0.72939748  1
  H  H43  1  0.53171727  0.85244621  0.27060252  1
  H  H44  1  0.57396923  0.05167275  0.83223901  1
  H  H45  1  0.42603077  0.94832725  0.16776099  1
  S  S46  1  0.80561251  0.85849311  0.94016103  1
  S  S47  1  0.19438749  0.14150689  0.05983897  1
  S  S48  1  0.03506286  0.78319309  0.47818136  1
  S  S49  1  0.96493714  0.21680691  0.52181864  1
  S  S50  1  0.55765245  0.66457767  0.83251316  1
  S  S51  1  0.44234755  0.33542233  0.16748684  1
  S  S52  1  0.22088082  0.92696983  0.69406458  1
  S  S53  1  0.77911918  0.07303017  0.30593542  1
  S  S54  1  0.06786739  0.64254522  0.79748335  1
  S  S55  1  0.93213261  0.35745478  0.20251665  1
  S  S56  1  0.84919884  0.54750481  0.38908690  1
  S  S57  1  0.15080116  0.45249519  0.61091310  1
  S  S58  1  0.53013688  0.85915484  0.47685211  1
  S  S59  1  0.46986312  0.14084516  0.52314789  1
  N  N60  1  0.41360229  0.36065081  0.88293363  1
  N  N61  1  0.58639771  0.63934919  0.11706637  1
  N  N62  1  0.92723833  0.14938704  0.81180288  1
  N  N63  1  0.07276167  0.85061296  0.18819712  1
  N  N64  1  0.70413617  0.15262761  0.00910596  1
  N  N65  1  0.29586383  0.84737239  0.99089404  1
  N  N66  1  0.64516939  0.35917379  0.68476633  1
  N  N67  1  0.35483061  0.64082621  0.31523367  1
  N  N68  1  0.84362791  0.37283518  0.89399946  1
  N  N69  1  0.15637209  0.62716482  0.10600054  1
  N  N70  1  0.50416790  0.13497217  0.80780301  1
  N  N71  1  0.49583210  0.86502783  0.19219699  1
