# generated using pymatgen
data_Th6Al43Mo4
_symmetry_space_group_name_H-M   'P 1'
_cell_length_a   11.12202272
_cell_length_b   11.12197922
_cell_length_c   17.96687797
_cell_angle_alpha   90.00000000
_cell_angle_beta   90.00000000
_cell_angle_gamma   120.00012592
_symmetry_Int_Tables_number   1
_chemical_formula_structural   Th6Al43Mo4
_chemical_formula_sum   'Th12 Al86 Mo8'
_cell_volume   1924.72441719
_cell_formula_units_Z   2
loop_
 _symmetry_equiv_pos_site_id
 _symmetry_equiv_pos_as_xyz
  1  'x, y, z'
loop_
 _atom_site_type_symbol
 _atom_site_label
 _atom_site_symmetry_multiplicity
 _atom_site_fract_x
 _atom_site_fract_y
 _atom_site_fract_z
 _atom_site_occupancy
  Th  Th0  1  0.52804654  0.00000000  0.59537666  1
  Th  Th1  1  0.47195153  0.47196092  0.59537430  1
  Th  Th2  1  0.99999061  0.52803908  0.59537430  1
  Th  Th3  1  0.47195346  1.00000000  0.40462334  1
  Th  Th4  1  0.52804847  0.52803908  0.40462570  1
  Th  Th5  1  0.00000939  0.47196092  0.40462570  1
  Th  Th6  1  0.47195346  1.00000000  0.09537666  1
  Th  Th7  1  0.52804847  0.52803908  0.09537430  1
  Th  Th8  1  0.00000939  0.47196092  0.09537430  1
  Th  Th9  1  0.52804654  0.00000000  0.90462334  1
  Th  Th10  1  0.47195153  0.47196092  0.90462570  1
  Th  Th11  1  0.99999061  0.52803908  0.90462570  1
  Al  Al12  1  0.15929385  0.39293056  0.66566520  1
  Al  Al13  1  0.23362841  0.84071299  0.66566672  1
  Al  Al14  1  0.60706674  0.76636980  0.66566714  1
  Al  Al15  1  0.76636330  0.60706944  0.66566520  1
  Al  Al16  1  0.39291541  0.15928701  0.66566672  1
  Al  Al17  1  0.84069694  0.23363020  0.66566714  1
  Al  Al18  1  0.84070615  0.60706944  0.33433480  1
  Al  Al19  1  0.76637159  0.15928701  0.33433328  1
  Al  Al20  1  0.39293326  0.23363020  0.33433286  1
  Al  Al21  1  0.23363670  0.39293056  0.33433480  1
  Al  Al22  1  0.60708459  0.84071299  0.33433328  1
  Al  Al23  1  0.15930306  0.76636980  0.33433286  1
  Al  Al24  1  0.84070615  0.60706944  0.16566520  1
  Al  Al25  1  0.76637159  0.15928701  0.16566672  1
  Al  Al26  1  0.39293326  0.23363020  0.16566714  1
  Al  Al27  1  0.23363670  0.39293056  0.16566520  1
  Al  Al28  1  0.60708459  0.84071299  0.16566672  1
  Al  Al29  1  0.15930306  0.76636980  0.16566714  1
  Al  Al30  1  0.15929385  0.39293056  0.83433480  1
  Al  Al31  1  0.23362841  0.84071299  0.83433328  1
  Al  Al32  1  0.60706674  0.76636980  0.83433286  1
  Al  Al33  1  0.76636330  0.60706944  0.83433480  1
  Al  Al34  1  0.39291541  0.15928701  0.83433328  1
  Al  Al35  1  0.84069694  0.23363020  0.83433286  1
  Al  Al36  1  0.15826081  0.00000000  0.11487157  1
  Al  Al37  1  0.84174169  0.84173799  0.11486881  1
  Al  Al38  1  0.00000370  0.15826201  0.11486881  1
  Al  Al39  1  0.84173919  1.00000000  0.88512843  1
  Al  Al40  1  0.15825831  0.15826201  0.88513119  1
  Al  Al41  1  0.99999630  0.84173799  0.88513119  1
  Al  Al42  1  0.84173919  1.00000000  0.61487157  1
  Al  Al43  1  0.15825831  0.15826201  0.61486881  1
  Al  Al44  1  0.99999630  0.84173799  0.61486881  1
  Al  Al45  1  0.15826081  0.00000000  0.38512843  1
  Al  Al46  1  0.84174169  0.84173799  0.38513119  1
  Al  Al47  1  0.00000370  0.15826201  0.38513119  1
  Al  Al48  1  0.25121733  0.00000000  0.53109796  1
  Al  Al49  1  0.74878055  0.74877825  0.53109628  1
  Al  Al50  1  0.00000230  0.25122175  0.53109628  1
  Al  Al51  1  0.74878267  1.00000000  0.46890204  1
  Al  Al52  1  0.25121945  0.25122175  0.46890372  1
  Al  Al53  1  0.99999770  0.74877825  0.46890372  1
  Al  Al54  1  0.74878267  1.00000000  0.03109796  1
  Al  Al55  1  0.25121945  0.25122175  0.03109628  1
  Al  Al56  1  0.99999770  0.74877825  0.03109628  1
  Al  Al57  1  0.25121733  0.00000000  0.96890204  1
  Al  Al58  1  0.74878055  0.74877825  0.96890372  1
  Al  Al59  1  0.00000230  0.25122175  0.96890372  1
  Al  Al60  1  0.14827295  0.59541276  0.75000000  1
  Al  Al61  1  0.44713537  0.85172362  0.75000000  1
  Al  Al62  1  0.40458292  0.55286838  0.75000000  1
  Al  Al63  1  0.55286019  0.40458724  0.75000000  1
  Al  Al64  1  0.59541176  0.14827638  0.75000000  1
  Al  Al65  1  0.85171453  0.44713162  0.75000000  1
  Al  Al66  1  0.85172705  0.40458724  0.25000000  1
  Al  Al67  1  0.55286463  0.14827638  0.25000000  1
  Al  Al68  1  0.59541708  0.44713162  0.25000000  1
  Al  Al69  1  0.44713981  0.59541276  0.25000000  1
  Al  Al70  1  0.40458824  0.85172362  0.25000000  1
  Al  Al71  1  0.14828547  0.55286838  0.25000000  1
  Al  Al72  1  0.24677758  0.49355516  0.50000000  1
  Al  Al73  1  0.24677370  0.75322353  0.49999686  1
  Al  Al74  1  0.50644982  0.75322353  0.50000314  1
  Al  Al75  1  0.75322242  0.50644484  0.50000000  1
  Al  Al76  1  0.49355018  0.24677647  0.49999686  1
  Al  Al77  1  0.75322630  0.24677647  0.50000314  1
  Al  Al78  1  0.75322242  0.50644484  -0.00000000  1
  Al  Al79  1  0.75322630  0.24677647  0.99999686  1
  Al  Al80  1  0.49355018  0.24677647  0.00000314  1
  Al  Al81  1  0.24677758  0.49355516  -0.00000000  1
  Al  Al82  1  0.50644982  0.75322353  0.99999686  1
  Al  Al83  1  0.24677370  0.75322353  0.00000314  1
  Al  Al84  1  0.33332935  0.66666778  0.62786961  1
  Al  Al85  1  0.66666157  0.33333222  0.62786961  1
  Al  Al86  1  0.66667065  0.33333222  0.37213039  1
  Al  Al87  1  0.33333843  0.66666778  0.37213039  1
  Al  Al88  1  0.66667065  0.33333222  0.12786961  1
  Al  Al89  1  0.33333843  0.66666778  0.12786961  1
  Al  Al90  1  0.33332935  0.66666778  0.87213039  1
  Al  Al91  1  0.66666157  0.33333222  0.87213039  1
  Al  Al92  1  0.14646323  0.00000000  0.75000000  1
  Al  Al93  1  0.85352618  0.85353106  0.75000000  1
  Al  Al94  1  -0.00000488  0.14646894  0.75000000  1
  Al  Al95  1  0.85353677  1.00000000  0.25000000  1
  Al  Al96  1  0.14647382  0.14646894  0.25000000  1
  Al  Al97  1  0.00000488  0.85353106  0.25000000  1
  Mo  Mo98  1  0.73147001  1.00000000  0.75000000  1
  Mo  Mo99  1  0.26852226  0.26852866  0.75000000  1
  Mo  Mo100  1  0.99999360  0.73147134  0.75000000  1
  Mo  Mo101  1  0.26852999  0.00000000  0.25000000  1
  Mo  Mo102  1  0.73147774  0.73147134  0.25000000  1
  Mo  Mo103  1  0.00000640  0.26852866  0.25000000  1
  Mo  Mo104  1  -0.00000000  -0.00000000  0.50000000  1
  Mo  Mo105  1  -0.00000000  -0.00000000  -0.00000000  1
