# generated using pymatgen
data_Co3B7IO13
_symmetry_space_group_name_H-M   'P 1'
_cell_length_a   8.65825911
_cell_length_b   8.68584484
_cell_length_c   12.28777096
_cell_angle_alpha   90.00000000
_cell_angle_beta   90.00000000
_cell_angle_gamma   90.00000000
_symmetry_Int_Tables_number   1
_chemical_formula_structural   Co3B7IO13
_chemical_formula_sum   'Co12 B28 I4 O52'
_cell_volume   924.09315480
_cell_formula_units_Z   4
loop_
 _symmetry_equiv_pos_site_id
 _symmetry_equiv_pos_as_xyz
  1  'x, y, z'
loop_
 _atom_site_type_symbol
 _atom_site_label
 _atom_site_symmetry_multiplicity
 _atom_site_fract_x
 _atom_site_fract_y
 _atom_site_fract_z
 _atom_site_occupancy
  Co  Co0  1  0.74761614  0.25579697  0.49792886  1
  Co  Co1  1  0.25238386  0.74420303  0.99792886  1
  Co  Co2  1  0.74761614  0.24420303  0.99792886  1
  Co  Co3  1  0.25238386  0.75579697  0.49792886  1
  Co  Co4  1  0.97969298  0.00524690  0.72695628  1
  Co  Co5  1  0.02030702  0.99475310  0.22695628  1
  Co  Co6  1  0.97969298  0.49475310  0.22695628  1
  Co  Co7  1  0.02030702  0.50524690  0.72695628  1
  Co  Co8  1  0.52095470  0.00624100  0.72867260  1
  Co  Co9  1  0.47904530  0.99375900  0.22867260  1
  Co  Co10  1  0.52095470  0.49375900  0.22867260  1
  Co  Co11  1  0.47904530  0.50624100  0.72867260  1
  B  B12  1  0.99878903  0.99860731  0.47982773  1
  B  B13  1  0.00121097  0.00139269  0.97982773  1
  B  B14  1  0.99878903  0.50139269  0.97982773  1
  B  B15  1  0.00121097  0.49860731  0.47982773  1
  B  B16  1  0.24627206  0.24379557  0.73170475  1
  B  B17  1  0.75372794  0.75620443  0.23170475  1
  B  B18  1  0.24627206  0.25620443  0.23170475  1
  B  B19  1  0.75372794  0.74379557  0.73170475  1
  B  B20  1  0.50324485  0.99783903  0.48000658  1
  B  B21  1  0.49675515  0.00216097  0.98000658  1
  B  B22  1  0.50324485  0.50216097  0.98000658  1
  B  B23  1  0.49675515  0.49783903  0.48000658  1
  B  B24  1  0.40233266  0.24305824  0.55942126  1
  B  B25  1  0.59766734  0.75694176  0.05942126  1
  B  B26  1  0.40233266  0.25694176  0.05942126  1
  B  B27  1  0.59766734  0.74305824  0.55942126  1
  B  B28  1  0.09546358  0.24385252  0.55912688  1
  B  B29  1  0.90453642  0.75614748  0.05912688  1
  B  B30  1  0.09546358  0.25614748  0.05912688  1
  B  B31  1  0.90453642  0.74385252  0.55912688  1
  B  B32  1  0.25056608  0.09245501  0.40604794  1
  B  B33  1  0.74943392  0.90754499  0.90604794  1
  B  B34  1  0.25056608  0.40754499  0.90604794  1
  B  B35  1  0.74943392  0.59245501  0.40604794  1
  B  B36  1  0.75204054  0.94842998  0.38133928  1
  B  B37  1  0.24795946  0.05157002  0.88133928  1
  B  B38  1  0.75204054  0.55157002  0.88133928  1
  B  B39  1  0.24795946  0.44842998  0.38133928  1
  I  I40  1  0.75239971  0.23927001  0.72548049  1
  I  I41  1  0.24760029  0.76072999  0.22548049  1
  I  I42  1  0.75239971  0.26072999  0.22548049  1
  I  I43  1  0.24760029  0.73927001  0.72548049  1
  O  O44  1  0.25006348  0.22895772  0.49032024  1
  O  O45  1  0.74993652  0.77104228  0.99032024  1
  O  O46  1  0.25006348  0.27104228  0.99032024  1
  O  O47  1  0.74993652  0.72895772  0.49032024  1
  O  O48  1  0.97459037  0.16343035  0.50044842  1
  O  O49  1  0.02540963  0.83656965  0.00044842  1
  O  O50  1  0.97459037  0.33656965  0.00044842  1
  O  O51  1  0.02540963  0.66343035  0.50044842  1
  O  O52  1  0.45836029  0.08516862  0.57760687  1
  O  O53  1  0.54163971  0.91483138  0.07760687  1
  O  O54  1  0.45836029  0.41483138  0.07760687  1
  O  O55  1  0.54163971  0.58516862  0.57760687  1
  O  O56  1  0.12667794  0.17111659  0.66429436  1
  O  O57  1  0.87332206  0.82888341  0.16429436  1
  O  O58  1  0.12667794  0.32888341  0.16429436  1
  O  O59  1  0.87332206  0.67111659  0.66429436  1
  O  O60  1  0.51774806  0.33210146  0.49911760  1
  O  O61  1  0.48225194  0.66789854  0.99911760  1
  O  O62  1  0.51774806  0.16789854  0.99911760  1
  O  O63  1  0.48225194  0.83210146  0.49911760  1
  O  O64  1  0.05548723  0.40677761  0.57354878  1
  O  O65  1  0.94451277  0.59322239  0.07354878  1
  O  O66  1  0.05548723  0.09322239  0.07354878  1
  O  O67  1  0.94451277  0.90677761  0.57354878  1
  O  O68  1  0.36326703  0.31876249  0.66209262  1
  O  O69  1  0.63673297  0.68123751  0.16209262  1
  O  O70  1  0.36326703  0.18123751  0.16209262  1
  O  O71  1  0.63673297  0.81876249  0.66209262  1
  O  O72  1  0.32665327  0.12024304  0.79637191  1
  O  O73  1  0.67334673  0.87975696  0.29637191  1
  O  O74  1  0.32665327  0.37975696  0.29637191  1
  O  O75  1  0.67334673  0.62024304  0.79637191  1
  O  O76  1  0.91115520  0.95740499  0.37823433  1
  O  O77  1  0.08884480  0.04259501  0.87823433  1
  O  O78  1  0.91115520  0.54259501  0.87823433  1
  O  O79  1  0.08884480  0.45740499  0.37823433  1
  O  O80  1  0.16345025  0.96612742  0.45775489  1
  O  O81  1  0.83654975  0.03387258  0.95775489  1
  O  O82  1  0.16345025  0.53387258  0.95775489  1
  O  O83  1  0.83654975  0.46612742  0.45775489  1
  O  O84  1  0.17596730  0.14061075  0.30441848  1
  O  O85  1  0.82403270  0.85938925  0.80441848  1
  O  O86  1  0.17596730  0.35938925  0.80441848  1
  O  O87  1  0.82403270  0.64061075  0.30441848  1
  O  O88  1  0.41040251  0.04811459  0.38589625  1
  O  O89  1  0.58959749  0.95188541  0.88589625  1
  O  O90  1  0.41040251  0.45188541  0.88589625  1
  O  O91  1  0.58959749  0.54811459  0.38589625  1
  O  O92  1  0.67033190  0.03500855  0.45688263  1
  O  O93  1  0.32966810  0.96499145  0.95688263  1
  O  O94  1  0.67033190  0.46499145  0.95688263  1
  O  O95  1  0.32966810  0.53500855  0.45688263  1
