# generated using pymatgen
data_CdH20N6OF2
_symmetry_space_group_name_H-M   'P 1'
_cell_length_a   7.07496569
_cell_length_b   7.07519211
_cell_length_c   18.18449213
_cell_angle_alpha   90.00294427
_cell_angle_beta   90.00000821
_cell_angle_gamma   119.99894504
_symmetry_Int_Tables_number   1
_chemical_formula_structural   CdH20N6OF2
_chemical_formula_sum   'Cd3 H60 N18 O3 F6'
_cell_volume   788.31356344
_cell_formula_units_Z   3
loop_
 _symmetry_equiv_pos_site_id
 _symmetry_equiv_pos_as_xyz
  1  'x, y, z'
loop_
 _atom_site_type_symbol
 _atom_site_label
 _atom_site_symmetry_multiplicity
 _atom_site_fract_x
 _atom_site_fract_y
 _atom_site_fract_z
 _atom_site_occupancy
  Cd  Cd0  1  0.53497975  0.99999877  0.50000024  1
  Cd  Cd1  1  0.99996306  0.53511423  0.83330609  1
  Cd  Cd2  1  0.46485158  0.46488748  0.16670289  1
  H  H3  1  0.13031423  0.81376982  0.40663677  1
  H  H4  1  0.18625605  0.31657562  0.73996717  1
  H  H5  1  0.68343632  0.86969855  0.07329711  1
  H  H6  1  0.86968573  0.68342752  0.26003569  1
  H  H7  1  0.31654210  0.18623322  0.59336610  1
  H  H8  1  0.81373508  0.13029599  0.92670468  1
  H  H9  1  0.06514264  0.71131222  0.49210048  1
  H  H10  1  0.28869832  0.35383783  0.82543393  1
  H  H11  1  0.64617394  0.93482789  0.15876475  1
  H  H12  1  0.93486392  0.64616588  0.17456849  1
  H  H13  1  0.35382946  0.28868777  0.50790264  1
  H  H14  1  0.71134440  0.06516783  0.84123758  1
  H  H15  1  0.18047090  0.61572006  0.43297090  1
  H  H16  1  0.38430975  0.56475550  0.76630323  1
  H  H17  1  0.43524039  0.81954815  0.09964237  1
  H  H18  1  0.81955659  0.43524806  0.23369914  1
  H  H19  1  0.56474978  0.38428128  0.56703077  1
  H  H20  1  0.61569054  0.18044822  0.90035965  1
  H  H21  1  0.76163406  0.82915309  0.41370751  1
  H  H22  1  0.17082602  0.93244492  0.74703816  1
  H  H23  1  0.06754416  0.23838058  0.08037600  1
  H  H24  1  0.23838056  0.06755453  0.25296480  1
  H  H25  1  0.93248139  0.17084871  0.58629486  1
  H  H26  1  0.82916451  0.76162055  0.91962660  1
  H  H27  1  0.73472761  0.72778157  0.49770147  1
  H  H28  1  0.27219213  0.00692656  0.83103476  1
  H  H29  1  0.99305935  0.26526194  0.16437648  1
  H  H30  1  0.26526677  0.99307658  0.16896767  1
  H  H31  1  0.00694603  0.27221828  0.50230044  1
  H  H32  1  0.72779777  0.73473562  0.83562617  1
  H  H33  1  0.52087620  0.61482798  0.44006700  1
  H  H34  1  0.38521001  0.90606749  0.77340511  1
  H  H35  1  0.09394565  0.47913630  0.10674978  1
  H  H36  1  0.47914208  0.09393294  0.22659684  1
  H  H37  1  0.90604791  0.38517203  0.55993482  1
  H  H38  1  0.61480949  0.52086207  0.89325331  1
  H  H39  1  0.75507371  0.37669538  0.40524207  1
  H  H40  1  0.62329221  0.37837291  0.73858543  1
  H  H41  1  0.62160676  0.24490640  0.07191479  1
  H  H42  1  0.24492194  0.62162842  0.26141748  1
  H  H43  1  0.37837978  0.62330827  0.59476036  1
  H  H44  1  0.37670292  0.75509545  0.92808832  1
  H  H45  1  0.65004769  0.17841789  0.34351389  1
  H  H46  1  0.82156122  0.47162106  0.67683960  1
  H  H47  1  0.52838244  0.34995086  0.01017710  1
  H  H48  1  0.34993950  0.52838005  0.32316415  1
  H  H49  1  0.47162905  0.82158224  0.65649012  1
  H  H50  1  0.17843275  0.65004969  0.98982670  1
  H  H51  1  0.49271497  0.26217604  0.38567226  1
  H  H52  1  0.73783457  0.23055570  0.71901366  1
  H  H53  1  0.76945097  0.50726721  0.05234810  1
  H  H54  1  0.50728200  0.76944763  0.28098949  1
  H  H55  1  0.23053819  0.73782507  0.61433073  1
  H  H56  1  0.26218583  0.49273491  0.94765558  1
  H  H57  1  0.09076536  0.15043731  0.36465449  1
  H  H58  1  0.84959947  0.94034755  0.69802185  1
  H  H59  1  0.05970094  0.90922202  0.03134095  1
  H  H60  1  0.90924455  0.05964952  0.30197785  1
  H  H61  1  0.94032503  0.84955804  0.63534414  1
  H  H62  1  0.15048477  0.09078095  0.96865938  1
  N  N63  1  0.17555052  0.75174770  0.44972991  1
  N  N64  1  0.24825394  0.42380109  0.78305854  1
  N  N65  1  0.57621209  0.82443891  0.11640166  1
  N  N66  1  0.82445556  0.57620005  0.21694552  1
  N  N67  1  0.42380119  0.24825416  0.55027113  1
  N  N68  1  0.75177146  0.17555678  0.88360161  1
  N  N69  1  0.65481352  0.75953491  0.45686884  1
  N  N70  1  0.24046695  0.89529119  0.79020482  1
  N  N71  1  0.10471012  0.34517982  0.12353029  1
  N  N72  1  0.34517545  0.10470883  0.20979762  1
  N  N73  1  0.89527857  0.24046691  0.54313399  1
  N  N74  1  0.75953003  0.65482081  0.87647306  1
  N  N75  1  0.61916642  0.23189951  0.39235390  1
  N  N76  1  0.76809528  0.38725381  0.72568214  1
  N  N77  1  0.61270899  0.38082552  0.05901227  1
  N  N78  1  0.38084274  0.61274821  0.27432078  1
  N  N79  1  0.38726560  0.76810109  0.60764840  1
  N  N80  1  0.23188648  0.61917380  0.94099064  1
  O  O81  1  0.00006698  0.01849213  0.33330652  1
  O  O82  1  0.98156990  0.98150764  0.66669483  1
  O  O83  1  0.01851375  0.99999686  0.00000072  1
  F  F84  1  0.89167259  0.63612775  0.58352021  1
  F  F85  1  0.36366943  0.25536866  0.91672476  1
  F  F86  1  0.74447438  0.10825054  0.25012712  1
  F  F87  1  0.10829351  0.74461901  0.08327021  1
  F  F88  1  0.25555438  0.36387768  0.41647689  1
  F  F89  1  0.63621736  0.89174246  0.74987265  1
