# generated using pymatgen
data_Sm4(ErS2)11
_symmetry_space_group_name_H-M   'P 1'
_cell_length_a   3.92303694
_cell_length_b   11.31452070
_cell_length_c   19.57386734
_cell_angle_alpha   91.25025890
_cell_angle_beta   95.75132430
_cell_angle_gamma   90.00000000
_symmetry_Int_Tables_number   1
_chemical_formula_structural   Sm4(ErS2)11
_chemical_formula_sum   'Sm4 Er11 S22'
_cell_volume   864.24937302
_cell_formula_units_Z   1
loop_
 _symmetry_equiv_pos_site_id
 _symmetry_equiv_pos_as_xyz
  1  'x, y, z'
loop_
 _atom_site_type_symbol
 _atom_site_label
 _atom_site_symmetry_multiplicity
 _atom_site_fract_x
 _atom_site_fract_y
 _atom_site_fract_z
 _atom_site_occupancy
  Sm  Sm0  1  0.10428077  0.01199688  0.20856154  1
  Sm  Sm1  1  0.89571923  0.98800312  0.79143846  1
  Sm  Sm2  1  0.36714424  0.34619384  0.73428847  1
  Sm  Sm3  1  0.63285576  0.65380616  0.26571153  1
  Er  Er4  1  0.79825381  0.05771847  0.59650763  1
  Er  Er5  1  0.20174619  0.94228153  0.40349237  1
  Er  Er6  1  0.46168667  0.27203054  0.92337333  1
  Er  Er7  1  0.53831333  0.72796946  0.07662667  1
  Er  Er8  1  0.65762774  0.30260310  0.31525549  1
  Er  Er9  1  0.34237226  0.69739690  0.68474451  1
  Er  Er10  1  0.26427722  0.35210143  0.52855443  1
  Er  Er11  1  0.73572278  0.64789857  0.47144557  1
  Er  Er12  1  0.06933701  0.35949353  0.13867403  1
  Er  Er13  1  0.93066299  0.64050647  0.86132597  1
  Er  Er14  1  -0.00000000  0.00000000  -0.00000000  1
  S  S15  1  0.08810331  0.75224798  0.17620661  1
  S  S16  1  0.91189669  0.24775202  0.82379339  1
  S  S17  1  0.18799783  0.69198327  0.37599567  1
  S  S18  1  0.81200217  0.30801673  0.62400433  1
  S  S19  1  0.27996324  0.58999736  0.55992649  1
  S  S20  1  0.72003676  0.41000264  0.44007351  1
  S  S21  1  0.44595295  0.49552170  0.89190590  1
  S  S22  1  0.55404705  0.50447830  0.10809410  1
  S  S23  1  0.13424886  0.45617359  0.26849772  1
  S  S24  1  0.86575114  0.54382641  0.73150228  1
  S  S25  1  0.59294701  0.21004181  0.18589402  1
  S  S26  1  0.40705299  0.78995819  0.81410598  1
  S  S27  1  0.45229824  0.03152417  0.90459649  1
  S  S28  1  0.54770176  0.96847583  0.09540351  1
  S  S29  1  0.35170688  0.09207517  0.70341375  1
  S  S30  1  0.64829312  0.90792483  0.29658625  1
  S  S31  1  0.16802567  0.15080796  0.33605133  1
  S  S32  1  0.83197433  0.84919204  0.66394867  1
  S  S33  1  0.00784386  0.23904234  0.01568773  1
  S  S34  1  0.99215614  0.76095766  0.98431227  1
  S  S35  1  0.25503008  0.11948572  0.51006017  1
  S  S36  1  0.74496992  0.88051428  0.48993983  1
