# generated using pymatgen
data_Y11(In3Si2)2
_symmetry_space_group_name_H-M   'P 1'
_cell_length_a   11.52133270
_cell_length_b   11.52133270
_cell_length_c   11.52133270
_cell_angle_alpha   89.96675484
_cell_angle_beta   120.01919596
_cell_angle_gamma   120.01919596
_symmetry_Int_Tables_number   1
_chemical_formula_structural   Y11(In3Si2)2
_chemical_formula_sum   'Y22 In12 Si8'
_cell_volume   1081.10294167
_cell_formula_units_Z   2
loop_
 _symmetry_equiv_pos_site_id
 _symmetry_equiv_pos_as_xyz
  1  'x, y, z'
loop_
 _atom_site_type_symbol
 _atom_site_label
 _atom_site_symmetry_multiplicity
 _atom_site_fract_x
 _atom_site_fract_y
 _atom_site_fract_z
 _atom_site_occupancy
  Y  Y0  1  0.74981924  0.06475119  0.31493195  1
  Y  Y1  1  0.25018076  0.56511272  0.31493195  1
  Y  Y2  1  0.74981924  0.31493195  0.06475119  1
  Y  Y3  1  0.25018076  0.31493195  0.56511272  1
  Y  Y4  1  0.25018076  0.93524881  0.68506805  1
  Y  Y5  1  0.74981924  0.43488728  0.68506805  1
  Y  Y6  1  0.25018076  0.68506805  0.93524881  1
  Y  Y7  1  0.74981924  0.68506805  0.43488728  1
  Y  Y8  1  0.65318478  0.75460544  0.10142066  1
  Y  Y9  1  0.34681522  0.44823589  0.10142066  1
  Y  Y10  1  0.65318478  0.10142066  0.75460544  1
  Y  Y11  1  0.34681522  0.10142066  0.44823589  1
  Y  Y12  1  0.34681522  0.24539456  0.89857934  1
  Y  Y13  1  0.65318478  0.55176411  0.89857934  1
  Y  Y14  1  0.34681522  0.89857934  0.24539456  1
  Y  Y15  1  0.65318478  0.89857934  0.55176411  1
  Y  Y16  1  0.33537504  0.66768752  0.66768752  1
  Y  Y17  1  0.66462496  0.33231248  0.33231248  1
  Y  Y18  1  -0.00000000  0.33231248  0.66768752  1
  Y  Y19  1  0.00000000  0.66768752  0.33231248  1
  Y  Y20  1  0.00000000  0.16742130  0.16742130  1
  Y  Y21  1  0.00000000  0.83257870  0.83257870  1
  In  In22  1  0.58713940  0.96441513  0.96441513  1
  In  In23  1  0.41286060  0.37727573  0.37727573  1
  In  In24  1  -0.00000000  0.37727573  0.96441513  1
  In  In25  1  0.00000000  0.96441513  0.37727573  1
  In  In26  1  0.41286060  0.03558487  0.03558487  1
  In  In27  1  0.58713940  0.62272427  0.62272427  1
  In  In28  1  0.00000000  0.62272427  0.03558487  1
  In  In29  1  -0.00000000  0.03558487  0.62272427  1
  In  In30  1  0.74179809  0.87089904  0.87089904  1
  In  In31  1  0.25820191  0.12910096  0.12910096  1
  In  In32  1  0.00000000  0.12910096  0.87089904  1
  In  In33  1  -0.00000000  0.87089904  0.12910096  1
  Si  Si34  1  0.34778176  0.50000000  0.84778176  1
  Si  Si35  1  0.65221824  0.50000000  0.15221824  1
  Si  Si36  1  0.65221824  0.15221824  0.50000000  1
  Si  Si37  1  0.34778176  0.84778176  0.50000000  1
  Si  Si38  1  -0.00000000  0.38284429  0.38284429  1
  Si  Si39  1  0.00000000  0.61715571  0.61715571  1
  Si  Si40  1  0.50000000  0.75000000  0.25000000  1
  Si  Si41  1  0.50000000  0.25000000  0.75000000  1
