# generated using pymatgen
data_La18In3Co28
_symmetry_space_group_name_H-M   'P 1'
_cell_length_a   9.54394167
_cell_length_b   11.21921225
_cell_length_c   11.21921225
_cell_angle_alpha   79.57703038
_cell_angle_beta   64.82786407
_cell_angle_gamma   64.82786407
_symmetry_Int_Tables_number   1
_chemical_formula_structural   La18In3Co28
_chemical_formula_sum   'La18 In3 Co28'
_cell_volume   983.97101291
_cell_formula_units_Z   1
loop_
 _symmetry_equiv_pos_site_id
 _symmetry_equiv_pos_as_xyz
  1  'x, y, z'
loop_
 _atom_site_type_symbol
 _atom_site_label
 _atom_site_symmetry_multiplicity
 _atom_site_fract_x
 _atom_site_fract_y
 _atom_site_fract_z
 _atom_site_occupancy
  La  La0  1  0.00000000  0.50000000  0.50000000  1
  La  La1  1  0.50000000  0.50000000  0.50000000  1
  La  La2  1  0.00000000  0.23725938  0.76274062  1
  La  La3  1  0.00000000  0.76274062  0.23725938  1
  La  La4  1  0.23725938  0.76274062  0.76274062  1
  La  La5  1  0.76274062  0.23725938  0.23725938  1
  La  La6  1  0.90434050  0.00000000  0.66933467  1
  La  La7  1  0.57367516  -0.00000000  0.33066533  1
  La  La8  1  0.90434050  0.66933467  -0.00000000  1
  La  La9  1  0.57367516  0.33066533  0.00000000  1
  La  La10  1  0.09565950  -0.00000000  0.33066533  1
  La  La11  1  0.42632484  0.00000000  0.66933467  1
  La  La12  1  0.09565950  0.33066533  0.00000000  1
  La  La13  1  0.42632484  0.66933467  -0.00000000  1
  La  La14  1  0.25088261  0.24911739  0.24911739  1
  La  La15  1  0.74911739  0.75088261  0.75088261  1
  La  La16  1  0.50000000  0.24911739  0.75088261  1
  La  La17  1  0.50000000  0.75088261  0.24911739  1
  In  In18  1  0.50000000  -0.00000000  -0.00000000  1
  In  In19  1  0.83628841  -0.00000000  -0.00000000  1
  In  In20  1  0.16371159  -0.00000000  -0.00000000  1
  Co  Co21  1  0.02119013  0.50374382  0.20484441  1
  Co  Co22  1  0.72977837  0.49625618  0.79515559  1
  Co  Co23  1  0.02119013  0.20484441  0.50374382  1
  Co  Co24  1  0.72977837  0.79515559  0.49625618  1
  Co  Co25  1  0.52493396  0.20484441  0.49625618  1
  Co  Co26  1  0.22603454  0.79515559  0.50374382  1
  Co  Co27  1  0.52493396  0.49625618  0.20484441  1
  Co  Co28  1  0.22603454  0.50374382  0.79515559  1
  Co  Co29  1  0.97880987  0.49625618  0.79515559  1
  Co  Co30  1  0.27022163  0.50374382  0.20484441  1
  Co  Co31  1  0.97880987  0.79515559  0.49625618  1
  Co  Co32  1  0.27022163  0.20484441  0.50374382  1
  Co  Co33  1  0.47506604  0.79515559  0.50374382  1
  Co  Co34  1  0.77396546  0.20484441  0.49625618  1
  Co  Co35  1  0.47506604  0.50374382  0.79515559  1
  Co  Co36  1  0.77396546  0.49625618  0.20484441  1
  Co  Co37  1  0.25054457  0.37242766  0.62757234  1
  Co  Co38  1  0.25054457  0.62757234  0.37242766  1
  Co  Co39  1  0.62297224  0.62757234  0.62757234  1
  Co  Co40  1  0.87811691  0.37242766  0.37242766  1
  Co  Co41  1  0.74945543  0.62757234  0.37242766  1
  Co  Co42  1  0.74945543  0.37242766  0.62757234  1
  Co  Co43  1  0.37702776  0.37242766  0.37242766  1
  Co  Co44  1  0.12188309  0.62757234  0.62757234  1
  Co  Co45  1  0.24443550  -0.00000000  0.51112900  1
  Co  Co46  1  0.75556450  -0.00000000  0.48887100  1
  Co  Co47  1  0.24443550  0.51112900  -0.00000000  1
  Co  Co48  1  0.75556450  0.48887100  0.00000000  1
