# generated using pymatgen
data_Nd(Ni2B)6
_symmetry_space_group_name_H-M   'P 1'
_cell_length_a   6.06687825
_cell_length_b   6.06687825
_cell_length_c   11.04665555
_cell_angle_alpha   90.00000000
_cell_angle_beta   90.00000000
_cell_angle_gamma   104.87422822
_symmetry_Int_Tables_number   1
_chemical_formula_structural   Nd(Ni2B)6
_chemical_formula_sum   'Nd2 Ni24 B12'
_cell_volume   392.97006996
_cell_formula_units_Z   2
loop_
 _symmetry_equiv_pos_site_id
 _symmetry_equiv_pos_as_xyz
  1  'x, y, z'
loop_
 _atom_site_type_symbol
 _atom_site_label
 _atom_site_symmetry_multiplicity
 _atom_site_fract_x
 _atom_site_fract_y
 _atom_site_fract_z
 _atom_site_occupancy
  Nd  Nd0  1  0.83529839  0.83529839  0.49843654  1
  Nd  Nd1  1  0.16470161  0.16470161  0.99843654  1
  Ni  Ni2  1  0.56611728  0.56611728  0.91832145  1
  Ni  Ni3  1  0.43388272  0.43388272  0.41832145  1
  Ni  Ni4  1  0.77882432  0.77882432  0.09961627  1
  Ni  Ni5  1  0.22117568  0.22117568  0.59961627  1
  Ni  Ni6  1  0.80445502  0.54173121  0.73463649  1
  Ni  Ni7  1  0.54173121  0.80445502  0.73463649  1
  Ni  Ni8  1  0.19554498  0.45826879  0.23463649  1
  Ni  Ni9  1  0.45826879  0.19554498  0.23463649  1
  Ni  Ni10  1  0.88101396  0.14565207  0.75566476  1
  Ni  Ni11  1  0.14565207  0.88101396  0.75566476  1
  Ni  Ni12  1  0.11898604  0.85434793  0.25566476  1
  Ni  Ni13  1  0.85434793  0.11898604  0.25566476  1
  Ni  Ni14  1  0.27306833  0.65994339  0.56781402  1
  Ni  Ni15  1  0.65994339  0.27306833  0.56781402  1
  Ni  Ni16  1  0.72693167  0.34005661  0.06781402  1
  Ni  Ni17  1  0.34005661  0.72693167  0.06781402  1
  Ni  Ni18  1  0.99439971  0.62897420  0.93682535  1
  Ni  Ni19  1  0.62897420  0.99439971  0.93682535  1
  Ni  Ni20  1  0.00560029  0.37102580  0.43682535  1
  Ni  Ni21  1  0.37102580  0.00560029  0.43682535  1
  Ni  Ni22  1  0.21204923  0.47414530  0.77495635  1
  Ni  Ni23  1  0.47414530  0.21204923  0.77495635  1
  Ni  Ni24  1  0.78795077  0.52585470  0.27495635  1
  Ni  Ni25  1  0.52585470  0.78795077  0.27495635  1
  B  B26  1  0.83556419  0.83556419  0.83549524  1
  B  B27  1  0.16443581  0.16443581  0.33549524  1
  B  B28  1  0.48857405  0.48857405  0.65478090  1
  B  B29  1  0.51142595  0.51142595  0.15478090  1
  B  B30  1  0.75277051  0.32411350  0.88569617  1
  B  B31  1  0.32411350  0.75277051  0.88569617  1
  B  B32  1  0.24722949  0.67588650  0.38569617  1
  B  B33  1  0.67588650  0.24722949  0.38569617  1
  B  B34  1  0.98800188  0.40107142  0.62258166  1
  B  B35  1  0.40107142  0.98800188  0.62258166  1
  B  B36  1  0.01199812  0.59892858  0.12258166  1
  B  B37  1  0.59892858  0.01199812  0.12258166  1
