# generated using pymatgen
data_Mg16Al12Tc
_symmetry_space_group_name_H-M   'P 1'
_cell_length_a   9.41280145
_cell_length_b   8.93201510
_cell_length_c   8.93201538
_cell_angle_alpha   108.35526036
_cell_angle_beta   110.56536328
_cell_angle_gamma   110.56536398
_symmetry_Int_Tables_number   1
_chemical_formula_structural   Mg16Al12Tc
_chemical_formula_sum   'Mg16 Al12 Tc1'
_cell_volume   570.10202413
_cell_formula_units_Z   1
loop_
 _symmetry_equiv_pos_site_id
 _symmetry_equiv_pos_as_xyz
  1  'x, y, z'
loop_
 _atom_site_type_symbol
 _atom_site_label
 _atom_site_symmetry_multiplicity
 _atom_site_fract_x
 _atom_site_fract_y
 _atom_site_fract_z
 _atom_site_occupancy
  Mg  Mg0  1  0.31920740  0.59908326  0.99999900  1
  Mg  Mg1  1  0.00739152  0.35866038  0.99999900  1
  Mg  Mg2  1  0.57372792  0.26661783  1.00000000  1
  Mg  Mg3  1  0.98988441  0.00000100  0.00000000  1
  Mg  Mg4  1  0.57372792  1.00000000  0.26661783  1
  Mg  Mg5  1  0.68038189  0.67515136  0.27569429  1
  Mg  Mg6  1  0.00523053  0.60054193  0.32484864  1
  Mg  Mg7  1  0.00739152  1.00000000  0.35865938  1
  Mg  Mg8  1  0.40468760  0.72430671  0.39945807  1
  Mg  Mg9  1  0.72012514  0.40091674  0.40091674  1
  Mg  Mg10  1  0.31920740  0.00000000  0.59908326  1
  Mg  Mg11  1  0.00522953  0.32484864  0.60054293  1
  Mg  Mg12  1  0.64873114  0.64133862  0.64133862  1
  Mg  Mg13  1  0.68038189  0.27569429  0.67515136  1
  Mg  Mg14  1  0.40468760  0.39945807  0.72430671  1
  Mg  Mg15  1  0.30710909  0.73338117  0.73338217  1
  Al  Al16  1  0.81068460  0.61363026  0.00000000  1
  Al  Al17  1  0.65019730  0.80742356  0.00000000  1
  Al  Al18  1  0.36810037  0.36311157  0.18247516  1
  Al  Al19  1  0.18562420  0.81752284  0.18063441  1
  Al  Al20  1  0.84277173  0.19257644  0.19257644  1
  Al  Al21  1  0.36810037  0.18247516  0.36311157  1
  Al  Al22  1  0.19705433  0.38636974  0.38637074  1
  Al  Al23  1  0.81068460  0.00000100  0.61363026  1
  Al  Al24  1  0.00498879  0.81936459  0.63688843  1
  Al  Al25  1  0.65019730  0.00000100  0.80742356  1
  Al  Al26  1  0.00498879  0.63688843  0.81936459  1
  Al  Al27  1  0.18562320  0.18063541  0.81752284  1
  Tc  Tc28  1  0.27388191  1.00000000  1.00000000  1
