# generated using pymatgen
data_Lu2ReB6
_symmetry_space_group_name_H-M   'P 1'
_cell_length_a   3.61787714
_cell_length_b   9.08544996
_cell_length_c   11.45165029
_cell_angle_alpha   90.00000000
_cell_angle_beta   90.00000000
_cell_angle_gamma   90.00000000
_symmetry_Int_Tables_number   1
_chemical_formula_structural   Lu2ReB6
_chemical_formula_sum   'Lu8 Re4 B24'
_cell_volume   376.41622276
_cell_formula_units_Z   4
loop_
 _symmetry_equiv_pos_site_id
 _symmetry_equiv_pos_as_xyz
  1  'x, y, z'
loop_
 _atom_site_type_symbol
 _atom_site_label
 _atom_site_symmetry_multiplicity
 _atom_site_fract_x
 _atom_site_fract_y
 _atom_site_fract_z
 _atom_site_occupancy
  Lu  Lu0  1  -0.00000000  0.32359489  0.41358720  1
  Lu  Lu1  1  -0.00000000  0.67640511  0.58641280  1
  Lu  Lu2  1  0.00000000  0.82359489  0.08641280  1
  Lu  Lu3  1  0.00000000  0.17640511  0.91358720  1
  Lu  Lu4  1  0.00000000  0.94438067  0.37053216  1
  Lu  Lu5  1  -0.00000000  0.05561933  0.62946784  1
  Lu  Lu6  1  0.00000000  0.44438067  0.12946784  1
  Lu  Lu7  1  -0.00000000  0.55561933  0.87053216  1
  Re  Re8  1  -0.00000000  0.63938667  0.32108625  1
  Re  Re9  1  -0.00000000  0.36061333  0.67891375  1
  Re  Re10  1  0.00000000  0.13938667  0.17891375  1
  Re  Re11  1  0.00000000  0.86061333  0.82108625  1
  B  B12  1  0.50000000  0.55352763  0.43365417  1
  B  B13  1  0.50000000  0.44647237  0.56634583  1
  B  B14  1  0.50000000  0.05352763  0.06634583  1
  B  B15  1  0.50000000  0.94647237  0.93365417  1
  B  B16  1  0.50000000  0.75130135  0.42053929  1
  B  B17  1  0.50000000  0.24869865  0.57946071  1
  B  B18  1  0.50000000  0.25130135  0.07946071  1
  B  B19  1  0.50000000  0.74869865  0.92053929  1
  B  B20  1  0.50000000  0.79450590  0.26578867  1
  B  B21  1  0.50000000  0.20549410  0.73421133  1
  B  B22  1  0.50000000  0.29450590  0.23421133  1
  B  B23  1  0.50000000  0.70549410  0.76578867  1
  B  B24  1  0.50000000  0.63207779  0.18523233  1
  B  B25  1  0.50000000  0.36792221  0.81476767  1
  B  B26  1  0.50000000  0.13207779  0.31476767  1
  B  B27  1  0.50000000  0.86792221  0.68523233  1
  B  B28  1  0.50000000  0.98221719  0.21225367  1
  B  B29  1  0.50000000  0.01778281  0.78774633  1
  B  B30  1  0.50000000  0.48221719  0.28774633  1
  B  B31  1  0.50000000  0.51778281  0.71225367  1
  B  B32  1  0.50000000  0.60037540  0.02818969  1
  B  B33  1  0.50000000  0.39962460  0.97181031  1
  B  B34  1  0.50000000  0.10037540  0.47181031  1
  B  B35  1  0.50000000  0.89962460  0.52818969  1
