# generated using pymatgen
data_Ba8U3(HgS6)3
_symmetry_space_group_name_H-M   'P 1'
_cell_length_a   4.22733560
_cell_length_b   27.26753278
_cell_length_c   27.26753278
_cell_angle_alpha   119.99999878
_cell_angle_beta   90.00000000
_cell_angle_gamma   90.00000000
_symmetry_Int_Tables_number   1
_chemical_formula_structural   Ba8U3(HgS6)3
_chemical_formula_sum   'Ba24 U9 Hg9 S54'
_cell_volume   2722.00583458
_cell_formula_units_Z   3
loop_
 _symmetry_equiv_pos_site_id
 _symmetry_equiv_pos_as_xyz
  1  'x, y, z'
loop_
 _atom_site_type_symbol
 _atom_site_label
 _atom_site_symmetry_multiplicity
 _atom_site_fract_x
 _atom_site_fract_y
 _atom_site_fract_z
 _atom_site_occupancy
  Ba  Ba0  1  0.50000000  0.03644951  0.70293871  1
  Ba  Ba1  1  0.50000000  0.29706129  0.33351079  1
  Ba  Ba2  1  0.50000000  0.66648921  0.96355049  1
  Ba  Ba3  1  0.50000000  0.20889076  0.84974111  1
  Ba  Ba4  1  0.50000000  0.15025889  0.35914965  1
  Ba  Ba5  1  0.50000000  0.64085035  0.79110924  1
  Ba  Ba6  1  0.50000000  0.92611638  0.88829024  1
  Ba  Ba7  1  0.50000000  0.11170976  0.03782614  1
  Ba  Ba8  1  0.50000000  0.96217386  0.07388362  1
  Ba  Ba9  1  0.50000000  0.98013763  0.50840015  1
  Ba  Ba10  1  0.50000000  0.49159985  0.47173748  1
  Ba  Ba11  1  0.50000000  0.52826252  0.01986237  1
  Ba  Ba12  1  0.50000000  0.77931551  0.41319758  1
  Ba  Ba13  1  0.50000000  0.58680242  0.36611794  1
  Ba  Ba14  1  0.50000000  0.63388206  0.22068449  1
  Ba  Ba15  1  0.50000000  0.66674060  0.63155422  1
  Ba  Ba16  1  0.50000000  0.36844578  0.03518638  1
  Ba  Ba17  1  0.50000000  0.96481362  0.33325940  1
  Ba  Ba18  1  0.50000000  0.31521304  0.75490095  1
  Ba  Ba19  1  0.50000000  0.24509905  0.56031209  1
  Ba  Ba20  1  0.50000000  0.43968791  0.68478696  1
  Ba  Ba21  1  0.50000000  0.86025060  0.69201148  1
  Ba  Ba22  1  0.50000000  0.30798852  0.16823912  1
  Ba  Ba23  1  0.50000000  0.83176088  0.13974940  1
  U  U24  1  0.00000000  0.06569284  0.86679164  1
  U  U25  1  -0.00000000  0.13320836  0.19890121  1
  U  U26  1  0.00000000  0.80109879  0.93430716  1
  U  U27  1  0.00000000  0.14437758  0.63643119  1
  U  U28  1  -0.00000000  0.36356881  0.50794639  1
  U  U29  1  -0.00000000  0.49205361  0.85562242  1
  U  U30  1  -0.00000000  0.72295058  0.52566529  1
  U  U31  1  0.00000000  0.47433471  0.19728529  1
  U  U32  1  0.00000000  0.80271471  0.27704942  1
  Hg  Hg33  1  -0.00000000  0.77756648  0.76988813  1
  Hg  Hg34  1  0.00000000  0.23011187  0.00767835  1
  Hg  Hg35  1  0.00000000  0.99232165  0.22243352  1
  Hg  Hg36  1  -0.00000000  0.89554386  0.57272127  1
  Hg  Hg37  1  0.00000000  0.42727873  0.32282259  1
  Hg  Hg38  1  -0.00000000  0.67717741  0.10445614  1
  Hg  Hg39  1  0.00000000  0.36893751  0.90860885  1
  Hg  Hg40  1  -0.00000000  0.09139115  0.46032866  1
  Hg  Hg41  1  0.00000000  0.53967134  0.63106249  1
  S  S42  1  -0.00000000  0.03007689  0.93878244  1
  S  S43  1  0.00000000  0.06121756  0.09129445  1
  S  S44  1  0.00000000  0.90870555  0.96992311  1
  S  S45  1  0.00000000  0.10819609  0.79905592  1
  S  S46  1  -0.00000000  0.20094408  0.30914018  1
  S  S47  1  -0.00000000  0.69085982  0.89180391  1
  S  S48  1  0.50000000  0.13361524  0.92314089  1
  S  S49  1  0.50000000  0.07685911  0.21047435  1
  S  S50  1  0.50000000  0.78952565  0.86638476  1
  S  S51  1  0.50000000  0.99948667  0.81066302  1
  S  S52  1  0.50000000  0.18933698  0.18882365  1
  S  S53  1  0.50000000  0.81117635  0.00051333  1
  S  S54  1  0.00000000  0.03897772  0.61256335  1
  S  S55  1  0.00000000  0.38743665  0.42641437  1
  S  S56  1  -0.00000000  0.57358563  0.96102228  1
  S  S57  1  0.00000000  0.24662680  0.65324313  1
  S  S58  1  -0.00000000  0.34675687  0.59338368  1
  S  S59  1  0.00000000  0.40661632  0.75337320  1
  S  S60  1  0.50000000  0.12145693  0.56465873  1
  S  S61  1  0.50000000  0.43534127  0.55679820  1
  S  S62  1  0.50000000  0.44320180  0.87854307  1
  S  S63  1  0.50000000  0.16625165  0.70654231  1
  S  S64  1  0.50000000  0.29345769  0.45970934  1
  S  S65  1  0.50000000  0.54029066  0.83374835  1
  S  S66  1  -0.00000000  0.75504890  0.63313652  1
  S  S67  1  0.00000000  0.36686348  0.12191238  1
  S  S68  1  -0.00000000  0.87808762  0.24495110  1
  S  S69  1  0.00000000  0.69252623  0.42035861  1
  S  S70  1  -0.00000000  0.57964139  0.27216762  1
  S  S71  1  -0.00000000  0.72783238  0.30747377  1
  S  S72  1  0.50000000  0.65377709  0.50770297  1
  S  S73  1  0.50000000  0.49229703  0.14607412  1
  S  S74  1  0.50000000  0.85392588  0.34622291  1
  S  S75  1  0.50000000  0.79299706  0.54451950  1
  S  S76  1  0.50000000  0.45548050  0.24847756  1
  S  S77  1  0.50000000  0.75152244  0.20700294  1
  S  S78  1  -0.00000000  0.87201570  0.78866719  1
  S  S79  1  -0.00000000  0.21133281  0.08334851  1
  S  S80  1  0.00000000  0.91665149  0.12798430  1
  S  S81  1  0.00000000  0.67750309  0.72644016  1
  S  S82  1  0.00000000  0.27355984  0.95106293  1
  S  S83  1  -0.00000000  0.04893707  0.32249691  1
  S  S84  1  -0.00000000  0.93500812  0.67212958  1
  S  S85  1  0.00000000  0.32787042  0.26287854  1
  S  S86  1  0.00000000  0.73712146  0.06499188  1
  S  S87  1  0.00000000  0.87946909  0.47921343  1
  S  S88  1  -0.00000000  0.52078657  0.40025566  1
  S  S89  1  -0.00000000  0.59974434  0.12053091  1
  S  S90  1  -0.00000000  0.43705415  0.00624987  1
  S  S91  1  0.00000000  0.99375013  0.43080428  1
  S  S92  1  0.00000000  0.56919572  0.56294585  1
  S  S93  1  0.00000000  0.28382158  0.82107919  1
  S  S94  1  0.00000000  0.17892081  0.46274239  1
  S  S95  1  -0.00000000  0.53725761  0.71617842  1
