# generated using pymatgen
data_K2Bi(IO3)5
_symmetry_space_group_name_H-M   'P 1'
_cell_length_a   8.39071191
_cell_length_b   8.39204060
_cell_length_c   12.46597761
_cell_angle_alpha   90.00000000
_cell_angle_beta   109.66648436
_cell_angle_gamma   90.00000000
_symmetry_Int_Tables_number   1
_chemical_formula_structural   K2Bi(IO3)5
_chemical_formula_sum   'K4 Bi2 I10 O30'
_cell_volume   826.59037355
_cell_formula_units_Z   2
loop_
 _symmetry_equiv_pos_site_id
 _symmetry_equiv_pos_as_xyz
  1  'x, y, z'
loop_
 _atom_site_type_symbol
 _atom_site_label
 _atom_site_symmetry_multiplicity
 _atom_site_fract_x
 _atom_site_fract_y
 _atom_site_fract_z
 _atom_site_occupancy
  K  K0  1  0.74547914  -0.00000000  -0.00000000  1
  K  K1  1  0.24547914  -0.00000000  -0.00000000  1
  K  K2  1  0.48329520  0.51156350  0.50000000  1
  K  K3  1  0.98329520  0.48843650  0.50000000  1
  Bi  Bi4  1  0.82467650  0.50000000  -0.00000000  1
  Bi  Bi5  1  0.32467650  0.50000000  -0.00000000  1
  I  I6  1  0.87308357  0.26548349  0.79079859  1
  I  I7  1  0.08228498  0.73451651  0.20920141  1
  I  I8  1  0.37308357  0.73451651  0.79079859  1
  I  I9  1  0.58228498  0.26548349  0.20920141  1
  I  I10  1  0.82806586  0.75261728  0.72841346  1
  I  I11  1  0.09965240  0.24738272  0.27158654  1
  I  I12  1  0.32806586  0.24738272  0.72841346  1
  I  I13  1  0.59965240  0.75261728  0.27158654  1
  I  I14  1  0.52261311  0.05342574  0.50000000  1
  I  I15  1  0.02261311  0.94657426  0.50000000  1
  O  O16  1  0.92406641  0.06446648  0.84536070  1
  O  O17  1  0.07870571  0.93553352  0.15463930  1
  O  O18  1  0.42406641  0.93553352  0.84536070  1
  O  O19  1  0.57870571  0.06446648  0.15463930  1
  O  O20  1  0.01754368  0.38142200  0.91604758  1
  O  O21  1  0.10149610  0.61857800  0.08395242  1
  O  O22  1  0.51754368  0.61857800  0.91604758  1
  O  O23  1  0.60149610  0.38142200  0.08395242  1
  O  O24  1  0.69300918  0.30489034  0.84189433  1
  O  O25  1  0.85111485  0.69510966  0.15810567  1
  O  O26  1  0.19300918  0.69510966  0.84189433  1
  O  O27  1  0.35111485  0.30489034  0.15810567  1
  O  O28  1  0.83078976  0.71147200  0.87422074  1
  O  O29  1  0.95656902  0.28852800  0.12577926  1
  O  O30  1  0.33078976  0.28852800  0.87422074  1
  O  O31  1  0.45656902  0.71147200  0.12577926  1
  O  O32  1  0.82371349  0.55341138  0.66820937  1
  O  O33  1  0.15550411  0.44658862  0.33179063  1
  O  O34  1  0.32371349  0.44658862  0.66820937  1
  O  O35  1  0.65550411  0.55341138  0.33179063  1
  O  O36  1  0.60218746  0.80067285  0.66518655  1
  O  O37  1  0.93700091  0.19932715  0.33481345  1
  O  O38  1  0.10218746  0.19932715  0.66518655  1
  O  O39  1  0.43700091  0.80067285  0.33481345  1
  O  O40  1  0.63788434  0.18801892  0.61622546  1
  O  O41  1  0.02165888  0.81198108  0.38377454  1
  O  O42  1  0.13788434  0.81198108  0.61622546  1
  O  O43  1  0.52165888  0.18801892  0.38377454  1
  O  O44  1  0.30741533  0.10202089  0.50000000  1
  O  O45  1  0.80741533  0.89797911  0.50000000  1
