# generated using pymatgen
data_Yb(NO3)3
_symmetry_space_group_name_H-M   'P 1'
_cell_length_a   6.31577935
_cell_length_b   10.02636606
_cell_length_c   11.36760817
_cell_angle_alpha   91.14941617
_cell_angle_beta   90.00000000
_cell_angle_gamma   90.00000000
_symmetry_Int_Tables_number   1
_chemical_formula_structural   Yb(NO3)3
_chemical_formula_sum   'Yb4 N12 O36'
_cell_volume   719.70116372
_cell_formula_units_Z   4
loop_
 _symmetry_equiv_pos_site_id
 _symmetry_equiv_pos_as_xyz
  1  'x, y, z'
loop_
 _atom_site_type_symbol
 _atom_site_label
 _atom_site_symmetry_multiplicity
 _atom_site_fract_x
 _atom_site_fract_y
 _atom_site_fract_z
 _atom_site_occupancy
  Yb  Yb0  1  0.32210975  0.71871383  0.74527499  1
  Yb  Yb1  1  0.82210975  0.78128617  0.25472501  1
  Yb  Yb2  1  0.67789025  0.28128617  0.25472501  1
  Yb  Yb3  1  0.17789025  0.21871383  0.74527499  1
  N  N4  1  0.62210263  0.82348213  0.48516212  1
  N  N5  1  0.12210263  0.67651787  0.51483788  1
  N  N6  1  0.37789737  0.17651787  0.51483788  1
  N  N7  1  0.87789737  0.32348213  0.48516212  1
  N  N8  1  0.27338633  0.80060617  0.20883350  1
  N  N9  1  0.77338633  0.69939383  0.79116650  1
  N  N10  1  0.72661367  0.19939383  0.79116650  1
  N  N11  1  0.22661367  0.30060617  0.20883350  1
  N  N12  1  0.28458385  0.47072460  0.88124254  1
  N  N13  1  0.78458385  0.02927540  0.11875746  1
  N  N14  1  0.71541615  0.52927540  0.11875746  1
  N  N15  1  0.21541615  0.97072460  0.88124254  1
  O  O16  1  0.58671360  0.71963029  0.42270269  1
  O  O17  1  0.08671360  0.78036971  0.57729731  1
  O  O18  1  0.41328640  0.28036971  0.57729731  1
  O  O19  1  0.91328640  0.21963029  0.42270269  1
  O  O20  1  0.73101336  0.91476494  0.43998223  1
  O  O21  1  0.23101336  0.58523506  0.56001777  1
  O  O22  1  0.26898664  0.08523506  0.56001777  1
  O  O23  1  0.76898664  0.41476494  0.43998223  1
  O  O24  1  0.55258204  0.83466342  0.58788788  1
  O  O25  1  0.05258204  0.66533658  0.41211212  1
  O  O26  1  0.44741796  0.16533658  0.41211212  1
  O  O27  1  0.94741796  0.33466342  0.58788788  1
  O  O28  1  0.18141788  0.88995049  0.26987575  1
  O  O29  1  0.68141788  0.61004951  0.73012425  1
  O  O30  1  0.81858212  0.11004951  0.73012425  1
  O  O31  1  0.31858212  0.38995049  0.26987575  1
  O  O32  1  0.46915135  0.80605461  0.19104012  1
  O  O33  1  0.96915135  0.69394539  0.80895988  1
  O  O34  1  0.53084865  0.19394539  0.80895988  1
  O  O35  1  0.03084865  0.30605461  0.19104012  1
  O  O36  1  0.16451969  0.70645011  0.16573353  1
  O  O37  1  0.66451969  0.79354989  0.83426647  1
  O  O38  1  0.83548031  0.29354989  0.83426647  1
  O  O39  1  0.33548031  0.20645011  0.16573353  1
  O  O40  1  0.26782945  0.45814155  0.76878407  1
  O  O41  1  0.76782945  0.04185845  0.23121593  1
  O  O42  1  0.73217055  0.54185845  0.23121593  1
  O  O43  1  0.23217055  0.95814155  0.76878407  1
  O  O44  1  0.33890121  0.58202308  0.92359829  1
  O  O45  1  0.83890121  0.91797692  0.07640171  1
  O  O46  1  0.66109879  0.41797692  0.07640171  1
  O  O47  1  0.16109879  0.08202308  0.92359829  1
  O  O48  1  0.24499266  0.37221534  0.94311200  1
  O  O49  1  0.74499266  0.12778466  0.05688800  1
  O  O50  1  0.75500734  0.62778466  0.05688800  1
  O  O51  1  0.25500734  0.87221534  0.94311200  1
