# generated using pymatgen
data_Li2MnP2O7
_symmetry_space_group_name_H-M   'P 1'
_cell_length_a   5.05636134
_cell_length_b   8.36306445
_cell_length_c   13.14136612
_cell_angle_alpha   90.00000000
_cell_angle_beta   90.00000000
_cell_angle_gamma   92.90854688
_symmetry_Int_Tables_number   1
_chemical_formula_structural   Li2MnP2O7
_chemical_formula_sum   'Li8 Mn4 P8 O28'
_cell_volume   554.98882971
_cell_formula_units_Z   4
loop_
 _symmetry_equiv_pos_site_id
 _symmetry_equiv_pos_as_xyz
  1  'x, y, z'
loop_
 _atom_site_type_symbol
 _atom_site_label
 _atom_site_symmetry_multiplicity
 _atom_site_fract_x
 _atom_site_fract_y
 _atom_site_fract_z
 _atom_site_occupancy
  Li  Li0  1  0.22700749  0.83770051  0.85482331  1
  Li  Li1  1  0.72700749  0.33770051  0.64517669  1
  Li  Li2  1  0.77299251  0.16229949  0.14517669  1
  Li  Li3  1  0.27299251  0.66229949  0.35482331  1
  Li  Li4  1  0.81122661  0.85112352  0.69658352  1
  Li  Li5  1  0.31122661  0.35112352  0.80341648  1
  Li  Li6  1  0.18877339  0.14887648  0.30341648  1
  Li  Li7  1  0.68877339  0.64887648  0.19658352  1
  Mn  Mn8  1  0.76976686  0.14072307  0.87070195  1
  Mn  Mn9  1  0.26976686  0.64072307  0.62929805  1
  Mn  Mn10  1  0.23023314  0.85927693  0.12929805  1
  Mn  Mn11  1  0.73023314  0.35927693  0.37070195  1
  P  P12  1  0.81110821  0.54273011  0.80956600  1
  P  P13  1  0.31110821  0.04273011  0.69043400  1
  P  P14  1  0.18889179  0.45726989  0.19043400  1
  P  P15  1  0.68889179  0.95726989  0.30956600  1
  P  P16  1  0.73486187  0.77753625  0.97051180  1
  P  P17  1  0.23486187  0.27753625  0.52948820  1
  P  P18  1  0.26513813  0.22246375  0.02948820  1
  P  P19  1  0.76513813  0.72246375  0.47051180  1
  O  O20  1  0.58716316  0.75832227  0.07073612  1
  O  O21  1  0.08716316  0.25832227  0.42926388  1
  O  O22  1  0.41283684  0.24167773  0.92926388  1
  O  O23  1  0.91283684  0.74167773  0.57073612  1
  O  O24  1  0.60698714  0.89119369  0.89455883  1
  O  O25  1  0.10698714  0.39119369  0.60544117  1
  O  O26  1  0.39301286  0.10880631  0.10544117  1
  O  O27  1  0.89301286  0.60880631  0.39455883  1
  O  O28  1  0.03118031  0.82051164  0.98414859  1
  O  O29  1  0.53118031  0.32051164  0.51585141  1
  O  O30  1  0.96881969  0.17948836  0.01585141  1
  O  O31  1  0.46881969  0.67948836  0.48414859  1
  O  O32  1  0.70688078  0.59884423  0.91926006  1
  O  O33  1  0.20688078  0.09884423  0.58073994  1
  O  O34  1  0.29311922  0.40115577  0.08073994  1
  O  O35  1  0.79311922  0.90115577  0.41926006  1
  O  O36  1  0.56769570  0.52316733  0.73876972  1
  O  O37  1  0.06769570  0.02316733  0.76123028  1
  O  O38  1  0.43230430  0.47683267  0.26123028  1
  O  O39  1  0.93230430  0.97683267  0.23876972  1
  O  O40  1  0.01513949  0.67229970  0.77242199  1
  O  O41  1  0.51513949  0.17229970  0.72757801  1
  O  O42  1  0.98486051  0.32770030  0.22757801  1
  O  O43  1  0.48486051  0.82770030  0.27242199  1
  O  O44  1  0.93267331  0.38052864  0.82389414  1
  O  O45  1  0.43267331  0.88052864  0.67610586  1
  O  O46  1  0.06732669  0.61947136  0.17610586  1
  O  O47  1  0.56732669  0.11947136  0.32389414  1
