# generated using pymatgen
data_Tl2NiP4(HO2)8
_symmetry_space_group_name_H-M   'P 1'
_cell_length_a   7.06322482
_cell_length_b   7.45435269
_cell_length_c   7.72314747
_cell_angle_alpha   82.25250449
_cell_angle_beta   73.08388717
_cell_angle_gamma   86.65683021
_symmetry_Int_Tables_number   1
_chemical_formula_structural   Tl2NiP4(HO2)8
_chemical_formula_sum   'Tl2 Ni1 P4 H8 O16'
_cell_volume   385.41346571
_cell_formula_units_Z   1
loop_
 _symmetry_equiv_pos_site_id
 _symmetry_equiv_pos_as_xyz
  1  'x, y, z'
loop_
 _atom_site_type_symbol
 _atom_site_label
 _atom_site_symmetry_multiplicity
 _atom_site_fract_x
 _atom_site_fract_y
 _atom_site_fract_z
 _atom_site_occupancy
  Tl  Tl0  1  0.89682046  0.28798727  0.20551805  1
  Tl  Tl1  1  0.10317954  0.71201273  0.79448195  1
  Ni  Ni2  1  0.50000000  0.50000000  -0.00000000  1
  P  P3  1  0.24607857  0.79854840  0.25115149  1
  P  P4  1  0.75392143  0.20145160  0.74884851  1
  P  P5  1  0.65421903  0.73556626  0.26410520  1
  P  P6  1  0.34578097  0.26443374  0.73589480  1
  H  H7  1  0.93205120  0.73298832  0.41336495  1
  H  H8  1  0.06794880  0.26701168  0.58663505  1
  H  H9  1  0.73191252  0.96565742  0.04366207  1
  H  H10  1  0.26808748  0.03434258  0.95633793  1
  H  H11  1  0.37942997  0.31519470  0.33969482  1
  H  H12  1  0.62057003  0.68480530  0.66030518  1
  H  H13  1  0.39111124  0.17896054  0.19442816  1
  H  H14  1  0.60888876  0.82103946  0.80557184  1
  O  O15  1  0.26813678  0.99044550  0.15088327  1
  O  O16  1  0.73186322  0.00955450  0.84911673  1
  O  O17  1  0.06231548  0.78324571  0.42475121  1
  O  O18  1  0.93768452  0.21675429  0.57524879  1
  O  O19  1  0.25339911  0.64883658  0.13468269  1
  O  O20  1  0.74660089  0.35116342  0.86531731  1
  O  O21  1  0.41884790  0.76514190  0.35439565  1
  O  O22  1  0.58115210  0.23485810  0.64560435  1
  O  O23  1  0.73569874  0.66891736  0.42290879  1
  O  O24  1  0.26430126  0.33108264  0.57709121  1
  O  O25  1  0.74045418  0.92814540  0.17627944  1
  O  O26  1  0.25954582  0.07185460  0.82372056  1
  O  O27  1  0.68662984  0.61094981  0.11766040  1
  O  O28  1  0.31337016  0.38905019  0.88233960  1
  O  O29  1  0.45076036  0.28903761  0.21458846  1
  O  O30  1  0.54923964  0.71096239  0.78541154  1
