# generated using pymatgen
data_KTi4Cl11
_symmetry_space_group_name_H-M   'P 1'
_cell_length_a   6.84492136
_cell_length_b   13.23460313
_cell_length_c   16.97242691
_cell_angle_alpha   90.00000000
_cell_angle_beta   90.00000000
_cell_angle_gamma   90.00000000
_symmetry_Int_Tables_number   1
_chemical_formula_structural   KTi4Cl11
_chemical_formula_sum   'K4 Ti16 Cl44'
_cell_volume   1537.52905895
_cell_formula_units_Z   4
loop_
 _symmetry_equiv_pos_site_id
 _symmetry_equiv_pos_as_xyz
  1  'x, y, z'
loop_
 _atom_site_type_symbol
 _atom_site_label
 _atom_site_symmetry_multiplicity
 _atom_site_fract_x
 _atom_site_fract_y
 _atom_site_fract_z
 _atom_site_occupancy
  K  K0  1  0.75000000  0.00422579  0.73976747  1
  K  K1  1  0.75000000  0.50422579  0.76023253  1
  K  K2  1  0.25000000  0.99577421  0.26023253  1
  K  K3  1  0.25000000  0.49577421  0.23976747  1
  Ti  Ti4  1  0.75000000  0.18414848  0.15000926  1
  Ti  Ti5  1  0.75000000  0.68414848  0.34999074  1
  Ti  Ti6  1  0.25000000  0.81585152  0.84999074  1
  Ti  Ti7  1  0.25000000  0.31585152  0.65000926  1
  Ti  Ti8  1  0.96478267  0.24593894  0.00727079  1
  Ti  Ti9  1  0.53521733  0.74593894  0.49272921  1
  Ti  Ti10  1  0.46478267  0.75406106  0.99272921  1
  Ti  Ti11  1  0.03521733  0.25406106  0.50727079  1
  Ti  Ti12  1  0.03521733  0.75406106  0.99272921  1
  Ti  Ti13  1  0.46478267  0.25406106  0.50727079  1
  Ti  Ti14  1  0.53521733  0.24593894  0.00727079  1
  Ti  Ti15  1  0.96478267  0.74593894  0.49272921  1
  Ti  Ti16  1  0.75000000  0.18091507  0.34327075  1
  Ti  Ti17  1  0.75000000  0.68091507  0.15672925  1
  Ti  Ti18  1  0.25000000  0.81908493  0.65672925  1
  Ti  Ti19  1  0.25000000  0.31908493  0.84327075  1
  Cl  Cl20  1  0.75000000  0.34744406  0.08895120  1
  Cl  Cl21  1  0.75000000  0.84744406  0.41104880  1
  Cl  Cl22  1  0.25000000  0.65255594  0.91104880  1
  Cl  Cl23  1  0.25000000  0.15255594  0.58895120  1
  Cl  Cl24  1  0.75000000  0.16437825  0.91716273  1
  Cl  Cl25  1  0.75000000  0.66437825  0.58283727  1
  Cl  Cl26  1  0.25000000  0.83562175  0.08283727  1
  Cl  Cl27  1  0.25000000  0.33562175  0.41716273  1
  Cl  Cl28  1  0.00199982  0.40503470  0.58387395  1
  Cl  Cl29  1  0.49800018  0.90503470  0.91612605  1
  Cl  Cl30  1  0.50199982  0.59496530  0.41612605  1
  Cl  Cl31  1  -0.00199982  0.09496530  0.08387395  1
  Cl  Cl32  1  -0.00199982  0.59496530  0.41612605  1
  Cl  Cl33  1  0.50199982  0.09496530  0.08387395  1
  Cl  Cl34  1  0.49800018  0.40503470  0.58387395  1
  Cl  Cl35  1  0.00199982  0.90503470  0.91612605  1
  Cl  Cl36  1  0.75000000  0.03625151  0.24948429  1
  Cl  Cl37  1  0.75000000  0.53625151  0.25051571  1
  Cl  Cl38  1  0.25000000  0.96374849  0.75051571  1
  Cl  Cl39  1  0.25000000  0.46374849  0.74948429  1
  Cl  Cl40  1  0.98807512  0.25141830  0.24933738  1
  Cl  Cl41  1  0.51192488  0.75141830  0.25066262  1
  Cl  Cl42  1  0.48807512  0.74858170  0.75066262  1
  Cl  Cl43  1  0.01192488  0.24858170  0.74933738  1
  Cl  Cl44  1  0.01192488  0.74858170  0.75066262  1
  Cl  Cl45  1  0.48807512  0.24858170  0.74933738  1
  Cl  Cl46  1  0.51192488  0.25141830  0.24933738  1
  Cl  Cl47  1  0.98807512  0.75141830  0.25066262  1
  Cl  Cl48  1  0.75000000  0.17797699  0.57860535  1
  Cl  Cl49  1  0.75000000  0.67797699  0.92139465  1
  Cl  Cl50  1  0.25000000  0.82202301  0.42139465  1
  Cl  Cl51  1  0.25000000  0.32202301  0.07860535  1
  Cl  Cl52  1  0.75000000  0.33103773  0.42686975  1
  Cl  Cl53  1  0.75000000  0.83103773  0.07313025  1
  Cl  Cl54  1  0.25000000  0.66896227  0.57313025  1
  Cl  Cl55  1  0.25000000  0.16896227  0.92686975  1
  Cl  Cl56  1  0.99468600  0.39698873  0.91857595  1
  Cl  Cl57  1  0.50531400  0.89698873  0.58142405  1
  Cl  Cl58  1  0.49468600  0.60301127  0.08142405  1
  Cl  Cl59  1  0.00531400  0.10301127  0.41857595  1
  Cl  Cl60  1  0.00531400  0.60301127  0.08142405  1
  Cl  Cl61  1  0.49468600  0.10301127  0.41857595  1
  Cl  Cl62  1  0.50531400  0.39698873  0.91857595  1
  Cl  Cl63  1  0.99468600  0.89698873  0.58142405  1
