# generated using pymatgen
data_Ce2ZrS5
_symmetry_space_group_name_H-M   'P 1'
_cell_length_a   7.37203129
_cell_length_b   7.95443570
_cell_length_c   11.65625151
_cell_angle_alpha   90.00000000
_cell_angle_beta   90.00000000
_cell_angle_gamma   90.00000000
_symmetry_Int_Tables_number   1
_chemical_formula_structural   Ce2ZrS5
_chemical_formula_sum   'Ce8 Zr4 S20'
_cell_volume   683.52665512
_cell_formula_units_Z   4
loop_
 _symmetry_equiv_pos_site_id
 _symmetry_equiv_pos_as_xyz
  1  'x, y, z'
loop_
 _atom_site_type_symbol
 _atom_site_label
 _atom_site_symmetry_multiplicity
 _atom_site_fract_x
 _atom_site_fract_y
 _atom_site_fract_z
 _atom_site_occupancy
  Ce  Ce0  1  0.97096494  0.00107835  0.17743878  1
  Ce  Ce1  1  0.52903506  0.49892165  0.67743878  1
  Ce  Ce2  1  0.02903506  0.50107835  0.82256122  1
  Ce  Ce3  1  0.47096494  0.99892165  0.32256122  1
  Ce  Ce4  1  0.02903506  0.99892165  0.82256122  1
  Ce  Ce5  1  0.47096494  0.50107835  0.32256122  1
  Ce  Ce6  1  0.97096494  0.49892165  0.17743878  1
  Ce  Ce7  1  0.52903506  0.00107835  0.67743878  1
  Zr  Zr8  1  0.42153990  0.75000000  0.00669276  1
  Zr  Zr9  1  0.07846010  0.75000000  0.50669276  1
  Zr  Zr10  1  0.57846010  0.25000000  0.99330724  1
  Zr  Zr11  1  0.92153990  0.25000000  0.49330724  1
  S  S12  1  0.66300602  0.53737839  0.91183473  1
  S  S13  1  0.83699398  0.96262161  0.41183473  1
  S  S14  1  0.33699398  0.03737839  0.08816527  1
  S  S15  1  0.16300602  0.46262161  0.58816527  1
  S  S16  1  0.33699398  0.46262161  0.08816527  1
  S  S17  1  0.16300602  0.03737839  0.58816527  1
  S  S18  1  0.66300602  0.96262161  0.91183473  1
  S  S19  1  0.83699398  0.53737839  0.41183473  1
  S  S20  1  0.66110009  0.75000000  0.18322137  1
  S  S21  1  0.83889991  0.75000000  0.68322137  1
  S  S22  1  0.33889991  0.25000000  0.81677863  1
  S  S23  1  0.16110009  0.25000000  0.31677863  1
  S  S24  1  0.05261721  0.75000000  0.00400830  1
  S  S25  1  0.44738279  0.75000000  0.50400830  1
  S  S26  1  0.94738279  0.25000000  0.99599170  1
  S  S27  1  0.55261721  0.25000000  0.49599170  1
  S  S28  1  0.31372174  0.75000000  0.79239520  1
  S  S29  1  0.18627826  0.75000000  0.29239520  1
  S  S30  1  0.68627826  0.25000000  0.20760480  1
  S  S31  1  0.81372174  0.25000000  0.70760480  1
