# generated using pymatgen
data_Cr2(Se2O5)3
_symmetry_space_group_name_H-M   'P 1'
_cell_length_a   11.18337839
_cell_length_b   11.64486027
_cell_length_c   11.97492398
_cell_angle_alpha   90.00000000
_cell_angle_beta   95.11351283
_cell_angle_gamma   90.00000000
_symmetry_Int_Tables_number   1
_chemical_formula_structural   Cr2(Se2O5)3
_chemical_formula_sum   'Cr8 Se24 O60'
_cell_volume   1553.27430142
_cell_formula_units_Z   4
loop_
 _symmetry_equiv_pos_site_id
 _symmetry_equiv_pos_as_xyz
  1  'x, y, z'
loop_
 _atom_site_type_symbol
 _atom_site_label
 _atom_site_symmetry_multiplicity
 _atom_site_fract_x
 _atom_site_fract_y
 _atom_site_fract_z
 _atom_site_occupancy
  Cr  Cr0  1  0.00000000  0.00000000  0.50000000  1
  Cr  Cr1  1  0.50000000  0.50000000  0.00000000  1
  Cr  Cr2  1  0.50000000  0.00000000  0.50000000  1
  Cr  Cr3  1  0.00000000  0.50000000  0.00000000  1
  Cr  Cr4  1  0.00000000  0.50000000  0.50000000  1
  Cr  Cr5  1  0.50000000  0.00000000  0.00000000  1
  Cr  Cr6  1  0.50000000  0.50000000  0.50000000  1
  Cr  Cr7  1  0.00000000  0.00000000  0.00000000  1
  Se  Se8  1  0.13888341  0.03329195  0.25821413  1
  Se  Se9  1  0.63888341  0.46670805  0.75821413  1
  Se  Se10  1  0.86111659  0.96670805  0.74178587  1
  Se  Se11  1  0.36111659  0.53329195  0.24178587  1
  Se  Se12  1  0.41134511  0.95316901  0.24685953  1
  Se  Se13  1  0.91134511  0.54683099  0.74685953  1
  Se  Se14  1  0.58865489  0.04683099  0.75314047  1
  Se  Se15  1  0.08865489  0.45316901  0.25314047  1
  Se  Se16  1  0.73401446  0.60716493  0.39084785  1
  Se  Se17  1  0.23401446  0.89283507  0.89084785  1
  Se  Se18  1  0.26598554  0.39283507  0.60915215  1
  Se  Se19  1  0.76598554  0.10716493  0.10915215  1
  Se  Se20  1  0.74898785  0.86929082  0.45049220  1
  Se  Se21  1  0.24898785  0.63070918  0.95049220  1
  Se  Se22  1  0.25101215  0.13070918  0.54950780  1
  Se  Se23  1  0.75101215  0.36929082  0.04950780  1
  Se  Se24  1  0.12833192  0.74764513  0.51514287  1
  Se  Se25  1  0.62833192  0.75235487  0.01514287  1
  Se  Se26  1  0.87166808  0.25235487  0.48485713  1
  Se  Se27  1  0.37166808  0.24764513  0.98485713  1
  Se  Se28  1  0.41138353  0.74615678  0.58071743  1
  Se  Se29  1  0.91138353  0.75384322  0.08071743  1
  Se  Se30  1  0.58861647  0.25384322  0.41928257  1
  Se  Se31  1  0.08861647  0.24615678  0.91928257  1
  O  O32  1  0.24964063  0.92806611  0.21652641  1
  O  O33  1  0.74964063  0.57193389  0.71652641  1
  O  O34  1  0.75035937  0.07193389  0.78347359  1
  O  O35  1  0.25035937  0.42806611  0.28347359  1
  O  O36  1  0.11828707  0.97076096  0.38463322  1
  O  O37  1  0.61828707  0.52923904  0.88463322  1
  O  O38  1  0.88171293  0.02923904  0.61536678  1
  O  O39  1  0.38171293  0.47076096  0.11536678  1
  O  O40  1  0.02209919  0.98363309  0.17103162  1
  O  O41  1  0.52209919  0.51636691  0.67103162  1
  O  O42  1  0.97790081  0.01636691  0.82896838  1
  O  O43  1  0.47790081  0.48363309  0.32896838  1
  O  O44  1  0.43838932  0.04978679  0.14601985  1
  O  O45  1  0.93838932  0.45021321  0.64601985  1
  O  O46  1  0.56161068  0.95021321  0.85398015  1
  O  O47  1  0.06161068  0.54978679  0.35398015  1
  O  O48  1  0.40402485  0.04666048  0.35741191  1
  O  O49  1  0.90402485  0.45333952  0.85741191  1
  O  O50  1  0.59597515  0.95333952  0.64258809  1
  O  O51  1  0.09597515  0.54666048  0.14258809  1
  O  O52  1  0.72432720  0.75528997  0.34154512  1
  O  O53  1  0.22432720  0.74471003  0.84154512  1
  O  O54  1  0.27567280  0.24471003  0.65845488  1
  O  O55  1  0.77567280  0.25528997  0.15845488  1
  O  O56  1  0.62882438  0.61736387  0.48608700  1
  O  O57  1  0.12882438  0.88263613  0.98608700  1
  O  O58  1  0.37117562  0.38263613  0.51391300  1
  O  O59  1  0.87117562  0.11736387  0.01391300  1
  O  O60  1  0.86551824  0.61760195  0.47533071  1
  O  O61  1  0.36551824  0.88239805  0.97533071  1
  O  O62  1  0.13448176  0.38239805  0.52466929  1
  O  O63  1  0.63448176  0.11760195  0.02466929  1
  O  O64  1  0.63298494  0.95703694  0.40244646  1
  O  O65  1  0.13298494  0.54296306  0.90244646  1
  O  O66  1  0.36701506  0.04296306  0.59755354  1
  O  O67  1  0.86701506  0.45703694  0.09755354  1
  O  O68  1  0.86732838  0.93142920  0.39441400  1
  O  O69  1  0.36732838  0.56857080  0.89441400  1
  O  O70  1  0.13267162  0.06857080  0.60558600  1
  O  O71  1  0.63267162  0.43142920  0.10558600  1
  O  O72  1  0.26124046  0.78928802  0.61017879  1
  O  O73  1  0.76124046  0.71071198  0.11017879  1
  O  O74  1  0.73875954  0.21071198  0.38982121  1
  O  O75  1  0.23875954  0.28928802  0.88982121  1
  O  O76  1  0.09789502  0.62302677  0.58300296  1
  O  O77  1  0.59789502  0.87697323  0.08300296  1
  O  O78  1  0.90210498  0.37697323  0.41699704  1
  O  O79  1  0.40210498  0.12302677  0.91699704  1
  O  O80  1  0.03376384  0.84323491  0.57045017  1
  O  O81  1  0.53376384  0.65676509  0.07045017  1
  O  O82  1  0.96623616  0.15676509  0.42954983  1
  O  O83  1  0.46623616  0.34323491  0.92954983  1
  O  O84  1  0.43687369  0.83886557  0.47516409  1
  O  O85  1  0.93687369  0.66113443  0.97516409  1
  O  O86  1  0.56312631  0.16113443  0.52483591  1
  O  O87  1  0.06312631  0.33886557  0.02483591  1
  O  O88  1  0.37435225  0.62418278  0.50436392  1
  O  O89  1  0.87435225  0.87581722  0.00436392  1
  O  O90  1  0.62564775  0.37581722  0.49563608  1
  O  O91  1  0.12564775  0.12418278  0.99563608  1
