# generated using pymatgen
data_Mg16Al12W
_symmetry_space_group_name_H-M   'P 1'
_cell_length_a   9.44422879
_cell_length_b   8.93225809
_cell_length_c   8.93225938
_cell_angle_alpha   108.28115324
_cell_angle_beta   110.63656741
_cell_angle_gamma   110.63656494
_symmetry_Int_Tables_number   1
_chemical_formula_structural   Mg16Al12W
_chemical_formula_sum   'Mg16 Al12 W1'
_cell_volume   571.50246595
_cell_formula_units_Z   1
loop_
 _symmetry_equiv_pos_site_id
 _symmetry_equiv_pos_as_xyz
  1  'x, y, z'
loop_
 _atom_site_type_symbol
 _atom_site_label
 _atom_site_symmetry_multiplicity
 _atom_site_fract_x
 _atom_site_fract_y
 _atom_site_fract_z
 _atom_site_occupancy
  Mg  Mg0  1  0.99192836  0.99999900  0.99999900  1
  Mg  Mg1  1  0.00866467  0.35929162  1.00000000  1
  Mg  Mg2  1  0.58236872  0.28081293  -0.00000000  1
  Mg  Mg3  1  0.31886183  0.60543056  1.00000000  1
  Mg  Mg4  1  0.68062453  0.67804159  0.27765405  1
  Mg  Mg5  1  0.58236972  1.00000000  0.28081293  1
  Mg  Mg6  1  0.00258294  0.59961146  0.32195841  1
  Mg  Mg7  1  0.00866467  0.99999900  0.35929162  1
  Mg  Mg8  1  0.71343227  0.39457044  0.39457044  1
  Mg  Mg9  1  0.40297247  0.72234795  0.40039054  1
  Mg  Mg10  1  0.00258194  0.32195841  0.59961146  1
  Mg  Mg11  1  0.31886183  0.00000000  0.60542956  1
  Mg  Mg12  1  0.64937105  0.64070638  0.64070638  1
  Mg  Mg13  1  0.68062453  0.27765405  0.67804159  1
  Mg  Mg14  1  0.30155579  0.71918607  0.71918707  1
  Mg  Mg15  1  0.40297247  0.40038954  0.72234895  1
  Al  Al16  1  0.64666622  0.80792563  0.99999900  1
  Al  Al17  1  0.81300076  0.61910864  1.00000000  1
  Al  Al18  1  0.36754410  0.36322229  0.18188863  1
  Al  Al19  1  0.18565447  0.81811137  0.18133367  1
  Al  Al20  1  0.83873959  0.19207337  0.19207437  1
  Al  Al21  1  0.36754410  0.18188863  0.36322229  1
  Al  Al22  1  0.19389112  0.38089236  0.38089136  1
  Al  Al23  1  0.81299976  0.00000100  0.61910864  1
  Al  Al24  1  0.00432180  0.81866733  0.63677871  1
  Al  Al25  1  0.64666622  1.00000000  0.80792563  1
  Al  Al26  1  0.00432280  0.63677871  0.81866733  1
  Al  Al27  1  0.18565547  0.18133367  0.81811137  1
  W  W28  1  0.28455881  0.00000100  1.00000000  1
