# generated using pymatgen
data_Hg3AsO5
_symmetry_space_group_name_H-M   'P 1'
_cell_length_a   7.19815695
_cell_length_b   9.26832719
_cell_length_c   9.19571452
_cell_angle_alpha   90.00000000
_cell_angle_beta   98.86490591
_cell_angle_gamma   90.00000000
_symmetry_Int_Tables_number   1
_chemical_formula_structural   Hg3AsO5
_chemical_formula_sum   'Hg12 As4 O20'
_cell_volume   606.16244192
_cell_formula_units_Z   4
loop_
 _symmetry_equiv_pos_site_id
 _symmetry_equiv_pos_as_xyz
  1  'x, y, z'
loop_
 _atom_site_type_symbol
 _atom_site_label
 _atom_site_symmetry_multiplicity
 _atom_site_fract_x
 _atom_site_fract_y
 _atom_site_fract_z
 _atom_site_occupancy
  Hg  Hg0  1  0.00270268  0.13702732  0.34520948  1
  Hg  Hg1  1  0.50270268  0.36297268  0.84520948  1
  Hg  Hg2  1  0.99729732  0.86297268  0.65479052  1
  Hg  Hg3  1  0.49729732  0.63702732  0.15479052  1
  Hg  Hg4  1  0.76001877  0.00419165  0.98601139  1
  Hg  Hg5  1  0.26001877  0.49580835  0.48601139  1
  Hg  Hg6  1  0.23998123  0.99580835  0.01398861  1
  Hg  Hg7  1  0.73998123  0.50419165  0.51398861  1
  Hg  Hg8  1  0.01298718  0.36873019  0.05366423  1
  Hg  Hg9  1  0.51298718  0.13126981  0.55366423  1
  Hg  Hg10  1  0.98701282  0.63126981  0.94633577  1
  Hg  Hg11  1  0.48701282  0.86873019  0.44633577  1
  As  As12  1  0.01211839  0.24048722  0.70987373  1
  As  As13  1  0.51211839  0.25951278  0.20987373  1
  As  As14  1  0.98788161  0.75951278  0.29012627  1
  As  As15  1  0.48788161  0.74048722  0.79012627  1
  O  O16  1  0.97686038  0.13608359  0.11478614  1
  O  O17  1  0.47686038  0.36391641  0.61478614  1
  O  O18  1  0.02313962  0.86391641  0.88521386  1
  O  O19  1  0.52313962  0.63608359  0.38521386  1
  O  O20  1  0.19194975  0.23126535  0.85608439  1
  O  O21  1  0.69194975  0.26873465  0.35608439  1
  O  O22  1  0.80805025  0.76873465  0.14391561  1
  O  O23  1  0.30805025  0.73126535  0.64391561  1
  O  O24  1  0.80499601  0.17925870  0.75667365  1
  O  O25  1  0.30499601  0.32074130  0.25667365  1
  O  O26  1  0.19500399  0.82074130  0.24332635  1
  O  O27  1  0.69500399  0.67925870  0.74332635  1
  O  O28  1  0.08951891  0.12890271  0.57561380  1
  O  O29  1  0.58951891  0.37109729  0.07561380  1
  O  O30  1  0.91048109  0.87109729  0.42438620  1
  O  O31  1  0.41048109  0.62890271  0.92438620  1
  O  O32  1  0.99573548  0.41757078  0.64314063  1
  O  O33  1  0.49573548  0.08242922  0.14314063  1
  O  O34  1  0.00426452  0.58242922  0.35685937  1
  O  O35  1  0.50426452  0.91757078  0.85685937  1
