# generated using pymatgen
data_ZrSnH4NF7
_symmetry_space_group_name_H-M   'P 1'
_cell_length_a   6.22493372
_cell_length_b   8.61044770
_cell_length_c   12.73331134
_cell_angle_alpha   90.00000000
_cell_angle_beta   90.00000000
_cell_angle_gamma   90.00000000
_symmetry_Int_Tables_number   1
_chemical_formula_structural   ZrSnH4NF7
_chemical_formula_sum   'Zr4 Sn4 H16 N4 F28'
_cell_volume   682.49869119
_cell_formula_units_Z   4
loop_
 _symmetry_equiv_pos_site_id
 _symmetry_equiv_pos_as_xyz
  1  'x, y, z'
loop_
 _atom_site_type_symbol
 _atom_site_label
 _atom_site_symmetry_multiplicity
 _atom_site_fract_x
 _atom_site_fract_y
 _atom_site_fract_z
 _atom_site_occupancy
  Zr  Zr0  1  0.75143163  0.50000000  0.58113125  1
  Zr  Zr1  1  0.24856837  0.50000000  0.41886875  1
  Zr  Zr2  1  0.75143163  0.00000000  0.91886875  1
  Zr  Zr3  1  0.24856837  0.00000000  0.08113125  1
  Sn  Sn4  1  0.77060771  0.50000000  0.90344407  1
  Sn  Sn5  1  0.22939229  0.50000000  0.09655593  1
  Sn  Sn6  1  0.77060771  -0.00000000  0.59655593  1
  Sn  Sn7  1  0.22939229  0.00000000  0.40344407  1
  H  H8  1  0.34550644  0.33853988  0.71814407  1
  H  H9  1  0.65449356  0.33853988  0.28185593  1
  H  H10  1  0.34550644  0.16146012  0.78185593  1
  H  H11  1  0.65449356  0.16146012  0.21814407  1
  H  H12  1  0.65449356  0.66146012  0.28185593  1
  H  H13  1  0.34550644  0.66146012  0.71814407  1
  H  H14  1  0.65449356  0.83853988  0.21814407  1
  H  H15  1  0.34550644  0.83853988  0.78185593  1
  H  H16  1  0.15555116  0.29739792  0.80748414  1
  H  H17  1  0.84444884  0.29739792  0.19251586  1
  H  H18  1  0.15555116  0.20260208  0.69251586  1
  H  H19  1  0.84444884  0.20260208  0.30748414  1
  H  H20  1  0.84444884  0.70260208  0.19251586  1
  H  H21  1  0.15555116  0.70260208  0.80748414  1
  H  H22  1  0.84444884  0.79739792  0.30748414  1
  H  H23  1  0.15555116  0.79739792  0.69251586  1
  N  N24  1  0.25171461  0.25000000  0.75000000  1
  N  N25  1  0.74828539  0.25000000  0.25000000  1
  N  N26  1  0.74828539  0.75000000  0.25000000  1
  N  N27  1  0.25171461  0.75000000  0.75000000  1
  F  F28  1  0.50000000  0.36057940  0.50000000  1
  F  F29  1  0.50000000  0.13942060  0.00000000  1
  F  F30  1  0.50000000  0.63942060  0.50000000  1
  F  F31  1  0.50000000  0.86057940  0.00000000  1
  F  F32  1  0.87657450  0.50000000  0.42837200  1
  F  F33  1  0.12342550  0.50000000  0.57162800  1
  F  F34  1  0.87657450  -0.00000000  0.07162800  1
  F  F35  1  0.12342550  0.00000000  0.92837200  1
  F  F36  1  0.50075817  0.50000000  0.68983175  1
  F  F37  1  0.49924183  0.50000000  0.31016825  1
  F  F38  1  0.50075817  -0.00000000  0.81016825  1
  F  F39  1  0.49924183  -0.00000000  0.18983175  1
  F  F40  1  0.89168160  0.50000000  0.73654997  1
  F  F41  1  0.10831840  0.50000000  0.26345003  1
  F  F42  1  0.89168160  0.00000000  0.76345003  1
  F  F43  1  0.10831840  0.00000000  0.23654997  1
  F  F44  1  0.83571883  0.26829722  0.60488718  1
  F  F45  1  0.16428117  0.26829722  0.39511282  1
  F  F46  1  0.83571883  0.23170278  0.89511282  1
  F  F47  1  0.16428117  0.23170278  0.10488718  1
  F  F48  1  0.16428117  0.73170278  0.39511282  1
  F  F49  1  0.83571883  0.73170278  0.60488718  1
  F  F50  1  0.16428117  0.76829722  0.10488718  1
  F  F51  1  0.83571883  0.76829722  0.89511282  1
  F  F52  1  0.11421862  0.50000000  0.91298653  1
  F  F53  1  0.88578138  0.50000000  0.08701347  1
  F  F54  1  0.11421862  -0.00000000  0.58701347  1
  F  F55  1  0.88578138  -0.00000000  0.41298653  1
