# generated using pymatgen
data_Ca2AsH4F13
_symmetry_space_group_name_H-M   'P 1'
_cell_length_a   7.31208056
_cell_length_b   7.31208056
_cell_length_c   17.78044718
_cell_angle_alpha   90.00000000
_cell_angle_beta   90.00000000
_cell_angle_gamma   90.00000000
_symmetry_Int_Tables_number   1
_chemical_formula_structural   Ca2AsH4F13
_chemical_formula_sum   'Ca8 As4 H16 F52'
_cell_volume   950.65867238
_cell_formula_units_Z   4
loop_
 _symmetry_equiv_pos_site_id
 _symmetry_equiv_pos_as_xyz
  1  'x, y, z'
loop_
 _atom_site_type_symbol
 _atom_site_label
 _atom_site_symmetry_multiplicity
 _atom_site_fract_x
 _atom_site_fract_y
 _atom_site_fract_z
 _atom_site_occupancy
  Ca  Ca0  1  0.27865087  0.25590867  0.78531107  1
  Ca  Ca1  1  0.72134913  0.74409133  0.28531107  1
  Ca  Ca2  1  0.74409133  0.27865087  0.53531107  1
  Ca  Ca3  1  0.25590867  0.72134913  0.03531107  1
  Ca  Ca4  1  0.72134913  0.25590867  0.21468893  1
  Ca  Ca5  1  0.27865087  0.74409133  0.71468893  1
  Ca  Ca6  1  0.25590867  0.27865087  0.46468893  1
  Ca  Ca7  1  0.74409133  0.72134913  0.96468893  1
  As  As8  1  0.78316448  0.00000000  0.75000000  1
  As  As9  1  0.21683552  0.00000000  0.25000000  1
  As  As10  1  -0.00000000  0.78316448  0.50000000  1
  As  As11  1  -0.00000000  0.21683552  0.00000000  1
  H  H12  1  0.46530938  0.38368223  0.93938872  1
  H  H13  1  0.53469062  0.61631777  0.43938872  1
  H  H14  1  0.61631777  0.46530938  0.68938872  1
  H  H15  1  0.38368223  0.53469062  0.18938872  1
  H  H16  1  0.53469062  0.38368223  0.06061128  1
  H  H17  1  0.46530938  0.61631777  0.56061128  1
  H  H18  1  0.38368223  0.46530938  0.31061128  1
  H  H19  1  0.61631777  0.53469062  0.81061128  1
  H  H20  1  0.11331783  0.62765838  0.87174706  1
  H  H21  1  0.88668217  0.37234162  0.37174706  1
  H  H22  1  0.37234162  0.11331783  0.62174706  1
  H  H23  1  0.62765838  0.88668217  0.12174706  1
  H  H24  1  0.88668217  0.62765838  0.12825294  1
  H  H25  1  0.11331783  0.37234162  0.62825294  1
  H  H26  1  0.62765838  0.11331783  0.37825294  1
  H  H27  1  0.37234162  0.88668217  0.87825294  1
  F  F28  1  0.61381091  0.16692254  0.76682109  1
  F  F29  1  0.38618909  0.83307746  0.26682109  1
  F  F30  1  0.83307746  0.61381091  0.51682109  1
  F  F31  1  0.16692254  0.38618909  0.01682109  1
  F  F32  1  0.38618909  0.16692254  0.23317891  1
  F  F33  1  0.61381091  0.83307746  0.73317891  1
  F  F34  1  0.16692254  0.61381091  0.48317891  1
  F  F35  1  0.83307746  0.38618909  0.98317891  1
  F  F36  1  0.78196746  0.94545032  0.84640074  1
  F  F37  1  0.21803254  0.05454968  0.34640074  1
  F  F38  1  0.05454968  0.78196746  0.59640074  1
  F  F39  1  0.94545032  0.21803254  0.09640074  1
  F  F40  1  0.21803254  0.94545032  0.15359926  1
  F  F41  1  0.78196746  0.05454968  0.65359926  1
  F  F42  1  0.94545032  0.78196746  0.40359926  1
  F  F43  1  0.05454968  0.21803254  0.90359926  1
  F  F44  1  0.95591251  0.16741021  0.76413891  1
  F  F45  1  0.04408749  0.83258979  0.26413891  1
  F  F46  1  0.83258979  0.95591251  0.51413891  1
  F  F47  1  0.16741021  0.04408749  0.01413891  1
  F  F48  1  0.04408749  0.16741021  0.23586109  1
  F  F49  1  0.95591251  0.83258979  0.73586109  1
  F  F50  1  0.16741021  0.95591251  0.48586109  1
  F  F51  1  0.83258979  0.04408749  0.98586109  1
  F  F52  1  0.43801480  0.29510562  0.89817694  1
  F  F53  1  0.56198520  0.70489438  0.39817694  1
  F  F54  1  0.70489438  0.43801480  0.64817694  1
  F  F55  1  0.29510562  0.56198520  0.14817694  1
  F  F56  1  0.56198520  0.29510562  0.10182306  1
  F  F57  1  0.43801480  0.70489438  0.60182306  1
  F  F58  1  0.29510562  0.43801480  0.35182306  1
  F  F59  1  0.70489438  0.56198520  0.85182306  1
  F  F60  1  0.49352365  0.50000000  0.75000000  1
  F  F61  1  0.50647635  0.50000000  0.25000000  1
  F  F62  1  0.50000000  0.49352365  0.50000000  1
  F  F63  1  0.50000000  0.50647635  0.00000000  1
  F  F64  1  0.17135261  0.56376588  0.82025407  1
  F  F65  1  0.82864739  0.43623412  0.32025407  1
  F  F66  1  0.43623412  0.17135261  0.57025407  1
  F  F67  1  0.56376588  0.82864739  0.07025407  1
  F  F68  1  0.82864739  0.56376588  0.17974593  1
  F  F69  1  0.17135261  0.43623412  0.67974593  1
  F  F70  1  0.56376588  0.17135261  0.42974593  1
  F  F71  1  0.43623412  0.82864739  0.92974593  1
  F  F72  1  0.30297320  0.94221256  0.82153190  1
  F  F73  1  0.69702680  0.05778744  0.32153190  1
  F  F74  1  0.05778744  0.30297320  0.57153190  1
  F  F75  1  0.94221256  0.69702680  0.07153190  1
  F  F76  1  0.69702680  0.94221256  0.17846810  1
  F  F77  1  0.30297320  0.05778744  0.67846810  1
  F  F78  1  0.94221256  0.30297320  0.42846810  1
  F  F79  1  0.05778744  0.69702680  0.92846810  1
