# generated using pymatgen
data_Hf21Re25
_symmetry_space_group_name_H-M   'P 1'
_cell_length_a   8.73671335
_cell_length_b   15.17703273
_cell_length_c   15.17703215
_cell_angle_alpha   116.40865407
_cell_angle_beta   101.06278534
_cell_angle_gamma   101.06278490
_symmetry_Int_Tables_number   1
_chemical_formula_structural   Hf21Re25
_chemical_formula_sum   'Hf42 Re50'
_cell_volume   1678.64958104
_cell_formula_units_Z   2
loop_
 _symmetry_equiv_pos_site_id
 _symmetry_equiv_pos_as_xyz
  1  'x, y, z'
loop_
 _atom_site_type_symbol
 _atom_site_label
 _atom_site_symmetry_multiplicity
 _atom_site_fract_x
 _atom_site_fract_y
 _atom_site_fract_z
 _atom_site_occupancy
  Hf  Hf0  1  0.05463358  0.30463358  0.60926715  1
  Hf  Hf1  1  0.44536642  0.39073285  0.69536642  1
  Hf  Hf2  1  0.75000000  0.30463358  0.69536642  1
  Hf  Hf3  1  0.55463358  0.60926715  0.30463358  1
  Hf  Hf4  1  0.25000000  0.69536642  0.30463358  1
  Hf  Hf5  1  0.94536642  0.69536642  0.39073285  1
  Hf  Hf6  1  0.77304381  0.45916268  0.22626431  1
  Hf  Hf7  1  0.54677950  0.77373569  0.23289837  1
  Hf  Hf8  1  0.31388113  0.76710163  0.54083732  1
  Hf  Hf9  1  0.27304381  0.22626431  0.45916268  1
  Hf  Hf10  1  0.81388113  0.54083732  0.76710163  1
  Hf  Hf11  1  0.04677950  0.23289837  0.77373569  1
  Hf  Hf12  1  0.22695619  0.54083732  0.77373569  1
  Hf  Hf13  1  0.45322050  0.22626431  0.76710163  1
  Hf  Hf14  1  0.68611887  0.23289837  0.45916268  1
  Hf  Hf15  1  0.72695619  0.77373569  0.54083732  1
  Hf  Hf16  1  0.18611887  0.45916268  0.23289837  1
  Hf  Hf17  1  0.95322050  0.76710163  0.22626431  1
  Hf  Hf18  1  0.56598571  0.11549184  0.88462983  1
  Hf  Hf19  1  0.68135588  0.11537017  0.23086201  1
  Hf  Hf20  1  0.45049387  0.76913799  0.88450816  1
  Hf  Hf21  1  0.06598571  0.88462983  0.11549184  1
  Hf  Hf22  1  0.95049387  0.88450816  0.76913799  1
  Hf  Hf23  1  0.18135588  0.23086201  0.11537017  1
  Hf  Hf24  1  0.43401429  0.88450816  0.11537017  1
  Hf  Hf25  1  0.31864412  0.88462983  0.76913799  1
  Hf  Hf26  1  0.54950613  0.23086201  0.11549184  1
  Hf  Hf27  1  0.93401429  0.11537017  0.88450816  1
  Hf  Hf28  1  0.04950613  0.11549184  0.23086201  1
  Hf  Hf29  1  0.81864412  0.76913799  0.88462983  1
  Hf  Hf30  1  0.54258348  0.90468607  0.48174907  1
  Hf  Hf31  1  0.06083442  0.51825093  0.42293700  1
  Hf  Hf32  1  0.63789741  0.57706300  0.09531393  1
  Hf  Hf33  1  0.04258348  0.48174907  0.90468607  1
  Hf  Hf34  1  0.13789741  0.09531393  0.57706300  1
  Hf  Hf35  1  0.56083442  0.42293700  0.51825093  1
  Hf  Hf36  1  0.45741652  0.09531393  0.51825093  1
  Hf  Hf37  1  0.93916558  0.48174907  0.57706300  1
  Hf  Hf38  1  0.36210259  0.42293700  0.90468607  1
  Hf  Hf39  1  0.95741652  0.51825093  0.09531393  1
  Hf  Hf40  1  0.86210259  0.90468607  0.42293700  1
  Hf  Hf41  1  0.43916558  0.57706300  0.48174907  1
  Re  Re42  1  0.50000000  0.00000000  -0.00000000  1
  Re  Re43  1  0.00000000  0.00000000  -0.00000000  1
  Re  Re44  1  0.68862933  0.93862933  0.87725866  1
  Re  Re45  1  0.81137067  0.12274134  0.06137067  1
  Re  Re46  1  0.75000000  0.93862933  0.06137067  1
  Re  Re47  1  0.18862933  0.87725866  0.93862933  1
  Re  Re48  1  0.25000000  0.06137067  0.93862933  1
  Re  Re49  1  0.31137067  0.06137067  0.12274134  1
  Re  Re50  1  0.30626223  0.55626223  0.11252445  1
  Re  Re51  1  0.19373777  0.88747555  0.44373777  1
  Re  Re52  1  0.75000000  0.55626223  0.44373777  1
  Re  Re53  1  0.80626223  0.11252445  0.55626223  1
  Re  Re54  1  0.25000000  0.44373777  0.55626223  1
  Re  Re55  1  0.69373777  0.44373777  0.88747555  1
  Re  Re56  1  0.86823040  0.29829874  0.06186105  1
  Re  Re57  1  0.80636935  0.93813895  0.23643769  1
  Re  Re58  1  0.56993167  0.76356231  0.70170126  1
  Re  Re59  1  0.36823040  0.06186105  0.29829874  1
  Re  Re60  1  0.06993167  0.70170126  0.76356231  1
  Re  Re61  1  0.30636935  0.23643769  0.93813895  1
  Re  Re62  1  0.13176960  0.70170126  0.93813895  1
  Re  Re63  1  0.19363065  0.06186105  0.76356231  1
  Re  Re64  1  0.43006833  0.23643769  0.29829874  1
  Re  Re65  1  0.63176960  0.93813895  0.70170126  1
  Re  Re66  1  0.93006833  0.29829874  0.23643769  1
  Re  Re67  1  0.69363065  0.76356231  0.06186105  1
  Re  Re68  1  0.68816130  0.11762772  0.70759765  1
  Re  Re69  1  0.98056364  0.29240235  0.41003006  1
  Re  Re70  1  0.57053358  0.58996994  0.88237228  1
  Re  Re71  1  0.18816130  0.70759765  0.11762772  1
  Re  Re72  1  0.07053358  0.88237228  0.58996994  1
  Re  Re73  1  0.48056364  0.41003006  0.29240235  1
  Re  Re74  1  0.31183870  0.88237228  0.29240235  1
  Re  Re75  1  0.01943636  0.70759765  0.58996994  1
  Re  Re76  1  0.42946642  0.41003006  0.11762772  1
  Re  Re77  1  0.81183870  0.29240235  0.88237228  1
  Re  Re78  1  0.92946642  0.11762772  0.41003006  1
  Re  Re79  1  0.51943636  0.58996994  0.70759765  1
  Re  Re80  1  0.38081537  0.99720476  0.64537840  1
  Re  Re81  1  0.73543697  0.35462160  0.35182635  1
  Re  Re82  1  0.38361061  0.64817365  0.00279524  1
  Re  Re83  1  0.88081537  0.64537840  0.99720476  1
  Re  Re84  1  0.88361061  0.00279524  0.64817365  1
  Re  Re85  1  0.23543697  0.35182635  0.35462160  1
  Re  Re86  1  0.61918463  0.00279524  0.35462160  1
  Re  Re87  1  0.26456303  0.64537840  0.64817365  1
  Re  Re88  1  0.61638939  0.35182635  0.99720476  1
  Re  Re89  1  0.11918463  0.35462160  0.00279524  1
  Re  Re90  1  0.11638939  0.99720476  0.35182635  1
  Re  Re91  1  0.76456303  0.64817365  0.64537840  1
