# generated using pymatgen
data_Cs4Sr3(PO3)12
_symmetry_space_group_name_H-M   'P 1'
_cell_length_a   13.68174410
_cell_length_b   13.68174410
_cell_length_c   13.68174410
_cell_angle_alpha   109.47122063
_cell_angle_beta   109.47122063
_cell_angle_gamma   109.47122063
_symmetry_Int_Tables_number   1
_chemical_formula_structural   Cs4Sr3(PO3)12
_chemical_formula_sum   'Cs8 Sr6 P24 O72'
_cell_volume   1971.52595577
_cell_formula_units_Z   2
loop_
 _symmetry_equiv_pos_site_id
 _symmetry_equiv_pos_as_xyz
  1  'x, y, z'
loop_
 _atom_site_type_symbol
 _atom_site_label
 _atom_site_symmetry_multiplicity
 _atom_site_fract_x
 _atom_site_fract_y
 _atom_site_fract_z
 _atom_site_occupancy
  Cs  Cs0  1  0.73501828  -0.00000000  0.50000000  1
  Cs  Cs1  1  -0.00000000  0.50000000  0.73501828  1
  Cs  Cs2  1  0.50000000  0.73501828  -0.00000000  1
  Cs  Cs3  1  0.76498172  0.76498172  0.76498172  1
  Cs  Cs4  1  -0.00000000  0.50000000  0.23501828  1
  Cs  Cs5  1  0.23501828  -0.00000000  0.50000000  1
  Cs  Cs6  1  0.50000000  0.23501828  0.00000000  1
  Cs  Cs7  1  0.26498172  0.26498172  0.26498172  1
  Sr  Sr8  1  0.87500000  0.75000000  0.12500000  1
  Sr  Sr9  1  0.62500000  0.25000000  0.37500000  1
  Sr  Sr10  1  0.75000000  0.12500000  0.87500000  1
  Sr  Sr11  1  0.25000000  0.37500000  0.62500000  1
  Sr  Sr12  1  0.12500000  0.87500000  0.75000000  1
  Sr  Sr13  1  0.37500000  0.62500000  0.25000000  1
  P  P14  1  0.67974483  0.25899481  0.67536538  1
  P  P15  1  0.91637057  0.24100519  0.42075002  1
  P  P16  1  0.58362943  0.50437945  0.82463462  1
  P  P17  1  0.82025517  0.99562055  0.07924998  1
  P  P18  1  0.17536538  0.75899481  0.17974483  1
  P  P19  1  0.92075002  0.74100519  0.41637057  1
  P  P20  1  0.32463462  0.00437945  0.08362943  1
  P  P21  1  0.57924998  0.49562055  0.32025517  1
  P  P22  1  0.25899481  0.67536538  0.67974483  1
  P  P23  1  0.24100519  0.42075002  0.91637057  1
  P  P24  1  0.50437945  0.82463462  0.58362943  1
  P  P25  1  0.99562055  0.07924998  0.82025517  1
  P  P26  1  0.75899481  0.17974483  0.17536538  1
  P  P27  1  0.74100519  0.41637057  0.92075002  1
  P  P28  1  0.00437945  0.08362943  0.32463462  1
  P  P29  1  0.49562055  0.32025517  0.57924998  1
  P  P30  1  0.67536538  0.67974483  0.25899481  1
  P  P31  1  0.42075002  0.91637057  0.24100519  1
  P  P32  1  0.82463462  0.58362943  0.50437945  1
  P  P33  1  0.07924998  0.82025517  0.99562055  1
  P  P34  1  0.17974483  0.17536538  0.75899481  1
  P  P35  1  0.41637057  0.92075002  0.74100519  1
  P  P36  1  0.08362943  0.32463462  0.00437945  1
  P  P37  1  0.32025517  0.57924998  0.49562055  1
  O  O38  1  0.45374708  0.69585488  0.57906207  1
  O  O39  1  0.38320719  0.80414512  0.75789221  1
  O  O40  1  0.11679281  0.37468502  0.92093793  1
  O  O41  1  0.04625292  0.12531498  0.74210779  1
  O  O42  1  0.07906207  0.19585488  0.95374708  1
  O  O43  1  0.25789221  0.30414512  0.88320719  1
  O  O44  1  0.42093793  0.87468502  0.61679281  1
  O  O45  1  0.24210779  0.62531498  0.54625292  1
  O  O46  1  0.69585488  0.57906207  0.45374708  1
  O  O47  1  0.80414512  0.75789221  0.38320719  1
  O  O48  1  0.37468502  0.92093793  0.11679281  1
  O  O49  1  0.12531498  0.74210779  0.04625292  1
  O  O50  1  0.19585488  0.95374708  0.07906207  1
  O  O51  1  0.30414512  0.88320719  0.25789221  1
  O  O52  1  0.87468502  0.61679281  0.42093793  1
  O  O53  1  0.62531498  0.54625292  0.24210779  1
  O  O54  1  0.57906207  0.45374708  0.69585488  1
  O  O55  1  0.75789221  0.38320719  0.80414512  1
  O  O56  1  0.92093793  0.11679281  0.37468502  1
  O  O57  1  0.74210779  0.04625292  0.12531498  1
  O  O58  1  0.95374708  0.07906207  0.19585488  1
  O  O59  1  0.88320719  0.25789221  0.30414512  1
  O  O60  1  0.61679281  0.42093793  0.87468502  1
  O  O61  1  0.54625292  0.24210779  0.62531498  1
  O  O62  1  0.63071151  0.89991816  0.68630649  1
  O  O63  1  0.28638833  0.60008184  0.73079335  1
  O  O64  1  0.21361167  0.44440502  0.81369351  1
  O  O65  1  0.86928849  0.05559498  0.76920665  1
  O  O66  1  0.18630649  0.39991816  0.13071151  1
  O  O67  1  0.23079335  0.10008184  0.78638833  1
  O  O68  1  0.31369351  0.94440502  0.71361167  1
  O  O69  1  0.26920665  0.55559498  0.36928849  1
  O  O70  1  0.89991816  0.68630649  0.63071151  1
  O  O71  1  0.60008184  0.73079335  0.28638833  1
  O  O72  1  0.44440502  0.81369351  0.21361167  1
  O  O73  1  0.05559498  0.76920665  0.86928849  1
  O  O74  1  0.39991816  0.13071151  0.18630649  1
  O  O75  1  0.10008184  0.78638833  0.23079335  1
  O  O76  1  0.94440502  0.71361167  0.31369351  1
  O  O77  1  0.55559498  0.36928849  0.26920665  1
  O  O78  1  0.68630649  0.63071151  0.89991816  1
  O  O79  1  0.73079335  0.28638833  0.60008184  1
  O  O80  1  0.81369351  0.21361167  0.44440502  1
  O  O81  1  0.76920665  0.86928849  0.05559498  1
  O  O82  1  0.13071151  0.18630649  0.39991816  1
  O  O83  1  0.78638833  0.23079335  0.10008184  1
  O  O84  1  0.71361167  0.31369351  0.94440502  1
  O  O85  1  0.36928849  0.26920665  0.55559498  1
  O  O86  1  0.19270430  0.65488798  0.17323817  1
  O  O87  1  0.01835019  0.84511202  0.53781632  1
  O  O88  1  0.48164981  0.51946613  0.32676183  1
  O  O89  1  0.30729570  0.98053387  0.96218368  1
  O  O90  1  0.67323817  0.15488798  0.69270430  1
  O  O91  1  0.03781632  0.34511202  0.51835019  1
  O  O92  1  0.82676183  0.01946613  0.98164981  1
  O  O93  1  0.46218368  0.48053387  0.80729570  1
  O  O94  1  0.65488798  0.17323817  0.19270430  1
  O  O95  1  0.84511202  0.53781632  0.01835019  1
  O  O96  1  0.51946613  0.32676183  0.48164981  1
  O  O97  1  0.98053387  0.96218368  0.30729570  1
  O  O98  1  0.15488798  0.69270430  0.67323817  1
  O  O99  1  0.34511202  0.51835019  0.03781632  1
  O  O100  1  0.01946613  0.98164981  0.82676183  1
  O  O101  1  0.48053387  0.80729570  0.46218368  1
  O  O102  1  0.17323817  0.19270430  0.65488798  1
  O  O103  1  0.53781632  0.01835019  0.84511202  1
  O  O104  1  0.32676183  0.48164981  0.51946613  1
  O  O105  1  0.96218368  0.30729570  0.98053387  1
  O  O106  1  0.69270430  0.67323817  0.15488798  1
  O  O107  1  0.51835019  0.03781632  0.34511202  1
  O  O108  1  0.98164981  0.82676183  0.01946613  1
  O  O109  1  0.80729570  0.46218368  0.48053387  1
