# generated using pymatgen
data_Cs2PH5O6
_symmetry_space_group_name_H-M   'P 1'
_cell_length_a   7.79618040
_cell_length_b   8.34293656
_cell_length_c   14.23018959
_cell_angle_alpha   90.00000000
_cell_angle_beta   90.00000000
_cell_angle_gamma   119.78426067
_symmetry_Int_Tables_number   1
_chemical_formula_structural   Cs2PH5O6
_chemical_formula_sum   'Cs8 P4 H20 O24'
_cell_volume   803.30813853
_cell_formula_units_Z   4
loop_
 _symmetry_equiv_pos_site_id
 _symmetry_equiv_pos_as_xyz
  1  'x, y, z'
loop_
 _atom_site_type_symbol
 _atom_site_label
 _atom_site_symmetry_multiplicity
 _atom_site_fract_x
 _atom_site_fract_y
 _atom_site_fract_z
 _atom_site_occupancy
  Cs  Cs0  1  0.26013024  0.75679725  0.23315902  1
  Cs  Cs1  1  0.73986976  0.74320275  0.73315902  1
  Cs  Cs2  1  0.73986976  0.24320275  0.76684098  1
  Cs  Cs3  1  0.26013024  0.25679725  0.26684098  1
  Cs  Cs4  1  0.74972725  0.75591134  0.41504014  1
  Cs  Cs5  1  0.25027275  0.74408866  0.91504014  1
  Cs  Cs6  1  0.25027275  0.24408866  0.58495986  1
  Cs  Cs7  1  0.74972725  0.25591134  0.08495986  1
  P  P8  1  0.74552473  0.23696956  0.35602488  1
  P  P9  1  0.25447527  0.26303044  0.85602488  1
  P  P10  1  0.25447527  0.76303044  0.64397512  1
  P  P11  1  0.74552473  0.73696956  0.14397512  1
  H  H12  1  0.30907036  0.12061473  0.02130962  1
  H  H13  1  0.69092964  0.37938527  0.52130962  1
  H  H14  1  0.69092964  0.87938527  0.97869038  1
  H  H15  1  0.30907036  0.62061473  0.47869038  1
  H  H16  1  0.18619824  0.87906210  0.47654651  1
  H  H17  1  0.81380176  0.62093790  0.97654651  1
  H  H18  1  0.81380176  0.12093790  0.52345349  1
  H  H19  1  0.18619824  0.37906210  0.02345349  1
  H  H20  1  0.13848738  0.94855726  0.07783435  1
  H  H21  1  0.86151262  0.55144274  0.57783435  1
  H  H22  1  0.86151262  0.05144274  0.92216565  1
  H  H23  1  0.13848738  0.44855726  0.42216565  1
  H  H24  1  0.35833621  0.04961509  0.42005731  1
  H  H25  1  0.64166379  0.45038491  0.92005731  1
  H  H26  1  0.64166379  0.95038491  0.57994269  1
  H  H27  1  0.35833621  0.54961509  0.07994269  1
  H  H28  1  0.77503810  0.47838741  0.26799472  1
  H  H29  1  0.22496190  0.02161259  0.76799472  1
  H  H30  1  0.22496190  0.52161259  0.73200528  1
  H  H31  1  0.77503810  0.97838741  0.23200528  1
  O  O32  1  0.85990825  0.42995860  0.29596104  1
  O  O33  1  0.14009175  0.07004140  0.79596104  1
  O  O34  1  0.14009175  0.57004140  0.70403896  1
  O  O35  1  0.85990825  0.92995860  0.20403896  1
  O  O36  1  0.58529154  0.24704850  0.41515849  1
  O  O37  1  0.41470846  0.25295150  0.91515849  1
  O  O38  1  0.41470846  0.75295150  0.58484151  1
  O  O39  1  0.58529154  0.74704850  0.08484151  1
  O  O40  1  0.65716159  0.07697117  0.28411024  1
  O  O41  1  0.34283841  0.42302883  0.78411024  1
  O  O42  1  0.34283841  0.92302883  0.71588976  1
  O  O43  1  0.65716159  0.57697117  0.21588976  1
  O  O44  1  0.91064488  0.23765738  0.41554249  1
  O  O45  1  0.08935512  0.26234262  0.91554249  1
  O  O46  1  0.08935512  0.76234262  0.58445751  1
  O  O47  1  0.91064488  0.73765738  0.08445751  1
  O  O48  1  0.21513331  0.95300725  0.41760284  1
  O  O49  1  0.78486669  0.54699275  0.91760284  1
  O  O50  1  0.78486669  0.04699275  0.58239716  1
  O  O51  1  0.21513331  0.45300725  0.08239716  1
  O  O52  1  0.28115256  0.04489538  0.07945966  1
  O  O53  1  0.71884744  0.45510462  0.57945966  1
  O  O54  1  0.71884744  0.95510462  0.92054034  1
  O  O55  1  0.28115256  0.54489538  0.42054034  1
