# generated using pymatgen
data_RePO6
_symmetry_space_group_name_H-M   'P 1'
_cell_length_a   8.51755155
_cell_length_b   8.51755155
_cell_length_c   21.11623116
_cell_angle_alpha   87.97447302
_cell_angle_beta   87.97447302
_cell_angle_gamma   61.03412138
_symmetry_Int_Tables_number   1
_chemical_formula_structural   RePO6
_chemical_formula_sum   'Re12 P12 O72'
_cell_volume   1339.19136180
_cell_formula_units_Z   12
loop_
 _symmetry_equiv_pos_site_id
 _symmetry_equiv_pos_as_xyz
  1  'x, y, z'
loop_
 _atom_site_type_symbol
 _atom_site_label
 _atom_site_symmetry_multiplicity
 _atom_site_fract_x
 _atom_site_fract_y
 _atom_site_fract_z
 _atom_site_occupancy
  Re  Re0  1  0.63815196  0.67518918  0.22059846  1
  Re  Re1  1  0.32481082  0.36184804  0.27940154  1
  Re  Re2  1  0.36184804  0.32481082  0.77940154  1
  Re  Re3  1  0.67518918  0.63815196  0.72059846  1
  Re  Re4  1  0.33513606  0.32799947  0.53937265  1
  Re  Re5  1  0.67200053  0.66486394  0.96062735  1
  Re  Re6  1  0.66486394  0.67200053  0.46062735  1
  Re  Re7  1  0.32799947  0.33513606  0.03937265  1
  Re  Re8  1  0.99798902  0.99457364  0.86947246  1
  Re  Re9  1  0.00542636  0.00201098  0.63052754  1
  Re  Re10  1  0.00201098  0.00542636  0.13052754  1
  Re  Re11  1  0.99457364  0.99798902  0.36947246  1
  P  P12  1  0.06397618  0.35708280  0.17004661  1
  P  P13  1  0.64291720  0.93602382  0.32995339  1
  P  P14  1  0.93602382  0.64291720  0.82995339  1
  P  P15  1  0.35708280  0.06397618  0.67004661  1
  P  P16  1  0.35875211  0.58016100  0.64863975  1
  P  P17  1  0.41983900  0.64124789  0.85136025  1
  P  P18  1  0.64124789  0.41983900  0.35136025  1
  P  P19  1  0.58016100  0.35875211  0.14863975  1
  P  P20  1  0.76549502  0.97434408  0.51267576  1
  P  P21  1  0.02565592  0.23450498  0.98732424  1
  P  P22  1  0.23450498  0.02565592  0.48732424  1
  P  P23  1  0.97434408  0.76549502  0.01267576  1
  O  O24  1  0.56546774  0.58970967  0.39494533  1
  O  O25  1  0.41029033  0.43453226  0.10505467  1
  O  O26  1  0.43453226  0.41029033  0.60505467  1
  O  O27  1  0.58970967  0.56546774  0.89494533  1
  O  O28  1  0.89514501  0.94095433  0.45721957  1
  O  O29  1  0.05904567  0.10485499  0.04278043  1
  O  O30  1  0.10485499  0.05904567  0.54278043  1
  O  O31  1  0.94095433  0.89514501  0.95721957  1
  O  O32  1  0.13495519  0.05838665  0.42304042  1
  O  O33  1  0.94161335  0.86504481  0.07695958  1
  O  O34  1  0.86504481  0.94161335  0.57695958  1
  O  O35  1  0.05838665  0.13495519  0.92304042  1
  O  O36  1  0.72305807  0.76333506  0.28886698  1
  O  O37  1  0.23666494  0.27694193  0.21113302  1
  O  O38  1  0.27694193  0.23666494  0.71113302  1
  O  O39  1  0.76333506  0.72305807  0.78886698  1
  O  O40  1  0.79562808  0.98713728  0.33141974  1
  O  O41  1  0.01286272  0.20437192  0.16858026  1
  O  O42  1  0.20437192  0.01286272  0.66858026  1
  O  O43  1  0.98713728  0.79562808  0.83141974  1
  O  O44  1  0.61394541  0.52269811  0.15854152  1
  O  O45  1  0.47730189  0.38605459  0.34145848  1
  O  O46  1  0.38605459  0.47730189  0.84145848  1
  O  O47  1  0.52269811  0.61394541  0.65854152  1
  O  O48  1  0.70492027  0.82665896  0.51717000  1
  O  O49  1  0.17334104  0.29507973  0.98283000  1
  O  O50  1  0.29507973  0.17334104  0.48283000  1
  O  O51  1  0.82665896  0.70492027  0.01717000  1
  O  O52  1  0.39602168  0.83675610  0.48801871  1
  O  O53  1  0.16324390  0.60397832  0.01198129  1
  O  O54  1  0.60397832  0.16324390  0.51198129  1
  O  O55  1  0.83675610  0.39602168  0.98801871  1
  O  O56  1  0.91258296  0.51999340  0.20226848  1
  O  O57  1  0.48000660  0.08741704  0.29773152  1
  O  O58  1  0.08741704  0.48000660  0.79773152  1
  O  O59  1  0.51999340  0.91258296  0.70226848  1
  O  O60  1  0.78608592  0.26239683  0.38850901  1
  O  O61  1  0.73760317  0.21391408  0.11149099  1
  O  O62  1  0.21391408  0.73760317  0.61149099  1
  O  O63  1  0.26239683  0.78608592  0.88850901  1
  O  O64  1  0.70674796  0.45684795  0.28735385  1
  O  O65  1  0.54315205  0.29325204  0.21264615  1
  O  O66  1  0.29325204  0.54315205  0.71264615  1
  O  O67  1  0.45684795  0.70674796  0.78735385  1
  O  O68  1  0.05483425  0.07466295  0.30209490  1
  O  O69  1  0.92533705  0.94516575  0.19790510  1
  O  O70  1  0.94516575  0.92533705  0.69790510  1
  O  O71  1  0.07466295  0.05483425  0.80209490  1
  O  O72  1  0.10417820  0.40563256  0.10358530  1
  O  O73  1  0.59436744  0.89582180  0.39641470  1
  O  O74  1  0.89582180  0.59436744  0.89641470  1
  O  O75  1  0.40563256  0.10417820  0.60358530  1
  O  O76  1  0.14092854  0.77162582  0.36617541  1
  O  O77  1  0.22837418  0.85907146  0.13382459  1
  O  O78  1  0.85907146  0.22837418  0.63382459  1
  O  O79  1  0.77162582  0.14092854  0.86617541  1
  O  O80  1  0.31613735  0.48447206  0.48262930  1
  O  O81  1  0.51552794  0.68386265  0.01737070  1
  O  O82  1  0.68386265  0.51552794  0.51737070  1
  O  O83  1  0.48447206  0.31613735  0.98262930  1
  O  O84  1  0.42195199  0.76959332  0.25039850  1
  O  O85  1  0.23040668  0.57804801  0.24960150  1
  O  O86  1  0.57804801  0.23040668  0.74960150  1
  O  O87  1  0.76959332  0.42195199  0.75039850  1
  O  O88  1  0.87865329  0.57371501  0.42870930  1
  O  O89  1  0.42628499  0.12134671  0.07129070  1
  O  O90  1  0.12134671  0.42628499  0.57129070  1
  O  O91  1  0.57371501  0.87865329  0.92870930  1
  O  O92  1  0.62219920  0.83627591  0.16645075  1
  O  O93  1  0.16372409  0.37780080  0.33354925  1
  O  O94  1  0.37780080  0.16372409  0.83354925  1
  O  O95  1  0.83627591  0.62219920  0.66645075  1
