# generated using pymatgen
data_TiP2(S4Cl)2
_symmetry_space_group_name_H-M   'P 1'
_cell_length_a   7.17838037
_cell_length_b   13.04109694
_cell_length_c   16.11819348
_cell_angle_alpha   90.00000000
_cell_angle_beta   90.70909134
_cell_angle_gamma   90.00000000
_symmetry_Int_Tables_number   1
_chemical_formula_structural   TiP2(S4Cl)2
_chemical_formula_sum   'Ti4 P8 S32 Cl8'
_cell_volume   1508.77227456
_cell_formula_units_Z   4
loop_
 _symmetry_equiv_pos_site_id
 _symmetry_equiv_pos_as_xyz
  1  'x, y, z'
loop_
 _atom_site_type_symbol
 _atom_site_label
 _atom_site_symmetry_multiplicity
 _atom_site_fract_x
 _atom_site_fract_y
 _atom_site_fract_z
 _atom_site_occupancy
  Ti  Ti0  1  0.28553402  0.25571787  0.46675094  1
  Ti  Ti1  1  0.78553402  0.24428213  0.96675094  1
  Ti  Ti2  1  0.71446598  0.74428213  0.53324906  1
  Ti  Ti3  1  0.21446598  0.75571787  0.03324906  1
  P  P4  1  0.39596902  0.09020786  0.33712268  1
  P  P5  1  0.89596902  0.40979214  0.83712268  1
  P  P6  1  0.60403098  0.90979214  0.66287732  1
  P  P7  1  0.10403098  0.59020786  0.16287732  1
  P  P8  1  0.60284740  0.85421880  0.36792654  1
  P  P9  1  0.10284740  0.64578120  0.86792654  1
  P  P10  1  0.39715260  0.14578120  0.63207346  1
  P  P11  1  0.89715260  0.35421880  0.13207346  1
  S  S12  1  0.34245932  0.93409630  0.36941693  1
  S  S13  1  0.84245932  0.56590370  0.86941693  1
  S  S14  1  0.65754068  0.06590370  0.63058307  1
  S  S15  1  0.15754068  0.43409630  0.13058307  1
  S  S16  1  0.57515872  0.16171007  0.41205084  1
  S  S17  1  0.07515872  0.33828993  0.91205084  1
  S  S18  1  0.42484128  0.83828993  0.58794916  1
  S  S19  1  0.92484128  0.66171007  0.08794916  1
  S  S20  1  0.14640453  0.15930700  0.34662672  1
  S  S21  1  0.64640453  0.34069300  0.84662672  1
  S  S22  1  0.85359547  0.84069300  0.65337328  1
  S  S23  1  0.35359547  0.65930700  0.15337328  1
  S  S24  1  0.47758558  0.08393850  0.21077937  1
  S  S25  1  0.97758558  0.41606150  0.71077937  1
  S  S26  1  0.52241442  0.91606150  0.78922063  1
  S  S27  1  0.02241442  0.58393850  0.28922063  1
  S  S28  1  0.72967930  0.01176253  0.23147289  1
  S  S29  1  0.22967930  0.48823747  0.73147289  1
  S  S30  1  0.27032070  0.98823747  0.76852711  1
  S  S31  1  0.77032070  0.51176253  0.26852711  1
  S  S32  1  0.68346586  0.85613352  0.24131240  1
  S  S33  1  0.18346586  0.64386648  0.74131240  1
  S  S34  1  0.31653414  0.14386648  0.75868760  1
  S  S35  1  0.81653414  0.35613352  0.25868760  1
  S  S36  1  0.52852838  0.71187430  0.40315915  1
  S  S37  1  0.02852838  0.78812570  0.90315915  1
  S  S38  1  0.47147162  0.28812570  0.59684085  1
  S  S39  1  0.97147162  0.21187430  0.09684085  1
  S  S40  1  0.79765373  0.90432713  0.44655504  1
  S  S41  1  0.29765373  0.59567287  0.94655504  1
  S  S42  1  0.20234627  0.09567287  0.55344496  1
  S  S43  1  0.70234627  0.40432713  0.05344496  1
  Cl  Cl44  1  0.40795679  0.40411635  0.42305908  1
  Cl  Cl45  1  0.90795679  0.09588365  0.92305908  1
  Cl  Cl46  1  0.59204321  0.59588365  0.57694092  1
  Cl  Cl47  1  0.09204321  0.90411635  0.07694092  1
  Cl  Cl48  1  0.99609825  0.31785344  0.48373353  1
  Cl  Cl49  1  0.49609825  0.18214656  0.98373353  1
  Cl  Cl50  1  0.00390175  0.68214656  0.51626647  1
  Cl  Cl51  1  0.50390175  0.81785344  0.01626647  1
