# generated using pymatgen
data_NbH8N2OF5
_symmetry_space_group_name_H-M   'P 1'
_cell_length_a   6.12090939
_cell_length_b   10.83083967
_cell_length_c   11.01846601
_cell_angle_alpha   88.66231213
_cell_angle_beta   73.87362646
_cell_angle_gamma   73.58643606
_symmetry_Int_Tables_number   1
_chemical_formula_structural   NbH8N2OF5
_chemical_formula_sum   'Nb4 H32 N8 O4 F20'
_cell_volume   671.91855713
_cell_formula_units_Z   4
loop_
 _symmetry_equiv_pos_site_id
 _symmetry_equiv_pos_as_xyz
  1  'x, y, z'
loop_
 _atom_site_type_symbol
 _atom_site_label
 _atom_site_symmetry_multiplicity
 _atom_site_fract_x
 _atom_site_fract_y
 _atom_site_fract_z
 _atom_site_occupancy
  Nb  Nb0  1  0.70921580  0.49073252  0.58726394  1
  Nb  Nb1  1  0.71278774  0.99073252  0.08726394  1
  Nb  Nb2  1  0.50838467  0.94049637  0.54153703  1
  Nb  Nb3  1  0.50958193  0.44049637  0.04153703  1
  H  H4  1  0.42688189  0.23429815  0.34872244  1
  H  H5  1  0.49009752  0.73429815  0.84872244  1
  H  H6  1  0.25976313  0.38204938  0.41862580  1
  H  H7  1  0.43956169  0.88204938  0.91862580  1
  H  H8  1  0.30274392  0.25440084  0.50803773  1
  H  H9  1  0.43481751  0.75440084  0.00803773  1
  H  H10  1  0.53283814  0.31145834  0.44159634  1
  H  H11  1  0.21410718  0.81145834  0.94159634  1
  H  H12  1  0.79063396  0.04387138  0.71044855  1
  H  H13  1  0.95504611  0.54387138  0.21044855  1
  H  H14  1  0.78398701  0.17490577  0.62514888  1
  H  H15  1  0.91595835  0.67490577  0.12514888  1
  H  H16  1  0.74366908  0.18966601  0.78342091  1
  H  H17  1  0.78324400  0.68966601  0.28342091  1
  H  H18  1  0.01463852  0.11589483  0.68428754  1
  H  H19  1  0.68517910  0.61589483  0.18428754  1
  H  H20  1  0.26490818  0.72033882  0.28227049  1
  H  H21  1  0.23248251  0.22033882  0.78227049  1
  H  H22  1  0.20973703  0.85620601  0.37409701  1
  H  H23  1  0.05995995  0.35620601  0.87409701  1
  H  H24  1  0.01079826  0.77008113  0.40495953  1
  H  H25  1  0.31416107  0.27008113  0.90495953  1
  H  H26  1  0.28320070  0.70859011  0.43088946  1
  H  H27  1  0.07731974  0.20859011  0.93088946  1
  H  H28  1  0.99697703  0.07710166  0.25176967  1
  H  H29  1  0.17415164  0.57710166  0.75176967  1
  H  H30  1  0.93384056  0.23106339  0.20859198  1
  H  H31  1  0.12650406  0.73106339  0.70859198  1
  H  H32  1  0.96509976  0.20173507  0.35269674  1
  H  H33  1  0.98046842  0.70173507  0.85269674  1
  H  H34  1  0.20975034  0.15480782  0.22441681  1
  H  H35  1  0.91102504  0.65480782  0.72441681  1
  N  N36  1  0.37962769  0.29622804  0.42821899  1
  N  N37  1  0.39592527  0.79622804  0.92821899  1
  N  N38  1  0.83204306  0.13036823  0.70146032  1
  N  N39  1  0.83612839  0.63036823  0.20146032  1
  N  N40  1  0.19026345  0.76474890  0.37380647  1
  N  N41  1  0.17118117  0.26474890  0.87380647  1
  N  N42  1  0.02828457  0.16515623  0.25854754  1
  N  N43  1  0.04801166  0.66515623  0.75854754  1
  O  O44  1  0.64791866  0.62722424  0.69160383  1
  O  O45  1  0.53325326  0.12722424  0.19160383  1
  O  O46  1  0.68269758  0.80379376  0.43659617  1
  O  O47  1  0.57691249  0.30379376  0.93659617  1
  F  F48  1  0.79076688  0.30858533  0.47611657  1
  F  F49  1  0.92453121  0.80858533  0.97611657  1
  F  F50  1  0.97994161  0.51907970  0.45244440  1
  F  F51  1  0.54853430  0.01907970  0.95244440  1
  F  F52  1  0.94403541  0.37697547  0.66189935  1
  F  F53  1  0.51708977  0.87697547  0.16189935  1
  F  F54  1  0.44627258  0.42450751  0.68704505  1
  F  F55  1  0.94217486  0.92450751  0.18704505  1
  F  F56  1  0.49502497  0.56351652  0.47986391  1
  F  F57  1  0.96159460  0.06351652  0.97986391  1
  F  F58  1  0.29936123  0.12276512  0.65564620  1
  F  F59  1  0.42222745  0.62276512  0.15564620  1
  F  F60  1  0.27719507  0.01188767  0.44401217  1
  F  F61  1  0.76690509  0.51188767  0.94401217  1
  F  F62  1  0.25784066  0.86925030  0.65013657  1
  F  F63  1  0.72277247  0.36925030  0.15013657  1
  F  F64  1  0.67682819  0.91054185  0.67452255  1
  F  F65  1  0.23810741  0.41054185  0.17452255  1
  F  F66  1  0.70466292  0.05405451  0.46723203  1
  F  F67  1  0.27405053  0.55405451  0.96723203  1
