# generated using pymatgen
data_KNaAl2As2O9
_symmetry_space_group_name_H-M   'P 1'
_cell_length_a   5.60430157
_cell_length_b   8.36936357
_cell_length_c   17.40416561
_cell_angle_alpha   90.00000000
_cell_angle_beta   90.00000000
_cell_angle_gamma   90.00000000
_symmetry_Int_Tables_number   1
_chemical_formula_structural   KNaAl2As2O9
_chemical_formula_sum   'K4 Na4 Al8 As8 O36'
_cell_volume   816.33259627
_cell_formula_units_Z   4
loop_
 _symmetry_equiv_pos_site_id
 _symmetry_equiv_pos_as_xyz
  1  'x, y, z'
loop_
 _atom_site_type_symbol
 _atom_site_label
 _atom_site_symmetry_multiplicity
 _atom_site_fract_x
 _atom_site_fract_y
 _atom_site_fract_z
 _atom_site_occupancy
  K  K0  1  0.25000000  0.04813030  0.73212395  1
  K  K1  1  0.25000000  0.54813030  0.76787605  1
  K  K2  1  0.75000000  0.95186970  0.26787605  1
  K  K3  1  0.75000000  0.45186970  0.23212395  1
  Na  Na4  1  0.75000000  0.91133411  0.86466699  1
  Na  Na5  1  0.75000000  0.41133411  0.63533301  1
  Na  Na6  1  0.25000000  0.08866589  0.13533301  1
  Na  Na7  1  0.25000000  0.58866589  0.36466699  1
  Al  Al8  1  0.25000000  0.71919565  0.56101998  1
  Al  Al9  1  0.25000000  0.21919565  0.93898002  1
  Al  Al10  1  0.75000000  0.28080435  0.43898002  1
  Al  Al11  1  0.75000000  0.78080435  0.06101998  1
  Al  Al12  1  -0.00000000  0.00000000  0.50000000  1
  Al  Al13  1  0.50000000  0.50000000  0.00000000  1
  Al  Al14  1  0.50000000  0.00000000  0.50000000  1
  Al  Al15  1  -0.00000000  0.50000000  -0.00000000  1
  As  As16  1  0.75000000  0.81096000  0.64721149  1
  As  As17  1  0.75000000  0.31096000  0.85278851  1
  As  As18  1  0.25000000  0.18904000  0.35278851  1
  As  As19  1  0.25000000  0.68904000  0.14721149  1
  As  As20  1  0.25000000  0.33007816  0.55929052  1
  As  As21  1  0.25000000  0.83007816  0.94070948  1
  As  As22  1  0.75000000  0.66992184  0.44070948  1
  As  As23  1  0.75000000  0.16992184  0.05929052  1
  O  O24  1  0.75000000  0.90167224  0.73281620  1
  O  O25  1  0.75000000  0.40167224  0.76718380  1
  O  O26  1  0.25000000  0.09832776  0.26718380  1
  O  O27  1  0.25000000  0.59832776  0.23281620  1
  O  O28  1  0.99833773  0.69004945  0.63322252  1
  O  O29  1  0.50166227  0.19004945  0.86677748  1
  O  O30  1  0.49833773  0.30995055  0.36677748  1
  O  O31  1  0.00166227  0.80995055  0.13322252  1
  O  O32  1  0.00166227  0.30995055  0.36677748  1
  O  O33  1  0.49833773  0.80995055  0.13322252  1
  O  O34  1  0.50166227  0.69004945  0.63322252  1
  O  O35  1  0.99833773  0.19004945  0.86677748  1
  O  O36  1  0.75000000  0.95893591  0.57487775  1
  O  O37  1  0.75000000  0.45893591  0.92512225  1
  O  O38  1  0.25000000  0.04106409  0.42512225  1
  O  O39  1  0.25000000  0.54106409  0.07487775  1
  O  O40  1  0.99844622  0.22783419  0.52540493  1
  O  O41  1  0.50155378  0.72783419  0.97459507  1
  O  O42  1  0.49844622  0.77216581  0.47459507  1
  O  O43  1  0.00155378  0.27216581  0.02540493  1
  O  O44  1  0.00155378  0.77216581  0.47459507  1
  O  O45  1  0.49844622  0.27216581  0.02540493  1
  O  O46  1  0.50155378  0.22783419  0.52540493  1
  O  O47  1  0.99844622  0.72783419  0.97459507  1
  O  O48  1  0.25000000  0.33013517  0.65565277  1
  O  O49  1  0.25000000  0.83013517  0.84434723  1
  O  O50  1  0.75000000  0.66986483  0.34434723  1
  O  O51  1  0.75000000  0.16986483  0.15565277  1
  O  O52  1  0.25000000  0.51642855  0.52023013  1
  O  O53  1  0.25000000  0.01642855  0.97976987  1
  O  O54  1  0.75000000  0.48357145  0.47976987  1
  O  O55  1  0.75000000  0.98357145  0.02023013  1
  O  O56  1  0.25000000  0.94111459  0.56197776  1
  O  O57  1  0.25000000  0.44111459  0.93802224  1
  O  O58  1  0.75000000  0.05888541  0.43802224  1
  O  O59  1  0.75000000  0.55888541  0.06197776  1
