# generated using pymatgen
data_RbUCrNO9
_symmetry_space_group_name_H-M   'P 1'
_cell_length_a   7.50083348
_cell_length_b   10.22740621
_cell_length_c   12.58935165
_cell_angle_alpha   102.16997449
_cell_angle_beta   90.00000000
_cell_angle_gamma   90.00000000
_symmetry_Int_Tables_number   1
_chemical_formula_structural   RbUCrNO9
_chemical_formula_sum   'Rb4 U4 Cr4 N4 O36'
_cell_volume   944.07595231
_cell_formula_units_Z   4
loop_
 _symmetry_equiv_pos_site_id
 _symmetry_equiv_pos_as_xyz
  1  'x, y, z'
loop_
 _atom_site_type_symbol
 _atom_site_label
 _atom_site_symmetry_multiplicity
 _atom_site_fract_x
 _atom_site_fract_y
 _atom_site_fract_z
 _atom_site_occupancy
  Rb  Rb0  1  0.56980293  0.01216290  0.68427694  1
  Rb  Rb1  1  0.06980293  0.48783710  0.81572306  1
  Rb  Rb2  1  0.43019707  0.98783710  0.31572306  1
  Rb  Rb3  1  0.93019707  0.51216290  0.18427694  1
  U  U4  1  0.20139488  0.72070636  0.54957639  1
  U  U5  1  0.70139488  0.77929364  0.95042361  1
  U  U6  1  0.79860512  0.27929364  0.45042361  1
  U  U7  1  0.29860512  0.22070636  0.04957639  1
  Cr  Cr8  1  0.07456301  0.95144465  0.82107692  1
  Cr  Cr9  1  0.57456301  0.54855535  0.67892308  1
  Cr  Cr10  1  0.92543699  0.04855535  0.17892308  1
  Cr  Cr11  1  0.42543699  0.45144465  0.32107692  1
  N  N12  1  0.63219818  0.30091801  0.94839897  1
  N  N13  1  0.13219818  0.19908199  0.55160103  1
  N  N14  1  0.36780182  0.69908199  0.05160103  1
  N  N15  1  0.86780182  0.80091801  0.44839897  1
  O  O16  1  0.19436067  0.87527155  0.71142985  1
  O  O17  1  0.69436067  0.62472845  0.78857015  1
  O  O18  1  0.80563933  0.12472845  0.28857015  1
  O  O19  1  0.30563933  0.37527155  0.21142985  1
  O  O20  1  0.31828595  0.84389890  0.49047851  1
  O  O21  1  0.81828595  0.65610110  0.00952149  1
  O  O22  1  0.68171405  0.15610110  0.50952149  1
  O  O23  1  0.18171405  0.34389890  0.99047851  1
  O  O24  1  0.41986723  0.10391523  0.11237987  1
  O  O25  1  0.91986723  0.39608477  0.38762013  1
  O  O26  1  0.58013277  0.89608477  0.88762013  1
  O  O27  1  0.08013277  0.60391523  0.61237987  1
  O  O28  1  0.90866084  0.85217655  0.54800721  1
  O  O29  1  0.40866084  0.64782345  0.95199279  1
  O  O30  1  0.09133916  0.14782345  0.45199279  1
  O  O31  1  0.59133916  0.35217655  0.04800721  1
  O  O32  1  0.96694112  0.83536861  0.87481406  1
  O  O33  1  0.46694112  0.66463139  0.62518594  1
  O  O34  1  0.03305888  0.16463139  0.12518594  1
  O  O35  1  0.53305888  0.33536861  0.37481406  1
  O  O36  1  0.20801409  0.04685329  0.91362140  1
  O  O37  1  0.70801409  0.45314671  0.58637860  1
  O  O38  1  0.79198591  0.95314671  0.08637860  1
  O  O39  1  0.29198591  0.54685329  0.41362140  1
  O  O40  1  0.92951240  0.04691369  0.78196815  1
  O  O41  1  0.42951240  0.45308631  0.71803185  1
  O  O42  1  0.07048760  0.95308631  0.21803185  1
  O  O43  1  0.57048760  0.54691369  0.28196815  1
  O  O44  1  0.52234607  0.21159076  0.89841796  1
  O  O45  1  0.02234607  0.28840924  0.60158204  1
  O  O46  1  0.47765393  0.78840924  0.10158204  1
  O  O47  1  0.97765393  0.71159076  0.39841796  1
  O  O48  1  0.76537995  0.33407808  0.90400239  1
  O  O49  1  0.26537995  0.16592192  0.59599761  1
  O  O50  1  0.23462005  0.66592192  0.09599761  1
  O  O51  1  0.73462005  0.83407808  0.40400239  1
