# generated using pymatgen
data_Rb3V2ZnP4O17
_symmetry_space_group_name_H-M   'P 1'
_cell_length_a   7.22911110
_cell_length_b   9.60343007
_cell_length_c   23.53568790
_cell_angle_alpha   90.00000000
_cell_angle_beta   90.00000000
_cell_angle_gamma   90.00000000
_symmetry_Int_Tables_number   1
_chemical_formula_structural   Rb3V2ZnP4O17
_chemical_formula_sum   'Rb12 V8 Zn4 P16 O68'
_cell_volume   1633.94778470
_cell_formula_units_Z   4
loop_
 _symmetry_equiv_pos_site_id
 _symmetry_equiv_pos_as_xyz
  1  'x, y, z'
loop_
 _atom_site_type_symbol
 _atom_site_label
 _atom_site_symmetry_multiplicity
 _atom_site_fract_x
 _atom_site_fract_y
 _atom_site_fract_z
 _atom_site_occupancy
  Rb  Rb0  1  0.73043318  0.61235587  0.55575315  1
  Rb  Rb1  1  0.76956682  0.38764413  0.05575315  1
  Rb  Rb2  1  0.23043318  0.88764413  0.44424685  1
  Rb  Rb3  1  0.26956682  0.11235587  0.94424685  1
  Rb  Rb4  1  0.73112674  0.15244432  0.65871462  1
  Rb  Rb5  1  0.76887326  0.84755568  0.15871462  1
  Rb  Rb6  1  0.23112674  0.34755568  0.34128538  1
  Rb  Rb7  1  0.26887326  0.65244432  0.84128538  1
  Rb  Rb8  1  0.21210419  0.42270044  0.66446472  1
  Rb  Rb9  1  0.28789581  0.57729956  0.16446472  1
  Rb  Rb10  1  0.71210419  0.07729956  0.33553528  1
  Rb  Rb11  1  0.78789581  0.92270044  0.83553528  1
  V  V12  1  0.95482158  0.24929539  0.50803245  1
  V  V13  1  0.54517842  0.75070461  0.00803245  1
  V  V14  1  0.45482158  0.25070461  0.49196755  1
  V  V15  1  0.04517842  0.74929539  0.99196755  1
  V  V16  1  0.22331977  0.02019585  0.74410809  1
  V  V17  1  0.27668023  0.97980415  0.24410809  1
  V  V18  1  0.72331977  0.47980415  0.25589191  1
  V  V19  1  0.77668023  0.52019585  0.75589191  1
  Zn  Zn20  1  0.22718392  0.77133911  0.59825640  1
  Zn  Zn21  1  0.27281608  0.22866089  0.09825640  1
  Zn  Zn22  1  0.72718392  0.72866089  0.40174360  1
  Zn  Zn23  1  0.77281608  0.27133911  0.90174360  1
  P  P24  1  0.25394048  0.10323190  0.59488231  1
  P  P25  1  0.24605952  0.89676810  0.09488231  1
  P  P26  1  0.75394048  0.39676810  0.40511769  1
  P  P27  1  0.74605952  0.60323190  0.90511769  1
  P  P28  1  0.22011492  0.52065303  0.49662206  1
  P  P29  1  0.27988508  0.47934697  0.99662206  1
  P  P30  1  0.72011492  0.97934697  0.50337794  1
  P  P31  1  0.77988508  0.02065303  0.00337794  1
  P  P32  1  0.49517175  0.24499759  0.80435410  1
  P  P33  1  0.00482825  0.75500241  0.30435410  1
  P  P34  1  0.99517175  0.25500241  0.19564590  1
  P  P35  1  0.50482825  0.74499759  0.69564590  1
  P  P36  1  0.08283486  0.29457045  0.80535863  1
  P  P37  1  0.41716514  0.70542955  0.30535863  1
  P  P38  1  0.58283486  0.20542955  0.19464137  1
  P  P39  1  0.91716514  0.79457045  0.69464137  1
  O  O40  1  0.07473223  0.19959750  0.75277066  1
  O  O41  1  0.42526777  0.80040250  0.25277066  1
  O  O42  1  0.57473223  0.30040250  0.24722934  1
  O  O43  1  0.92526777  0.69959750  0.74722934  1
  O  O44  1  0.00970576  0.44101020  0.79261920  1
  O  O45  1  0.49029424  0.55898980  0.29261920  1
  O  O46  1  0.50970576  0.05898980  0.20738080  1
  O  O47  1  0.99029424  0.94101020  0.70738080  1
  O  O48  1  0.06901209  0.17937288  0.57710004  1
  O  O49  1  0.43098791  0.82062712  0.07710004  1
  O  O50  1  0.56901209  0.32062712  0.42289996  1
  O  O51  1  0.93098791  0.67937288  0.92289996  1
  O  O52  1  0.91512527  0.30468022  0.43112210  1
  O  O53  1  0.58487473  0.69531978  0.93112210  1
  O  O54  1  0.41512527  0.19531978  0.56887790  1
  O  O55  1  0.08487473  0.80468022  0.06887790  1
  O  O56  1  0.06143664  0.42684774  0.52443561  1
  O  O57  1  0.43856336  0.57315226  0.02443561  1
  O  O58  1  0.56143664  0.07315226  0.47556439  1
  O  O59  1  0.93856336  0.92684774  0.97556439  1
  O  O60  1  0.27565222  0.11261228  0.65919880  1
  O  O61  1  0.22434778  0.88738772  0.15919880  1
  O  O62  1  0.77565222  0.38738772  0.34080120  1
  O  O63  1  0.72434778  0.61261228  0.84080120  1
  O  O64  1  0.90687724  0.06005647  0.48619866  1
  O  O65  1  0.59312276  0.93994353  0.98619866  1
  O  O66  1  0.40687724  0.43994353  0.51380134  1
  O  O67  1  0.09312276  0.56005647  0.01380134  1
  O  O68  1  0.62596461  0.35542233  0.78223811  1
  O  O69  1  0.87403539  0.64457767  0.28223811  1
  O  O70  1  0.12596461  0.14457767  0.21776189  1
  O  O71  1  0.37403539  0.85542233  0.71776189  1
  O  O72  1  0.74433013  0.28712603  0.53144349  1
  O  O73  1  0.75566987  0.71287397  0.03144349  1
  O  O74  1  0.24433013  0.21287397  0.46855651  1
  O  O75  1  0.25566987  0.78712603  0.96855651  1
  O  O76  1  0.25923840  0.95725320  0.56942147  1
  O  O77  1  0.24076160  0.04274680  0.06942147  1
  O  O78  1  0.75923840  0.54274680  0.43057853  1
  O  O79  1  0.74076160  0.45725320  0.93057853  1
  O  O80  1  0.43639228  0.68253053  0.63938147  1
  O  O81  1  0.06360772  0.31746947  0.13938147  1
  O  O82  1  0.93639228  0.81746947  0.36061853  1
  O  O83  1  0.56360772  0.18253053  0.86061853  1
  O  O84  1  0.45835807  0.12994313  0.76041451  1
  O  O85  1  0.04164193  0.87005687  0.26041451  1
  O  O86  1  0.95835807  0.37005687  0.23958549  1
  O  O87  1  0.54164193  0.62994313  0.73958549  1
  O  O88  1  0.21539366  0.65965529  0.52892438  1
  O  O89  1  0.28460634  0.34034471  0.02892438  1
  O  O90  1  0.71539366  0.84034471  0.47107562  1
  O  O91  1  0.78460634  0.15965529  0.97107562  1
  O  O92  1  0.99895070  0.72866717  0.64129571  1
  O  O93  1  0.50104930  0.27133283  0.14129571  1
  O  O94  1  0.49895070  0.77133283  0.35870429  1
  O  O95  1  0.00104930  0.22866717  0.85870429  1
  O  O96  1  0.30126566  0.32422305  0.81728492  1
  O  O97  1  0.19873434  0.67577695  0.31728492  1
  O  O98  1  0.80126566  0.17577695  0.18271508  1
  O  O99  1  0.69873434  0.82422305  0.68271508  1
  O  O100  1  0.18700406  0.96032753  0.80933944  1
  O  O101  1  0.31299594  0.03967247  0.30933944  1
  O  O102  1  0.68700406  0.53967247  0.19066056  1
  O  O103  1  0.81299594  0.46032753  0.69066056  1
  O  O104  1  0.20041982  0.53701181  0.43371203  1
  O  O105  1  0.29958018  0.46298819  0.93371203  1
  O  O106  1  0.70041982  0.96298819  0.56628797  1
  O  O107  1  0.79958018  0.03701181  0.06628797  1
