# generated using pymatgen
data_Ho2Re3Si5
_symmetry_space_group_name_H-M   'P 1'
_cell_length_a   5.53095544
_cell_length_b   10.98925254
_cell_length_c   10.98925254
_cell_angle_alpha   90.00000000
_cell_angle_beta   90.00000000
_cell_angle_gamma   90.00000000
_symmetry_Int_Tables_number   1
_chemical_formula_structural   Ho2Re3Si5
_chemical_formula_sum   'Ho8 Re12 Si20'
_cell_volume   667.93848522
_cell_formula_units_Z   4
loop_
 _symmetry_equiv_pos_site_id
 _symmetry_equiv_pos_as_xyz
  1  'x, y, z'
loop_
 _atom_site_type_symbol
 _atom_site_label
 _atom_site_symmetry_multiplicity
 _atom_site_fract_x
 _atom_site_fract_y
 _atom_site_fract_z
 _atom_site_occupancy
  Ho  Ho0  1  0.50000000  0.73897378  0.57676796  1
  Ho  Ho1  1  0.50000000  0.26102622  0.42323204  1
  Ho  Ho2  1  0.00000000  0.76102622  0.07676796  1
  Ho  Ho3  1  0.00000000  0.23897378  0.92323204  1
  Ho  Ho4  1  0.50000000  0.57676796  0.26102622  1
  Ho  Ho5  1  0.50000000  0.42323204  0.73897378  1
  Ho  Ho6  1  0.00000000  0.07676796  0.23897378  1
  Ho  Ho7  1  0.00000000  0.92323204  0.76102622  1
  Re  Re8  1  0.50000000  0.85439218  0.87477524  1
  Re  Re9  1  0.50000000  0.14560782  0.12522476  1
  Re  Re10  1  0.00000000  0.64560782  0.37477524  1
  Re  Re11  1  0.00000000  0.35439218  0.62522476  1
  Re  Re12  1  0.50000000  0.87477524  0.14560782  1
  Re  Re13  1  0.50000000  0.12522476  0.85439218  1
  Re  Re14  1  0.00000000  0.37477524  0.35439218  1
  Re  Re15  1  0.00000000  0.62522476  0.64560782  1
  Re  Re16  1  0.25000000  -0.00000000  0.50000000  1
  Re  Re17  1  0.75000000  0.50000000  -0.00000000  1
  Re  Re18  1  0.25000000  0.50000000  -0.00000000  1
  Re  Re19  1  0.75000000  -0.00000000  0.50000000  1
  Si  Si20  1  0.25000000  0.17390698  0.67390698  1
  Si  Si21  1  0.25000000  0.82609302  0.32609302  1
  Si  Si22  1  0.75000000  0.32609302  0.17390698  1
  Si  Si23  1  0.75000000  0.67390698  0.82609302  1
  Si  Si24  1  0.25000000  0.67390698  0.82609302  1
  Si  Si25  1  0.25000000  0.32609302  0.17390698  1
  Si  Si26  1  0.75000000  0.17390698  0.67390698  1
  Si  Si27  1  0.75000000  0.82609302  0.32609302  1
  Si  Si28  1  0.25943270  0.50000000  0.50000000  1
  Si  Si29  1  0.75943270  -0.00000000  -0.00000000  1
  Si  Si30  1  0.74056730  0.50000000  0.50000000  1
  Si  Si31  1  0.24056730  -0.00000000  -0.00000000  1
  Si  Si32  1  0.50000000  0.97396456  0.68540288  1
  Si  Si33  1  0.50000000  0.02603544  0.31459712  1
  Si  Si34  1  0.00000000  0.52603544  0.18540288  1
  Si  Si35  1  0.00000000  0.47396456  0.81459712  1
  Si  Si36  1  0.50000000  0.68540288  0.02603544  1
  Si  Si37  1  0.50000000  0.31459712  0.97396456  1
  Si  Si38  1  0.00000000  0.18540288  0.47396456  1
  Si  Si39  1  0.00000000  0.81459712  0.52603544  1
