# generated using pymatgen
data_Tb2Nb2S7O30
_symmetry_space_group_name_H-M   'P 1'
_cell_length_a   7.15580594
_cell_length_b   12.85528357
_cell_length_c   12.85528357
_cell_angle_alpha   90.00000000
_cell_angle_beta   90.00000000
_cell_angle_gamma   90.00000000
_symmetry_Int_Tables_number   1
_chemical_formula_structural   Tb2Nb2S7O30
_chemical_formula_sum   'Tb4 Nb4 S14 O60'
_cell_volume   1182.55643687
_cell_formula_units_Z   2
loop_
 _symmetry_equiv_pos_site_id
 _symmetry_equiv_pos_as_xyz
  1  'x, y, z'
loop_
 _atom_site_type_symbol
 _atom_site_label
 _atom_site_symmetry_multiplicity
 _atom_site_fract_x
 _atom_site_fract_y
 _atom_site_fract_z
 _atom_site_occupancy
  Tb  Tb0  1  0.40750164  0.19877488  0.69877488  1
  Tb  Tb1  1  0.59249836  0.30122512  0.19877488  1
  Tb  Tb2  1  0.40750164  0.80122512  0.30122512  1
  Tb  Tb3  1  0.59249836  0.69877488  0.80122512  1
  Nb  Nb4  1  0.01903225  0.36112408  0.86112408  1
  Nb  Nb5  1  0.98096775  0.13887592  0.36112408  1
  Nb  Nb6  1  0.01903225  0.63887592  0.13887592  1
  Nb  Nb7  1  0.98096775  0.86112408  0.63887592  1
  S  S8  1  0.65384879  0.50000000  0.00000000  1
  S  S9  1  0.34615121  -0.00000000  0.50000000  1
  S  S10  1  0.10558488  0.62366634  0.87633366  1
  S  S11  1  0.89441512  0.87633366  0.37633366  1
  S  S12  1  0.10558488  0.37633366  0.12366634  1
  S  S13  1  0.89441512  0.12366634  0.62366634  1
  S  S14  1  0.70086363  0.43574365  0.67642242  1
  S  S15  1  0.29913637  0.06425635  0.17642242  1
  S  S16  1  0.70086363  0.56425635  0.32357758  1
  S  S17  1  0.29913637  0.93574365  0.82357758  1
  S  S18  1  0.29913637  0.32357758  0.43574365  1
  S  S19  1  0.70086363  0.17642242  0.93574365  1
  S  S20  1  0.29913637  0.67642242  0.56425635  1
  S  S21  1  0.70086363  0.82357758  0.06425635  1
  O  O22  1  0.20900019  0.29801807  0.79801807  1
  O  O23  1  0.79099981  0.20198193  0.29801807  1
  O  O24  1  0.20900019  0.70198193  0.20198193  1
  O  O25  1  0.79099981  0.79801807  0.70198193  1
  O  O26  1  0.53995025  0.43247800  0.06752200  1
  O  O27  1  0.46004975  0.06752200  0.56752200  1
  O  O28  1  0.53995025  0.56752200  0.93247800  1
  O  O29  1  0.46004975  0.93247800  0.43247800  1
  O  O30  1  0.77558557  0.43359813  0.93359813  1
  O  O31  1  0.22441443  0.06640187  0.43359813  1
  O  O32  1  0.77558557  0.56640187  0.06640187  1
  O  O33  1  0.22441443  0.93359813  0.56640187  1
  O  O34  1  0.92091735  0.65654682  0.84345318  1
  O  O35  1  0.07908265  0.84345318  0.34345318  1
  O  O36  1  0.92091735  0.34345318  0.15654682  1
  O  O37  1  0.07908265  0.15654682  0.65654682  1
  O  O38  1  0.25954861  0.67629294  0.82370706  1
  O  O39  1  0.74045139  0.82370706  0.32370706  1
  O  O40  1  0.25954861  0.32370706  0.17629294  1
  O  O41  1  0.74045139  0.17629294  0.67629294  1
  O  O42  1  0.12958224  0.50855841  0.85785117  1
  O  O43  1  0.87041776  0.99144159  0.35785117  1
  O  O44  1  0.12958224  0.49144159  0.14214883  1
  O  O45  1  0.87041776  0.00855841  0.64214883  1
  O  O46  1  0.87041776  0.14214883  0.50855841  1
  O  O47  1  0.12958224  0.35785117  0.00855841  1
  O  O48  1  0.87041776  0.85785117  0.49144159  1
  O  O49  1  0.12958224  0.64214883  0.99144159  1
  O  O50  1  0.54561699  0.36870256  0.71057008  1
  O  O51  1  0.45438301  0.13129744  0.21057008  1
  O  O52  1  0.54561699  0.63129744  0.28942992  1
  O  O53  1  0.45438301  0.86870256  0.78942992  1
  O  O54  1  0.45438301  0.28942992  0.36870256  1
  O  O55  1  0.54561699  0.21057008  0.86870256  1
  O  O56  1  0.45438301  0.71057008  0.63129744  1
  O  O57  1  0.54561699  0.78942992  0.13129744  1
  O  O58  1  0.67374897  0.54383639  0.70951556  1
  O  O59  1  0.32625103  0.95616361  0.20951556  1
  O  O60  1  0.67374897  0.45616361  0.29048444  1
  O  O61  1  0.32625103  0.04383639  0.79048444  1
  O  O62  1  0.32625103  0.29048444  0.54383639  1
  O  O63  1  0.67374897  0.20951556  0.04383639  1
  O  O64  1  0.32625103  0.70951556  0.45616361  1
  O  O65  1  0.67374897  0.79048444  0.95616361  1
  O  O66  1  0.73065952  0.42521243  0.56426086  1
  O  O67  1  0.26934048  0.07478757  0.06426086  1
  O  O68  1  0.73065952  0.57478757  0.43573914  1
  O  O69  1  0.26934048  0.92521243  0.93573914  1
  O  O70  1  0.26934048  0.43573914  0.42521243  1
  O  O71  1  0.73065952  0.06426086  0.92521243  1
  O  O72  1  0.26934048  0.56426086  0.57478757  1
  O  O73  1  0.73065952  0.93573914  0.07478757  1
  O  O74  1  0.87919794  0.39463936  0.73003889  1
  O  O75  1  0.12080206  0.10536064  0.23003889  1
  O  O76  1  0.87919794  0.60536064  0.26996111  1
  O  O77  1  0.12080206  0.89463936  0.76996111  1
  O  O78  1  0.12080206  0.26996111  0.39463936  1
  O  O79  1  0.87919794  0.23003889  0.89463936  1
  O  O80  1  0.12080206  0.73003889  0.60536064  1
  O  O81  1  0.87919794  0.76996111  0.10536064  1
