# generated using pymatgen
data_NaCe(GaS2)4
_symmetry_space_group_name_H-M   'P 1'
_cell_length_a   12.17799346
_cell_length_b   12.17799346
_cell_length_c   12.06487879
_cell_angle_alpha   105.07094500
_cell_angle_beta   105.07094500
_cell_angle_gamma   118.99940335
_symmetry_Int_Tables_number   1
_chemical_formula_structural   NaCe(GaS2)4
_chemical_formula_sum   'Na4 Ce4 Ga16 S32'
_cell_volume   1343.97488598
_cell_formula_units_Z   4
loop_
 _symmetry_equiv_pos_site_id
 _symmetry_equiv_pos_as_xyz
  1  'x, y, z'
loop_
 _atom_site_type_symbol
 _atom_site_label
 _atom_site_symmetry_multiplicity
 _atom_site_fract_x
 _atom_site_fract_y
 _atom_site_fract_z
 _atom_site_occupancy
  Na  Na0  1  0.12103319  0.37896681  0.25000000  1
  Na  Na1  1  0.62896681  0.87103319  0.25000000  1
  Na  Na2  1  0.87896681  0.62103319  0.75000000  1
  Na  Na3  1  0.37103319  0.12896681  0.75000000  1
  Ce  Ce4  1  0.87500000  0.62500000  0.25000000  1
  Ce  Ce5  1  0.12500000  0.37500000  0.75000000  1
  Ce  Ce6  1  0.37500000  0.12500000  0.25000000  1
  Ce  Ce7  1  0.62500000  0.87500000  0.75000000  1
  Ga  Ga8  1  0.38207857  0.39012103  0.52176441  1
  Ga  Ga9  1  0.10987897  0.11792143  0.97823559  1
  Ga  Ga10  1  0.63968584  0.13164338  0.52176441  1
  Ga  Ga11  1  0.36835662  0.86031416  0.97823559  1
  Ga  Ga12  1  0.61792143  0.60987897  0.47823559  1
  Ga  Ga13  1  0.89012103  0.88207857  0.02176441  1
  Ga  Ga14  1  0.36031416  0.86835662  0.47823559  1
  Ga  Ga15  1  0.63164338  0.13968584  0.02176441  1
  Ga  Ga16  1  0.47052911  0.46970943  0.10995945  1
  Ga  Ga17  1  0.03029057  0.02947089  0.39004055  1
  Ga  Ga18  1  0.13943035  0.64025002  0.10995945  1
  Ga  Ga19  1  0.85974998  0.36056965  0.39004055  1
  Ga  Ga20  1  0.52947089  0.53029057  0.89004055  1
  Ga  Ga21  1  0.96970943  0.97052911  0.60995945  1
  Ga  Ga22  1  0.86056965  0.35974998  0.89004055  1
  Ga  Ga23  1  0.14025002  0.63943035  0.60995945  1
  S  S24  1  0.15378028  0.66304619  0.31243368  1
  S  S25  1  0.83695381  0.34621972  0.18756632  1
  S  S26  1  0.65865340  0.64938749  0.31243368  1
  S  S27  1  0.85061251  0.84134660  0.18756632  1
  S  S28  1  0.84621972  0.33695381  0.68756632  1
  S  S29  1  0.16304619  0.65378028  0.81243368  1
  S  S30  1  0.34134660  0.35061251  0.68756632  1
  S  S31  1  0.14938749  0.15865340  0.81243368  1
  S  S32  1  0.18430597  0.18508212  0.33862313  1
  S  S33  1  0.31491788  0.31569403  0.16137687  1
  S  S34  1  0.65431715  0.15354100  0.33862313  1
  S  S35  1  0.34645900  0.84568285  0.16137687  1
  S  S36  1  0.81569403  0.81491788  0.66137687  1
  S  S37  1  0.68508212  0.68430597  0.83862313  1
  S  S38  1  0.34568285  0.84645900  0.66137687  1
  S  S39  1  0.65354100  0.15431715  0.83862313  1
  S  S40  1  0.41218153  0.07784870  0.00571918  1
  S  S41  1  0.42215130  0.08781847  0.49428082  1
  S  S42  1  0.09353765  0.92787048  0.00571918  1
  S  S43  1  0.57212952  0.40646235  0.49428082  1
  S  S44  1  0.58781847  0.92215130  0.99428082  1
  S  S45  1  0.57784870  0.91218153  0.50571918  1
  S  S46  1  0.90646235  0.07212952  0.99428082  1
  S  S47  1  0.42787048  0.59353765  0.50571918  1
  S  S48  1  0.08179082  0.41529951  0.50500666  1
  S  S49  1  0.08470049  0.41820918  0.99499334  1
  S  S50  1  0.92321584  0.08970716  0.50500666  1
  S  S51  1  0.41029284  0.57678416  0.99499334  1
  S  S52  1  0.91820918  0.58470049  0.49499334  1
  S  S53  1  0.91529951  0.58179082  0.00500666  1
  S  S54  1  0.07678416  0.91029284  0.49499334  1
  S  S55  1  0.58970716  0.42321584  0.00500666  1
