# generated using pymatgen
data_Mo2PbSe2O11
_symmetry_space_group_name_H-M   'P 1'
_cell_length_a   8.09906074
_cell_length_b   8.35877539
_cell_length_c   9.00453604
_cell_angle_alpha   82.92527132
_cell_angle_beta   65.12945504
_cell_angle_gamma   66.78921860
_symmetry_Int_Tables_number   1
_chemical_formula_structural   Mo2PbSe2O11
_chemical_formula_sum   'Mo4 Pb2 Se4 O22'
_cell_volume   507.63058011
_cell_formula_units_Z   2
loop_
 _symmetry_equiv_pos_site_id
 _symmetry_equiv_pos_as_xyz
  1  'x, y, z'
loop_
 _atom_site_type_symbol
 _atom_site_label
 _atom_site_symmetry_multiplicity
 _atom_site_fract_x
 _atom_site_fract_y
 _atom_site_fract_z
 _atom_site_occupancy
  Mo  Mo0  1  0.72841991  0.37627325  0.80508447  1
  Mo  Mo1  1  0.27158009  0.62372675  0.19491553  1
  Mo  Mo2  1  0.72121353  0.96754667  0.04511975  1
  Mo  Mo3  1  0.27878647  0.03245333  0.95488025  1
  Pb  Pb4  1  0.57203067  0.22536436  0.47305400  1
  Pb  Pb5  1  0.42796933  0.77463564  0.52694600  1
  Se  Se6  1  0.74871237  0.55379464  0.14412977  1
  Se  Se7  1  0.25128763  0.44620536  0.85587023  1
  Se  Se8  1  0.76079634  0.77405672  0.68729300  1
  Se  Se9  1  0.23920366  0.22594328  0.31270700  1
  O  O10  1  0.94627670  0.38977116  0.78510327  1
  O  O11  1  0.05372330  0.61022884  0.21489673  1
  O  O12  1  0.77814200  0.28783833  0.61767290  1
  O  O13  1  0.22185800  0.71216167  0.38232710  1
  O  O14  1  0.73057423  0.17083270  0.92354336  1
  O  O15  1  0.26942577  0.82916730  0.07645664  1
  O  O16  1  0.64049854  0.62938166  0.71983898  1
  O  O17  1  0.35950146  0.37061834  0.28016102  1
  O  O18  1  0.59393068  0.52127038  0.06797476  1
  O  O19  1  0.40606932  0.47872962  0.93202524  1
  O  O20  1  0.94376994  0.80778322  0.92198546  1
  O  O21  1  0.05623006  0.19221678  0.07801454  1
  O  O22  1  0.75795600  0.02539755  0.20479556  1
  O  O23  1  0.24204400  0.97460245  0.79520444  1
  O  O24  1  0.62117772  0.78061666  0.18863469  1
  O  O25  1  0.37882228  0.21938334  0.81136531  1
  O  O26  1  0.60099382  0.90734836  0.87116065  1
  O  O27  1  0.39900618  0.09265164  0.12883935  1
  O  O28  1  0.66452509  0.49320268  0.34001244  1
  O  O29  1  0.33547491  0.50679732  0.65998756  1
  O  O30  1  0.68035215  0.89227294  0.54786696  1
  O  O31  1  0.31964785  0.10772706  0.45213304  1
