# generated using pymatgen
data_K2Pd(S4O13)2
_symmetry_space_group_name_H-M   'P 1'
_cell_length_a   7.58539440
_cell_length_b   8.94696387
_cell_length_c   9.30551490
_cell_angle_alpha   73.10109626
_cell_angle_beta   89.10166331
_cell_angle_gamma   72.06306005
_symmetry_Int_Tables_number   1
_chemical_formula_structural   K2Pd(S4O13)2
_chemical_formula_sum   'K2 Pd1 S8 O26'
_cell_volume   572.99634002
_cell_formula_units_Z   1
loop_
 _symmetry_equiv_pos_site_id
 _symmetry_equiv_pos_as_xyz
  1  'x, y, z'
loop_
 _atom_site_type_symbol
 _atom_site_label
 _atom_site_symmetry_multiplicity
 _atom_site_fract_x
 _atom_site_fract_y
 _atom_site_fract_z
 _atom_site_occupancy
  K  K0  1  0.87140200  0.26682318  0.11992289  1
  K  K1  1  0.12859800  0.73317682  0.88007711  1
  Pd  Pd2  1  0.50000000  0.50000000  0.50000000  1
  S  S3  1  0.33295073  0.35914744  0.28268524  1
  S  S4  1  0.66704927  0.64085256  0.71731476  1
  S  S5  1  0.13315316  0.18878795  0.51339288  1
  S  S6  1  0.86684684  0.81121205  0.48660712  1
  S  S7  1  0.62496364  0.15378182  0.77421063  1
  S  S8  1  0.37503636  0.84621818  0.22578937  1
  S  S9  1  0.21863357  0.23549418  0.80131608  1
  S  S10  1  0.78136643  0.76450582  0.19868392  1
  O  O11  1  0.31078328  0.18609575  0.42083390  1
  O  O12  1  0.68921672  0.81390425  0.57916610  1
  O  O13  1  0.30010122  0.48258278  0.36778196  1
  O  O14  1  0.69989878  0.51741722  0.63221804  1
  O  O15  1  0.18332715  0.40578190  0.16924071  1
  O  O16  1  0.81667285  0.59421810  0.83075929  1
  O  O17  1  0.15590492  0.30236970  0.61900145  1
  O  O18  1  0.84409508  0.69763030  0.38099855  1
  O  O19  1  0.96594101  0.28665358  0.42037308  1
  O  O20  1  0.03405899  0.71334642  0.57962692  1
  O  O21  1  0.52085086  0.29414026  0.24942513  1
  O  O22  1  0.47914914  0.70585974  0.75057487  1
  O  O23  1  0.16262521  0.02364051  0.60497369  1
  O  O24  1  0.83737479  0.97635949  0.39502631  1
  O  O25  1  0.58656495  0.25030826  0.61141320  1
  O  O26  1  0.41343505  0.74969174  0.38858680  1
  O  O27  1  0.41410784  0.10256986  0.81357364  1
  O  O28  1  0.58589216  0.89743014  0.18642636  1
  O  O29  1  0.22977894  0.38011490  0.83033085  1
  O  O30  1  0.77022106  0.61988510  0.16966915  1
  O  O31  1  0.09534492  0.14993080  0.87542371  1
  O  O32  1  0.90465508  0.85006920  0.12457629  1
  O  O33  1  0.63878449  0.24196790  0.87754797  1
  O  O34  1  0.36121551  0.75803210  0.12245203  1
  O  O35  1  0.74835134  0.99006258  0.79597260  1
  O  O36  1  0.25164866  0.00993742  0.20402740  1
