# generated using pymatgen
data_Dy2Nb3Ge4
_symmetry_space_group_name_H-M   'P 1'
_cell_length_a   7.02482723
_cell_length_b   7.19798998
_cell_length_c   13.62193370
_cell_angle_alpha   90.00000000
_cell_angle_beta   90.00000000
_cell_angle_gamma   90.00000000
_symmetry_Int_Tables_number   1
_chemical_formula_structural   Dy2Nb3Ge4
_chemical_formula_sum   'Dy8 Nb12 Ge16'
_cell_volume   688.78811933
_cell_formula_units_Z   4
loop_
 _symmetry_equiv_pos_site_id
 _symmetry_equiv_pos_as_xyz
  1  'x, y, z'
loop_
 _atom_site_type_symbol
 _atom_site_label
 _atom_site_symmetry_multiplicity
 _atom_site_fract_x
 _atom_site_fract_y
 _atom_site_fract_z
 _atom_site_occupancy
  Dy  Dy0  1  0.50246781  0.67363803  0.40510542  1
  Dy  Dy1  1  0.00246781  0.82636197  0.09489458  1
  Dy  Dy2  1  0.49753219  0.32636197  0.90510542  1
  Dy  Dy3  1  0.99753219  0.17363803  0.59489458  1
  Dy  Dy4  1  0.49753219  0.32636197  0.59489458  1
  Dy  Dy5  1  0.99753219  0.17363803  0.90510542  1
  Dy  Dy6  1  0.50246781  0.67363803  0.09489458  1
  Dy  Dy7  1  0.00246781  0.82636197  0.40510542  1
  Nb  Nb8  1  0.33585645  0.98759202  0.75000000  1
  Nb  Nb9  1  0.83585645  0.51240798  0.75000000  1
  Nb  Nb10  1  0.66414355  0.01240798  0.25000000  1
  Nb  Nb11  1  0.16414355  0.48759202  0.25000000  1
  Nb  Nb12  1  0.15993623  0.67150379  0.87342061  1
  Nb  Nb13  1  0.65993623  0.82849621  0.62657939  1
  Nb  Nb14  1  0.84006377  0.32849621  0.37342061  1
  Nb  Nb15  1  0.34006377  0.17150379  0.12657939  1
  Nb  Nb16  1  0.84006377  0.32849621  0.12657939  1
  Nb  Nb17  1  0.34006377  0.17150379  0.37342061  1
  Nb  Nb18  1  0.15993623  0.67150379  0.62657939  1
  Nb  Nb19  1  0.65993623  0.82849621  0.87342061  1
  Ge  Ge20  1  0.19569885  0.36242151  0.75000000  1
  Ge  Ge21  1  0.69569885  0.13757849  0.75000000  1
  Ge  Ge22  1  0.80430115  0.63757849  0.25000000  1
  Ge  Ge23  1  0.30430115  0.86242151  0.25000000  1
  Ge  Ge24  1  0.46018092  0.62177640  0.75000000  1
  Ge  Ge25  1  0.96018092  0.87822360  0.75000000  1
  Ge  Ge26  1  0.53981908  0.37822360  0.25000000  1
  Ge  Ge27  1  0.03981908  0.12177640  0.25000000  1
  Ge  Ge28  1  0.32658246  0.96133655  0.95825593  1
  Ge  Ge29  1  0.82658246  0.53866345  0.54174407  1
  Ge  Ge30  1  0.67341754  0.03866345  0.45825593  1
  Ge  Ge31  1  0.17341754  0.46133655  0.04174407  1
  Ge  Ge32  1  0.67341754  0.03866345  0.04174407  1
  Ge  Ge33  1  0.17341754  0.46133655  0.45825593  1
  Ge  Ge34  1  0.32658246  0.96133655  0.54174407  1
  Ge  Ge35  1  0.82658246  0.53866345  0.95825593  1
