# generated using pymatgen
data_Eu4C2N4F5
_symmetry_space_group_name_H-M   'P 1'
_cell_length_a   6.53839599
_cell_length_b   16.16368749
_cell_length_c   16.16368749
_cell_angle_alpha   90.00000000
_cell_angle_beta   90.00000000
_cell_angle_gamma   90.00000000
_symmetry_Int_Tables_number   1
_chemical_formula_structural   Eu4C2N4F5
_chemical_formula_sum   'Eu32 C16 N32 F40'
_cell_volume   1708.25267667
_cell_formula_units_Z   8
loop_
 _symmetry_equiv_pos_site_id
 _symmetry_equiv_pos_as_xyz
  1  'x, y, z'
loop_
 _atom_site_type_symbol
 _atom_site_label
 _atom_site_symmetry_multiplicity
 _atom_site_fract_x
 _atom_site_fract_y
 _atom_site_fract_z
 _atom_site_occupancy
  Eu  Eu0  1  0.50815289  0.66289619  0.91213024  1
  Eu  Eu1  1  0.99184711  0.16289619  0.58786976  1
  Eu  Eu2  1  0.50815289  0.33710381  0.08786976  1
  Eu  Eu3  1  0.99184711  0.83710381  0.41213024  1
  Eu  Eu4  1  0.49184711  0.91213024  0.33710381  1
  Eu  Eu5  1  0.00815289  0.58786976  0.83710381  1
  Eu  Eu6  1  0.49184711  0.08786976  0.66289619  1
  Eu  Eu7  1  0.00815289  0.41213024  0.16289619  1
  Eu  Eu8  1  0.51121420  0.58070108  0.16871386  1
  Eu  Eu9  1  0.98878580  0.08070108  0.33128614  1
  Eu  Eu10  1  0.51121420  0.41929892  0.83128614  1
  Eu  Eu11  1  0.98878580  0.91929892  0.66871386  1
  Eu  Eu12  1  0.48878580  0.16871386  0.41929892  1
  Eu  Eu13  1  0.01121420  0.33128614  0.91929892  1
  Eu  Eu14  1  0.48878580  0.83128614  0.58070108  1
  Eu  Eu15  1  0.01121420  0.66871386  0.08070108  1
  Eu  Eu16  1  0.00760867  0.83160936  0.92025613  1
  Eu  Eu17  1  0.49239133  0.33160936  0.57974387  1
  Eu  Eu18  1  0.00760867  0.16839064  0.07974387  1
  Eu  Eu19  1  0.49239133  0.66839064  0.42025613  1
  Eu  Eu20  1  0.99239133  0.92025613  0.16839064  1
  Eu  Eu21  1  0.50760867  0.57974387  0.66839064  1
  Eu  Eu22  1  0.99239133  0.07974387  0.83160936  1
  Eu  Eu23  1  0.50760867  0.42025613  0.33160936  1
  Eu  Eu24  1  0.48680412  0.92335274  0.82404631  1
  Eu  Eu25  1  0.01319588  0.42335274  0.67595369  1
  Eu  Eu26  1  0.48680412  0.07664726  0.17595369  1
  Eu  Eu27  1  0.01319588  0.57664726  0.32404631  1
  Eu  Eu28  1  0.51319588  0.82404631  0.07664726  1
  Eu  Eu29  1  0.98680412  0.67595369  0.57664726  1
  Eu  Eu30  1  0.51319588  0.17595369  0.92335274  1
  Eu  Eu31  1  0.98680412  0.32404631  0.42335274  1
  C  C32  1  0.79201983  0.50000000  -0.00000000  1
  C  C33  1  0.70798017  -0.00000000  0.50000000  1
  C  C34  1  0.20798017  -0.00000000  0.50000000  1
  C  C35  1  0.29201983  0.50000000  0.00000000  1
  C  C36  1  0.77679185  0.74749735  0.74952718  1
  C  C37  1  0.72320815  0.24749735  0.75047282  1
  C  C38  1  0.77679185  0.25250265  0.25047282  1
  C  C39  1  0.72320815  0.75250265  0.24952718  1
  C  C40  1  0.22320815  0.74952718  0.25250265  1
  C  C41  1  0.27679185  0.75047282  0.75250265  1
  C  C42  1  0.22320815  0.25047282  0.74749735  1
  C  C43  1  0.27679185  0.24952718  0.24749735  1
  C  C44  1  0.23678921  -0.00000000  -0.00000000  1
  C  C45  1  0.26321079  0.50000000  0.50000000  1
  C  C46  1  0.76321079  -0.00000000  -0.00000000  1
  C  C47  1  0.73678921  0.50000000  0.50000000  1
  N  N48  1  0.25993100  0.82548292  0.73780482  1
  N  N49  1  0.24006900  0.32548292  0.76219518  1
  N  N50  1  0.25993100  0.17451708  0.26219518  1
  N  N51  1  0.24006900  0.67451708  0.23780482  1
  N  N52  1  0.74006900  0.73780482  0.17451708  1
  N  N53  1  0.75993100  0.76219518  0.67451708  1
  N  N54  1  0.74006900  0.26219518  0.82548292  1
  N  N55  1  0.75993100  0.23780482  0.32548292  1
  N  N56  1  0.23416775  0.98804011  0.92439966  1
  N  N57  1  0.26583225  0.48804011  0.57560034  1
  N  N58  1  0.23416775  0.01195989  0.07560034  1
  N  N59  1  0.26583225  0.51195989  0.42439966  1
  N  N60  1  0.76583225  0.92439966  0.01195989  1
  N  N61  1  0.73416775  0.57560034  0.51195989  1
  N  N62  1  0.76583225  0.07560034  0.98804011  1
  N  N63  1  0.73416775  0.42439966  0.48804011  1
  N  N64  1  0.79369928  0.57467878  0.98315396  1
  N  N65  1  0.70630072  0.07467878  0.51684604  1
  N  N66  1  0.79369928  0.42532122  0.01684604  1
  N  N67  1  0.70630072  0.92532122  0.48315396  1
  N  N68  1  0.20630072  0.98315396  0.42532122  1
  N  N69  1  0.29369928  0.51684604  0.92532122  1
  N  N70  1  0.20630072  0.01684604  0.57467878  1
  N  N71  1  0.29369928  0.48315396  0.07467878  1
  N  N72  1  0.79651248  0.73266151  0.82399054  1
  N  N73  1  0.70348752  0.23266151  0.67600946  1
  N  N74  1  0.79651248  0.26733849  0.17600946  1
  N  N75  1  0.70348752  0.76733849  0.32399054  1
  N  N76  1  0.20348752  0.82399054  0.26733849  1
  N  N77  1  0.29651248  0.67600946  0.76733849  1
  N  N78  1  0.20348752  0.17600946  0.73266151  1
  N  N79  1  0.29651248  0.32399054  0.23266151  1
  F  F80  1  0.23852752  0.00078848  0.74863154  1
  F  F81  1  0.26147248  0.50078848  0.75136846  1
  F  F82  1  0.23852752  0.99921152  0.25136846  1
  F  F83  1  0.26147248  0.49921152  0.24863154  1
  F  F84  1  0.76147248  0.74863154  0.99921152  1
  F  F85  1  0.73852752  0.75136846  0.49921152  1
  F  F86  1  0.76147248  0.25136846  0.00078848  1
  F  F87  1  0.73852752  0.24863154  0.50078848  1
  F  F88  1  0.86540631  0.92881624  0.81717683  1
  F  F89  1  0.63459369  0.42881624  0.68282317  1
  F  F90  1  0.86540631  0.07118376  0.18282317  1
  F  F91  1  0.63459369  0.57118376  0.31717683  1
  F  F92  1  0.13459369  0.81717683  0.07118376  1
  F  F93  1  0.36540631  0.68282317  0.57118376  1
  F  F94  1  0.13459369  0.18282317  0.92881624  1
  F  F95  1  0.36540631  0.31717683  0.42881624  1
  F  F96  1  0.63113203  0.56224652  0.81083575  1
  F  F97  1  0.86886797  0.06224652  0.68916425  1
  F  F98  1  0.63113203  0.43775348  0.18916425  1
  F  F99  1  0.86886797  0.93775348  0.31083575  1
  F  F100  1  0.36886797  0.81083575  0.43775348  1
  F  F101  1  0.13113203  0.68916425  0.93775348  1
  F  F102  1  0.36886797  0.18916425  0.56224652  1
  F  F103  1  0.13113203  0.31083575  0.06224652  1
  F  F104  1  0.39710212  0.67343059  0.06141331  1
  F  F105  1  0.10289788  0.17343059  0.43858669  1
  F  F106  1  0.39710212  0.32656941  0.93858669  1
  F  F107  1  0.10289788  0.82656941  0.56141331  1
  F  F108  1  0.60289788  0.06141331  0.32656941  1
  F  F109  1  0.89710212  0.43858669  0.82656941  1
  F  F110  1  0.60289788  0.93858669  0.67343059  1
  F  F111  1  0.89710212  0.56141331  0.17343059  1
  F  F112  1  0.40241014  0.81558271  0.92483812  1
  F  F113  1  0.09758986  0.31558271  0.57516188  1
  F  F114  1  0.40241014  0.18441729  0.07516188  1
  F  F115  1  0.09758986  0.68441729  0.42483812  1
  F  F116  1  0.59758986  0.92483812  0.18441729  1
  F  F117  1  0.90241014  0.57516188  0.68441729  1
  F  F118  1  0.59758986  0.07516188  0.81558271  1
  F  F119  1  0.90241014  0.42483812  0.31558271  1
