# generated using pymatgen
data_PrCo5P3
_symmetry_space_group_name_H-M   'P 1'
_cell_length_a   3.70049320
_cell_length_b   10.41524145
_cell_length_c   11.85581390
_cell_angle_alpha   90.00000000
_cell_angle_beta   90.00000000
_cell_angle_gamma   90.00000000
_symmetry_Int_Tables_number   1
_chemical_formula_structural   PrCo5P3
_chemical_formula_sum   'Pr4 Co20 P12'
_cell_volume   456.94120902
_cell_formula_units_Z   4
loop_
 _symmetry_equiv_pos_site_id
 _symmetry_equiv_pos_as_xyz
  1  'x, y, z'
loop_
 _atom_site_type_symbol
 _atom_site_label
 _atom_site_symmetry_multiplicity
 _atom_site_fract_x
 _atom_site_fract_y
 _atom_site_fract_z
 _atom_site_occupancy
  Pr  Pr0  1  0.25000000  0.58341701  0.70218003  1
  Pr  Pr1  1  0.25000000  0.91658299  0.20218003  1
  Pr  Pr2  1  0.75000000  0.41658299  0.29781997  1
  Pr  Pr3  1  0.75000000  0.08341701  0.79781997  1
  Co  Co4  1  0.25000000  0.71319802  0.98980260  1
  Co  Co5  1  0.25000000  0.78680198  0.48980260  1
  Co  Co6  1  0.75000000  0.28680198  0.01019740  1
  Co  Co7  1  0.75000000  0.21319802  0.51019740  1
  Co  Co8  1  0.25000000  0.40524521  0.49014343  1
  Co  Co9  1  0.25000000  0.09475479  0.99014343  1
  Co  Co10  1  0.75000000  0.59475479  0.50985657  1
  Co  Co11  1  0.75000000  0.90524521  0.00985657  1
  Co  Co12  1  0.25000000  0.22082571  0.17510370  1
  Co  Co13  1  0.25000000  0.27917429  0.67510370  1
  Co  Co14  1  0.75000000  0.77917429  0.82489630  1
  Co  Co15  1  0.75000000  0.72082571  0.32489630  1
  Co  Co16  1  0.25000000  0.88187647  0.69643895  1
  Co  Co17  1  0.25000000  0.61812353  0.19643895  1
  Co  Co18  1  0.75000000  0.11812353  0.30356105  1
  Co  Co19  1  0.75000000  0.38187647  0.80356105  1
  Co  Co20  1  0.25000000  0.46857208  0.93312593  1
  Co  Co21  1  0.25000000  0.03142792  0.43312593  1
  Co  Co22  1  0.75000000  0.53142792  0.06687407  1
  Co  Co23  1  0.75000000  0.96857208  0.56687407  1
  P  P24  1  0.25000000  0.41832525  0.10959987  1
  P  P25  1  0.25000000  0.08167475  0.60959987  1
  P  P26  1  0.75000000  0.58167475  0.89040013  1
  P  P27  1  0.75000000  0.91832525  0.39040013  1
  P  P28  1  0.25000000  0.27598818  0.86989096  1
  P  P29  1  0.25000000  0.22401182  0.36989096  1
  P  P30  1  0.75000000  0.72401182  0.13010904  1
  P  P31  1  0.75000000  0.77598818  0.63010904  1
  P  P32  1  0.25000000  0.60597227  0.39301147  1
  P  P33  1  0.25000000  0.89402773  0.89301147  1
  P  P34  1  0.75000000  0.39402773  0.60698853  1
  P  P35  1  0.75000000  0.10597227  0.10698853  1
