# generated using pymatgen
data_V2Pb14Cl4O17
_symmetry_space_group_name_H-M   'P 1'
_cell_length_a   11.51694489
_cell_length_b   12.67328831
_cell_length_c   13.28578858
_cell_angle_alpha   106.74657391
_cell_angle_beta   103.04190885
_cell_angle_gamma   115.82458508
_symmetry_Int_Tables_number   1
_chemical_formula_structural   V2Pb14Cl4O17
_chemical_formula_sum   'V4 Pb28 Cl8 O34'
_cell_volume   1526.45310239
_cell_formula_units_Z   2
loop_
 _symmetry_equiv_pos_site_id
 _symmetry_equiv_pos_as_xyz
  1  'x, y, z'
loop_
 _atom_site_type_symbol
 _atom_site_label
 _atom_site_symmetry_multiplicity
 _atom_site_fract_x
 _atom_site_fract_y
 _atom_site_fract_z
 _atom_site_occupancy
  V  V0  1  0.78116429  0.45585836  0.64502724  1
  V  V1  1  0.36386295  0.18916888  0.64502724  1
  V  V2  1  0.21883571  0.54414164  0.35497276  1
  V  V3  1  0.63613705  0.81083112  0.35497276  1
  Pb  Pb4  1  0.51855090  0.19898970  0.16971228  1
  Pb  Pb5  1  0.15116138  0.97072258  0.16971228  1
  Pb  Pb6  1  0.48144910  0.80101030  0.83028772  1
  Pb  Pb7  1  0.84883862  0.02927742  0.83028772  1
  Pb  Pb8  1  0.88151539  0.45866173  0.17683387  1
  Pb  Pb9  1  0.79531848  0.71817214  0.17683387  1
  Pb  Pb10  1  0.11848461  0.54133827  0.82316613  1
  Pb  Pb11  1  0.20468152  0.28182786  0.82316613  1
  Pb  Pb12  1  0.59461261  0.54996800  0.84109164  1
  Pb  Pb13  1  0.74647903  0.29112364  0.84109164  1
  Pb  Pb14  1  0.40538739  0.45003200  0.15890836  1
  Pb  Pb15  1  0.25352097  0.70887636  0.15890836  1
  Pb  Pb16  1  0.98710483  0.79336326  0.83178369  1
  Pb  Pb17  1  0.34467887  0.03842043  0.83178369  1
  Pb  Pb18  1  0.01289517  0.20663674  0.16821631  1
  Pb  Pb19  1  0.65532113  0.96157957  0.16821631  1
  Pb  Pb20  1  0.74646455  0.54729122  0.38642407  1
  Pb  Pb21  1  0.13995952  0.83913285  0.38642407  1
  Pb  Pb22  1  0.25353545  0.45270878  0.61357593  1
  Pb  Pb23  1  0.86004048  0.16086715  0.61357593  1
  Pb  Pb24  1  0.39756721  0.31756516  0.39442631  1
  Pb  Pb25  1  0.49685910  0.07686115  0.39442631  1
  Pb  Pb26  1  0.60243279  0.68243484  0.60557369  1
  Pb  Pb27  1  0.50314090  0.92313885  0.60557369  1
  Pb  Pb28  1  0.14306175  0.70362897  0.60977717  1
  Pb  Pb29  1  0.96671542  0.90614820  0.60977717  1
  Pb  Pb30  1  0.85693825  0.29637103  0.39022283  1
  Pb  Pb31  1  0.03328458  0.09385180  0.39022283  1
  Cl  Cl32  1  0.30694491  0.86992849  0.99208290  1
  Cl  Cl33  1  0.18513798  0.12215441  0.99208290  1
  Cl  Cl34  1  0.69305509  0.13007151  0.00791710  1
  Cl  Cl35  1  0.81486202  0.87784559  0.00791710  1
  Cl  Cl36  1  0.59170369  0.39241378  0.02997904  1
  Cl  Cl37  1  0.93827535  0.63756526  0.02997904  1
  Cl  Cl38  1  0.40829631  0.60758622  0.97002096  1
  Cl  Cl39  1  0.06172465  0.36243474  0.97002096  1
  O  O40  1  0.76786869  0.38035947  0.28711745  1
  O  O41  1  0.01924876  0.90675798  0.28711745  1
  O  O42  1  0.23213131  0.61964053  0.71288255  1
  O  O43  1  0.98075124  0.09324202  0.71288255  1
  O  O44  1  0.51156621  0.38891291  0.27366179  1
  O  O45  1  0.26209558  0.88474888  0.27366179  1
  O  O46  1  0.48843379  0.61108709  0.72633821  1
  O  O47  1  0.73790442  0.11525112  0.72633821  1
  O  O48  1  0.84523385  0.83118709  0.71649474  1
  O  O49  1  0.37126089  0.88530765  0.71649474  1
  O  O50  1  0.15476615  0.16881291  0.28350526  1
  O  O51  1  0.62873911  0.11469235  0.28350526  1
  O  O52  1  0.82260141  0.36519128  0.71006128  1
  O  O53  1  0.38745986  0.34487000  0.71006128  1
  O  O54  1  0.17739859  0.63480872  0.28993872  1
  O  O55  1  0.61254014  0.65513000  0.28993872  1
  O  O56  1  0.94770002  0.59044971  0.67918893  1
  O  O57  1  0.23148890  0.08873922  0.67918893  1
  O  O58  1  0.05229998  0.40955029  0.32081107  1
  O  O59  1  0.76851110  0.91126078  0.32081107  1
  O  O60  1  0.39330808  0.14330808  0.28661615  1
  O  O61  1  0.60669192  0.85669192  0.71338385  1
  O  O62  1  0.89483569  0.64483569  0.28967138  1
  O  O63  1  0.10516431  0.35516431  0.71032862  1
  O  O64  1  0.11626955  0.86626955  0.73253909  1
  O  O65  1  0.88373045  0.13373045  0.26746091  1
  O  O66  1  0.69507529  0.52150605  0.70616546  1
  O  O67  1  0.51109017  0.18465941  0.70616546  1
  O  O68  1  0.30492471  0.47849395  0.29383454  1
  O  O69  1  0.48890983  0.81534059  0.29383454  1
  O  O70  1  0.68549119  0.36411698  0.49822960  1
  O  O71  1  0.31273840  0.13411261  0.49822960  1
  O  O72  1  0.31450881  0.63588302  0.50177040  1
  O  O73  1  0.68726160  0.86588739  0.50177040  1
