# generated using pymatgen
data_SrSbSe3
_symmetry_space_group_name_H-M   'P 1'
_cell_length_a   4.21029440
_cell_length_b   15.85201135
_cell_length_c   33.67001777
_cell_angle_alpha   90.00000000
_cell_angle_beta   90.00000000
_cell_angle_gamma   90.00000000
_symmetry_Int_Tables_number   1
_chemical_formula_structural   SrSbSe3
_chemical_formula_sum   'Sr16 Sb16 Se48'
_cell_volume   2247.19202351
_cell_formula_units_Z   16
loop_
 _symmetry_equiv_pos_site_id
 _symmetry_equiv_pos_as_xyz
  1  'x, y, z'
loop_
 _atom_site_type_symbol
 _atom_site_label
 _atom_site_symmetry_multiplicity
 _atom_site_fract_x
 _atom_site_fract_y
 _atom_site_fract_z
 _atom_site_occupancy
  Sr  Sr0  1  0.00007487  0.06355445  0.42490519  1
  Sr  Sr1  1  0.50007487  0.93644555  0.07509481  1
  Sr  Sr2  1  0.99992513  0.43644555  0.92490519  1
  Sr  Sr3  1  0.49992513  0.56355445  0.57509481  1
  Sr  Sr4  1  0.50357592  0.63424356  0.70235338  1
  Sr  Sr5  1  0.00357592  0.36575644  0.79764662  1
  Sr  Sr6  1  0.49642408  0.86575644  0.20235338  1
  Sr  Sr7  1  0.99642408  0.13424356  0.29764662  1
  Sr  Sr8  1  0.02019405  0.28119828  0.67403163  1
  Sr  Sr9  1  0.52019405  0.71880172  0.82596837  1
  Sr  Sr10  1  0.97980595  0.21880172  0.17403163  1
  Sr  Sr11  1  0.47980595  0.78119828  0.32596837  1
  Sr  Sr12  1  0.49643119  0.70650104  0.45517809  1
  Sr  Sr13  1  0.99643119  0.29349896  0.04482191  1
  Sr  Sr14  1  0.50356881  0.79349896  0.95517809  1
  Sr  Sr15  1  0.00356881  0.20650104  0.54482191  1
  Sb  Sb16  1  0.52180272  0.44985866  0.14130690  1
  Sb  Sb17  1  0.02180272  0.55014134  0.35869310  1
  Sb  Sb18  1  0.47819728  0.05014134  0.64130690  1
  Sb  Sb19  1  0.97819728  0.94985866  0.85869310  1
  Sb  Sb20  1  0.52041173  0.37882313  0.26468821  1
  Sb  Sb21  1  0.02041173  0.62117687  0.23531179  1
  Sb  Sb22  1  0.47958827  0.12117687  0.76468821  1
  Sb  Sb23  1  0.97958827  0.87882313  0.73531179  1
  Sb  Sb24  1  0.01125010  0.45371564  0.47483091  1
  Sb  Sb25  1  0.51125010  0.54628436  0.02516909  1
  Sb  Sb26  1  0.98874990  0.04628436  0.97483091  1
  Sb  Sb27  1  0.48874990  0.95371564  0.52516909  1
  Sb  Sb28  1  0.50634523  0.30342981  0.38623852  1
  Sb  Sb29  1  0.00634523  0.69657019  0.11376148  1
  Sb  Sb30  1  0.49365477  0.19657019  0.88623852  1
  Sb  Sb31  1  0.99365477  0.80342981  0.61376148  1
  Se  Se32  1  0.47455479  0.50578270  0.41487379  1
  Se  Se33  1  0.97455479  0.49421730  0.08512621  1
  Se  Se34  1  0.52544521  0.99421730  0.91487379  1
  Se  Se35  1  0.02544521  0.00578270  0.58512621  1
  Se  Se36  1  0.99233265  0.35339589  0.31937049  1
  Se  Se37  1  0.49233265  0.64660411  0.18062951  1
  Se  Se38  1  0.00766735  0.14660411  0.81937049  1
  Se  Se39  1  0.50766735  0.85339589  0.68062951  1
  Se  Se40  1  0.97574513  0.41841991  0.20035233  1
  Se  Se41  1  0.47574513  0.58158009  0.29964767  1
  Se  Se42  1  0.02425487  0.08158009  0.70035233  1
  Se  Se43  1  0.52425487  0.91841991  0.79964767  1
  Se  Se44  1  0.98740181  0.47775419  0.71384380  1
  Se  Se45  1  0.48740181  0.52224581  0.78615620  1
  Se  Se46  1  0.01259819  0.02224581  0.21384380  1
  Se  Se47  1  0.51259819  0.97775419  0.28615620  1
  Se  Se48  1  0.49470336  0.14465848  0.36604792  1
  Se  Se49  1  0.99470336  0.85534152  0.13395208  1
  Se  Se50  1  0.50529664  0.35534152  0.86604792  1
  Se  Se51  1  0.00529664  0.64465848  0.63395208  1
  Se  Se52  1  0.50828215  0.27892878  0.74241925  1
  Se  Se53  1  0.00828215  0.72107122  0.75758075  1
  Se  Se54  1  0.49171785  0.22107122  0.24241925  1
  Se  Se55  1  0.99171785  0.77892878  0.25758075  1
  Se  Se56  1  0.50466066  0.77667332  0.56263661  1
  Se  Se57  1  0.00466066  0.22332668  0.93736339  1
  Se  Se58  1  0.49533934  0.72332668  0.06263661  1
  Se  Se59  1  0.99533934  0.27667332  0.43736339  1
  Se  Se60  1  0.50587407  0.20723470  0.61435257  1
  Se  Se61  1  0.00587407  0.79276530  0.88564743  1
  Se  Se62  1  0.49412593  0.29276530  0.11435257  1
  Se  Se63  1  0.99412593  0.70723470  0.38564743  1
  Se  Se64  1  0.99628483  0.41547642  0.60212916  1
  Se  Se65  1  0.49628483  0.58452358  0.89787084  1
  Se  Se66  1  0.00371517  0.08452358  0.10212916  1
  Se  Se67  1  0.50371517  0.91547642  0.39787084  1
  Se  Se68  1  0.49952391  0.10965721  0.49179312  1
  Se  Se69  1  0.99952391  0.89034279  0.00820688  1
  Se  Se70  1  0.50047609  0.39034279  0.99179312  1
  Se  Se71  1  0.00047609  0.60965721  0.50820688  1
  Se  Se72  1  0.45728581  0.39008842  0.52331161  1
  Se  Se73  1  0.95728581  0.60991158  0.97668839  1
  Se  Se74  1  0.54271419  0.10991158  0.02331161  1
  Se  Se75  1  0.04271419  0.89008842  0.47668839  1
  Se  Se76  1  0.61963648  0.44399901  0.65776685  1
  Se  Se77  1  0.11963648  0.55600099  0.84223315  1
  Se  Se78  1  0.38036352  0.05600099  0.15776685  1
  Se  Se79  1  0.88036352  0.94399901  0.34223315  1
