# generated using pymatgen
data_CsBi
_symmetry_space_group_name_H-M   'P 1'
_cell_length_a   7.89202718
_cell_length_b   14.70800244
_cell_length_c   15.65671816
_cell_angle_alpha   113.18051696
_cell_angle_beta   90.00000000
_cell_angle_gamma   90.00000000
_symmetry_Int_Tables_number   1
_chemical_formula_structural   CsBi
_chemical_formula_sum   'Cs16 Bi16'
_cell_volume   1670.65097728
_cell_formula_units_Z   16
loop_
 _symmetry_equiv_pos_site_id
 _symmetry_equiv_pos_as_xyz
  1  'x, y, z'
loop_
 _atom_site_type_symbol
 _atom_site_label
 _atom_site_symmetry_multiplicity
 _atom_site_fract_x
 _atom_site_fract_y
 _atom_site_fract_z
 _atom_site_occupancy
  Cs  Cs0  1  0.37288459  0.63574470  0.12160025  1
  Cs  Cs1  1  0.87288459  0.86425530  0.87839975  1
  Cs  Cs2  1  0.62711541  0.36425530  0.87839975  1
  Cs  Cs3  1  0.12711541  0.13574470  0.12160025  1
  Cs  Cs4  1  0.19936814  0.53285096  0.39544803  1
  Cs  Cs5  1  0.69936814  0.96714904  0.60455197  1
  Cs  Cs6  1  0.80063186  0.46714904  0.60455197  1
  Cs  Cs7  1  0.30063186  0.03285096  0.39544803  1
  Cs  Cs8  1  0.42521475  0.68848450  0.65875138  1
  Cs  Cs9  1  0.92521475  0.81151550  0.34124862  1
  Cs  Cs10  1  0.57478525  0.31151550  0.34124862  1
  Cs  Cs11  1  0.07478525  0.18848450  0.65875138  1
  Cs  Cs12  1  0.13463923  0.55251645  0.84715171  1
  Cs  Cs13  1  0.63463923  0.94748355  0.15284829  1
  Cs  Cs14  1  0.86536077  0.44748355  0.15284829  1
  Cs  Cs15  1  0.36536077  0.05251645  0.84715171  1
  Bi  Bi16  1  0.85301700  0.68403893  0.06375732  1
  Bi  Bi17  1  0.35301700  0.81596107  0.93624268  1
  Bi  Bi18  1  0.14698300  0.31596107  0.93624268  1
  Bi  Bi19  1  0.64698300  0.18403893  0.06375732  1
  Bi  Bi20  1  0.11256242  0.85112820  0.09939405  1
  Bi  Bi21  1  0.61256242  0.64887180  0.90060595  1
  Bi  Bi22  1  0.88743758  0.14887180  0.90060595  1
  Bi  Bi23  1  0.38743758  0.35112820  0.09939405  1
  Bi  Bi24  1  0.43870294  0.76932497  0.40365757  1
  Bi  Bi25  1  0.93870294  0.73067503  0.59634243  1
  Bi  Bi26  1  0.56129706  0.23067503  0.59634243  1
  Bi  Bi27  1  0.06129706  0.26932497  0.40365757  1
  Bi  Bi28  1  0.20236940  0.87275214  0.56945719  1
  Bi  Bi29  1  0.70236940  0.62724786  0.43054281  1
  Bi  Bi30  1  0.79763060  0.12724786  0.43054281  1
  Bi  Bi31  1  0.29763060  0.37275214  0.56945719  1
