# generated using pymatgen
data_Rb7Fe7P8(HO9)4
_symmetry_space_group_name_H-M   'P 1'
_cell_length_a   8.33192709
_cell_length_b   10.13253604
_cell_length_c   22.54221869
_cell_angle_alpha   90.00000000
_cell_angle_beta   90.00000000
_cell_angle_gamma   108.85832977
_symmetry_Int_Tables_number   1
_chemical_formula_structural   Rb7Fe7P8(HO9)4
_chemical_formula_sum   'Rb14 Fe14 P16 H8 O72'
_cell_volume   1800.93737422
_cell_formula_units_Z   2
loop_
 _symmetry_equiv_pos_site_id
 _symmetry_equiv_pos_as_xyz
  1  'x, y, z'
loop_
 _atom_site_type_symbol
 _atom_site_label
 _atom_site_symmetry_multiplicity
 _atom_site_fract_x
 _atom_site_fract_y
 _atom_site_fract_z
 _atom_site_occupancy
  Rb  Rb0  1  0.50000000  0.50000000  0.50000000  1
  Rb  Rb1  1  0.50000000  0.00000000  -0.00000000  1
  Rb  Rb2  1  0.63154116  0.26697612  0.64474970  1
  Rb  Rb3  1  0.36845884  0.23302388  0.14474970  1
  Rb  Rb4  1  0.36845884  0.73302388  0.35525030  1
  Rb  Rb5  1  0.63154116  0.76697612  0.85525030  1
  Rb  Rb6  1  0.92751526  0.10127474  0.74308719  1
  Rb  Rb7  1  0.07248474  0.39872526  0.24308719  1
  Rb  Rb8  1  0.07248474  0.89872526  0.25691281  1
  Rb  Rb9  1  0.92751526  0.60127474  0.75691281  1
  Rb  Rb10  1  0.12255522  0.10823808  0.56456871  1
  Rb  Rb11  1  0.87744478  0.39176192  0.06456871  1
  Rb  Rb12  1  0.87744478  0.89176192  0.43543129  1
  Rb  Rb13  1  0.12255522  0.60823808  0.93543129  1
  Fe  Fe14  1  -0.00000000  0.50000000  0.50000000  1
  Fe  Fe15  1  -0.00000000  0.00000000  -0.00000000  1
  Fe  Fe16  1  0.39615715  0.11548812  0.42211834  1
  Fe  Fe17  1  0.60384285  0.38451188  0.92211834  1
  Fe  Fe18  1  0.60384285  0.88451188  0.57788166  1
  Fe  Fe19  1  0.39615715  0.61548812  0.07788166  1
  Fe  Fe20  1  0.51567594  0.42140291  0.33355043  1
  Fe  Fe21  1  0.48432406  0.07859709  0.83355043  1
  Fe  Fe22  1  0.48432406  0.57859709  0.66644957  1
  Fe  Fe23  1  0.51567594  0.92140291  0.16644957  1
  Fe  Fe24  1  0.77974790  0.28358634  0.37561069  1
  Fe  Fe25  1  0.22025210  0.21641366  0.87561069  1
  Fe  Fe26  1  0.22025210  0.71641366  0.62438931  1
  Fe  Fe27  1  0.77974790  0.78358634  0.12438931  1
  P  P28  1  0.49836723  0.12400836  0.28766562  1
  P  P29  1  0.50163277  0.37599164  0.78766562  1
  P  P30  1  0.50163277  0.87599164  0.71233438  1
  P  P31  1  0.49836723  0.62400836  0.21233438  1
  P  P32  1  0.84301223  0.57339219  0.36584513  1
  P  P33  1  0.15698777  0.92660781  0.86584513  1
  P  P34  1  0.15698777  0.42660781  0.63415487  1
  P  P35  1  0.84301223  0.07339219  0.13415487  1
  P  P36  1  0.15808246  0.31115943  0.40855584  1
  P  P37  1  0.84191754  0.18884057  0.90855584  1
  P  P38  1  0.84191754  0.68884057  0.59144416  1
  P  P39  1  0.15808246  0.81115943  0.09144416  1
  P  P40  1  0.69256272  0.18106497  0.50505693  1
  P  P41  1  0.30743728  0.31893503  0.00505693  1
  P  P42  1  0.30743728  0.81893503  0.49494307  1
  P  P43  1  0.69256272  0.68106497  0.99494307  1
  H  H44  1  0.74610887  0.00842237  0.31295822  1
  H  H45  1  0.25389113  0.49157763  0.81295822  1
  H  H46  1  0.25389113  0.99157763  0.68704178  1
  H  H47  1  0.74610887  0.50842237  0.18704178  1
  H  H48  1  0.71501375  0.86813647  0.28107600  1
  H  H49  1  0.28498625  0.63186353  0.78107600  1
  H  H50  1  0.28498625  0.13186353  0.71892400  1
  H  H51  1  0.71501375  0.36813647  0.21892400  1
  O  O52  1  0.38933260  0.03611380  0.33912741  1
  O  O53  1  0.61066740  0.46388620  0.83912741  1
  O  O54  1  0.61066740  0.96388620  0.66087259  1
  O  O55  1  0.38933260  0.53611380  0.16087259  1
  O  O56  1  0.69110482  0.16145205  0.30357543  1
  O  O57  1  0.30889518  0.33854795  0.80357543  1
  O  O58  1  0.30889518  0.83854795  0.69642457  1
  O  O59  1  0.69110482  0.66145205  0.19642457  1
  O  O60  1  0.45188375  0.25922973  0.27591252  1
  O  O61  1  0.54811625  0.24077027  0.77591252  1
  O  O62  1  0.54811625  0.74077027  0.72408748  1
  O  O63  1  0.45188375  0.75922973  0.22408748  1
  O  O64  1  0.54295693  0.96296564  0.76984820  1
  O  O65  1  0.45704307  0.53703436  0.26984820  1
  O  O66  1  0.45704307  0.03703436  0.23015180  1
  O  O67  1  0.54295693  0.46296564  0.73015180  1
  O  O68  1  0.89015788  0.48729992  0.41798932  1
  O  O69  1  0.10984212  0.01270008  0.91798932  1
  O  O70  1  0.10984212  0.51270008  0.58201068  1
  O  O71  1  0.89015788  0.98729992  0.08201068  1
  O  O72  1  0.98830350  0.70055144  0.34841379  1
  O  O73  1  0.01169650  0.79944856  0.84841379  1
  O  O74  1  0.01169650  0.29944856  0.65158621  1
  O  O75  1  0.98830350  0.20055144  0.15158621  1
  O  O76  1  0.78703416  0.45412860  0.31644116  1
  O  O77  1  0.21296584  0.04587140  0.81644116  1
  O  O78  1  0.21296584  0.54587140  0.68355884  1
  O  O79  1  0.78703416  0.95412860  0.18355884  1
  O  O80  1  0.67227753  0.59916801  0.38013325  1
  O  O81  1  0.32772247  0.90083199  0.88013325  1
  O  O82  1  0.32772247  0.40083199  0.61986675  1
  O  O83  1  0.67227753  0.09916801  0.11986675  1
  O  O84  1  0.11888201  0.36893708  0.46831846  1
  O  O85  1  0.88111799  0.13106292  0.96831846  1
  O  O86  1  0.88111799  0.63106292  0.53168154  1
  O  O87  1  0.11888201  0.86893708  0.03168154  1
  O  O88  1  0.31171285  0.42116412  0.37865853  1
  O  O89  1  0.68828715  0.07883588  0.87865853  1
  O  O90  1  0.68828715  0.57883588  0.62134147  1
  O  O91  1  0.31171285  0.92116412  0.12134147  1
  O  O92  1  0.19626409  0.17356394  0.42382744  1
  O  O93  1  0.80373591  0.32643606  0.92382744  1
  O  O94  1  0.80373591  0.82643606  0.57617256  1
  O  O95  1  0.19626409  0.67356394  0.07617256  1
  O  O96  1  0.01009436  0.27521203  0.36326767  1
  O  O97  1  0.98990564  0.22478797  0.86326767  1
  O  O98  1  0.98990564  0.72478797  0.63673233  1
  O  O99  1  0.01009436  0.77521203  0.13673233  1
  O  O100  1  0.27346600  0.92120500  0.44900390  1
  O  O101  1  0.72653400  0.57879500  0.94900390  1
  O  O102  1  0.72653400  0.07879500  0.55099610  1
  O  O103  1  0.27346600  0.42120500  0.05099610  1
  O  O104  1  0.74228252  0.14386901  0.44176104  1
  O  O105  1  0.25771748  0.35613099  0.94176104  1
  O  O106  1  0.25771748  0.85613099  0.55823896  1
  O  O107  1  0.74228252  0.64386901  0.05823896  1
  O  O108  1  0.49881834  0.16372941  0.50448139  1
  O  O109  1  0.50118166  0.33627059  0.00448139  1
  O  O110  1  0.50118166  0.83627059  0.49551861  1
  O  O111  1  0.49881834  0.66372941  0.99551861  1
  O  O112  1  0.79531123  0.33178142  0.52322934  1
  O  O113  1  0.20468877  0.16821858  0.02322934  1
  O  O114  1  0.20468877  0.66821858  0.47677066  1
  O  O115  1  0.79531123  0.83178142  0.97677066  1
  O  O116  1  0.55342973  0.29210893  0.39352333  1
  O  O117  1  0.44657027  0.20789107  0.89352333  1
  O  O118  1  0.44657027  0.70789107  0.60647667  1
  O  O119  1  0.55342973  0.79210893  0.10647667  1
  O  O120  1  0.75913858  0.91511727  0.31834088  1
  O  O121  1  0.24086142  0.58488273  0.81834088  1
  O  O122  1  0.24086142  0.08488273  0.68165912  1
  O  O123  1  0.75913858  0.41511727  0.18165912  1
