# generated using pymatgen
data_K3Cd(BO2)5
_symmetry_space_group_name_H-M   'P 1'
_cell_length_a   7.79708848
_cell_length_b   8.01196642
_cell_length_c   19.47403487
_cell_angle_alpha   90.00000000
_cell_angle_beta   90.00000000
_cell_angle_gamma   115.60224670
_symmetry_Int_Tables_number   1
_chemical_formula_structural   K3Cd(BO2)5
_chemical_formula_sum   'K12 Cd4 B20 O40'
_cell_volume   1097.09759128
_cell_formula_units_Z   4
loop_
 _symmetry_equiv_pos_site_id
 _symmetry_equiv_pos_as_xyz
  1  'x, y, z'
loop_
 _atom_site_type_symbol
 _atom_site_label
 _atom_site_symmetry_multiplicity
 _atom_site_fract_x
 _atom_site_fract_y
 _atom_site_fract_z
 _atom_site_occupancy
  K  K0  1  0.50653588  0.64174504  0.42179404  1
  K  K1  1  0.00653588  0.14174504  0.07820596  1
  K  K2  1  0.49346412  0.35825496  0.57820596  1
  K  K3  1  0.99346412  0.85825496  0.92179404  1
  K  K4  1  0.04492392  0.20112244  0.43441672  1
  K  K5  1  0.54492392  0.70112244  0.06558328  1
  K  K6  1  0.95507608  0.79887756  0.56558328  1
  K  K7  1  0.45507608  0.29887756  0.93441672  1
  K  K8  1  0.71980834  0.44533048  0.24745401  1
  K  K9  1  0.21980834  0.94533048  0.25254599  1
  K  K10  1  0.28019166  0.55466952  0.75254599  1
  K  K11  1  0.78019166  0.05466952  0.74745401  1
  Cd  Cd12  1  0.02449072  0.65225345  0.40255946  1
  Cd  Cd13  1  0.52449072  0.15225345  0.09744054  1
  Cd  Cd14  1  0.97550928  0.34774655  0.59744054  1
  Cd  Cd15  1  0.47550928  0.84774655  0.90255946  1
  B  B16  1  0.19145379  0.50099187  0.28299075  1
  B  B17  1  0.69145379  0.00099187  0.21700925  1
  B  B18  1  0.80854621  0.49900813  0.71700925  1
  B  B19  1  0.30854621  0.99900813  0.78299075  1
  B  B20  1  0.66278102  0.31199487  0.43001588  1
  B  B21  1  0.16278102  0.81199487  0.06998412  1
  B  B22  1  0.33721898  0.68800513  0.56998412  1
  B  B23  1  0.83721898  0.18800513  0.93001588  1
  B  B24  1  0.63197431  0.06366561  0.34198693  1
  B  B25  1  0.13197431  0.56366561  0.15801307  1
  B  B26  1  0.36802569  0.93633439  0.65801307  1
  B  B27  1  0.86802569  0.43633439  0.84198693  1
  B  B28  1  0.80330972  0.86620910  0.31044381  1
  B  B29  1  0.30330972  0.36620910  0.18955619  1
  B  B30  1  0.19669028  0.13379090  0.68955619  1
  B  B31  1  0.69669028  0.63379090  0.81044381  1
  B  B32  1  0.36270271  0.02458052  0.42559142  1
  B  B33  1  0.86270271  0.52458052  0.07440858  1
  B  B34  1  0.63729729  0.97541948  0.57440858  1
  B  B35  1  0.13729729  0.47541948  0.92559142  1
  O  O36  1  0.93770960  0.46370487  0.12824367  1
  O  O37  1  0.43770960  0.96370487  0.37175633  1
  O  O38  1  0.06229040  0.53629513  0.87175633  1
  O  O39  1  0.56229040  0.03629513  0.62824367  1
  O  O40  1  0.17650591  0.51549175  0.35155584  1
  O  O41  1  0.67650591  0.01549175  0.14844416  1
  O  O42  1  0.82349409  0.48450825  0.64844416  1
  O  O43  1  0.32349409  0.98450825  0.85155584  1
  O  O44  1  0.18771557  0.92442647  0.45200178  1
  O  O45  1  0.68771557  0.42442647  0.04799822  1
  O  O46  1  0.81228443  0.07557353  0.54799822  1
  O  O47  1  0.31228443  0.57557353  0.95200178  1
  O  O48  1  0.72796299  0.25202389  0.37315390  1
  O  O49  1  0.22796299  0.75202389  0.12684610  1
  O  O50  1  0.27203701  0.74797611  0.62684610  1
  O  O51  1  0.77203701  0.24797611  0.87315390  1
  O  O52  1  0.74389338  0.95916192  0.35830883  1
  O  O53  1  0.24389338  0.45916192  0.14169117  1
  O  O54  1  0.25610662  0.04083808  0.64169117  1
  O  O55  1  0.75610662  0.54083808  0.85830883  1
  O  O56  1  0.76819946  0.47154092  0.46413834  1
  O  O57  1  0.26819946  0.97154092  0.03586166  1
  O  O58  1  0.23180054  0.52845908  0.53586166  1
  O  O59  1  0.73180054  0.02845908  0.96413834  1
  O  O60  1  0.61644887  0.07765487  0.26619991  1
  O  O61  1  0.11644887  0.57765487  0.23380009  1
  O  O62  1  0.38355113  0.92234513  0.73380009  1
  O  O63  1  0.88355113  0.42234513  0.76619991  1
  O  O64  1  0.52722660  0.79492116  0.54765934  1
  O  O65  1  0.02722660  0.29492116  0.95234066  1
  O  O66  1  0.47277340  0.20507884  0.45234066  1
  O  O67  1  0.97277340  0.70507884  0.04765934  1
  O  O68  1  0.86975376  0.74349321  0.32790765  1
  O  O69  1  0.36975376  0.24349321  0.17209235  1
  O  O70  1  0.13024624  0.25650679  0.67209235  1
  O  O71  1  0.63024624  0.75650679  0.82790765  1
  O  O72  1  0.29071039  0.39963385  0.26021597  1
  O  O73  1  0.79071039  0.89963385  0.23978403  1
  O  O74  1  0.70928961  0.60036615  0.73978403  1
  O  O75  1  0.20928961  0.10036615  0.76021597  1
