# generated using pymatgen
data_Li2Be2H4NF7
_symmetry_space_group_name_H-M   'P 1'
_cell_length_a   10.02315180
_cell_length_b   10.21660678
_cell_length_c   12.50598949
_cell_angle_alpha   90.00000000
_cell_angle_beta   90.00000000
_cell_angle_gamma   90.00000000
_symmetry_Int_Tables_number   1
_chemical_formula_structural   Li2Be2H4NF7
_chemical_formula_sum   'Li16 Be16 H32 N8 F56'
_cell_volume   1280.64584731
_cell_formula_units_Z   8
loop_
 _symmetry_equiv_pos_site_id
 _symmetry_equiv_pos_as_xyz
  1  'x, y, z'
loop_
 _atom_site_type_symbol
 _atom_site_label
 _atom_site_symmetry_multiplicity
 _atom_site_fract_x
 _atom_site_fract_y
 _atom_site_fract_z
 _atom_site_occupancy
  Li  Li0  1  0.47706586  0.27027513  0.25132669  1
  Li  Li1  1  0.52293414  0.77027513  0.74867331  1
  Li  Li2  1  0.02293414  0.77027513  0.25132669  1
  Li  Li3  1  0.97706586  0.27027513  0.74867331  1
  Li  Li4  1  0.52628240  0.77955983  0.24967051  1
  Li  Li5  1  0.47371760  0.27955983  0.75032949  1
  Li  Li6  1  0.97371760  0.27955983  0.24967051  1
  Li  Li7  1  0.02628240  0.77955983  0.75032949  1
  Li  Li8  1  0.72350287  0.46716769  0.24623401  1
  Li  Li9  1  0.27649713  0.96716769  0.75376599  1
  Li  Li10  1  0.77649713  0.96716769  0.24623401  1
  Li  Li11  1  0.22350287  0.46716769  0.75376599  1
  Li  Li12  1  0.22940730  0.46623565  0.25217247  1
  Li  Li13  1  0.77059270  0.96623565  0.74782753  1
  Li  Li14  1  0.27059270  0.96623565  0.25217247  1
  Li  Li15  1  0.72940730  0.46623565  0.74782753  1
  Be  Be16  1  0.73552875  0.21056229  0.37952212  1
  Be  Be17  1  0.26447125  0.71056229  0.62047788  1
  Be  Be18  1  0.76447125  0.71056229  0.37952212  1
  Be  Be19  1  0.23552875  0.21056229  0.62047788  1
  Be  Be20  1  0.22189335  0.22324525  0.38699459  1
  Be  Be21  1  0.77810665  0.72324525  0.61300541  1
  Be  Be22  1  0.27810665  0.72324525  0.38699459  1
  Be  Be23  1  0.72189335  0.22324525  0.61300541  1
  Be  Be24  1  0.51915929  0.02553081  0.11556579  1
  Be  Be25  1  0.48084071  0.52553081  0.88443421  1
  Be  Be26  1  0.98084071  0.52553081  0.11556579  1
  Be  Be27  1  0.01915929  0.02553081  0.88443421  1
  Be  Be28  1  0.47625308  0.52087829  0.11731186  1
  Be  Be29  1  0.52374692  0.02087829  0.88268814  1
  Be  Be30  1  0.02374692  0.02087829  0.11731186  1
  Be  Be31  1  0.97625308  0.52087829  0.88268814  1
  H  H32  1  0.18774141  0.23734384  0.06609674  1
  H  H33  1  0.81225859  0.73734384  0.93390326  1
  H  H34  1  0.31225859  0.73734384  0.06609674  1
  H  H35  1  0.68774141  0.23734384  0.93390326  1
  H  H36  1  0.33558445  0.21955462  0.00416701  1
  H  H37  1  0.66441555  0.71955462  0.99583299  1
  H  H38  1  0.16441555  0.71955462  0.00416701  1
  H  H39  1  0.83558445  0.21955462  0.99583299  1
  H  H40  1  0.19252588  0.23294058  0.93340672  1
  H  H41  1  0.80747412  0.73294058  0.06659328  1
  H  H42  1  0.30747412  0.73294058  0.93340672  1
  H  H43  1  0.69252588  0.23294058  0.06659328  1
  H  H44  1  0.25535355  0.36460392  0.99907486  1
  H  H45  1  0.74464645  0.86460392  0.00092514  1
  H  H46  1  0.24464645  0.86460392  0.99907486  1
  H  H47  1  0.75535355  0.36460392  0.00092514  1
  H  H48  1  0.52188281  0.40245040  0.54295421  1
  H  H49  1  0.47811719  0.90245040  0.45704579  1
  H  H50  1  0.97811719  0.90245040  0.54295421  1
  H  H51  1  0.02188281  0.40245040  0.45704579  1
  H  H52  1  0.57000237  0.51298810  0.44765299  1
  H  H53  1  0.42999763  0.01298810  0.55234701  1
  H  H54  1  0.92999763  0.01298810  0.44765299  1
  H  H55  1  0.07000237  0.51298810  0.55234701  1
  H  H56  1  0.48118886  0.56404848  0.55440929  1
  H  H57  1  0.51881114  0.06404848  0.44559071  1
  H  H58  1  0.01881114  0.06404848  0.55440929  1
  H  H59  1  0.98118886  0.56404848  0.44559071  1
  H  H60  1  0.40692251  0.47180047  0.46097582  1
  H  H61  1  0.59307749  0.97180047  0.53902418  1
  H  H62  1  0.09307749  0.97180047  0.46097582  1
  H  H63  1  0.90692251  0.47180047  0.53902418  1
  N  N64  1  0.24315723  0.26431068  0.00033732  1
  N  N65  1  0.75684277  0.76431068  0.99966268  1
  N  N66  1  0.25684277  0.76431068  0.00033732  1
  N  N67  1  0.74315723  0.26431068  0.99966268  1
  N  N68  1  0.49513856  0.48668780  0.50135656  1
  N  N69  1  0.50486144  0.98668780  0.49864344  1
  N  N70  1  0.00486144  0.98668780  0.50135656  1
  N  N71  1  0.99513856  0.48668780  0.49864344  1
  F  F72  1  0.47644953  0.17057191  0.12506361  1
  F  F73  1  0.52355047  0.67057191  0.87493639  1
  F  F74  1  0.02355047  0.67057191  0.12506361  1
  F  F75  1  0.97644953  0.17057191  0.87493639  1
  F  F76  1  0.30458204  0.30502820  0.30420509  1
  F  F77  1  0.69541796  0.80502820  0.69579491  1
  F  F78  1  0.19541796  0.80502820  0.30420509  1
  F  F79  1  0.80458204  0.30502820  0.69579491  1
  F  F80  1  0.07216533  0.26200946  0.37753115  1
  F  F81  1  0.92783467  0.76200946  0.62246885  1
  F  F82  1  0.42783467  0.76200946  0.37753115  1
  F  F83  1  0.57216533  0.26200946  0.62246885  1
  F  F84  1  0.25572718  0.57533160  0.37125112  1
  F  F85  1  0.74427282  0.07533160  0.62874888  1
  F  F86  1  0.24427282  0.07533160  0.37125112  1
  F  F87  1  0.75572718  0.57533160  0.62874888  1
  F  F88  1  0.76922331  0.26532249  0.49559260  1
  F  F89  1  0.23077669  0.76532249  0.50440740  1
  F  F90  1  0.73077669  0.76532249  0.49559260  1
  F  F91  1  0.26922331  0.26532249  0.50440740  1
  F  F92  1  0.79558955  0.30677009  0.29503384  1
  F  F93  1  0.20441045  0.80677009  0.70496616  1
  F  F94  1  0.70441045  0.80677009  0.29503384  1
  F  F95  1  0.29558955  0.30677009  0.70496616  1
  F  F96  1  0.58138224  0.20053562  0.36508390  1
  F  F97  1  0.41861776  0.70053562  0.63491610  1
  F  F98  1  0.91861776  0.70053562  0.36508390  1
  F  F99  1  0.08138224  0.20053562  0.63491610  1
  F  F100  1  0.69976626  0.57319746  0.36697452  1
  F  F101  1  0.30023374  0.07319746  0.63302548  1
  F  F102  1  0.80023374  0.07319746  0.36697452  1
  F  F103  1  0.19976626  0.57319746  0.63302548  1
  F  F104  1  0.51486285  0.66676552  0.13207696  1
  F  F105  1  0.48513715  0.16676552  0.86792304  1
  F  F106  1  0.98513715  0.16676552  0.13207696  1
  F  F107  1  0.01486285  0.66676552  0.86792304  1
  F  F108  1  0.54934293  0.43071544  0.20016217  1
  F  F109  1  0.45065707  0.93071544  0.79983783  1
  F  F110  1  0.95065707  0.93071544  0.20016217  1
  F  F111  1  0.04934293  0.43071544  0.79983783  1
  F  F112  1  0.32363364  0.50408494  0.12635593  1
  F  F113  1  0.67636636  0.00408494  0.87364407  1
  F  F114  1  0.17636636  0.00408494  0.12635593  1
  F  F115  1  0.82363364  0.50408494  0.87364407  1
  F  F116  1  0.47783809  0.97416585  0.99938778  1
  F  F117  1  0.52216191  0.47416585  0.00061222  1
  F  F118  1  0.02216191  0.47416585  0.99938778  1
  F  F119  1  0.97783809  0.97416585  0.00061222  1
  F  F120  1  0.82730587  0.51284365  0.12796432  1
  F  F121  1  0.17269413  0.01284365  0.87203568  1
  F  F122  1  0.67269413  0.01284365  0.12796432  1
  F  F123  1  0.32730587  0.51284365  0.87203568  1
  F  F124  1  0.05314948  0.43827393  0.20049384  1
  F  F125  1  0.94685052  0.93827393  0.79950616  1
  F  F126  1  0.44685052  0.93827393  0.20049384  1
  F  F127  1  0.55314948  0.43827393  0.79950616  1
