# generated using pymatgen
data_Er2Re3Si5
_symmetry_space_group_name_H-M   'P 1'
_cell_length_a   5.52616723
_cell_length_b   10.98640692
_cell_length_c   10.98640692
_cell_angle_alpha   90.00000000
_cell_angle_beta   90.00000000
_cell_angle_gamma   90.00000000
_symmetry_Int_Tables_number   1
_chemical_formula_structural   Er2Re3Si5
_chemical_formula_sum   'Er8 Re12 Si20'
_cell_volume   667.01466798
_cell_formula_units_Z   4
loop_
 _symmetry_equiv_pos_site_id
 _symmetry_equiv_pos_as_xyz
  1  'x, y, z'
loop_
 _atom_site_type_symbol
 _atom_site_label
 _atom_site_symmetry_multiplicity
 _atom_site_fract_x
 _atom_site_fract_y
 _atom_site_fract_z
 _atom_site_occupancy
  Er  Er0  1  0.50000000  0.73765500  0.57742203  1
  Er  Er1  1  0.50000000  0.26234500  0.42257797  1
  Er  Er2  1  -0.00000000  0.76234500  0.07742203  1
  Er  Er3  1  -0.00000000  0.23765500  0.92257797  1
  Er  Er4  1  0.50000000  0.57742203  0.26234500  1
  Er  Er5  1  0.50000000  0.42257797  0.73765500  1
  Er  Er6  1  -0.00000000  0.07742203  0.23765500  1
  Er  Er7  1  -0.00000000  0.92257797  0.76234500  1
  Re  Re8  1  0.50000000  0.85318654  0.87565733  1
  Re  Re9  1  0.50000000  0.14681346  0.12434267  1
  Re  Re10  1  -0.00000000  0.64681346  0.37565733  1
  Re  Re11  1  -0.00000000  0.35318654  0.62434267  1
  Re  Re12  1  0.50000000  0.87565733  0.14681346  1
  Re  Re13  1  0.50000000  0.12434267  0.85318654  1
  Re  Re14  1  -0.00000000  0.37565733  0.35318654  1
  Re  Re15  1  -0.00000000  0.62434267  0.64681346  1
  Re  Re16  1  0.25000000  -0.00000000  0.50000000  1
  Re  Re17  1  0.75000000  0.50000000  0.00000000  1
  Re  Re18  1  0.25000000  0.50000000  0.00000000  1
  Re  Re19  1  0.75000000  -0.00000000  0.50000000  1
  Si  Si20  1  0.25000000  0.17320647  0.67320647  1
  Si  Si21  1  0.25000000  0.82679353  0.32679353  1
  Si  Si22  1  0.75000000  0.32679353  0.17320647  1
  Si  Si23  1  0.75000000  0.67320647  0.82679353  1
  Si  Si24  1  0.25000000  0.67320647  0.82679353  1
  Si  Si25  1  0.25000000  0.32679353  0.17320647  1
  Si  Si26  1  0.75000000  0.17320647  0.67320647  1
  Si  Si27  1  0.75000000  0.82679353  0.32679353  1
  Si  Si28  1  0.25659302  0.50000000  0.50000000  1
  Si  Si29  1  0.75659302  -0.00000000  0.00000000  1
  Si  Si30  1  0.74340698  0.50000000  0.50000000  1
  Si  Si31  1  0.24340698  -0.00000000  0.00000000  1
  Si  Si32  1  0.50000000  0.97235595  0.68534701  1
  Si  Si33  1  0.50000000  0.02764405  0.31465299  1
  Si  Si34  1  -0.00000000  0.52764405  0.18534701  1
  Si  Si35  1  -0.00000000  0.47235595  0.81465299  1
  Si  Si36  1  0.50000000  0.68534701  0.02764405  1
  Si  Si37  1  0.50000000  0.31465299  0.97235595  1
  Si  Si38  1  -0.00000000  0.18534701  0.47235595  1
  Si  Si39  1  -0.00000000  0.81465299  0.52764405  1
