# generated using pymatgen
data_TiH30C10S5(ClO3)2
_symmetry_space_group_name_H-M   'P 1'
_cell_length_a   9.83493098
_cell_length_b   10.72226503
_cell_length_c   12.92952883
_cell_angle_alpha   71.07256630
_cell_angle_beta   83.40114971
_cell_angle_gamma   89.94334497
_symmetry_Int_Tables_number   1
_chemical_formula_structural   TiH30C10S5(ClO3)2
_chemical_formula_sum   'Ti2 H60 C20 S10 Cl4 O12'
_cell_volume   1280.23240216
_cell_formula_units_Z   2
loop_
 _symmetry_equiv_pos_site_id
 _symmetry_equiv_pos_as_xyz
  1  'x, y, z'
loop_
 _atom_site_type_symbol
 _atom_site_label
 _atom_site_symmetry_multiplicity
 _atom_site_fract_x
 _atom_site_fract_y
 _atom_site_fract_z
 _atom_site_occupancy
  Ti  Ti0  1  0.74257722  0.40623261  0.68447568  1
  Ti  Ti1  1  0.25742278  0.59376739  0.31552432  1
  H  H2  1  0.08325507  0.66021319  0.83914384  1
  H  H3  1  0.91674493  0.33978681  0.16085616  1
  H  H4  1  0.91485526  0.58659988  0.89297898  1
  H  H5  1  0.08514474  0.41340012  0.10702102  1
  H  H6  1  0.06273550  0.48155653  0.90032414  1
  H  H7  1  0.93726450  0.51844347  0.09967586  1
  H  H8  1  0.22676052  0.63065750  0.66614024  1
  H  H9  1  0.77323948  0.36934250  0.33385976  1
  H  H10  1  0.20618135  0.45511847  0.74235822  1
  H  H11  1  0.79381865  0.54488153  0.25764178  1
  H  H12  1  0.17337794  0.51861544  0.59898351  1
  H  H13  1  0.82662206  0.48138456  0.40101649  1
  H  H14  1  0.35163034  0.66704457  0.84774871  1
  H  H15  1  0.64836966  0.33295543  0.15225129  1
  H  H16  1  0.37183637  0.49081617  0.90718529  1
  H  H17  1  0.62816363  0.50918383  0.09281471  1
  H  H18  1  0.48749327  0.60768355  0.93309465  1
  H  H19  1  0.51250673  0.39231645  0.06690535  1
  H  H20  1  0.70411819  0.75912113  0.66092596  1
  H  H21  1  0.29588181  0.24087887  0.33907404  1
  H  H22  1  0.55028452  0.82446287  0.71073467  1
  H  H23  1  0.44971548  0.17553713  0.28926533  1
  H  H24  1  0.66960782  0.74237545  0.80676166  1
  H  H25  1  0.33039218  0.25762455  0.19323834  1
  H  H26  1  0.59471524  0.17982347  0.50804098  1
  H  H27  1  0.40528476  0.82017653  0.49195902  1
  H  H28  1  0.43208005  0.09033749  0.56203557  1
  H  H29  1  0.56791995  0.90966251  0.43796443  1
  H  H30  1  0.43775105  0.26933214  0.50189590  1
  H  H31  1  0.56224895  0.73066786  0.49810410  1
  H  H32  1  0.27732808  0.10889457  0.72746652  1
  H  H33  1  0.72267192  0.89110543  0.27253348  1
  H  H34  1  0.31164538  0.21951809  0.80330070  1
  H  H35  1  0.68835462  0.78048191  0.19669930  1
  H  H36  1  0.28509728  0.28575481  0.65853971  1
  H  H37  1  0.71490272  0.71424519  0.34146029  1
  H  H38  1  0.62418409  0.10194770  0.12776579  1
  H  H39  1  0.37581591  0.89805230  0.87223421  1
  H  H40  1  0.50930100  0.15392532  0.02333335  1
  H  H41  1  0.49069900  0.84607468  0.97666665  1
  H  H42  1  0.61937531  0.01535160  0.02892169  1
  H  H43  1  0.38062469  0.98464840  0.97107831  1
  H  H44  1  0.97779345  0.17634864  0.95119179  1
  H  H45  1  0.02220655  0.82365136  0.04880821  1
  H  H46  1  0.88432139  0.10787091  0.08574265  1
  H  H47  1  0.11567861  0.89212909  0.91425735  1
  H  H48  1  0.86817166  0.02798804  0.98356935  1
  H  H49  1  0.13182834  0.97201196  0.01643065  1
  H  H50  1  0.10515751  0.25625161  0.50450548  1
  H  H51  1  0.89484249  0.74374839  0.49549452  1
  H  H52  1  0.11254726  0.07899377  0.56872375  1
  H  H53  1  0.88745274  0.92100623  0.43127625  1
  H  H54  1  0.97530428  0.14807077  0.48568000  1
  H  H55  1  0.02469572  0.85192923  0.51432000  1
  H  H56  1  0.93120823  0.94034964  0.72201468  1
  H  H57  1  0.06879177  0.05965036  0.27798532  1
  H  H58  1  0.78322844  0.00777457  0.77744377  1
  H  H59  1  0.21677156  0.99222543  0.22255623  1
  H  H60  1  0.79986009  0.01165439  0.63501278  1
  H  H61  1  0.20013991  0.98834561  0.36498722  1
  C  C62  1  0.01614334  0.57268774  0.85350459  1
  C  C63  1  0.98385666  0.42731226  0.14649541  1
  C  C64  1  0.16961092  0.53795479  0.67758224  1
  C  C65  1  0.83038908  0.46204521  0.32241776  1
  C  C66  1  0.42499593  0.58882034  0.87434093  1
  C  C67  1  0.57500407  0.41117966  0.12565907  1
  C  C68  1  0.62541776  0.74676920  0.73111969  1
  C  C69  1  0.37458224  0.25323080  0.26888031  1
  C  C70  1  0.49094788  0.18278589  0.54854191  1
  C  C71  1  0.50905212  0.81721411  0.45145809  1
  C  C72  1  0.32467141  0.20415115  0.72254185  1
  C  C73  1  0.67532859  0.79584885  0.27745815  1
  C  C74  1  0.60876627  0.11091544  0.04272147  1
  C  C75  1  0.39123373  0.88908456  0.95727853  1
  C  C76  1  0.88337232  0.12249923  0.99763251  1
  C  C77  1  0.11662768  0.87750077  0.00236749  1
  C  C78  1  0.04495660  0.16275255  0.54174540  1
  C  C79  1  0.95504340  0.83724745  0.45825460  1
  C  C80  1  0.85403166  0.01615750  0.70341348  1
  C  C81  1  0.14596834  0.98384250  0.29658652  1
  S  S82  1  0.74120755  0.22321847  0.95470465  1
  S  S83  1  0.25879245  0.77678153  0.04529535  1
  S  S84  1  0.99594908  0.56463410  0.72037006  1
  S  S85  1  0.00405092  0.43536590  0.27962994  1
  S  S86  1  0.50336555  0.19545083  0.68187213  1
  S  S87  1  0.49663445  0.80454917  0.31812787  1
  S  S88  1  0.53286047  0.59498819  0.75217403  1
  S  S89  1  0.46713953  0.40501181  0.24782597  1
  S  S90  1  0.94427089  0.17277383  0.66269532  1
  S  S91  1  0.05572911  0.82722617  0.33730468  1
  Cl  Cl92  1  0.74275595  0.73995771  0.00508045  1
  Cl  Cl93  1  0.25724405  0.26004229  0.99491955  1
  Cl  Cl94  1  0.75423718  0.12090880  0.31407009  1
  Cl  Cl95  1  0.24576282  0.87909120  0.68592991  1
  O  O96  1  0.92028896  0.42848102  0.74591272  1
  O  O97  1  0.07971104  0.57151898  0.25408728  1
  O  O98  1  0.72727975  0.22214725  0.83790530  1
  O  O99  1  0.27272025  0.77785275  0.16209470  1
  O  O100  1  0.56080183  0.33803404  0.65622559  1
  O  O101  1  0.43919817  0.66196596  0.34377441  1
  O  O102  1  0.63650141  0.48530043  0.79283208  1
  O  O103  1  0.36349859  0.51469957  0.20716792  1
  O  O104  1  0.75960889  0.54528368  0.57632883  1
  O  O105  1  0.24039111  0.45471632  0.42367117  1
  O  O106  1  0.83800731  0.27593673  0.61496319  1
  O  O107  1  0.16199269  0.72406327  0.38503681  1
