# generated using pymatgen
data_La4Se3N2
_symmetry_space_group_name_H-M   'P 1'
_cell_length_a   6.64582992
_cell_length_b   8.48849036
_cell_length_c   8.48849036
_cell_angle_alpha   75.51374362
_cell_angle_beta   90.05795246
_cell_angle_gamma   90.05795246
_symmetry_Int_Tables_number   1
_chemical_formula_structural   La4Se3N2
_chemical_formula_sum   'La8 Se6 N4'
_cell_volume   463.63723349
_cell_formula_units_Z   2
loop_
 _symmetry_equiv_pos_site_id
 _symmetry_equiv_pos_as_xyz
  1  'x, y, z'
loop_
 _atom_site_type_symbol
 _atom_site_label
 _atom_site_symmetry_multiplicity
 _atom_site_fract_x
 _atom_site_fract_y
 _atom_site_fract_z
 _atom_site_occupancy
  La  La0  1  0.47047687  0.80823723  0.44457376  1
  La  La1  1  0.02952313  0.55542624  0.19176277  1
  La  La2  1  0.52952313  0.19176277  0.55542624  1
  La  La3  1  0.97047687  0.44457376  0.80823723  1
  La  La4  1  0.42700303  0.24293534  0.08600092  1
  La  La5  1  0.07299697  0.91399908  0.75706466  1
  La  La6  1  0.57299697  0.75706466  0.91399908  1
  La  La7  1  0.92700303  0.08600092  0.24293534  1
  Se  Se8  1  0.25000000  0.90252839  0.09747161  1
  Se  Se9  1  0.75000000  0.09747161  0.90252839  1
  Se  Se10  1  0.46568550  0.48502421  0.74623080  1
  Se  Se11  1  0.03431450  0.25376920  0.51497579  1
  Se  Se12  1  0.53431450  0.51497579  0.25376920  1
  Se  Se13  1  0.96568550  0.74623080  0.48502421  1
  N  N14  1  0.41435337  0.91913185  0.67006195  1
  N  N15  1  0.08564663  0.32993805  0.08086815  1
  N  N16  1  0.58564663  0.08086815  0.32993805  1
  N  N17  1  0.91435337  0.67006195  0.91913185  1
