# generated using pymatgen
data_Ho5Zr3(Ni4As3)4
_symmetry_space_group_name_H-M   'P 1'
_cell_length_a   3.91536849
_cell_length_b   12.74459435
_cell_length_c   12.74564088
_cell_angle_alpha   119.99728535
_cell_angle_beta   90.00000000
_cell_angle_gamma   90.00000000
_symmetry_Int_Tables_number   1
_chemical_formula_structural   Ho5Zr3(Ni4As3)4
_chemical_formula_sum   'Ho5 Zr3 Ni16 As12'
_cell_volume   550.81130738
_cell_formula_units_Z   1
loop_
 _symmetry_equiv_pos_site_id
 _symmetry_equiv_pos_as_xyz
  1  'x, y, z'
loop_
 _atom_site_type_symbol
 _atom_site_label
 _atom_site_symmetry_multiplicity
 _atom_site_fract_x
 _atom_site_fract_y
 _atom_site_fract_z
 _atom_site_occupancy
  Ho  Ho0  1  0.50000000  0.99994856  0.18142213  1
  Ho  Ho1  1  0.50000000  0.18163470  0.00000000  1
  Ho  Ho2  1  0.50000000  0.81852643  0.81857787  1
  Ho  Ho3  1  0.00000000  0.33323800  0.66665019  1
  Ho  Ho4  1  0.00000000  0.66658781  0.33334981  1
  Zr  Zr5  1  0.00000000  0.00015142  0.56271929  1
  Zr  Zr6  1  0.00000000  0.56236190  1.00000000  1
  Zr  Zr7  1  0.00000000  0.43743213  0.43728071  1
  Ni  Ni8  1  0.50000000  0.00016885  0.72281139  1
  Ni  Ni9  1  0.50000000  0.72259821  1.00000000  1
  Ni  Ni10  1  0.50000000  0.27735746  0.27718861  1
  Ni  Ni11  1  -0.00000000  0.19193468  0.37353034  1
  Ni  Ni12  1  0.00000000  0.18131138  0.80801176  1
  Ni  Ni13  1  0.00000000  0.62632960  0.81789921  1
  Ni  Ni14  1  -0.00000000  0.81840434  0.62646966  1
  Ni  Ni15  1  0.00000000  0.37329962  0.19198824  1
  Ni  Ni16  1  0.00000000  0.80843038  0.18210079  1
  Ni  Ni17  1  0.50000000  0.12119863  0.48149731  1
  Ni  Ni18  1  0.50000000  0.36041994  0.87870951  1
  Ni  Ni19  1  0.50000000  0.51848154  0.64006429  1
  Ni  Ni20  1  0.50000000  0.63970132  0.51850269  1
  Ni  Ni21  1  0.50000000  0.48171042  0.12129049  1
  Ni  Ni22  1  0.50000000  0.87841724  0.35993571  1
  Ni  Ni23  1  -0.00000000  0.00001192  1.00000000  1
  As  As24  1  0.00000000  0.99994830  0.82249597  1
  As  As25  1  0.00000000  0.82252421  1.00000000  1
  As  As26  1  0.00000000  0.17745233  0.17750403  1
  As  As27  1  0.50000000  0.30740278  0.47978271  1
  As  As28  1  0.50000000  0.17238425  0.69237926  1
  As  As29  1  0.50000000  0.52018519  0.82774441  1
  As  As30  1  0.50000000  0.82762007  0.52021729  1
  As  As31  1  0.50000000  0.48000499  0.30762074  1
  As  As32  1  0.50000000  0.69244079  0.17225559  1
  As  As33  1  0.00000000  0.00022815  0.35542023  1
  As  As34  1  0.00000000  0.35524454  0.00000000  1
  As  As35  1  0.00000000  0.64480792  0.64457977  1
