# generated using pymatgen
data_NaCoSO4F
_symmetry_space_group_name_H-M   'P 1'
_cell_length_a   5.50464091
_cell_length_b   5.50464091
_cell_length_c   7.28124498
_cell_angle_alpha   104.73334195
_cell_angle_beta   104.73334195
_cell_angle_gamma   104.27255467
_symmetry_Int_Tables_number   1
_chemical_formula_structural   NaCoSO4F
_chemical_formula_sum   'Na2 Co2 S2 O8 F2'
_cell_volume   194.60114282
_cell_formula_units_Z   2
loop_
 _symmetry_equiv_pos_site_id
 _symmetry_equiv_pos_as_xyz
  1  'x, y, z'
loop_
 _atom_site_type_symbol
 _atom_site_label
 _atom_site_symmetry_multiplicity
 _atom_site_fract_x
 _atom_site_fract_y
 _atom_site_fract_z
 _atom_site_occupancy
  Na  Na0  1  0.33661182  0.66338818  0.25000000  1
  Na  Na1  1  0.66338818  0.33661182  0.75000000  1
  Co  Co2  1  -0.00000000  0.00000000  0.50000000  1
  Co  Co3  1  -0.00000000  0.00000000  -0.00000000  1
  S  S4  1  0.68074889  0.31925111  0.25000000  1
  S  S5  1  0.31925111  0.68074889  0.75000000  1
  O  O6  1  0.67536364  0.11734004  0.35452841  1
  O  O7  1  0.88265996  0.32463636  0.14547159  1
  O  O8  1  0.32463636  0.88265996  0.64547159  1
  O  O9  1  0.11734004  0.67536364  0.85452841  1
  O  O10  1  0.74448762  0.58758667  0.40063657  1
  O  O11  1  0.41241333  0.25551238  0.09936343  1
  O  O12  1  0.25551238  0.41241333  0.59936343  1
  O  O13  1  0.58758667  0.74448762  0.90063657  1
  F  F14  1  0.08545569  0.91454431  0.25000000  1
  F  F15  1  0.91454431  0.08545569  0.75000000  1
