# generated using pymatgen
data_KTbS2O9
_symmetry_space_group_name_H-M   'P 1'
_cell_length_a   8.52321678
_cell_length_b   10.78118313
_cell_length_c   10.11715498
_cell_angle_alpha   59.08648518
_cell_angle_beta   90.00000000
_cell_angle_gamma   90.00000000
_symmetry_Int_Tables_number   1
_chemical_formula_structural   KTbS2O9
_chemical_formula_sum   'K4 Tb4 S8 O36'
_cell_volume   797.60372636
_cell_formula_units_Z   4
loop_
 _symmetry_equiv_pos_site_id
 _symmetry_equiv_pos_as_xyz
  1  'x, y, z'
loop_
 _atom_site_type_symbol
 _atom_site_label
 _atom_site_symmetry_multiplicity
 _atom_site_fract_x
 _atom_site_fract_y
 _atom_site_fract_z
 _atom_site_occupancy
  K  K0  1  0.82170557  0.69016249  0.53343470  1
  K  K1  1  0.32170557  0.80983751  0.96656530  1
  K  K2  1  0.17829443  0.30983751  0.46656530  1
  K  K3  1  0.67829443  0.19016249  0.03343470  1
  Tb  Tb4  1  0.36966185  0.52710252  0.72141566  1
  Tb  Tb5  1  0.86966185  0.97289748  0.77858434  1
  Tb  Tb6  1  0.63033815  0.47289748  0.27858434  1
  Tb  Tb7  1  0.13033815  0.02710252  0.22141566  1
  S  S8  1  0.13103738  0.18686613  0.87049171  1
  S  S9  1  0.63103738  0.31313387  0.62950829  1
  S  S10  1  0.86896262  0.81313387  0.12950829  1
  S  S11  1  0.36896262  0.68686613  0.37049171  1
  S  S12  1  0.19557742  0.88446451  0.60031608  1
  S  S13  1  0.69557742  0.61553549  0.89968392  1
  S  S14  1  0.80442258  0.11553549  0.39968392  1
  S  S15  1  0.30442258  0.38446451  0.10031608  1
  O  O16  1  0.20313885  0.32893753  0.76431774  1
  O  O17  1  0.70313885  0.17106247  0.73568226  1
  O  O18  1  0.79686115  0.67106247  0.23568226  1
  O  O19  1  0.29686115  0.82893753  0.26431774  1
  O  O20  1  0.25072321  0.08155500  0.97903043  1
  O  O21  1  0.75072321  0.41844500  0.52096957  1
  O  O22  1  0.74927679  0.91844500  0.02096957  1
  O  O23  1  0.24927679  0.58155500  0.47903043  1
  O  O24  1  0.56136929  0.36702754  0.72588097  1
  O  O25  1  0.06136929  0.13297246  0.77411903  1
  O  O26  1  0.43863071  0.63297246  0.27411903  1
  O  O27  1  0.93863071  0.86702754  0.22588097  1
  O  O28  1  0.00921264  0.19464150  0.97200854  1
  O  O29  1  0.50921264  0.30535850  0.52799146  1
  O  O30  1  0.99078736  0.80535850  0.02799146  1
  O  O31  1  0.49078736  0.69464150  0.47200854  1
  O  O32  1  0.40800869  0.36622871  0.99273413  1
  O  O33  1  0.90800869  0.13377129  0.50726587  1
  O  O34  1  0.59199131  0.63377129  0.00726587  1
  O  O35  1  0.09199131  0.86622871  0.49273413  1
  O  O36  1  0.60387884  0.60591037  0.78062879  1
  O  O37  1  0.10387884  0.89408963  0.71937121  1
  O  O38  1  0.39612116  0.39408963  0.21937121  1
  O  O39  1  0.89612116  0.10591037  0.28062879  1
  O  O40  1  0.78949202  0.48100429  0.98783819  1
  O  O41  1  0.28949202  0.01899571  0.51216181  1
  O  O42  1  0.21050798  0.51899571  0.01216181  1
  O  O43  1  0.71050798  0.98100429  0.48783819  1
  O  O44  1  0.30152284  0.75604784  0.68310078  1
  O  O45  1  0.80152284  0.74395216  0.81689922  1
  O  O46  1  0.69847716  0.24395216  0.31689922  1
  O  O47  1  0.19847716  0.25604784  0.18310078  1
  O  O48  1  0.11633277  0.56491697  0.77903693  1
  O  O49  1  0.61633277  0.93508303  0.72096307  1
  O  O50  1  0.88366723  0.43508303  0.22096307  1
  O  O51  1  0.38366723  0.06491697  0.27903693  1
