# generated using pymatgen
data_Ca3(AlP2)2
_symmetry_space_group_name_H-M   'P 1'
_cell_length_a   6.47499189
_cell_length_b   8.02003708
_cell_length_c   8.02003708
_cell_angle_alpha   75.84443160
_cell_angle_beta   89.59854822
_cell_angle_gamma   89.59854822
_symmetry_Int_Tables_number   1
_chemical_formula_structural   Ca3(AlP2)2
_chemical_formula_sum   'Ca6 Al4 P8'
_cell_volume   403.81575773
_cell_formula_units_Z   2
loop_
 _symmetry_equiv_pos_site_id
 _symmetry_equiv_pos_as_xyz
  1  'x, y, z'
loop_
 _atom_site_type_symbol
 _atom_site_label
 _atom_site_symmetry_multiplicity
 _atom_site_fract_x
 _atom_site_fract_y
 _atom_site_fract_z
 _atom_site_occupancy
  Ca  Ca0  1  0.97005399  0.00830167  0.75069197  1
  Ca  Ca1  1  0.52994601  0.24930803  0.99169833  1
  Ca  Ca2  1  0.02994601  0.99169833  0.24930803  1
  Ca  Ca3  1  0.47005399  0.75069197  0.00830167  1
  Ca  Ca4  1  0.25000000  0.40104330  0.59895670  1
  Ca  Ca5  1  0.75000000  0.59895670  0.40104330  1
  Al  Al6  1  0.41205502  0.82774492  0.57953171  1
  Al  Al7  1  0.08794498  0.42046829  0.17225508  1
  Al  Al8  1  0.58794498  0.17225508  0.42046829  1
  Al  Al9  1  0.91205502  0.57953171  0.82774492  1
  P  P10  1  0.47670587  0.05863882  0.71555393  1
  P  P11  1  0.02329413  0.28444607  0.94136118  1
  P  P12  1  0.52329413  0.94136118  0.28444607  1
  P  P13  1  0.97670587  0.71555393  0.05863882  1
  P  P14  1  0.06324051  0.74223444  0.56922777  1
  P  P15  1  0.43675949  0.43077223  0.25776556  1
  P  P16  1  0.93675949  0.25776556  0.43077223  1
  P  P17  1  0.56324051  0.56922777  0.74223444  1
