# generated using pymatgen
data_FeP2(H4O5)2
_symmetry_space_group_name_H-M   'P 1'
_cell_length_a   5.40517459
_cell_length_b   7.28650431
_cell_length_c   10.09665626
_cell_angle_alpha   90.00000000
_cell_angle_beta   90.00000000
_cell_angle_gamma   94.02940373
_symmetry_Int_Tables_number   1
_chemical_formula_structural   FeP2(H4O5)2
_chemical_formula_sum   'Fe2 P4 H16 O20'
_cell_volume   396.67211391
_cell_formula_units_Z   2
loop_
 _symmetry_equiv_pos_site_id
 _symmetry_equiv_pos_as_xyz
  1  'x, y, z'
loop_
 _atom_site_type_symbol
 _atom_site_label
 _atom_site_symmetry_multiplicity
 _atom_site_fract_x
 _atom_site_fract_y
 _atom_site_fract_z
 _atom_site_occupancy
  Fe  Fe0  1  0.00000000  0.00000000  0.00000000  1
  Fe  Fe1  1  0.50000000  0.50000000  0.50000000  1
  P  P2  1  0.75386701  0.66189000  0.78334897  1
  P  P3  1  0.25386701  0.16189000  0.71665103  1
  P  P4  1  0.24613299  0.33811000  0.21665103  1
  P  P5  1  0.74613299  0.83811000  0.28334897  1
  H  H6  1  0.57372470  0.17051854  0.92088415  1
  H  H7  1  0.07372470  0.67051854  0.57911585  1
  H  H8  1  0.42627530  0.82948146  0.07911585  1
  H  H9  1  0.92627530  0.32948146  0.42088415  1
  H  H10  1  0.68178467  0.27352746  0.04644325  1
  H  H11  1  0.18178467  0.77352746  0.45355675  1
  H  H12  1  0.31821533  0.72647254  0.95355675  1
  H  H13  1  0.81821533  0.22647254  0.54644325  1
  H  H14  1  0.84909595  0.40826519  0.89252139  1
  H  H15  1  0.34909595  0.90826519  0.60747861  1
  H  H16  1  0.15090405  0.59173481  0.10747861  1
  H  H17  1  0.65090405  0.09173481  0.39252139  1
  H  H18  1  0.39096977  0.50923710  0.77734854  1
  H  H19  1  0.89096977  0.00923710  0.72265146  1
  H  H20  1  0.60903023  0.49076290  0.22265146  1
  H  H21  1  0.10903023  0.99076290  0.27734854  1
  O  O22  1  0.83642760  0.85762803  0.82570658  1
  O  O23  1  0.33642760  0.35762803  0.67429342  1
  O  O24  1  0.16357240  0.14237197  0.17429342  1
  O  O25  1  0.66357240  0.64237197  0.32570658  1
  O  O26  1  0.77080777  0.62782089  0.63403324  1
  O  O27  1  0.27080777  0.12782089  0.86596676  1
  O  O28  1  0.22919223  0.37217911  0.36596676  1
  O  O29  1  0.72919223  0.87217911  0.13403324  1
  O  O30  1  0.73548574  0.21472192  0.96313191  1
  O  O31  1  0.23548574  0.71472192  0.53686809  1
  O  O32  1  0.26451426  0.78527808  0.03686809  1
  O  O33  1  0.76451426  0.28527808  0.46313191  1
  O  O34  1  0.92287067  0.53214574  0.86212200  1
  O  O35  1  0.42287067  0.03214574  0.63787800  1
  O  O36  1  0.07712933  0.46785426  0.13787800  1
  O  O37  1  0.57712933  0.96785426  0.36212200  1
  O  O38  1  0.47431456  0.61828040  0.82987528  1
  O  O39  1  0.97431456  0.11828040  0.67012472  1
  O  O40  1  0.52568544  0.38171960  0.17012472  1
  O  O41  1  0.02568544  0.88171960  0.32987528  1
