# generated using pymatgen
data_Gd6CoCl10
_symmetry_space_group_name_H-M   'P 1'
_cell_length_a   7.22789344
_cell_length_b   8.85203435
_cell_length_c   8.97701259
_cell_angle_alpha   110.00492472
_cell_angle_beta   107.50079594
_cell_angle_gamma   96.53522643
_symmetry_Int_Tables_number   1
_chemical_formula_structural   Gd6CoCl10
_chemical_formula_sum   'Gd6 Co1 Cl10'
_cell_volume   499.45299524
_cell_formula_units_Z   1
loop_
 _symmetry_equiv_pos_site_id
 _symmetry_equiv_pos_as_xyz
  1  'x, y, z'
loop_
 _atom_site_type_symbol
 _atom_site_label
 _atom_site_symmetry_multiplicity
 _atom_site_fract_x
 _atom_site_fract_y
 _atom_site_fract_z
 _atom_site_occupancy
  Gd  Gd0  1  0.86893763  0.23945262  0.94994583  1
  Gd  Gd1  1  0.13106237  0.76054738  0.05005417  1
  Gd  Gd2  1  0.01969052  0.89173502  0.68692775  1
  Gd  Gd3  1  0.98030948  0.10826498  0.31307225  1
  Gd  Gd4  1  0.37506916  0.19876978  0.15076796  1
  Gd  Gd5  1  0.62493084  0.80123022  0.84923204  1
  Co  Co6  1  -0.00000000  0.00000000  0.00000000  1
  Cl  Cl7  1  0.90729555  0.16177254  0.62932475  1
  Cl  Cl8  1  0.09270445  0.83822746  0.37067525  1
  Cl  Cl9  1  0.45076367  0.07514820  0.82927876  1
  Cl  Cl10  1  0.54923633  0.92485180  0.17072124  1
  Cl  Cl11  1  0.20001669  0.64503420  0.74062325  1
  Cl  Cl12  1  0.79998331  0.35496580  0.25937675  1
  Cl  Cl13  1  0.24543447  0.45650618  0.08088124  1
  Cl  Cl14  1  0.75456553  0.54349382  0.91911876  1
  Cl  Cl15  1  0.63380873  0.71614931  0.53289127  1
  Cl  Cl16  1  0.36619127  0.28385069  0.46710873  1
