# generated using pymatgen
data_Er7(TeRh)2
_symmetry_space_group_name_H-M   'P 1'
_cell_length_a   3.88694739
_cell_length_b   9.35969343
_cell_length_c   9.35969343
_cell_angle_alpha   60.79179544
_cell_angle_beta   78.01574541
_cell_angle_gamma   78.01574541
_symmetry_Int_Tables_number   1
_chemical_formula_structural   Er7(TeRh)2
_chemical_formula_sum   'Er7 Te2 Rh2'
_cell_volume   288.47569429
_cell_formula_units_Z   1
loop_
 _symmetry_equiv_pos_site_id
 _symmetry_equiv_pos_as_xyz
  1  'x, y, z'
loop_
 _atom_site_type_symbol
 _atom_site_label
 _atom_site_symmetry_multiplicity
 _atom_site_fract_x
 _atom_site_fract_y
 _atom_site_fract_z
 _atom_site_occupancy
  Er  Er0  1  0.13154246  0.45352961  0.28338547  1
  Er  Er1  1  0.86845754  0.71661453  0.54647039  1
  Er  Er2  1  0.31614501  0.05986647  0.30784350  1
  Er  Er3  1  0.68385499  0.69215650  0.94013353  1
  Er  Er4  1  0.35397587  0.37930484  0.91274342  1
  Er  Er5  1  0.64602413  0.08725658  0.62069516  1
  Er  Er6  1  -0.00000000  0.00072696  0.99927304  1
  Te  Te7  1  0.50000000  0.73577111  0.26422889  1
  Te  Te8  1  -0.00000000  0.33880851  0.66119149  1
  Rh  Rh9  1  0.23761001  0.83494244  0.68983754  1
  Rh  Rh10  1  0.76238999  0.31016246  0.16505756  1
