# generated using pymatgen
data_Ti3Nb
_symmetry_space_group_name_H-M   'P 1'
_cell_length_a   5.83596331
_cell_length_b   5.83596415
_cell_length_c   4.79590530
_cell_angle_alpha   90.00000000
_cell_angle_beta   90.00000000
_cell_angle_gamma   119.99999516
_symmetry_Int_Tables_number   1
_chemical_formula_structural   Ti3Nb
_chemical_formula_sum   'Ti6 Nb2'
_cell_volume   141.45764395
_cell_formula_units_Z   2
loop_
 _symmetry_equiv_pos_site_id
 _symmetry_equiv_pos_as_xyz
  1  'x, y, z'
loop_
 _atom_site_type_symbol
 _atom_site_label
 _atom_site_symmetry_multiplicity
 _atom_site_fract_x
 _atom_site_fract_y
 _atom_site_fract_z
 _atom_site_occupancy
  Ti  Ti0  1  0.16580920  0.33161839  0.25000000  1
  Ti  Ti1  1  0.66838061  0.83418980  0.25000000  1
  Ti  Ti2  1  0.16580920  0.83418980  0.25000000  1
  Ti  Ti3  1  0.83419080  0.66838261  0.75000000  1
  Ti  Ti4  1  0.33161839  0.16580920  0.75000000  1
  Ti  Ti5  1  0.83419180  0.16580920  0.75000000  1
  Nb  Nb6  1  0.33333400  0.66666800  0.75000000  1
  Nb  Nb7  1  0.66666600  0.33333300  0.25000000  1
