# generated using pymatgen
data_Tb2MgSi2
_symmetry_space_group_name_H-M   'P 1'
_cell_length_a   4.23385918
_cell_length_b   7.20560858
_cell_length_c   7.20560858
_cell_angle_alpha   90.00000000
_cell_angle_beta   90.00000000
_cell_angle_gamma   90.00000000
_symmetry_Int_Tables_number   1
_chemical_formula_structural   Tb2MgSi2
_chemical_formula_sum   'Tb4 Mg2 Si4'
_cell_volume   219.82533458
_cell_formula_units_Z   2
loop_
 _symmetry_equiv_pos_site_id
 _symmetry_equiv_pos_as_xyz
  1  'x, y, z'
loop_
 _atom_site_type_symbol
 _atom_site_label
 _atom_site_symmetry_multiplicity
 _atom_site_fract_x
 _atom_site_fract_y
 _atom_site_fract_z
 _atom_site_occupancy
  Tb  Tb0  1  0.50000000  0.17929441  0.67929441  1
  Tb  Tb1  1  0.50000000  0.82070559  0.32070559  1
  Tb  Tb2  1  0.50000000  0.32070559  0.17929441  1
  Tb  Tb3  1  0.50000000  0.67929441  0.82070559  1
  Mg  Mg4  1  -0.00000000  -0.00000000  -0.00000000  1
  Mg  Mg5  1  0.00000000  0.50000000  0.50000000  1
  Si  Si6  1  -0.00000000  0.61709769  0.11709769  1
  Si  Si7  1  0.00000000  0.38290231  0.88290231  1
  Si  Si8  1  0.00000000  0.88290231  0.61709769  1
  Si  Si9  1  -0.00000000  0.11709769  0.38290231  1
