# generated using pymatgen
data_TmMgPd
_symmetry_space_group_name_H-M   'P 1'
_cell_length_a   3.97602249
_cell_length_b   7.45247089
_cell_length_c   7.45247089
_cell_angle_alpha   120.00000488
_cell_angle_beta   90.00000000
_cell_angle_gamma   90.00000000
_symmetry_Int_Tables_number   1
_chemical_formula_structural   TmMgPd
_chemical_formula_sum   'Tm3 Mg3 Pd3'
_cell_volume   191.24056549
_cell_formula_units_Z   3
loop_
 _symmetry_equiv_pos_site_id
 _symmetry_equiv_pos_as_xyz
  1  'x, y, z'
loop_
 _atom_site_type_symbol
 _atom_site_label
 _atom_site_symmetry_multiplicity
 _atom_site_fract_x
 _atom_site_fract_y
 _atom_site_fract_z
 _atom_site_occupancy
  Tm  Tm0  1  0.00000000  0.41113846  0.41113846  1
  Tm  Tm1  1  0.00000000  1.00000000  0.58886154  1
  Tm  Tm2  1  -0.00000000  0.58886154  1.00000000  1
  Mg  Mg3  1  0.50000000  0.75128654  0.75128654  1
  Mg  Mg4  1  0.50000000  1.00000000  0.24871346  1
  Mg  Mg5  1  0.50000000  0.24871346  1.00000000  1
  Pd  Pd6  1  0.50000000  0.66666700  0.33333300  1
  Pd  Pd7  1  0.50000000  0.33333300  0.66666700  1
  Pd  Pd8  1  -0.00000000  -0.00000000  -0.00000000  1
