# generated using pymatgen
data_Er3Al3CoGe2
_symmetry_space_group_name_H-M   'P 1'
_cell_length_a   4.15129001
_cell_length_b   6.89318495
_cell_length_c   6.89318495
_cell_angle_alpha   119.99999143
_cell_angle_beta   90.00000000
_cell_angle_gamma   90.00000000
_symmetry_Int_Tables_number   1
_chemical_formula_structural   Er3Al3CoGe2
_chemical_formula_sum   'Er3 Al3 Co1 Ge2'
_cell_volume   170.82585595
_cell_formula_units_Z   1
loop_
 _symmetry_equiv_pos_site_id
 _symmetry_equiv_pos_as_xyz
  1  'x, y, z'
loop_
 _atom_site_type_symbol
 _atom_site_label
 _atom_site_symmetry_multiplicity
 _atom_site_fract_x
 _atom_site_fract_y
 _atom_site_fract_z
 _atom_site_occupancy
  Er  Er0  1  0.00000000  0.40353519  0.40353519  1
  Er  Er1  1  -0.00000000  0.00000000  0.59646481  1
  Er  Er2  1  0.00000000  0.59646481  0.00000000  1
  Al  Al3  1  0.50000000  0.77291402  0.77291402  1
  Al  Al4  1  0.50000000  0.00000000  0.22708598  1
  Al  Al5  1  0.50000000  0.22708598  0.00000000  1
  Co  Co6  1  -0.00000000  -0.00000000  0.00000000  1
  Ge  Ge7  1  0.50000000  0.66666700  0.33333300  1
  Ge  Ge8  1  0.50000000  0.33333300  0.66666700  1
