# generated using pymatgen
data_LaSiI
_symmetry_space_group_name_H-M   'P 1'
_cell_length_a   4.21611734
_cell_length_b   4.21611734
_cell_length_c   12.16475799
_cell_angle_alpha   90.00000000
_cell_angle_beta   90.00000000
_cell_angle_gamma   120.00000119
_symmetry_Int_Tables_number   1
_chemical_formula_structural   LaSiI
_chemical_formula_sum   'La2 Si2 I2'
_cell_volume   187.26623440
_cell_formula_units_Z   2
loop_
 _symmetry_equiv_pos_site_id
 _symmetry_equiv_pos_as_xyz
  1  'x, y, z'
loop_
 _atom_site_type_symbol
 _atom_site_label
 _atom_site_symmetry_multiplicity
 _atom_site_fract_x
 _atom_site_fract_y
 _atom_site_fract_z
 _atom_site_occupancy
  La  La0  1  -0.00000000  0.00000000  0.82950261  1
  La  La1  1  -0.00000000  0.00000000  0.17049739  1
  Si  Si2  1  0.66666700  0.33333300  0.99332658  1
  Si  Si3  1  0.33333300  0.66666700  0.00667342  1
  I  I4  1  0.66666700  0.33333300  0.35067483  1
  I  I5  1  0.33333300  0.66666700  0.64932517  1
