# generated using pymatgen
data_Mg(Co2Ge3)2
_symmetry_space_group_name_H-M   'P 1'
_cell_length_a   6.15836257
_cell_length_b   6.15836257
_cell_length_c   6.15836257
_cell_angle_alpha   90.21778212
_cell_angle_beta   119.87434319
_cell_angle_gamma   119.87434319
_symmetry_Int_Tables_number   1
_chemical_formula_structural   Mg(Co2Ge3)2
_chemical_formula_sum   'Mg1 Co4 Ge6'
_cell_volume   165.46320852
_cell_formula_units_Z   1
loop_
 _symmetry_equiv_pos_site_id
 _symmetry_equiv_pos_as_xyz
  1  'x, y, z'
loop_
 _atom_site_type_symbol
 _atom_site_label
 _atom_site_symmetry_multiplicity
 _atom_site_fract_x
 _atom_site_fract_y
 _atom_site_fract_z
 _atom_site_occupancy
  Mg  Mg0  1  0.00000000  -0.00000000  0.00000000  1
  Co  Co1  1  0.35722938  0.59967954  0.59967954  1
  Co  Co2  1  0.64277062  0.24245015  0.24245015  1
  Co  Co3  1  -0.00000000  0.75754985  0.40032046  1
  Co  Co4  1  -0.00000000  0.40032046  0.75754985  1
  Ge  Ge5  1  0.66139862  0.53671948  0.53671948  1
  Ge  Ge6  1  0.33860138  0.87532087  0.87532087  1
  Ge  Ge7  1  -0.00000000  0.12467913  0.46328052  1
  Ge  Ge8  1  0.00000000  0.46328052  0.12467913  1
  Ge  Ge9  1  0.50000000  -0.00000000  0.50000000  1
  Ge  Ge10  1  0.50000000  0.50000000  0.00000000  1
