# generated using pymatgen
data_Pb2BrOF
_symmetry_space_group_name_H-M   'P 1'
_cell_length_a   5.91032122
_cell_length_b   5.93846014
_cell_length_c   7.22567128
_cell_angle_alpha   90.00000000
_cell_angle_beta   114.14081853
_cell_angle_gamma   90.00000000
_symmetry_Int_Tables_number   1
_chemical_formula_structural   Pb2BrOF
_chemical_formula_sum   'Pb4 Br2 O2 F2'
_cell_volume   231.42831300
_cell_formula_units_Z   2
loop_
 _symmetry_equiv_pos_site_id
 _symmetry_equiv_pos_as_xyz
  1  'x, y, z'
loop_
 _atom_site_type_symbol
 _atom_site_label
 _atom_site_symmetry_multiplicity
 _atom_site_fract_x
 _atom_site_fract_y
 _atom_site_fract_z
 _atom_site_occupancy
  Pb  Pb0  1  0.40145177  0.21910342  0.80290355  1
  Pb  Pb1  1  0.59854823  0.78089658  0.19709645  1
  Pb  Pb2  1  0.09854823  0.21910342  0.19709645  1
  Pb  Pb3  1  0.90145177  0.78089658  0.80290355  1
  Br  Br4  1  0.75000000  0.22905493  0.50000000  1
  Br  Br5  1  0.25000000  0.77094507  0.50000000  1
  O  O6  1  0.25000000  -0.00000000  -0.00000000  1
  O  O7  1  0.75000000  -0.00000000  -0.00000000  1
  F  F8  1  0.25000000  0.50000000  -0.00000000  1
  F  F9  1  0.75000000  0.50000000  -0.00000000  1
