# generated using pymatgen
data_YBi3
_symmetry_space_group_name_H-M   'P 1'
_cell_length_a   6.82560463
_cell_length_b   6.82560545
_cell_length_c   6.07842432
_cell_angle_alpha   90.00000000
_cell_angle_beta   90.00000000
_cell_angle_gamma   119.99999607
_symmetry_Int_Tables_number   1
_chemical_formula_structural   YBi3
_chemical_formula_sum   'Y2 Bi6'
_cell_volume   245.24715139
_cell_formula_units_Z   2
loop_
 _symmetry_equiv_pos_site_id
 _symmetry_equiv_pos_as_xyz
  1  'x, y, z'
loop_
 _atom_site_type_symbol
 _atom_site_label
 _atom_site_symmetry_multiplicity
 _atom_site_fract_x
 _atom_site_fract_y
 _atom_site_fract_z
 _atom_site_occupancy
  Y  Y0  1  0.33333400  0.66666700  0.75000000  1
  Y  Y1  1  0.66666600  0.33333200  0.25000000  1
  Bi  Bi2  1  0.17217776  0.34435552  0.25000000  1
  Bi  Bi3  1  0.65564448  0.82782224  0.25000000  1
  Bi  Bi4  1  0.17217776  0.82782224  0.25000000  1
  Bi  Bi5  1  0.82782124  0.65564348  0.75000000  1
  Bi  Bi6  1  0.34435752  0.17217876  0.75000000  1
  Bi  Bi7  1  0.82782224  0.17217876  0.75000000  1
