# generated using pymatgen
data_K(AsRu)2
_symmetry_space_group_name_H-M   'P 1'
_cell_length_a   4.15503520
_cell_length_b   4.15503520
_cell_length_c   6.97816670
_cell_angle_alpha   107.32052153
_cell_angle_beta   107.32052153
_cell_angle_gamma   90.00000000
_symmetry_Int_Tables_number   1
_chemical_formula_structural   K(AsRu)2
_chemical_formula_sum   'K1 As2 Ru2'
_cell_volume   109.27460888
_cell_formula_units_Z   1
loop_
 _symmetry_equiv_pos_site_id
 _symmetry_equiv_pos_as_xyz
  1  'x, y, z'
loop_
 _atom_site_type_symbol
 _atom_site_label
 _atom_site_symmetry_multiplicity
 _atom_site_fract_x
 _atom_site_fract_y
 _atom_site_fract_z
 _atom_site_occupancy
  K  K0  1  -0.00000000  0.00000000  -0.00000000  1
  As  As1  1  0.34989095  0.34989095  0.69978190  1
  As  As2  1  0.65010905  0.65010905  0.30021810  1
  Ru  Ru3  1  0.25000000  0.75000000  0.50000000  1
  Ru  Ru4  1  0.75000000  0.25000000  0.50000000  1
