# generated using pymatgen
data_TbMgTl
_symmetry_space_group_name_H-M   'P 1'
_cell_length_a   4.68889457
_cell_length_b   7.60427373
_cell_length_c   7.60427373
_cell_angle_alpha   119.99999799
_cell_angle_beta   90.00000000
_cell_angle_gamma   90.00000000
_symmetry_Int_Tables_number   1
_chemical_formula_structural   TbMgTl
_chemical_formula_sum   'Tb3 Mg3 Tl3'
_cell_volume   234.81000161
_cell_formula_units_Z   3
loop_
 _symmetry_equiv_pos_site_id
 _symmetry_equiv_pos_as_xyz
  1  'x, y, z'
loop_
 _atom_site_type_symbol
 _atom_site_label
 _atom_site_symmetry_multiplicity
 _atom_site_fract_x
 _atom_site_fract_y
 _atom_site_fract_z
 _atom_site_occupancy
  Tb  Tb0  1  0.00000000  0.42902713  0.42902713  1
  Tb  Tb1  1  0.00000000  0.00000000  0.57097287  1
  Tb  Tb2  1  -0.00000000  0.57097287  0.00000000  1
  Mg  Mg3  1  0.50000000  0.75590221  0.75590221  1
  Mg  Mg4  1  0.50000000  1.00000000  0.24409779  1
  Mg  Mg5  1  0.50000000  0.24409779  1.00000000  1
  Tl  Tl6  1  0.50000000  0.66666700  0.33333300  1
  Tl  Tl7  1  0.50000000  0.33333300  0.66666700  1
  Tl  Tl8  1  0.00000000  0.00000000  0.00000000  1
