# generated using pymatgen
data_CeIn2Ru
_symmetry_space_group_name_H-M   'P 1'
_cell_length_a   4.79529102
_cell_length_b   5.48800541
_cell_length_c   7.74291687
_cell_angle_alpha   90.00000000
_cell_angle_beta   90.00000000
_cell_angle_gamma   115.90551217
_symmetry_Int_Tables_number   1
_chemical_formula_structural   CeIn2Ru
_chemical_formula_sum   'Ce2 In4 Ru2'
_cell_volume   183.29172950
_cell_formula_units_Z   2
loop_
 _symmetry_equiv_pos_site_id
 _symmetry_equiv_pos_as_xyz
  1  'x, y, z'
loop_
 _atom_site_type_symbol
 _atom_site_label
 _atom_site_symmetry_multiplicity
 _atom_site_fract_x
 _atom_site_fract_y
 _atom_site_fract_z
 _atom_site_occupancy
  Ce  Ce0  1  0.44302943  0.88605885  0.25000000  1
  Ce  Ce1  1  0.55697057  0.11394115  0.75000000  1
  In  In2  1  0.14893123  0.29786246  0.04635099  1
  In  In3  1  0.85106877  0.70213754  0.95364901  1
  In  In4  1  0.85106877  0.70213754  0.54635099  1
  In  In5  1  0.14893123  0.29786246  0.45364901  1
  Ru  Ru6  1  0.67401729  0.34803458  0.25000000  1
  Ru  Ru7  1  0.32598271  0.65196542  0.75000000  1
