# generated using pymatgen
data_Li2HgO2
_symmetry_space_group_name_H-M   'P 1'
_cell_length_a   3.08747762
_cell_length_b   3.08747762
_cell_length_c   6.76205551
_cell_angle_alpha   103.19666823
_cell_angle_beta   103.19666823
_cell_angle_gamma   90.00000000
_symmetry_Int_Tables_number   1
_chemical_formula_structural   Li2HgO2
_chemical_formula_sum   'Li2 Hg1 O2'
_cell_volume   61.00747363
_cell_formula_units_Z   1
loop_
 _symmetry_equiv_pos_site_id
 _symmetry_equiv_pos_as_xyz
  1  'x, y, z'
loop_
 _atom_site_type_symbol
 _atom_site_label
 _atom_site_symmetry_multiplicity
 _atom_site_fract_x
 _atom_site_fract_y
 _atom_site_fract_z
 _atom_site_occupancy
  Li  Li0  1  0.31267335  0.31267335  0.62534670  1
  Li  Li1  1  0.68732665  0.68732665  0.37465330  1
  Hg  Hg2  1  0.00000000  -0.00000000  0.00000000  1
  O  O3  1  0.15795045  0.15795045  0.31590090  1
  O  O4  1  0.84204955  0.84204955  0.68409910  1
