# generated using pymatgen
data_Cs2MnF4
_symmetry_space_group_name_H-M   'P 1'
_cell_length_a   4.41814396
_cell_length_b   4.41814396
_cell_length_c   8.08289490
_cell_angle_alpha   105.86085467
_cell_angle_beta   105.86085467
_cell_angle_gamma   90.00000000
_symmetry_Int_Tables_number   1
_chemical_formula_structural   Cs2MnF4
_chemical_formula_sum   'Cs2 Mn1 F4'
_cell_volume   145.51655236
_cell_formula_units_Z   1
loop_
 _symmetry_equiv_pos_site_id
 _symmetry_equiv_pos_as_xyz
  1  'x, y, z'
loop_
 _atom_site_type_symbol
 _atom_site_label
 _atom_site_symmetry_multiplicity
 _atom_site_fract_x
 _atom_site_fract_y
 _atom_site_fract_z
 _atom_site_occupancy
  Cs  Cs0  1  0.35225062  0.35225062  0.70450123  1
  Cs  Cs1  1  0.64774938  0.64774938  0.29549877  1
  Mn  Mn2  1  -0.00000000  0.00000000  -0.00000000  1
  F  F3  1  0.14311314  0.14311314  0.28622628  1
  F  F4  1  0.85688686  0.85688686  0.71377372  1
  F  F5  1  -0.00000000  0.50000000  0.00000000  1
  F  F6  1  0.50000000  0.00000000  0.00000000  1
