# generated using pymatgen
data_GdMgTl
_symmetry_space_group_name_H-M   'P 1'
_cell_length_a   4.72709404
_cell_length_b   7.65136091
_cell_length_c   7.62470122
_cell_angle_alpha   119.60005920
_cell_angle_beta   90.14636487
_cell_angle_gamma   90.21242494
_symmetry_Int_Tables_number   1
_chemical_formula_structural   GdMgTl
_chemical_formula_sum   'Gd3 Mg3 Tl3'
_cell_volume   239.78060383
_cell_formula_units_Z   3
loop_
 _symmetry_equiv_pos_site_id
 _symmetry_equiv_pos_as_xyz
  1  'x, y, z'
loop_
 _atom_site_type_symbol
 _atom_site_label
 _atom_site_symmetry_multiplicity
 _atom_site_fract_x
 _atom_site_fract_y
 _atom_site_fract_z
 _atom_site_occupancy
  Gd  Gd0  1  0.99960406  0.42915744  0.42914954  1
  Gd  Gd1  1  -0.00004864  -0.00017539  0.57091223  1
  Gd  Gd2  1  -0.00004331  0.57135529  -0.00018949  1
  Mg  Mg3  1  0.50004103  0.75665808  0.75685414  1
  Mg  Mg4  1  0.49995665  -0.00018694  0.24308870  1
  Mg  Mg5  1  0.50000038  0.24301950  0.00001988  1
  Tl  Tl6  1  0.50028412  0.66708698  0.33337648  1
  Tl  Tl7  1  0.50025169  0.33365853  0.66670857  1
  Tl  Tl8  1  -0.00004599  -0.00057348  0.00007995  1
