# generated using pymatgen
data_Zn3Sn
_symmetry_space_group_name_H-M   'P 1'
_cell_length_a   6.75664005
_cell_length_b   6.86589325
_cell_length_c   4.52437459
_cell_angle_alpha   105.34581669
_cell_angle_beta   75.94887197
_cell_angle_gamma   129.29300445
_symmetry_Int_Tables_number   1
_chemical_formula_structural   Zn3Sn
_chemical_formula_sum   'Zn6 Sn2'
_cell_volume   155.84704863
_cell_formula_units_Z   2
loop_
 _symmetry_equiv_pos_site_id
 _symmetry_equiv_pos_as_xyz
  1  'x, y, z'
loop_
 _atom_site_type_symbol
 _atom_site_label
 _atom_site_symmetry_multiplicity
 _atom_site_fract_x
 _atom_site_fract_y
 _atom_site_fract_z
 _atom_site_occupancy
  Zn  Zn0  1  0.14817464  0.31643543  0.24194748  1
  Zn  Zn1  1  0.68097934  0.84917470  0.24307666  1
  Zn  Zn2  1  0.13303342  0.86453774  0.24069418  1
  Zn  Zn3  1  0.85182112  0.68358606  0.75803762  1
  Zn  Zn4  1  0.31902929  0.15082130  0.75692575  1
  Zn  Zn5  1  0.86698254  0.13544091  0.75933950  1
  Sn  Sn6  1  0.34182448  0.65953097  0.78171916  1
  Sn  Sn7  1  0.65816017  0.34047488  0.21826365  1
