# generated using pymatgen
data_LaNiGe3
_symmetry_space_group_name_H-M   'P 1'
_cell_length_a   4.42846461
_cell_length_b   4.42846461
_cell_length_c   5.80432900
_cell_angle_alpha   112.42535406
_cell_angle_beta   112.42535406
_cell_angle_gamma   90.00000000
_symmetry_Int_Tables_number   1
_chemical_formula_structural   LaNiGe3
_chemical_formula_sum   'La1 Ni1 Ge3'
_cell_volume   95.84406240
_cell_formula_units_Z   1
loop_
 _symmetry_equiv_pos_site_id
 _symmetry_equiv_pos_as_xyz
  1  'x, y, z'
loop_
 _atom_site_type_symbol
 _atom_site_label
 _atom_site_symmetry_multiplicity
 _atom_site_fract_x
 _atom_site_fract_y
 _atom_site_fract_z
 _atom_site_occupancy
  La  La0  1  0.57138320  0.57138320  0.14276639  1
  Ni  Ni1  1  0.23392606  0.23392606  0.46785211  1
  Ge  Ge2  1  0.32980548  0.82980548  0.65961096  1
  Ge  Ge3  1  0.82980548  0.32980548  0.65961096  1
  Ge  Ge4  1  0.99287979  0.99287979  0.98575957  1
