# generated using pymatgen
data_Zr4N3OF5
_symmetry_space_group_name_H-M   'P 1'
_cell_length_a   5.21161170
_cell_length_b   5.44414017
_cell_length_c   21.82127157
_cell_angle_alpha   90.00000000
_cell_angle_beta   90.19577487
_cell_angle_gamma   90.00000000
_symmetry_Int_Tables_number   1
_chemical_formula_structural   Zr4N3OF5
_chemical_formula_sum   'Zr16 N12 O4 F20'
_cell_volume   619.12575033
_cell_formula_units_Z   4
loop_
 _symmetry_equiv_pos_site_id
 _symmetry_equiv_pos_as_xyz
  1  'x, y, z'
loop_
 _atom_site_type_symbol
 _atom_site_label
 _atom_site_symmetry_multiplicity
 _atom_site_fract_x
 _atom_site_fract_y
 _atom_site_fract_z
 _atom_site_occupancy
  Zr  Zr0  1  0.18170769  0.28101449  0.12753370  1
  Zr  Zr1  1  0.81829231  0.71898551  0.87246630  1
  Zr  Zr2  1  0.81829231  0.78101449  0.37246630  1
  Zr  Zr3  1  0.18170769  0.21898551  0.62753370  1
  Zr  Zr4  1  0.18919956  0.72353906  0.24977492  1
  Zr  Zr5  1  0.81080044  0.27646094  0.75022508  1
  Zr  Zr6  1  0.81080044  0.22353906  0.25022508  1
  Zr  Zr7  1  0.18919956  0.77646094  0.74977492  1
  Zr  Zr8  1  0.20321585  0.27466198  0.37091278  1
  Zr  Zr9  1  0.79678415  0.72533802  0.62908722  1
  Zr  Zr10  1  0.79678415  0.77466198  0.12908722  1
  Zr  Zr11  1  0.20321585  0.22533802  0.87091278  1
  Zr  Zr12  1  0.80432079  0.26948211  0.99881613  1
  Zr  Zr13  1  0.19567921  0.73051789  0.00118387  1
  Zr  Zr14  1  0.19567921  0.76948211  0.50118387  1
  Zr  Zr15  1  0.80432079  0.23051789  0.49881613  1
  N  N16  1  0.03264220  0.03466675  0.43779985  1
  N  N17  1  0.96735780  0.96533325  0.56220015  1
  N  N18  1  0.96735780  0.53466675  0.06220015  1
  N  N19  1  0.03264220  0.46533325  0.93779985  1
  N  N20  1  0.03754722  0.50448105  0.68548770  1
  N  N21  1  0.96245278  0.49551895  0.31451230  1
  N  N22  1  0.96245278  0.00448105  0.81451230  1
  N  N23  1  0.03754722  0.99551895  0.18548770  1
  N  N24  1  0.04441018  0.99563152  0.31215638  1
  N  N25  1  0.95558982  0.00436848  0.68784362  1
  N  N26  1  0.95558982  0.49563152  0.18784362  1
  N  N27  1  0.04441018  0.50436848  0.81215638  1
  O  O28  1  0.99445240  0.53357797  0.43988256  1
  O  O29  1  0.00554760  0.46642203  0.56011744  1
  O  O30  1  0.00554760  0.03357797  0.06011744  1
  O  O31  1  0.99445240  0.96642203  0.93988256  1
  F  F32  1  0.42463924  0.36611697  0.25298076  1
  F  F33  1  0.57536076  0.63388303  0.74701924  1
  F  F34  1  0.57536076  0.86611697  0.24701924  1
  F  F35  1  0.42463924  0.13388303  0.75298076  1
  F  F36  1  0.44643152  0.37304524  0.04658312  1
  F  F37  1  0.55356848  0.62695476  0.95341688  1
  F  F38  1  0.55356848  0.87304524  0.45341688  1
  F  F39  1  0.44643152  0.12695476  0.54658312  1
  F  F40  1  0.48810329  0.37115379  0.44626587  1
  F  F41  1  0.51189671  0.62884621  0.55373413  1
  F  F42  1  0.51189671  0.87115379  0.05373413  1
  F  F43  1  0.48810329  0.12884621  0.94626587  1
  F  F44  1  0.55961467  0.13247413  0.14970958  1
  F  F45  1  0.44038533  0.86752587  0.85029042  1
  F  F46  1  0.44038533  0.63247413  0.35029042  1
  F  F47  1  0.55961467  0.36752587  0.64970958  1
  F  F48  1  0.57026532  0.11355293  0.34762322  1
  F  F49  1  0.42973468  0.88644707  0.65237678  1
  F  F50  1  0.42973468  0.61355293  0.15237678  1
  F  F51  1  0.57026532  0.38644707  0.84762322  1
