# generated using pymatgen
data_Zr6SiI14
_symmetry_space_group_name_H-M   'P 1'
_cell_length_a   11.01801746
_cell_length_b   11.01801746
_cell_length_c   13.25695679
_cell_angle_alpha   90.00000000
_cell_angle_beta   90.00000000
_cell_angle_gamma   95.12737122
_symmetry_Int_Tables_number   1
_chemical_formula_structural   Zr6SiI14
_chemical_formula_sum   'Zr12 Si2 I28'
_cell_volume   1602.91108150
_cell_formula_units_Z   2
loop_
 _symmetry_equiv_pos_site_id
 _symmetry_equiv_pos_as_xyz
  1  'x, y, z'
loop_
 _atom_site_type_symbol
 _atom_site_label
 _atom_site_symmetry_multiplicity
 _atom_site_fract_x
 _atom_site_fract_y
 _atom_site_fract_z
 _atom_site_occupancy
  Zr  Zr0  1  0.17835270  0.95315272  0.11490192  1
  Zr  Zr1  1  0.82164730  0.04684728  0.88509808  1
  Zr  Zr2  1  0.32164730  0.54684728  0.61490192  1
  Zr  Zr3  1  0.45315272  0.67835270  0.38509808  1
  Zr  Zr4  1  0.67835270  0.45315272  0.38509808  1
  Zr  Zr5  1  0.54684728  0.32164730  0.61490192  1
  Zr  Zr6  1  0.04684728  0.82164730  0.88509808  1
  Zr  Zr7  1  0.95315272  0.17835270  0.11490192  1
  Zr  Zr8  1  0.35817239  0.35817239  0.39715247  1
  Zr  Zr9  1  0.64182761  0.64182761  0.60284753  1
  Zr  Zr10  1  0.14182761  0.14182761  0.89715247  1
  Zr  Zr11  1  0.85817239  0.85817239  0.10284753  1
  Si  Si12  1  0.00000000  -0.00000000  0.00000000  1
  Si  Si13  1  0.50000000  0.50000000  0.50000000  1
  I  I14  1  0.53422247  0.28705447  0.25195890  1
  I  I15  1  0.46577753  0.71294553  0.74804110  1
  I  I16  1  0.96577753  0.21294553  0.75195890  1
  I  I17  1  0.78705447  0.03422247  0.24804110  1
  I  I18  1  0.03422247  0.78705447  0.24804110  1
  I  I19  1  0.21294553  0.96577753  0.75195890  1
  I  I20  1  0.71294553  0.46577753  0.74804110  1
  I  I21  1  0.28705447  0.53422247  0.25195890  1
  I  I22  1  0.36270750  0.11363186  0.01043249  1
  I  I23  1  0.63729250  0.88636814  0.98956751  1
  I  I24  1  0.13729250  0.38636814  0.51043249  1
  I  I25  1  0.61363186  0.86270750  0.48956751  1
  I  I26  1  0.86270750  0.61363186  0.48956751  1
  I  I27  1  0.38636814  0.13729250  0.51043249  1
  I  I28  1  0.88636814  0.63729250  0.98956751  1
  I  I29  1  0.11363186  0.36270750  0.01043249  1
  I  I30  1  0.39748878  0.89748878  0.25000000  1
  I  I31  1  0.60251122  0.10251122  0.75000000  1
  I  I32  1  0.10251122  0.60251122  0.75000000  1
  I  I33  1  0.89748878  0.39748878  0.25000000  1
  I  I34  1  0.25107299  0.74892701  0.00000000  1
  I  I35  1  0.74892701  0.25107299  0.00000000  1
  I  I36  1  0.24892701  0.75107299  0.50000000  1
  I  I37  1  0.75107299  0.24892701  0.50000000  1
  I  I38  1  0.15256251  0.15256251  0.26357278  1
  I  I39  1  0.84743749  0.84743749  0.73642722  1
  I  I40  1  0.34743749  0.34743749  0.76357278  1
  I  I41  1  0.65256251  0.65256251  0.23642722  1
