# generated using pymatgen
data_TmMn2SiC
_symmetry_space_group_name_H-M   'P 1'
_cell_length_a   3.66146431
_cell_length_b   5.58290651
_cell_length_c   6.96211315
_cell_angle_alpha   90.00000000
_cell_angle_beta   90.00000000
_cell_angle_gamma   109.14241850
_symmetry_Int_Tables_number   1
_chemical_formula_structural   TmMn2SiC
_chemical_formula_sum   'Tm2 Mn4 Si2 C2'
_cell_volume   134.44761275
_cell_formula_units_Z   2
loop_
 _symmetry_equiv_pos_site_id
 _symmetry_equiv_pos_as_xyz
  1  'x, y, z'
loop_
 _atom_site_type_symbol
 _atom_site_label
 _atom_site_symmetry_multiplicity
 _atom_site_fract_x
 _atom_site_fract_y
 _atom_site_fract_z
 _atom_site_occupancy
  Tm  Tm0  1  0.45659969  0.91319938  0.25000000  1
  Tm  Tm1  1  0.54340031  0.08680062  0.75000000  1
  Mn  Mn2  1  0.16800375  0.33600750  0.06106921  1
  Mn  Mn3  1  0.83199625  0.66399250  0.93893079  1
  Mn  Mn4  1  0.83199625  0.66399250  0.56106921  1
  Mn  Mn5  1  0.16800375  0.33600750  0.43893079  1
  Si  Si6  1  0.73601327  0.47202654  0.25000000  1
  Si  Si7  1  0.26398673  0.52797346  0.75000000  1
  C  C8  1  0.00000000  0.00000000  -0.00000000  1
  C  C9  1  0.00000000  0.00000000  0.50000000  1
