# generated using pymatgen
data_TmOF
_symmetry_space_group_name_H-M   'P 1'
_cell_length_a   5.46955907
_cell_length_b   5.53612723
_cell_length_c   5.54235841
_cell_angle_alpha   100.03803358
_cell_angle_beta   90.00000000
_cell_angle_gamma   90.00000000
_symmetry_Int_Tables_number   1
_chemical_formula_structural   TmOF
_chemical_formula_sum   'Tm4 O4 F4'
_cell_volume   165.25458338
_cell_formula_units_Z   4
loop_
 _symmetry_equiv_pos_site_id
 _symmetry_equiv_pos_as_xyz
  1  'x, y, z'
loop_
 _atom_site_type_symbol
 _atom_site_label
 _atom_site_symmetry_multiplicity
 _atom_site_fract_x
 _atom_site_fract_y
 _atom_site_fract_z
 _atom_site_occupancy
  Tm  Tm0  1  0.97394770  0.69488038  0.78732155  1
  Tm  Tm1  1  0.02605230  0.30511962  0.21267845  1
  Tm  Tm2  1  0.47394770  0.30511962  0.71267845  1
  Tm  Tm3  1  0.52605230  0.69488038  0.28732155  1
  O  O4  1  0.74641244  0.46138317  0.98998274  1
  O  O5  1  0.25358756  0.53861683  0.01001726  1
  O  O6  1  0.24641244  0.53861683  0.51001726  1
  O  O7  1  0.75358756  0.46138317  0.48998274  1
  F  F8  1  0.67408520  0.94181315  0.65512280  1
  F  F9  1  0.32591480  0.05818685  0.34487720  1
  F  F10  1  0.17408520  0.05818685  0.84487720  1
  F  F11  1  0.82591480  0.94181315  0.15512280  1
