# generated using pymatgen
data_YHfF7
_symmetry_space_group_name_H-M   'P 1'
_cell_length_a   5.70513216
_cell_length_b   6.10424310
_cell_length_c   8.27096160
_cell_angle_alpha   102.02294213
_cell_angle_beta   90.00000000
_cell_angle_gamma   90.00000000
_symmetry_Int_Tables_number   1
_chemical_formula_structural   YHfF7
_chemical_formula_sum   'Y2 Hf2 F14'
_cell_volume   281.72210778
_cell_formula_units_Z   2
loop_
 _symmetry_equiv_pos_site_id
 _symmetry_equiv_pos_as_xyz
  1  'x, y, z'
loop_
 _atom_site_type_symbol
 _atom_site_label
 _atom_site_symmetry_multiplicity
 _atom_site_fract_x
 _atom_site_fract_y
 _atom_site_fract_z
 _atom_site_occupancy
  Y  Y0  1  0.69717288  0.65627286  0.68547108  1
  Y  Y1  1  0.19717288  0.34372714  0.31452892  1
  Hf  Hf2  1  0.70760007  0.81100390  0.22359554  1
  Hf  Hf3  1  0.20760007  0.18899610  0.77640446  1
  F  F4  1  0.88852508  0.45310860  0.47735020  1
  F  F5  1  0.38852508  0.54689140  0.52264980  1
  F  F6  1  0.42608913  0.92801986  0.76953062  1
  F  F7  1  0.92608913  0.07198014  0.23046938  1
  F  F8  1  0.94643871  0.96135333  0.75983502  1
  F  F9  1  0.44643871  0.03864667  0.24016498  1
  F  F10  1  0.99594666  0.45466241  0.78739372  1
  F  F11  1  0.49594666  0.54533759  0.21260628  1
  F  F12  1  0.70390876  0.75561111  0.97726023  1
  F  F13  1  0.20390876  0.24438889  0.02273977  1
  F  F14  1  0.71095305  0.86137737  0.47140991  1
  F  F15  1  0.21095305  0.13862263  0.52859009  1
  F  F16  1  0.49972567  0.37807001  0.78264981  1
  F  F17  1  0.99972567  0.62192999  0.21735019  1
