# generated using pymatgen
data_Y6RhI10
_symmetry_space_group_name_H-M   'P 1'
_cell_length_a   7.71433293
_cell_length_b   9.68686480
_cell_length_c   9.79637049
_cell_angle_alpha   107.39893418
_cell_angle_beta   97.10172448
_cell_angle_gamma   104.80008151
_symmetry_Int_Tables_number   1
_chemical_formula_structural   Y6RhI10
_chemical_formula_sum   'Y6 Rh1 I10'
_cell_volume   659.32590430
_cell_formula_units_Z   1
loop_
 _symmetry_equiv_pos_site_id
 _symmetry_equiv_pos_as_xyz
  1  'x, y, z'
loop_
 _atom_site_type_symbol
 _atom_site_label
 _atom_site_symmetry_multiplicity
 _atom_site_fract_x
 _atom_site_fract_y
 _atom_site_fract_z
 _atom_site_occupancy
  Y  Y0  1  0.52979763  0.22039496  0.41768162  1
  Y  Y1  1  0.47020237  0.77960504  0.58231838  1
  Y  Y2  1  0.14623688  0.37175739  0.33230431  1
  Y  Y3  1  0.85376312  0.62824261  0.66769569  1
  Y  Y4  1  0.61413193  0.54107769  0.25758621  1
  Y  Y5  1  0.38586807  0.45892231  0.74241379  1
  Rh  Rh6  1  0.50000000  0.50000000  0.50000000  1
  I  I7  1  0.14535775  0.04519658  0.22541919  1
  I  I8  1  0.85464225  0.95480342  0.77458081  1
  I  I9  1  0.23708397  0.41034268  0.03472185  1
  I  I10  1  0.76291603  0.58965732  0.96527815  1
  I  I11  1  0.71427252  0.23925010  0.15204874  1
  I  I12  1  0.28572748  0.76074990  0.84795126  1
  I  I13  1  0.04808743  0.68301678  0.40829974  1
  I  I14  1  0.95191257  0.31698322  0.59170026  1
  I  I15  1  0.41355227  0.12781771  0.67850752  1
  I  I16  1  0.58644773  0.87218229  0.32149248  1
