# generated using pymatgen
data_Yb6Ni20P13
_symmetry_space_group_name_H-M   'P 1'
_cell_length_a   3.73497481
_cell_length_b   12.63078272
_cell_length_c   12.63078272
_cell_angle_alpha   119.99999876
_cell_angle_beta   90.00000000
_cell_angle_gamma   90.00000000
_symmetry_Int_Tables_number   1
_chemical_formula_structural   Yb6Ni20P13
_chemical_formula_sum   'Yb6 Ni20 P13'
_cell_volume   516.03462509
_cell_formula_units_Z   1
loop_
 _symmetry_equiv_pos_site_id
 _symmetry_equiv_pos_as_xyz
  1  'x, y, z'
loop_
 _atom_site_type_symbol
 _atom_site_label
 _atom_site_symmetry_multiplicity
 _atom_site_fract_x
 _atom_site_fract_y
 _atom_site_fract_z
 _atom_site_occupancy
  Yb  Yb0  1  -0.00000000  0.53014703  0.81034007  1
  Yb  Yb1  1  -0.00000000  0.28019305  0.46985297  1
  Yb  Yb2  1  0.00000000  0.18965993  0.71980695  1
  Yb  Yb3  1  0.50000000  0.81154128  0.28109941  1
  Yb  Yb4  1  0.50000000  0.46955814  0.18845872  1
  Yb  Yb5  1  0.50000000  0.71890059  0.53044186  1
  Ni  Ni6  1  -0.00000000  0.80389436  0.90895284  1
  Ni  Ni7  1  -0.00000000  0.10505848  0.19610564  1
  Ni  Ni8  1  0.00000000  0.09104716  0.89494152  1
  Ni  Ni9  1  0.50000000  0.33333300  0.66666700  1
  Ni  Ni10  1  0.50000000  0.92649275  0.08513645  1
  Ni  Ni11  1  0.50000000  0.15864370  0.07350725  1
  Ni  Ni12  1  0.50000000  0.91486355  0.84135630  1
  Ni  Ni13  1  0.00000000  0.66666700  0.33333300  1
  Ni  Ni14  1  0.00000000  0.56117545  0.58208536  1
  Ni  Ni15  1  -0.00000000  0.02090991  0.43882455  1
  Ni  Ni16  1  0.00000000  0.41791464  0.97909009  1
  Ni  Ni17  1  0.50000000  0.68213325  0.75134369  1
  Ni  Ni18  1  0.50000000  0.06921044  0.31786675  1
  Ni  Ni19  1  0.50000000  0.24865631  0.93078956  1
  Ni  Ni20  1  0.50000000  0.97820293  0.56396516  1
  Ni  Ni21  1  0.50000000  0.58576223  0.02179707  1
  Ni  Ni22  1  0.50000000  0.43603484  0.41423777  1
  Ni  Ni23  1  -0.00000000  0.75757162  0.07693832  1
  Ni  Ni24  1  -0.00000000  0.31936670  0.24242838  1
  Ni  Ni25  1  0.00000000  0.92306168  0.68063330  1
  P  P26  1  0.50000000  0.47720165  0.61328403  1
  P  P27  1  0.50000000  0.13608238  0.52279835  1
  P  P28  1  0.50000000  0.38671597  0.86391762  1
  P  P29  1  0.50000000  0.72225236  0.95457505  1
  P  P30  1  0.50000000  0.23232269  0.27774764  1
  P  P31  1  0.50000000  0.04542495  0.76767731  1
  P  P32  1  0.00000000  0.86244026  0.47882075  1
  P  P33  1  0.00000000  0.61638049  0.13755974  1
  P  P34  1  -0.00000000  0.52117925  0.38361951  1
  P  P35  1  0.00000000  0.95235548  0.23377258  1
  P  P36  1  -0.00000000  0.28141710  0.04764452  1
  P  P37  1  0.00000000  0.76622742  0.71858290  1
  P  P38  1  -0.00000000  0.00000000  -0.00000000  1
