# generated using pymatgen
data_YGeBiO5
_symmetry_space_group_name_H-M   'P 1'
_cell_length_a   5.41100559
_cell_length_b   11.20022142
_cell_length_c   15.43082190
_cell_angle_alpha   90.00000000
_cell_angle_beta   90.00000000
_cell_angle_gamma   90.00000000
_symmetry_Int_Tables_number   1
_chemical_formula_structural   YGeBiO5
_chemical_formula_sum   'Y8 Ge8 Bi8 O40'
_cell_volume   935.17663961
_cell_formula_units_Z   8
loop_
 _symmetry_equiv_pos_site_id
 _symmetry_equiv_pos_as_xyz
  1  'x, y, z'
loop_
 _atom_site_type_symbol
 _atom_site_label
 _atom_site_symmetry_multiplicity
 _atom_site_fract_x
 _atom_site_fract_y
 _atom_site_fract_z
 _atom_site_occupancy
  Y  Y0  1  0.99161177  0.85890870  0.55331280  1
  Y  Y1  1  0.00838823  0.14109130  0.44668720  1
  Y  Y2  1  0.50838823  0.35890870  0.44668720  1
  Y  Y3  1  0.00838823  0.64109130  0.05331280  1
  Y  Y4  1  0.49161177  0.64109130  0.55331280  1
  Y  Y5  1  0.99161177  0.35890870  0.94668720  1
  Y  Y6  1  0.49161177  0.14109130  0.94668720  1
  Y  Y7  1  0.50838823  0.85890870  0.05331280  1
  Ge  Ge8  1  0.99064791  0.90400947  0.90333286  1
  Ge  Ge9  1  0.00935209  0.09599053  0.09666714  1
  Ge  Ge10  1  0.50935209  0.40400947  0.09666714  1
  Ge  Ge11  1  0.00935209  0.59599053  0.40333286  1
  Ge  Ge12  1  0.49064791  0.59599053  0.90333286  1
  Ge  Ge13  1  0.99064791  0.40400947  0.59666714  1
  Ge  Ge14  1  0.49064791  0.09599053  0.59666714  1
  Ge  Ge15  1  0.50935209  0.90400947  0.40333286  1
  Bi  Bi16  1  0.54424566  0.85170641  0.73797456  1
  Bi  Bi17  1  0.45575434  0.14829359  0.26202544  1
  Bi  Bi18  1  0.95575434  0.35170641  0.26202544  1
  Bi  Bi19  1  0.45575434  0.64829359  0.23797456  1
  Bi  Bi20  1  0.04424566  0.64829359  0.73797456  1
  Bi  Bi21  1  0.54424566  0.35170641  0.76202544  1
  Bi  Bi22  1  0.04424566  0.14829359  0.76202544  1
  Bi  Bi23  1  0.95575434  0.85170641  0.23797456  1
  O  O24  1  0.75209856  0.73549819  0.65128535  1
  O  O25  1  0.24790144  0.26450181  0.34871465  1
  O  O26  1  0.74790144  0.23549819  0.34871465  1
  O  O27  1  0.24790144  0.76450181  0.15128535  1
  O  O28  1  0.25209856  0.76450181  0.65128535  1
  O  O29  1  0.75209856  0.23549819  0.84871465  1
  O  O30  1  0.25209856  0.26450181  0.84871465  1
  O  O31  1  0.74790144  0.73549819  0.15128535  1
  O  O32  1  0.63809430  0.68903936  0.97934504  1
  O  O33  1  0.36190570  0.31096064  0.02065496  1
  O  O34  1  0.86190570  0.18903936  0.02065496  1
  O  O35  1  0.36190570  0.81096064  0.47934504  1
  O  O36  1  0.13809430  0.81096064  0.97934504  1
  O  O37  1  0.63809430  0.18903936  0.52065496  1
  O  O38  1  0.13809430  0.31096064  0.52065496  1
  O  O39  1  0.86190570  0.68903936  0.47934504  1
  O  O40  1  0.69434995  0.95721718  0.93646806  1
  O  O41  1  0.30565005  0.04278282  0.06353194  1
  O  O42  1  0.80565005  0.45721718  0.06353194  1
  O  O43  1  0.30565005  0.54278282  0.43646806  1
  O  O44  1  0.19434995  0.54278282  0.93646806  1
  O  O45  1  0.69434995  0.45721718  0.56353194  1
  O  O46  1  0.19434995  0.04278282  0.56353194  1
  O  O47  1  0.80565005  0.95721718  0.43646806  1
  O  O48  1  0.68577309  0.97383536  0.62612339  1
  O  O49  1  0.31422691  0.02616464  0.37387661  1
  O  O50  1  0.81422691  0.47383536  0.37387661  1
  O  O51  1  0.31422691  0.52616464  0.12612339  1
  O  O52  1  0.18577309  0.52616464  0.62612339  1
  O  O53  1  0.68577309  0.47383536  0.87387661  1
  O  O54  1  0.18577309  0.02616464  0.87387661  1
  O  O55  1  0.81422691  0.97383536  0.12612339  1
  O  O56  1  0.93613409  0.83022434  0.80179776  1
  O  O57  1  0.06386591  0.16977566  0.19820224  1
  O  O58  1  0.56386591  0.33022434  0.19820224  1
  O  O59  1  0.06386591  0.66977566  0.30179776  1
  O  O60  1  0.43613409  0.66977566  0.80179776  1
  O  O61  1  0.93613409  0.33022434  0.69820224  1
  O  O62  1  0.43613409  0.16977566  0.69820224  1
  O  O63  1  0.56386591  0.83022434  0.30179776  1
