# generated using pymatgen
data_HoSi3
_symmetry_space_group_name_H-M   'P 1'
_cell_length_a   7.20233593
_cell_length_b   7.20233593
_cell_length_c   7.41066025
_cell_angle_alpha   119.07436307
_cell_angle_beta   119.07436307
_cell_angle_gamma   90.00000000
_symmetry_Int_Tables_number   1
_chemical_formula_structural   HoSi3
_chemical_formula_sum   'Ho4 Si12'
_cell_volume   279.25685577
_cell_formula_units_Z   4
loop_
 _symmetry_equiv_pos_site_id
 _symmetry_equiv_pos_as_xyz
  1  'x, y, z'
loop_
 _atom_site_type_symbol
 _atom_site_label
 _atom_site_symmetry_multiplicity
 _atom_site_fract_x
 _atom_site_fract_y
 _atom_site_fract_z
 _atom_site_occupancy
  Ho  Ho0  1  0.17042896  0.17042896  0.34085793  1
  Ho  Ho1  1  0.82957104  0.82957104  0.65914207  1
  Ho  Ho2  1  0.25000000  0.75000000  0.50000000  1
  Ho  Ho3  1  0.75000000  0.25000000  0.50000000  1
  Si  Si4  1  0.00000000  0.32797388  0.00000000  1
  Si  Si5  1  1.00000000  0.67202612  1.00000000  1
  Si  Si6  1  0.32797388  0.00000000  0.00000000  1
  Si  Si7  1  0.67202612  1.00000000  1.00000000  1
  Si  Si8  1  0.80013784  0.42757087  0.22770871  1
  Si  Si9  1  0.42757087  0.80013784  0.22770871  1
  Si  Si10  1  0.42757087  0.42757087  0.22770871  1
  Si  Si11  1  0.80013784  0.80013784  0.22770871  1
  Si  Si12  1  0.19986216  0.57242913  0.77229129  1
  Si  Si13  1  0.57242913  0.19986216  0.77229129  1
  Si  Si14  1  0.57242913  0.57242913  0.77229129  1
  Si  Si15  1  0.19986216  0.19986216  0.77229129  1
