# generated using pymatgen
data_TmMnB4
_symmetry_space_group_name_H-M   'P 1'
_cell_length_a   3.37098924
_cell_length_b   5.87596034
_cell_length_c   11.35628851
_cell_angle_alpha   90.00000000
_cell_angle_beta   90.00000000
_cell_angle_gamma   90.00000000
_symmetry_Int_Tables_number   1
_chemical_formula_structural   TmMnB4
_chemical_formula_sum   'Tm4 Mn4 B16'
_cell_volume   224.94308111
_cell_formula_units_Z   4
loop_
 _symmetry_equiv_pos_site_id
 _symmetry_equiv_pos_as_xyz
  1  'x, y, z'
loop_
 _atom_site_type_symbol
 _atom_site_label
 _atom_site_symmetry_multiplicity
 _atom_site_fract_x
 _atom_site_fract_y
 _atom_site_fract_z
 _atom_site_occupancy
  Tm  Tm0  1  0.50000000  0.37405350  0.15013101  1
  Tm  Tm1  1  0.50000000  0.62594650  0.84986899  1
  Tm  Tm2  1  0.50000000  0.12594650  0.65013101  1
  Tm  Tm3  1  0.50000000  0.87405350  0.34986899  1
  Mn  Mn4  1  0.50000000  0.37146746  0.41558743  1
  Mn  Mn5  1  0.50000000  0.62853254  0.58441257  1
  Mn  Mn6  1  0.50000000  0.12853254  0.91558743  1
  Mn  Mn7  1  0.50000000  0.87146746  0.08441257  1
  B  B8  1  0.00000000  0.11282064  0.04668519  1
  B  B9  1  0.00000000  0.88717936  0.95331481  1
  B  B10  1  0.00000000  0.38717936  0.54668519  1
  B  B11  1  0.00000000  0.61282064  0.45331481  1
  B  B12  1  0.00000000  0.13690412  0.46780450  1
  B  B13  1  0.00000000  0.86309588  0.53219550  1
  B  B14  1  0.00000000  0.36309588  0.96780450  1
  B  B15  1  0.00000000  0.63690412  0.03219550  1
  B  B16  1  0.00000000  0.02476847  0.19168543  1
  B  B17  1  0.00000000  0.97523153  0.80831457  1
  B  B18  1  0.00000000  0.47523153  0.69168543  1
  B  B19  1  0.00000000  0.52476847  0.30831457  1
  B  B20  1  0.00000000  0.21758301  0.31535806  1
  B  B21  1  0.00000000  0.78241699  0.68464194  1
  B  B22  1  0.00000000  0.28241699  0.81535806  1
  B  B23  1  0.00000000  0.71758301  0.18464194  1
