# generated using pymatgen
data_Ba2YbInSe5
_symmetry_space_group_name_H-M   'P 1'
_cell_length_a   4.36778724
_cell_length_b   9.75640386
_cell_length_c   13.42564244
_cell_angle_alpha   90.00000000
_cell_angle_beta   90.00000000
_cell_angle_gamma   102.93479696
_symmetry_Int_Tables_number   1
_chemical_formula_structural   Ba2YbInSe5
_chemical_formula_sum   'Ba4 Yb2 In2 Se10'
_cell_volume   557.60166274
_cell_formula_units_Z   2
loop_
 _symmetry_equiv_pos_site_id
 _symmetry_equiv_pos_as_xyz
  1  'x, y, z'
loop_
 _atom_site_type_symbol
 _atom_site_label
 _atom_site_symmetry_multiplicity
 _atom_site_fract_x
 _atom_site_fract_y
 _atom_site_fract_z
 _atom_site_occupancy
  Ba  Ba0  1  0.86642382  0.73284764  0.81316389  1
  Ba  Ba1  1  0.13357618  0.26715236  0.31316389  1
  Ba  Ba2  1  0.88239660  0.76479319  0.18183660  1
  Ba  Ba3  1  0.11760340  0.23520681  0.68183660  1
  Yb  Yb4  1  0.79195337  0.58390675  0.51455247  1
  Yb  Yb5  1  0.20804663  0.41609325  0.01455247  1
  In  In6  1  0.55445443  0.10890886  0.93775935  1
  In  In7  1  0.44554557  0.89109114  0.43775935  1
  Se  Se8  1  0.64036913  0.28073827  0.50108340  1
  Se  Se9  1  0.35963087  0.71926173  0.00108340  1
  Se  Se10  1  0.70812896  0.41625792  0.16014024  1
  Se  Se11  1  0.29187104  0.58374208  0.66014024  1
  Se  Se12  1  0.68739902  0.37479803  0.86678493  1
  Se  Se13  1  0.31260098  0.62520197  0.36678493  1
  Se  Se14  1  0.49535536  0.99071072  0.76644007  1
  Se  Se15  1  0.50464464  0.00928928  0.26644007  1
  Se  Se16  1  0.94996502  0.89993004  0.55179904  1
  Se  Se17  1  0.05003498  0.10006996  0.05179904  1
