# generated using pymatgen
data_TmZrF7
_symmetry_space_group_name_H-M   'P 1'
_cell_length_a   5.66462669
_cell_length_b   6.05167024
_cell_length_c   8.22987842
_cell_angle_alpha   102.21996137
_cell_angle_beta   90.00000000
_cell_angle_gamma   90.00000000
_symmetry_Int_Tables_number   1
_chemical_formula_structural   TmZrF7
_chemical_formula_sum   'Tm2 Zr2 F14'
_cell_volume   275.73165340
_cell_formula_units_Z   2
loop_
 _symmetry_equiv_pos_site_id
 _symmetry_equiv_pos_as_xyz
  1  'x, y, z'
loop_
 _atom_site_type_symbol
 _atom_site_label
 _atom_site_symmetry_multiplicity
 _atom_site_fract_x
 _atom_site_fract_y
 _atom_site_fract_z
 _atom_site_occupancy
  Tm  Tm0  1  0.69750347  0.65394968  0.68257208  1
  Tm  Tm1  1  0.19750347  0.34605032  0.31742792  1
  Zr  Zr2  1  0.70727229  0.81163109  0.22334711  1
  Zr  Zr3  1  0.20727229  0.18836891  0.77665289  1
  F  F4  1  0.89096243  0.45541963  0.47839962  1
  F  F5  1  0.39096243  0.54458037  0.52160038  1
  F  F6  1  0.42906341  0.91976070  0.76639163  1
  F  F7  1  0.92906341  0.08023930  0.23360837  1
  F  F8  1  0.94154114  0.95458522  0.75948199  1
  F  F9  1  0.44154114  0.04541478  0.24051801  1
  F  F10  1  0.99161354  0.46034285  0.78622608  1
  F  F11  1  0.49161354  0.53965715  0.21377392  1
  F  F12  1  0.70251944  0.75424383  0.97247706  1
  F  F13  1  0.20251944  0.24575617  0.02752294  1
  F  F14  1  0.70950689  0.86024426  0.47652972  1
  F  F15  1  0.20950689  0.13975574  0.52347028  1
  F  F16  1  0.50637740  0.38134292  0.78000959  1
  F  F17  1  0.00637740  0.61865708  0.21999041  1
