# generated using pymatgen
data_V5Te8
_symmetry_space_group_name_H-M   'P 1'
_cell_length_a   7.40594512
_cell_length_b   7.40594512
_cell_length_c   7.66865513
_cell_angle_alpha   105.04218379
_cell_angle_beta   106.73537037
_cell_angle_gamma   115.66428784
_symmetry_Int_Tables_number   1
_chemical_formula_structural   V5Te8
_chemical_formula_sum   'V5 Te8'
_cell_volume   325.10285287
_cell_formula_units_Z   1
loop_
 _symmetry_equiv_pos_site_id
 _symmetry_equiv_pos_as_xyz
  1  'x, y, z'
loop_
 _atom_site_type_symbol
 _atom_site_label
 _atom_site_symmetry_multiplicity
 _atom_site_fract_x
 _atom_site_fract_y
 _atom_site_fract_z
 _atom_site_occupancy
  V  V0  1  0.21163016  0.71163016  0.50000000  1
  V  V1  1  0.78836984  0.28836984  0.50000000  1
  V  V2  1  0.76648287  0.28252145  0.04900431  1
  V  V3  1  0.23351713  0.71747855  0.95099569  1
  V  V4  1  0.00000000  0.00000000  0.00000000  1
  Te  Te5  1  0.77439859  0.57133939  0.34573798  1
  Te  Te6  1  0.22560141  0.42866061  0.65426202  1
  Te  Te7  1  0.70554639  0.95371257  0.16638522  1
  Te  Te8  1  0.29445361  0.04628743  0.83361478  1
  Te  Te9  1  0.78732735  0.53916118  0.83361478  1
  Te  Te10  1  0.21267265  0.46083882  0.16638522  1
  Te  Te11  1  0.30714186  0.01326323  0.32040508  1
  Te  Te12  1  0.69285814  0.98673677  0.67959492  1
