# generated using pymatgen
data_Y5(GeSb)2
_symmetry_space_group_name_H-M   'P 1'
_cell_length_a   7.93408910
_cell_length_b   7.94436112
_cell_length_c   8.56985719
_cell_angle_alpha   90.00000000
_cell_angle_beta   117.57483299
_cell_angle_gamma   90.00000000
_symmetry_Int_Tables_number   1
_chemical_formula_structural   Y5(GeSb)2
_chemical_formula_sum   'Y10 Ge4 Sb4'
_cell_volume   478.80955669
_cell_formula_units_Z   2
loop_
 _symmetry_equiv_pos_site_id
 _symmetry_equiv_pos_as_xyz
  1  'x, y, z'
loop_
 _atom_site_type_symbol
 _atom_site_label
 _atom_site_symmetry_multiplicity
 _atom_site_fract_x
 _atom_site_fract_y
 _atom_site_fract_z
 _atom_site_occupancy
  Y  Y0  1  0.29218792  0.33628592  0.25535644  1
  Y  Y1  1  0.70781208  0.66371408  0.74464356  1
  Y  Y2  1  0.20781208  0.83628592  0.74464356  1
  Y  Y3  1  0.53683148  0.16371408  0.74464356  1
  Y  Y4  1  0.79218792  0.16371408  0.25535644  1
  Y  Y5  1  0.46316852  0.83628592  0.25535644  1
  Y  Y6  1  0.96316852  0.66371408  0.25535644  1
  Y  Y7  1  0.03683148  0.33628592  0.74464356  1
  Y  Y8  1  0.00000000  0.00000000  -0.00000000  1
  Y  Y9  1  0.50000000  0.50000000  -0.00000000  1
  Ge  Ge10  1  0.36172197  0.13704461  -0.00000000  1
  Ge  Ge11  1  0.63827803  0.86295539  0.00000000  1
  Ge  Ge12  1  0.13827803  0.63704461  0.00000000  1
  Ge  Ge13  1  0.86172197  0.36295539  0.00000000  1
  Sb  Sb14  1  0.20484725  -0.00000000  0.40969449  1
  Sb  Sb15  1  0.79515275  0.00000000  0.59030551  1
  Sb  Sb16  1  0.29515275  0.50000000  0.59030551  1
  Sb  Sb17  1  0.70484725  0.50000000  0.40969449  1
