# generated using pymatgen
data_Tm3Fe2Si3
_symmetry_space_group_name_H-M   'P 1'
_cell_length_a   4.05174791
_cell_length_b   5.57269635
_cell_length_c   13.44610344
_cell_angle_alpha   90.00000000
_cell_angle_beta   90.00000000
_cell_angle_gamma   111.31749373
_symmetry_Int_Tables_number   1
_chemical_formula_structural   Tm3Fe2Si3
_chemical_formula_sum   'Tm6 Fe4 Si6'
_cell_volume   282.82938467
_cell_formula_units_Z   2
loop_
 _symmetry_equiv_pos_site_id
 _symmetry_equiv_pos_as_xyz
  1  'x, y, z'
loop_
 _atom_site_type_symbol
 _atom_site_label
 _atom_site_symmetry_multiplicity
 _atom_site_fract_x
 _atom_site_fract_y
 _atom_site_fract_z
 _atom_site_occupancy
  Tm  Tm0  1  0.36251092  0.72502183  0.25000000  1
  Tm  Tm1  1  0.63748908  0.27497817  0.75000000  1
  Tm  Tm2  1  0.07903269  0.15806538  0.11239528  1
  Tm  Tm3  1  0.92096731  0.84193462  0.88760472  1
  Tm  Tm4  1  0.92096731  0.84193462  0.61239528  1
  Tm  Tm5  1  0.07903269  0.15806538  0.38760472  1
  Fe  Fe6  1  0.21432280  0.42864560  0.58096834  1
  Fe  Fe7  1  0.78567720  0.57135440  0.41903166  1
  Fe  Fe8  1  0.78567720  0.57135440  0.08096834  1
  Fe  Fe9  1  0.21432280  0.42864560  0.91903166  1
  Si  Si10  1  0.67251359  0.34502717  0.25000000  1
  Si  Si11  1  0.32748641  0.65497283  0.75000000  1
  Si  Si12  1  0.37606964  0.75213928  0.03964131  1
  Si  Si13  1  0.62393036  0.24786072  0.96035869  1
  Si  Si14  1  0.62393036  0.24786072  0.53964131  1
  Si  Si15  1  0.37606964  0.75213928  0.46035869  1
