# generated using pymatgen
data_Tm2(Ga3Ir)3
_symmetry_space_group_name_H-M   'P 1'
_cell_length_a   7.57790214
_cell_length_b   7.57790214
_cell_length_c   9.45418721
_cell_angle_alpha   90.00000000
_cell_angle_beta   90.00000000
_cell_angle_gamma   120.08812371
_symmetry_Int_Tables_number   1
_chemical_formula_structural   Tm2(Ga3Ir)3
_chemical_formula_sum   'Tm4 Ga18 Ir6'
_cell_volume   469.74966548
_cell_formula_units_Z   2
loop_
 _symmetry_equiv_pos_site_id
 _symmetry_equiv_pos_as_xyz
  1  'x, y, z'
loop_
 _atom_site_type_symbol
 _atom_site_label
 _atom_site_symmetry_multiplicity
 _atom_site_fract_x
 _atom_site_fract_y
 _atom_site_fract_z
 _atom_site_occupancy
  Tm  Tm0  1  0.66762248  0.99701603  0.25000000  1
  Tm  Tm1  1  0.33237752  0.00298397  0.75000000  1
  Tm  Tm2  1  0.99701603  0.66762248  0.25000000  1
  Tm  Tm3  1  0.00298397  0.33237752  0.75000000  1
  Ga  Ga4  1  0.12704989  0.12704989  0.25000000  1
  Ga  Ga5  1  0.87295011  0.87295011  0.75000000  1
  Ga  Ga6  1  0.33354072  0.99839984  0.08125181  1
  Ga  Ga7  1  0.66645928  0.00160016  0.91874819  1
  Ga  Ga8  1  0.66645928  0.00160016  0.58125181  1
  Ga  Ga9  1  0.99839984  0.33354072  0.41874819  1
  Ga  Ga10  1  0.33354072  0.99839984  0.41874819  1
  Ga  Ga11  1  0.00160016  0.66645928  0.58125181  1
  Ga  Ga12  1  0.00160016  0.66645928  0.91874819  1
  Ga  Ga13  1  0.99839984  0.33354072  0.08125181  1
  Ga  Ga14  1  0.33253704  0.33253704  0.56574367  1
  Ga  Ga15  1  0.66746296  0.66746296  0.43425633  1
  Ga  Ga16  1  0.66746296  0.66746296  0.06574367  1
  Ga  Ga17  1  0.33253704  0.33253704  0.93425633  1
  Ga  Ga18  1  0.54611447  0.33884406  0.25000000  1
  Ga  Ga19  1  0.45388553  0.66115594  0.75000000  1
  Ga  Ga20  1  0.33884406  0.54611447  0.25000000  1
  Ga  Ga21  1  0.66115594  0.45388553  0.75000000  1
  Ir  Ir22  1  0.32818405  0.67181595  0.00000000  1
  Ir  Ir23  1  0.67181595  0.32818405  0.00000000  1
  Ir  Ir24  1  0.67181595  0.32818405  0.50000000  1
  Ir  Ir25  1  0.32818405  0.67181595  0.50000000  1
  Ir  Ir26  1  0.00000000  -0.00000000  0.00000000  1
  Ir  Ir27  1  0.00000000  -0.00000000  0.50000000  1
