# generated using pymatgen
data_Y3Ru
_symmetry_space_group_name_H-M   'P 1'
_cell_length_a   6.34809613
_cell_length_b   7.35858323
_cell_length_c   9.26966399
_cell_angle_alpha   90.00000000
_cell_angle_beta   90.00000000
_cell_angle_gamma   90.00000000
_symmetry_Int_Tables_number   1
_chemical_formula_structural   Y3Ru
_chemical_formula_sum   'Y12 Ru4'
_cell_volume   433.01375579
_cell_formula_units_Z   4
loop_
 _symmetry_equiv_pos_site_id
 _symmetry_equiv_pos_as_xyz
  1  'x, y, z'
loop_
 _atom_site_type_symbol
 _atom_site_label
 _atom_site_symmetry_multiplicity
 _atom_site_fract_x
 _atom_site_fract_y
 _atom_site_fract_z
 _atom_site_occupancy
  Y  Y0  1  0.63589610  0.04238142  0.25000000  1
  Y  Y1  1  0.36410390  0.95761858  0.75000000  1
  Y  Y2  1  0.13589610  0.45761858  0.75000000  1
  Y  Y3  1  0.86410390  0.54238142  0.25000000  1
  Y  Y4  1  0.17014586  0.17570274  0.06486052  1
  Y  Y5  1  0.82985414  0.82429726  0.93513948  1
  Y  Y6  1  0.67014586  0.32429726  0.93513948  1
  Y  Y7  1  0.82985414  0.82429726  0.56486052  1
  Y  Y8  1  0.32985414  0.67570274  0.06486052  1
  Y  Y9  1  0.17014586  0.17570274  0.43513948  1
  Y  Y10  1  0.32985414  0.67570274  0.43513948  1
  Y  Y11  1  0.67014586  0.32429726  0.56486052  1
  Ru  Ru12  1  0.45990285  0.38461970  0.25000000  1
  Ru  Ru13  1  0.54009715  0.61538030  0.75000000  1
  Ru  Ru14  1  0.95990285  0.11538030  0.75000000  1
  Ru  Ru15  1  0.04009715  0.88461970  0.25000000  1
