# generated using pymatgen
data_Y3Ga9Cu2
_symmetry_space_group_name_H-M   'P 1'
_cell_length_a   4.20196211
_cell_length_b   8.15454097
_cell_length_c   8.15454097
_cell_angle_alpha   75.76701799
_cell_angle_beta   75.06959459
_cell_angle_gamma   75.06959459
_symmetry_Int_Tables_number   1
_chemical_formula_structural   Y3Ga9Cu2
_chemical_formula_sum   'Y3 Ga9 Cu2'
_cell_volume   256.00194290
_cell_formula_units_Z   1
loop_
 _symmetry_equiv_pos_site_id
 _symmetry_equiv_pos_as_xyz
  1  'x, y, z'
loop_
 _atom_site_type_symbol
 _atom_site_label
 _atom_site_symmetry_multiplicity
 _atom_site_fract_x
 _atom_site_fract_y
 _atom_site_fract_z
 _atom_site_occupancy
  Y  Y0  1  0.68376978  0.31623022  0.31623022  1
  Y  Y1  1  0.31623022  0.68376978  0.68376978  1
  Y  Y2  1  0.00000000  -0.00000000  -0.00000000  1
  Ga  Ga3  1  0.65856863  0.97007652  0.71278623  1
  Ga  Ga4  1  0.34143137  0.02992348  0.28721377  1
  Ga  Ga5  1  0.65856863  0.71278623  0.97007652  1
  Ga  Ga6  1  0.34143137  0.28721377  0.02992348  1
  Ga  Ga7  1  0.86747515  0.85388399  0.41116571  1
  Ga  Ga8  1  0.13252485  0.14611601  0.58883429  1
  Ga  Ga9  1  0.86747515  0.41116571  0.85388399  1
  Ga  Ga10  1  0.13252485  0.58883429  0.14611601  1
  Ga  Ga11  1  0.00000000  0.50000000  0.50000000  1
  Cu  Cu12  1  0.50000000  0.28810814  0.71189186  1
  Cu  Cu13  1  0.50000000  0.71189186  0.28810814  1
