# generated using pymatgen
data_Y2OsC2
_symmetry_space_group_name_H-M   'P 1'
_cell_length_a   5.14337197
_cell_length_b   6.45721969
_cell_length_c   9.83736288
_cell_angle_alpha   90.00000000
_cell_angle_beta   90.00000000
_cell_angle_gamma   90.00000000
_symmetry_Int_Tables_number   1
_chemical_formula_structural   Y2OsC2
_chemical_formula_sum   'Y8 Os4 C8'
_cell_volume   326.71734262
_cell_formula_units_Z   4
loop_
 _symmetry_equiv_pos_site_id
 _symmetry_equiv_pos_as_xyz
  1  'x, y, z'
loop_
 _atom_site_type_symbol
 _atom_site_label
 _atom_site_symmetry_multiplicity
 _atom_site_fract_x
 _atom_site_fract_y
 _atom_site_fract_z
 _atom_site_occupancy
  Y  Y0  1  0.75000000  0.81327309  0.94791720  1
  Y  Y1  1  0.25000000  0.18672691  0.05208280  1
  Y  Y2  1  0.25000000  0.68672691  0.44791720  1
  Y  Y3  1  0.75000000  0.31327309  0.55208280  1
  Y  Y4  1  0.75000000  0.97661374  0.27834610  1
  Y  Y5  1  0.25000000  0.02338626  0.72165390  1
  Y  Y6  1  0.25000000  0.52338626  0.77834610  1
  Y  Y7  1  0.75000000  0.47661374  0.22165390  1
  Os  Os8  1  0.75000000  0.77083012  0.63612743  1
  Os  Os9  1  0.25000000  0.22916988  0.36387257  1
  Os  Os10  1  0.25000000  0.72916988  0.13612743  1
  Os  Os11  1  0.75000000  0.27083012  0.86387257  1
  C  C12  1  0.75000000  0.03405607  0.74210927  1
  C  C13  1  0.25000000  0.96594393  0.25789073  1
  C  C14  1  0.25000000  0.46594393  0.24210927  1
  C  C15  1  0.75000000  0.53405607  0.75789073  1
  C  C16  1  0.75000000  0.67769198  0.44861113  1
  C  C17  1  0.25000000  0.32230802  0.55138887  1
  C  C18  1  0.25000000  0.82230802  0.94861113  1
  C  C19  1  0.75000000  0.17769198  0.05138887  1
