# generated using pymatgen
data_TbMg(BO2)5
_symmetry_space_group_name_H-M   'P 1'
_cell_length_a   7.65978994
_cell_length_b   8.64242207
_cell_length_c   9.40493989
_cell_angle_alpha   93.44631789
_cell_angle_beta   90.00000000
_cell_angle_gamma   90.00000000
_symmetry_Int_Tables_number   1
_chemical_formula_structural   TbMg(BO2)5
_chemical_formula_sum   'Tb4 Mg4 B20 O40'
_cell_volume   621.47297688
_cell_formula_units_Z   4
loop_
 _symmetry_equiv_pos_site_id
 _symmetry_equiv_pos_as_xyz
  1  'x, y, z'
loop_
 _atom_site_type_symbol
 _atom_site_label
 _atom_site_symmetry_multiplicity
 _atom_site_fract_x
 _atom_site_fract_y
 _atom_site_fract_z
 _atom_site_occupancy
  Tb  Tb0  1  0.80930103  0.81297574  0.75947033  1
  Tb  Tb1  1  0.19069897  0.18702426  0.24052967  1
  Tb  Tb2  1  0.30930103  0.68702426  0.74052967  1
  Tb  Tb3  1  0.69069897  0.31297574  0.25947033  1
  Mg  Mg4  1  0.09082262  0.10154670  0.62774419  1
  Mg  Mg5  1  0.90917738  0.89845330  0.37225581  1
  Mg  Mg6  1  0.59082262  0.39845330  0.87225581  1
  Mg  Mg7  1  0.40917738  0.60154670  0.12774419  1
  B  B8  1  0.17333614  0.98355397  0.89587415  1
  B  B9  1  0.82666386  0.01644603  0.10412585  1
  B  B10  1  0.67333614  0.51644603  0.60412585  1
  B  B11  1  0.32666386  0.48355397  0.39587415  1
  B  B12  1  0.42364729  0.08300739  0.74129574  1
  B  B13  1  0.57635271  0.91699261  0.25870426  1
  B  B14  1  0.92364729  0.41699261  0.75870426  1
  B  B15  1  0.07635271  0.58300739  0.24129574  1
  B  B16  1  0.18742064  0.43403741  0.91191908  1
  B  B17  1  0.81257936  0.56596259  0.08808092  1
  B  B18  1  0.68742064  0.06596259  0.58808092  1
  B  B19  1  0.31257936  0.93403741  0.41191908  1
  B  B20  1  0.53172444  0.72207374  0.44441745  1
  B  B21  1  0.46827556  0.27792626  0.55558255  1
  B  B22  1  0.03172444  0.77792626  0.05558255  1
  B  B23  1  0.96827556  0.22207374  0.94441745  1
  B  B24  1  0.40192298  0.15809057  0.00447982  1
  B  B25  1  0.59807702  0.84190943  0.99552018  1
  B  B26  1  0.90192298  0.34190943  0.49552018  1
  B  B27  1  0.09807702  0.65809057  0.50447982  1
  O  O28  1  0.08672417  0.49322225  0.80604535  1
  O  O29  1  0.91327583  0.50677775  0.19395465  1
  O  O30  1  0.58672417  0.00677775  0.69395465  1
  O  O31  1  0.41327583  0.99322225  0.30604535  1
  O  O32  1  0.12628765  0.31688573  0.99059394  1
  O  O33  1  0.87371235  0.68311427  0.00940606  1
  O  O34  1  0.62628765  0.18311427  0.50940606  1
  O  O35  1  0.37371235  0.81688573  0.49059394  1
  O  O36  1  0.60905553  0.67456587  0.58125777  1
  O  O37  1  0.39094447  0.32543413  0.41874223  1
  O  O38  1  0.10905553  0.82543413  0.91874223  1
  O  O39  1  0.89094447  0.17456587  0.08125777  1
  O  O40  1  0.28903389  0.96554611  0.76879285  1
  O  O41  1  0.71096611  0.03445389  0.23120715  1
  O  O42  1  0.78903389  0.53445389  0.73120715  1
  O  O43  1  0.21096611  0.46554611  0.26879285  1
  O  O44  1  0.34878558  0.50280858  0.92666771  1
  O  O45  1  0.65121442  0.49719142  0.07333229  1
  O  O46  1  0.84878558  0.99719142  0.57333229  1
  O  O47  1  0.15121442  0.00280858  0.42666771  1
  O  O48  1  0.22847288  0.54705349  0.52037862  1
  O  O49  1  0.77152712  0.45294651  0.47962138  1
  O  O50  1  0.72847288  0.95294651  0.97962138  1
  O  O51  1  0.27152712  0.04705349  0.02037862  1
  O  O52  1  0.35000951  0.18186677  0.63456309  1
  O  O53  1  0.64999049  0.81813323  0.36543691  1
  O  O54  1  0.85000951  0.31813323  0.86543691  1
  O  O55  1  0.14999049  0.68186677  0.13456309  1
  O  O56  1  0.46913796  0.18279608  0.87225647  1
  O  O57  1  0.53086204  0.81720392  0.12774353  1
  O  O58  1  0.96913796  0.31720392  0.62774353  1
  O  O59  1  0.03086204  0.68279608  0.37225647  1
  O  O60  1  0.04732294  0.74121511  0.62366958  1
  O  O61  1  0.95267706  0.25878489  0.37633042  1
  O  O62  1  0.54732294  0.75878489  0.87633042  1
  O  O63  1  0.45267706  0.24121511  0.12366958  1
  O  O64  1  0.02812716  0.08535266  0.85188370  1
  O  O65  1  0.97187284  0.91464734  0.14811630  1
  O  O66  1  0.52812716  0.41464734  0.64811630  1
  O  O67  1  0.47187284  0.58535266  0.35188370  1
