# generated using pymatgen
data_TbAg(WO4)2
_symmetry_space_group_name_H-M   'P 1'
_cell_length_a   7.34525882
_cell_length_b   7.41017027
_cell_length_c   7.41017027
_cell_angle_alpha   94.14420406
_cell_angle_beta   114.20798955
_cell_angle_gamma   114.20798955
_symmetry_Int_Tables_number   1
_chemical_formula_structural   TbAg(WO4)2
_chemical_formula_sum   'Tb2 Ag2 W4 O16'
_cell_volume   321.19901641
_cell_formula_units_Z   2
loop_
 _symmetry_equiv_pos_site_id
 _symmetry_equiv_pos_as_xyz
  1  'x, y, z'
loop_
 _atom_site_type_symbol
 _atom_site_label
 _atom_site_symmetry_multiplicity
 _atom_site_fract_x
 _atom_site_fract_y
 _atom_site_fract_z
 _atom_site_occupancy
  Tb  Tb0  1  0.00000000  0.69821373  0.30178627  1
  Tb  Tb1  1  -0.00000000  0.30178627  0.69821373  1
  Ag  Ag2  1  0.51742905  0.68377861  0.68377861  1
  Ag  Ag3  1  0.48257095  0.31622139  0.31622139  1
  W  W4  1  0.96742134  0.21136205  0.21136205  1
  W  W5  1  0.03257866  0.78863795  0.78863795  1
  W  W6  1  0.50000000  0.83566128  0.16433872  1
  W  W7  1  0.50000000  0.16433872  0.83566128  1
  O  O8  1  0.75584004  0.35241231  0.10177112  1
  O  O9  1  0.24415996  0.64758769  0.89822888  1
  O  O10  1  0.24415996  0.89822888  0.64758769  1
  O  O11  1  0.75584004  0.10177112  0.35241231  1
  O  O12  1  0.64809240  0.68534905  0.21880484  1
  O  O13  1  0.35190760  0.31465095  0.78119516  1
  O  O14  1  0.35190760  0.78119516  0.31465095  1
  O  O15  1  0.64809240  0.21880484  0.68534905  1
  O  O16  1  0.91450962  0.69866983  0.95893672  1
  O  O17  1  0.08549038  0.30133017  0.04106328  1
  O  O18  1  0.08549038  0.04106328  0.30133017  1
  O  O19  1  0.91450962  0.95893672  0.69866983  1
  O  O20  1  0.65853675  0.97814931  0.97814931  1
  O  O21  1  0.34146325  0.02185069  0.02185069  1
  O  O22  1  0.86451505  0.55643571  0.55643571  1
  O  O23  1  0.13548495  0.44356429  0.44356429  1
