# generated using pymatgen
data_CaV4(CoO4)3
_symmetry_space_group_name_H-M   'P 1'
_cell_length_a   6.44351237
_cell_length_b   6.44351237
_cell_length_c   6.44351237
_cell_angle_alpha   109.47122063
_cell_angle_beta   109.47122063
_cell_angle_gamma   109.47122063
_symmetry_Int_Tables_number   1
_chemical_formula_structural   CaV4(CoO4)3
_chemical_formula_sum   'Ca1 V4 Co3 O12'
_cell_volume   205.94256074
_cell_formula_units_Z   1
loop_
 _symmetry_equiv_pos_site_id
 _symmetry_equiv_pos_as_xyz
  1  'x, y, z'
loop_
 _atom_site_type_symbol
 _atom_site_label
 _atom_site_symmetry_multiplicity
 _atom_site_fract_x
 _atom_site_fract_y
 _atom_site_fract_z
 _atom_site_occupancy
  Ca  Ca0  1  -0.00000000  0.00000000  0.00000000  1
  V  V1  1  -0.00000000  0.00000000  0.50000000  1
  V  V2  1  0.50000000  0.00000000  0.00000000  1
  V  V3  1  -0.00000000  0.50000000  0.00000000  1
  V  V4  1  0.50000000  0.50000000  0.50000000  1
  Co  Co5  1  0.50000000  0.00000000  0.50000000  1
  Co  Co6  1  -0.00000000  0.50000000  0.50000000  1
  Co  Co7  1  0.50000000  0.50000000  0.00000000  1
  O  O8  1  0.17859670  0.48304652  0.30444982  1
  O  O9  1  0.82140330  0.51695348  0.69555018  1
  O  O10  1  0.82140330  0.12585311  0.30444982  1
  O  O11  1  0.17859670  0.87414689  0.69555018  1
  O  O12  1  0.48304652  0.30444982  0.17859670  1
  O  O13  1  0.51695348  0.69555018  0.82140330  1
  O  O14  1  0.12585311  0.30444982  0.82140330  1
  O  O15  1  0.87414689  0.69555018  0.17859670  1
  O  O16  1  0.30444982  0.17859670  0.48304652  1
  O  O17  1  0.69555018  0.82140330  0.51695348  1
  O  O18  1  0.30444982  0.82140330  0.12585311  1
  O  O19  1  0.69555018  0.17859670  0.87414689  1
