# generated using pymatgen
data_TiAsRu
_symmetry_space_group_name_H-M   'P 1'
_cell_length_a   6.55732158
_cell_length_b   7.35776125
_cell_length_c   7.49711622
_cell_angle_alpha   119.38700169
_cell_angle_beta   115.93320163
_cell_angle_gamma   90.00000000
_symmetry_Int_Tables_number   1
_chemical_formula_structural   TiAsRu
_chemical_formula_sum   'Ti6 As6 Ru6'
_cell_volume   272.59872090
_cell_formula_units_Z   6
loop_
 _symmetry_equiv_pos_site_id
 _symmetry_equiv_pos_as_xyz
  1  'x, y, z'
loop_
 _atom_site_type_symbol
 _atom_site_label
 _atom_site_symmetry_multiplicity
 _atom_site_fract_x
 _atom_site_fract_y
 _atom_site_fract_z
 _atom_site_occupancy
  Ti  Ti0  1  0.24742619  0.46678005  0.43356010  1
  Ti  Ti1  1  0.81386610  0.53321995  0.56643990  1
  Ti  Ti2  1  0.66461776  0.74947833  0.99895665  1
  Ti  Ti3  1  0.66566111  0.25052167  0.00104335  1
  Ti  Ti4  1  0.84610164  0.05489671  0.60979342  1
  Ti  Ti5  1  0.23630821  0.94510329  0.39020658  1
  As  As6  1  0.57934823  0.83553150  0.66666910  1
  As  As7  1  0.91267913  0.16446850  0.33333090  1
  As  As8  1  0.91267913  0.66886240  0.33333090  1
  As  As9  1  0.57934823  0.33113760  0.66666910  1
  As  As10  1  0.28377529  0.28279032  0.06558064  1
  As  As11  1  0.21819465  0.71720968  0.93441936  1
  Ru  Ru12  1  0.49595342  0.66389178  0.24935311  1
  Ru  Ru13  1  0.24660031  0.33610822  0.75064689  1
  Ru  Ru14  1  0.24660031  0.91453868  0.75064689  1
  Ru  Ru15  1  0.49595342  0.08546132  0.24935311  1
  Ru  Ru16  1  0.99764344  1.00000000  1.00000000  1
  Ru  Ru17  1  0.99764344  0.50000000  1.00000000  1
