# generated using pymatgen
data_Tm12(MnC3)5
_symmetry_space_group_name_H-M   'P 1'
_cell_length_a   4.96118637
_cell_length_b   10.33968046
_cell_length_c   10.33968046
_cell_angle_alpha   119.99999565
_cell_angle_beta   90.00000000
_cell_angle_gamma   90.00000000
_symmetry_Int_Tables_number   1
_chemical_formula_structural   Tm12(MnC3)5
_chemical_formula_sum   'Tm12 Mn5 C15'
_cell_volume   459.33594009
_cell_formula_units_Z   1
loop_
 _symmetry_equiv_pos_site_id
 _symmetry_equiv_pos_as_xyz
  1  'x, y, z'
loop_
 _atom_site_type_symbol
 _atom_site_label
 _atom_site_symmetry_multiplicity
 _atom_site_fract_x
 _atom_site_fract_y
 _atom_site_fract_z
 _atom_site_occupancy
  Tm  Tm0  1  0.50000000  0.20606434  0.20606434  1
  Tm  Tm1  1  0.50000000  0.00000000  0.79393566  1
  Tm  Tm2  1  0.50000000  0.79393566  0.00000000  1
  Tm  Tm3  1  0.00000000  0.73081553  0.18596723  1
  Tm  Tm4  1  -0.00000000  0.45515170  0.26918447  1
  Tm  Tm5  1  0.00000000  0.54484830  0.81403277  1
  Tm  Tm6  1  0.00000000  0.81403277  0.54484830  1
  Tm  Tm7  1  -0.00000000  0.18596723  0.73081553  1
  Tm  Tm8  1  -0.00000000  0.26918447  0.45515170  1
  Tm  Tm9  1  0.50000000  0.56883218  0.56883218  1
  Tm  Tm10  1  0.50000000  1.00000000  0.43116782  1
  Tm  Tm11  1  0.50000000  0.43116782  1.00000000  1
  Mn  Mn12  1  0.00000000  0.84687738  0.84687738  1
  Mn  Mn13  1  -0.00000000  1.00000000  0.15312262  1
  Mn  Mn14  1  -0.00000000  0.15312262  1.00000000  1
  Mn  Mn15  1  0.50000000  0.66666700  0.33333300  1
  Mn  Mn16  1  0.50000000  0.33333300  0.66666700  1
  C  C17  1  -0.00000000  0.67374677  0.67374677  1
  C  C18  1  0.00000000  0.00000000  0.32625323  1
  C  C19  1  0.00000000  0.32625323  0.00000000  1
  C  C20  1  -0.00000000  0.20448161  0.20448161  1
  C  C21  1  0.00000000  0.00000000  0.79551839  1
  C  C22  1  0.00000000  0.79551839  0.00000000  1
  C  C23  1  0.00000000  0.54303519  0.54303519  1
  C  C24  1  -0.00000000  1.00000000  0.45696481  1
  C  C25  1  -0.00000000  0.45696481  1.00000000  1
  C  C26  1  0.50000000  0.71727222  0.19173769  1
  C  C27  1  0.50000000  0.47446546  0.28272778  1
  C  C28  1  0.50000000  0.52553454  0.80826231  1
  C  C29  1  0.50000000  0.80826231  0.52553454  1
  C  C30  1  0.50000000  0.19173769  0.71727222  1
  C  C31  1  0.50000000  0.28272778  0.47446546  1
