# generated using pymatgen
data_ThSiOs2C
_symmetry_space_group_name_H-M   'P 1'
_cell_length_a   3.99510458
_cell_length_b   5.96367634
_cell_length_c   7.19352533
_cell_angle_alpha   90.00000000
_cell_angle_beta   90.00000000
_cell_angle_gamma   109.56969485
_symmetry_Int_Tables_number   1
_chemical_formula_structural   ThSiOs2C
_chemical_formula_sum   'Th2 Si2 Os4 C2'
_cell_volume   161.48906205
_cell_formula_units_Z   2
loop_
 _symmetry_equiv_pos_site_id
 _symmetry_equiv_pos_as_xyz
  1  'x, y, z'
loop_
 _atom_site_type_symbol
 _atom_site_label
 _atom_site_symmetry_multiplicity
 _atom_site_fract_x
 _atom_site_fract_y
 _atom_site_fract_z
 _atom_site_occupancy
  Th  Th0  1  0.44661816  0.89323633  0.25000000  1
  Th  Th1  1  0.55338184  0.10676367  0.75000000  1
  Si  Si2  1  0.72751912  0.45503824  0.25000000  1
  Si  Si3  1  0.27248088  0.54496176  0.75000000  1
  Os  Os4  1  0.16555140  0.33110281  0.05623002  1
  Os  Os5  1  0.83444860  0.66889719  0.94376998  1
  Os  Os6  1  0.83444860  0.66889719  0.55623002  1
  Os  Os7  1  0.16555140  0.33110281  0.44376998  1
  C  C8  1  -0.00000000  -0.00000000  0.00000000  1
  C  C9  1  -0.00000000  -0.00000000  0.50000000  1
