# generated using pymatgen
data_TbPtF7
_symmetry_space_group_name_H-M   'P 1'
_cell_length_a   5.54605974
_cell_length_b   8.97161550
_cell_length_c   11.17937053
_cell_angle_alpha   107.57151112
_cell_angle_beta   90.00000000
_cell_angle_gamma   90.00000000
_symmetry_Int_Tables_number   1
_chemical_formula_structural   TbPtF7
_chemical_formula_sum   'Tb4 Pt4 F28'
_cell_volume   530.29895329
_cell_formula_units_Z   4
loop_
 _symmetry_equiv_pos_site_id
 _symmetry_equiv_pos_as_xyz
  1  'x, y, z'
loop_
 _atom_site_type_symbol
 _atom_site_label
 _atom_site_symmetry_multiplicity
 _atom_site_fract_x
 _atom_site_fract_y
 _atom_site_fract_z
 _atom_site_occupancy
  Tb  Tb0  1  0.73646431  0.92160324  0.73686412  1
  Tb  Tb1  1  0.26353569  0.07839676  0.26313588  1
  Tb  Tb2  1  0.23646431  0.57839676  0.76313588  1
  Tb  Tb3  1  0.76353569  0.42160324  0.23686412  1
  Pt  Pt4  1  0.24121776  0.23131933  0.95858207  1
  Pt  Pt5  1  0.75878224  0.76868067  0.04141793  1
  Pt  Pt6  1  0.74121776  0.26868067  0.54141793  1
  Pt  Pt7  1  0.25878224  0.73131933  0.45858207  1
  F  F8  1  0.06147344  0.87722705  0.58762601  1
  F  F9  1  0.93852656  0.12277295  0.41237399  1
  F  F10  1  0.56147344  0.62277295  0.91237399  1
  F  F11  1  0.43852656  0.37722705  0.08762601  1
  F  F12  1  0.53449024  0.13745226  0.86756230  1
  F  F13  1  0.46550976  0.86254774  0.13243770  1
  F  F14  1  0.03449024  0.36254774  0.63243770  1
  F  F15  1  0.96550976  0.63745226  0.36756230  1
  F  F16  1  0.04982544  0.08446170  0.82538291  1
  F  F17  1  0.95017456  0.91553830  0.17461709  1
  F  F18  1  0.54982544  0.41553830  0.67461709  1
  F  F19  1  0.45017456  0.58446170  0.32538291  1
  F  F20  1  0.23293022  0.38198394  0.86198946  1
  F  F21  1  0.76706978  0.61801606  0.13801054  1
  F  F22  1  0.73293022  0.11801606  0.63801054  1
  F  F23  1  0.26706978  0.88198394  0.36198946  1
  F  F24  1  0.05785238  0.67559879  0.95671077  1
  F  F25  1  0.94214762  0.32440121  0.04328923  1
  F  F26  1  0.55785238  0.82440121  0.54328923  1
  F  F27  1  0.44214762  0.17559879  0.45671077  1
  F  F28  1  0.26269329  0.57885264  0.55254827  1
  F  F29  1  0.73730671  0.42114736  0.44745173  1
  F  F30  1  0.76269329  0.92114736  0.94745173  1
  F  F31  1  0.23730671  0.07885264  0.05254827  1
  F  F32  1  0.40530872  0.79997599  0.76845588  1
  F  F33  1  0.59469128  0.20002401  0.23154412  1
  F  F34  1  0.90530872  0.70002401  0.73154412  1
  F  F35  1  0.09469128  0.29997599  0.26845588  1
