# generated using pymatgen
data_SrTl2(PO3)4
_symmetry_space_group_name_H-M   'P 1'
_cell_length_a   7.50901008
_cell_length_b   7.50901008
_cell_length_c   7.50901008
_cell_angle_alpha   92.40352959
_cell_angle_beta   118.62216023
_cell_angle_gamma   118.62216023
_symmetry_Int_Tables_number   1
_chemical_formula_structural   SrTl2(PO3)4
_chemical_formula_sum   'Sr1 Tl2 P4 O12'
_cell_volume   305.33148978
_cell_formula_units_Z   1
loop_
 _symmetry_equiv_pos_site_id
 _symmetry_equiv_pos_as_xyz
  1  'x, y, z'
loop_
 _atom_site_type_symbol
 _atom_site_label
 _atom_site_symmetry_multiplicity
 _atom_site_fract_x
 _atom_site_fract_y
 _atom_site_fract_z
 _atom_site_occupancy
  Sr  Sr0  1  -0.00000000  0.00000000  -0.00000000  1
  Tl  Tl1  1  0.50000000  0.92110275  0.42110275  1
  Tl  Tl2  1  0.50000000  0.57889725  0.07889725  1
  P  P3  1  0.56211087  0.43427460  0.56362923  1
  P  P4  1  0.43788913  0.00151836  0.87216373  1
  P  P5  1  0.12935463  0.12783627  0.56572540  1
  P  P6  1  0.87064537  0.43637077  0.99848164  1
  O  O7  1  0.36022077  0.36710973  0.62141844  1
  O  O8  1  0.63977923  0.26119767  0.00688895  1
  O  O9  1  0.25430871  0.99311105  0.63289027  1
  O  O10  1  0.74569129  0.37858156  0.73880233  1
  O  O11  1  0.69577907  0.67363554  0.61160311  1
  O  O12  1  0.30422093  0.91582404  0.97785647  1
  O  O13  1  0.93796757  0.02214353  0.32636446  1
  O  O14  1  0.06203243  0.38839689  0.08417596  1
  O  O15  1  0.44387131  0.27963646  0.34567826  1
  O  O16  1  0.55612869  0.90180695  0.83576514  1
  O  O17  1  0.06604181  0.16423486  0.72036354  1
  O  O18  1  0.93395819  0.65432174  0.09819305  1
