# generated using pymatgen
data_Ta11(SiSe4)2
_symmetry_space_group_name_H-M   'P 1'
_cell_length_a   3.49357023
_cell_length_b   11.98273377
_cell_length_c   19.53389958
_cell_angle_alpha   90.00000000
_cell_angle_beta   90.00000000
_cell_angle_gamma   90.00000000
_symmetry_Int_Tables_number   1
_chemical_formula_structural   Ta11(SiSe4)2
_chemical_formula_sum   'Ta22 Si4 Se16'
_cell_volume   817.73830038
_cell_formula_units_Z   2
loop_
 _symmetry_equiv_pos_site_id
 _symmetry_equiv_pos_as_xyz
  1  'x, y, z'
loop_
 _atom_site_type_symbol
 _atom_site_label
 _atom_site_symmetry_multiplicity
 _atom_site_fract_x
 _atom_site_fract_y
 _atom_site_fract_z
 _atom_site_occupancy
  Ta  Ta0  1  0.00000000  0.56232793  0.11341550  1
  Ta  Ta1  1  -0.00000000  0.43767207  0.88658450  1
  Ta  Ta2  1  0.50000000  0.93767207  0.61341550  1
  Ta  Ta3  1  0.50000000  0.06232793  0.38658450  1
  Ta  Ta4  1  -0.00000000  0.32016744  0.04663765  1
  Ta  Ta5  1  0.00000000  0.67983256  0.95336235  1
  Ta  Ta6  1  0.50000000  0.17983256  0.54663765  1
  Ta  Ta7  1  0.50000000  0.82016744  0.45336235  1
  Ta  Ta8  1  -0.00000000  0.04596371  0.25798155  1
  Ta  Ta9  1  0.00000000  0.95403629  0.74201845  1
  Ta  Ta10  1  0.50000000  0.45403629  0.75798155  1
  Ta  Ta11  1  0.50000000  0.54596371  0.24201845  1
  Ta  Ta12  1  0.00000000  0.00000000  0.50000000  1
  Ta  Ta13  1  0.50000000  0.50000000  0.00000000  1
  Ta  Ta14  1  0.00000000  0.33733592  0.21328372  1
  Ta  Ta15  1  0.00000000  0.66266408  0.78671628  1
  Ta  Ta16  1  0.50000000  0.16266408  0.71328372  1
  Ta  Ta17  1  0.50000000  0.83733592  0.28671628  1
  Ta  Ta18  1  0.00000000  0.32323894  0.64403034  1
  Ta  Ta19  1  0.00000000  0.67676106  0.35596966  1
  Ta  Ta20  1  0.50000000  0.17676106  0.14403034  1
  Ta  Ta21  1  0.50000000  0.82323894  0.85596966  1
  Si  Si22  1  -0.00000000  0.09414685  0.62784213  1
  Si  Si23  1  -0.00000000  0.90585315  0.37215787  1
  Si  Si24  1  0.50000000  0.40585315  0.12784213  1
  Si  Si25  1  0.50000000  0.59414685  0.87215787  1
  Se  Se26  1  0.00000000  0.71316528  0.21387796  1
  Se  Se27  1  0.00000000  0.28683472  0.78612204  1
  Se  Se28  1  0.50000000  0.78683472  0.71387796  1
  Se  Se29  1  0.50000000  0.21316528  0.28612204  1
  Se  Se30  1  -0.00000000  0.10740536  0.05358705  1
  Se  Se31  1  0.00000000  0.89259464  0.94641295  1
  Se  Se32  1  0.50000000  0.39259464  0.55358705  1
  Se  Se33  1  0.50000000  0.60740536  0.44641295  1
  Se  Se34  1  0.00000000  0.21178871  0.44199930  1
  Se  Se35  1  -0.00000000  0.78821129  0.55800070  1
  Se  Se36  1  0.50000000  0.28821129  0.94199930  1
  Se  Se37  1  0.50000000  0.71178871  0.05800070  1
  Se  Se38  1  -0.00000000  0.45765373  0.32741906  1
  Se  Se39  1  -0.00000000  0.54234627  0.67258094  1
  Se  Se40  1  0.50000000  0.04234627  0.82741906  1
  Se  Se41  1  0.50000000  0.95765373  0.17258094  1
