# generated using pymatgen
data_CaBO3
_symmetry_space_group_name_H-M   'P 1'
_cell_length_a   3.68089806
_cell_length_b   7.68709677
_cell_length_c   9.43989915
_cell_angle_alpha   90.00000000
_cell_angle_beta   90.00000000
_cell_angle_gamma   95.56415830
_symmetry_Int_Tables_number   1
_chemical_formula_structural   CaBO3
_chemical_formula_sum   'Ca4 B4 O12'
_cell_volume   265.84737096
_cell_formula_units_Z   4
loop_
 _symmetry_equiv_pos_site_id
 _symmetry_equiv_pos_as_xyz
  1  'x, y, z'
loop_
 _atom_site_type_symbol
 _atom_site_label
 _atom_site_symmetry_multiplicity
 _atom_site_fract_x
 _atom_site_fract_y
 _atom_site_fract_z
 _atom_site_occupancy
  Ca  Ca0  1  0.78499643  0.71321875  0.50380176  1
  Ca  Ca1  1  0.71500357  0.78678125  0.00380176  1
  Ca  Ca2  1  0.21500357  0.28678125  0.49619824  1
  Ca  Ca3  1  0.28499643  0.21321875  0.99619824  1
  B  B4  1  0.78073225  0.06841323  0.26128549  1
  B  B5  1  0.71926775  0.43158677  0.76128549  1
  B  B6  1  0.21926775  0.93158677  0.73871451  1
  B  B7  1  0.28073225  0.56841323  0.23871451  1
  O  O8  1  0.26078299  0.57352306  0.38242661  1
  O  O9  1  0.23921701  0.92647694  0.88242661  1
  O  O10  1  0.73921701  0.42647694  0.61757339  1
  O  O11  1  0.76078299  0.07352306  0.11757339  1
  O  O12  1  0.69613969  0.19674613  0.35452007  1
  O  O13  1  0.80386031  0.30325387  0.85452007  1
  O  O14  1  0.30386031  0.80325387  0.64547993  1
  O  O15  1  0.19613969  0.69674613  0.14547993  1
  O  O16  1  0.91084852  0.93575086  0.33771282  1
  O  O17  1  0.58915148  0.56424914  0.83771282  1
  O  O18  1  0.08915148  0.06424914  0.66228718  1
  O  O19  1  0.41084852  0.43575086  0.16228718  1
