# generated using pymatgen
data_Tb6Co2Sn
_symmetry_space_group_name_H-M   'P 1'
_cell_length_a   8.41675195
_cell_length_b   8.41675195
_cell_length_c   8.41675195
_cell_angle_alpha   106.90913387
_cell_angle_beta   109.35335235
_cell_angle_gamma   112.19451723
_symmetry_Int_Tables_number   1
_chemical_formula_structural   Tb6Co2Sn
_chemical_formula_sum   'Tb12 Co4 Sn2'
_cell_volume   458.01880493
_cell_formula_units_Z   2
loop_
 _symmetry_equiv_pos_site_id
 _symmetry_equiv_pos_as_xyz
  1  'x, y, z'
loop_
 _atom_site_type_symbol
 _atom_site_label
 _atom_site_symmetry_multiplicity
 _atom_site_fract_x
 _atom_site_fract_y
 _atom_site_fract_z
 _atom_site_occupancy
  Tb  Tb0  1  0.79072710  0.76679339  0.55752049  1
  Tb  Tb1  1  0.20927290  0.23320661  0.44247951  1
  Tb  Tb2  1  0.20927290  0.76679339  0.97606629  1
  Tb  Tb3  1  0.79072710  0.23320661  0.02393371  1
  Tb  Tb4  1  0.52809984  0.71388671  0.81421313  1
  Tb  Tb5  1  0.47190016  0.28611329  0.18578687  1
  Tb  Tb6  1  0.10032643  0.28611329  0.81421313  1
  Tb  Tb7  1  0.89967357  0.71388671  0.18578687  1
  Tb  Tb8  1  0.68855312  0.36573505  0.67718193  1
  Tb  Tb9  1  0.31144688  0.63426495  0.32281807  1
  Tb  Tb10  1  0.31144688  0.98862881  0.67718193  1
  Tb  Tb11  1  0.68855312  0.01137119  0.32281807  1
  Co  Co12  1  0.64822484  -0.00000000  0.64822484  1
  Co  Co13  1  0.35177516  0.00000000  0.35177516  1
  Co  Co14  1  0.50000000  0.38850910  0.88850910  1
  Co  Co15  1  0.50000000  0.61149090  0.11149090  1
  Sn  Sn16  1  -0.00000000  0.50000000  0.50000000  1
  Sn  Sn17  1  -0.00000000  -0.00000000  -0.00000000  1
