# generated using pymatgen
data_Tb3(Al3Os)4
_symmetry_space_group_name_H-M   'P 1'
_cell_length_a   8.85200687
_cell_length_b   8.85200687
_cell_length_c   9.57680547
_cell_angle_alpha   90.00000000
_cell_angle_beta   90.00000000
_cell_angle_gamma   119.99999586
_symmetry_Int_Tables_number   1
_chemical_formula_structural   Tb3(Al3Os)4
_chemical_formula_sum   'Tb6 Al24 Os8'
_cell_volume   649.88243625
_cell_formula_units_Z   2
loop_
 _symmetry_equiv_pos_site_id
 _symmetry_equiv_pos_as_xyz
  1  'x, y, z'
loop_
 _atom_site_type_symbol
 _atom_site_label
 _atom_site_symmetry_multiplicity
 _atom_site_fract_x
 _atom_site_fract_y
 _atom_site_fract_z
 _atom_site_occupancy
  Tb  Tb0  1  0.80690787  0.19309213  0.75000000  1
  Tb  Tb1  1  0.19309213  0.80690787  0.25000000  1
  Tb  Tb2  1  0.38618427  0.19309213  0.75000000  1
  Tb  Tb3  1  0.61381573  0.80690787  0.25000000  1
  Tb  Tb4  1  0.80690787  0.61381573  0.75000000  1
  Tb  Tb5  1  0.19309213  0.38618427  0.25000000  1
  Al  Al6  1  0.66666700  0.33333300  0.98566136  1
  Al  Al7  1  0.33333300  0.66666700  0.01433864  1
  Al  Al8  1  0.33333300  0.66666700  0.48566136  1
  Al  Al9  1  0.66666700  0.33333300  0.51433864  1
  Al  Al10  1  0.83730026  0.16269974  0.42428149  1
  Al  Al11  1  0.16269974  0.83730026  0.57571851  1
  Al  Al12  1  0.32539949  0.16269974  0.42428149  1
  Al  Al13  1  0.16269974  0.83730026  0.92428149  1
  Al  Al14  1  0.67460051  0.83730026  0.57571851  1
  Al  Al15  1  0.83730026  0.16269974  0.07571851  1
  Al  Al16  1  0.83730026  0.67460051  0.42428149  1
  Al  Al17  1  0.67460051  0.83730026  0.92428149  1
  Al  Al18  1  0.16269974  0.32539949  0.57571851  1
  Al  Al19  1  0.32539949  0.16269974  0.07571851  1
  Al  Al20  1  0.16269974  0.32539949  0.92428149  1
  Al  Al21  1  0.83730026  0.67460051  0.07571851  1
  Al  Al22  1  0.43968199  0.56031801  0.75000000  1
  Al  Al23  1  0.56031801  0.43968199  0.25000000  1
  Al  Al24  1  0.12063603  0.56031801  0.75000000  1
  Al  Al25  1  0.87936397  0.43968199  0.25000000  1
  Al  Al26  1  0.43968199  0.87936397  0.75000000  1
  Al  Al27  1  0.56031801  0.12063603  0.25000000  1
  Al  Al28  1  -0.00000000  -0.00000000  0.75000000  1
  Al  Al29  1  -0.00000000  -0.00000000  0.25000000  1
  Os  Os30  1  0.50000000  0.50000000  0.00000000  1
  Os  Os31  1  -0.00000000  0.50000000  0.00000000  1
  Os  Os32  1  0.50000000  0.50000000  0.50000000  1
  Os  Os33  1  0.50000000  -0.00000000  0.00000000  1
  Os  Os34  1  -0.00000000  0.50000000  0.50000000  1
  Os  Os35  1  0.50000000  -0.00000000  0.50000000  1
  Os  Os36  1  -0.00000000  -0.00000000  0.00000000  1
  Os  Os37  1  -0.00000000  -0.00000000  0.50000000  1
