# generated using pymatgen
data_Tb3Ge4
_symmetry_space_group_name_H-M   'P 1'
_cell_length_a   4.08976616
_cell_length_b   5.74966535
_cell_length_c   14.36228897
_cell_angle_alpha   90.00000000
_cell_angle_beta   90.00000000
_cell_angle_gamma   110.83344229
_symmetry_Int_Tables_number   1
_chemical_formula_structural   Tb3Ge4
_chemical_formula_sum   'Tb6 Ge8'
_cell_volume   315.64503481
_cell_formula_units_Z   2
loop_
 _symmetry_equiv_pos_site_id
 _symmetry_equiv_pos_as_xyz
  1  'x, y, z'
loop_
 _atom_site_type_symbol
 _atom_site_label
 _atom_site_symmetry_multiplicity
 _atom_site_fract_x
 _atom_site_fract_y
 _atom_site_fract_z
 _atom_site_occupancy
  Tb  Tb0  1  0.33200019  0.66400038  0.09684948  1
  Tb  Tb1  1  0.66799981  0.33599962  0.90315052  1
  Tb  Tb2  1  0.66799981  0.33599962  0.59684948  1
  Tb  Tb3  1  0.33200019  0.66400038  0.40315052  1
  Tb  Tb4  1  0.04801278  0.09602557  0.25000000  1
  Tb  Tb5  1  0.95198722  0.90397443  0.75000000  1
  Ge  Ge6  1  0.62138827  0.24277655  0.10866959  1
  Ge  Ge7  1  0.37861173  0.75722345  0.89133041  1
  Ge  Ge8  1  0.37861173  0.75722345  0.60866959  1
  Ge  Ge9  1  0.62138827  0.24277655  0.39133041  1
  Ge  Ge10  1  0.77582672  0.55165344  0.25000000  1
  Ge  Ge11  1  0.22417328  0.44834656  0.75000000  1
  Ge  Ge12  1  -0.00000000  -0.00000000  -0.00000000  1
  Ge  Ge13  1  -0.00000000  0.00000000  0.50000000  1
