# generated using pymatgen
data_Ta2CdO6
_symmetry_space_group_name_H-M   'P 1'
_cell_length_a   5.18161431
_cell_length_b   6.00252300
_cell_length_c   14.98623978
_cell_angle_alpha   90.00000000
_cell_angle_beta   90.00000000
_cell_angle_gamma   90.00000000
_symmetry_Int_Tables_number   1
_chemical_formula_structural   Ta2CdO6
_chemical_formula_sum   'Ta8 Cd4 O24'
_cell_volume   466.11340529
_cell_formula_units_Z   4
loop_
 _symmetry_equiv_pos_site_id
 _symmetry_equiv_pos_as_xyz
  1  'x, y, z'
loop_
 _atom_site_type_symbol
 _atom_site_label
 _atom_site_symmetry_multiplicity
 _atom_site_fract_x
 _atom_site_fract_y
 _atom_site_fract_z
 _atom_site_occupancy
  Ta  Ta0  1  0.75812315  0.67370301  0.66618025  1
  Ta  Ta1  1  0.24187685  0.32629699  0.33381975  1
  Ta  Ta2  1  0.25812315  0.82629699  0.83381975  1
  Ta  Ta3  1  0.74187685  0.67370301  0.33381975  1
  Ta  Ta4  1  0.74187685  0.17370301  0.16618025  1
  Ta  Ta5  1  0.25812315  0.32629699  0.66618025  1
  Ta  Ta6  1  0.24187685  0.82629699  0.16618025  1
  Ta  Ta7  1  0.75812315  0.17370301  0.83381975  1
  Cd  Cd8  1  0.75000000  0.68208018  0.00000000  1
  Cd  Cd9  1  0.25000000  0.31791982  -0.00000000  1
  Cd  Cd10  1  0.25000000  0.81791982  0.50000000  1
  Cd  Cd11  1  0.75000000  0.18208018  0.50000000  1
  O  O12  1  0.88639895  0.87554074  0.58671171  1
  O  O13  1  0.11360105  0.12445926  0.41328829  1
  O  O14  1  0.38639895  0.62445926  0.91328829  1
  O  O15  1  0.61360105  0.87554074  0.41328829  1
  O  O16  1  0.61360105  0.37554074  0.08671171  1
  O  O17  1  0.38639895  0.12445926  0.58671171  1
  O  O18  1  0.11360105  0.62445926  0.08671171  1
  O  O19  1  0.88639895  0.37554074  0.91328829  1
  O  O20  1  0.93864630  0.90862313  0.89459105  1
  O  O21  1  0.06135370  0.09137687  0.10540895  1
  O  O22  1  0.43864630  0.59137687  0.60540895  1
  O  O23  1  0.56135370  0.90862313  0.10540895  1
  O  O24  1  0.56135370  0.40862313  0.39459105  1
  O  O25  1  0.43864630  0.09137687  0.89459105  1
  O  O26  1  0.06135370  0.59137687  0.39459105  1
  O  O27  1  0.93864630  0.40862313  0.60540895  1
  O  O28  1  0.58055102  0.86746109  0.75447052  1
  O  O29  1  0.41944898  0.13253891  0.24552948  1
  O  O30  1  0.08055102  0.63253891  0.74552948  1
  O  O31  1  0.91944898  0.86746109  0.24552948  1
  O  O32  1  0.91944898  0.36746109  0.25447052  1
  O  O33  1  0.08055102  0.13253891  0.75447052  1
  O  O34  1  0.41944898  0.63253891  0.25447052  1
  O  O35  1  0.58055102  0.36746109  0.74552948  1
