# generated using pymatgen
data_Tb3(P3Pd10)2
_symmetry_space_group_name_H-M   'P 1'
_cell_length_a   8.70646570
_cell_length_b   8.70646570
_cell_length_c   8.70646570
_cell_angle_alpha   60.00000000
_cell_angle_beta   60.00000000
_cell_angle_gamma   60.00000000
_symmetry_Int_Tables_number   1
_chemical_formula_structural   Tb3(P3Pd10)2
_chemical_formula_sum   'Tb3 P6 Pd20'
_cell_volume   466.67085971
_cell_formula_units_Z   1
loop_
 _symmetry_equiv_pos_site_id
 _symmetry_equiv_pos_as_xyz
  1  'x, y, z'
loop_
 _atom_site_type_symbol
 _atom_site_label
 _atom_site_symmetry_multiplicity
 _atom_site_fract_x
 _atom_site_fract_y
 _atom_site_fract_z
 _atom_site_occupancy
  Tb  Tb0  1  0.75000000  0.75000000  0.75000000  1
  Tb  Tb1  1  0.25000000  0.25000000  0.25000000  1
  Tb  Tb2  1  -0.00000000  0.00000000  0.00000000  1
  P  P3  1  0.73672855  0.73672855  0.26327145  1
  P  P4  1  0.26327145  0.26327145  0.73672855  1
  P  P5  1  0.73672855  0.26327145  0.73672855  1
  P  P6  1  0.26327145  0.73672855  0.26327145  1
  P  P7  1  0.26327145  0.73672855  0.73672855  1
  P  P8  1  0.73672855  0.26327145  0.26327145  1
  Pd  Pd9  1  0.61525116  0.61525116  0.61525116  1
  Pd  Pd10  1  0.38474884  0.38474884  0.38474884  1
  Pd  Pd11  1  0.15424652  0.61525116  0.61525116  1
  Pd  Pd12  1  0.61525116  0.15424652  0.61525116  1
  Pd  Pd13  1  0.84575348  0.38474884  0.38474884  1
  Pd  Pd14  1  0.38474884  0.84575348  0.38474884  1
  Pd  Pd15  1  0.61525116  0.61525116  0.15424652  1
  Pd  Pd16  1  0.38474884  0.38474884  0.84575348  1
  Pd  Pd17  1  0.00000000  -0.00000000  0.65400656  1
  Pd  Pd18  1  -0.00000000  0.00000000  0.34599344  1
  Pd  Pd19  1  0.34599344  0.65400656  0.00000000  1
  Pd  Pd20  1  0.65400656  0.34599344  -0.00000000  1
  Pd  Pd21  1  0.00000000  0.65400656  -0.00000000  1
  Pd  Pd22  1  0.65400656  -0.00000000  0.34599344  1
  Pd  Pd23  1  -0.00000000  0.34599344  0.00000000  1
  Pd  Pd24  1  0.34599344  0.00000000  0.65400656  1
  Pd  Pd25  1  0.65400656  0.00000000  -0.00000000  1
  Pd  Pd26  1  0.34599344  -0.00000000  0.00000000  1
  Pd  Pd27  1  -0.00000000  0.65400656  0.34599344  1
  Pd  Pd28  1  0.00000000  0.34599344  0.65400656  1
