# generated using pymatgen
data_Tb2Be2SiO7
_symmetry_space_group_name_H-M   'P 1'
_cell_length_a   4.80198748
_cell_length_b   7.35644027
_cell_length_c   7.35644027
_cell_angle_alpha   90.00000000
_cell_angle_beta   90.00000000
_cell_angle_gamma   90.00000000
_symmetry_Int_Tables_number   1
_chemical_formula_structural   Tb2Be2SiO7
_chemical_formula_sum   'Tb4 Be4 Si2 O14'
_cell_volume   259.87018142
_cell_formula_units_Z   2
loop_
 _symmetry_equiv_pos_site_id
 _symmetry_equiv_pos_as_xyz
  1  'x, y, z'
loop_
 _atom_site_type_symbol
 _atom_site_label
 _atom_site_symmetry_multiplicity
 _atom_site_fract_x
 _atom_site_fract_y
 _atom_site_fract_z
 _atom_site_occupancy
  Tb  Tb0  1  0.50871270  0.15923497  0.65923497  1
  Tb  Tb1  1  0.50871270  0.84076503  0.34076503  1
  Tb  Tb2  1  0.49128730  0.65923497  0.84076503  1
  Tb  Tb3  1  0.49128730  0.34076503  0.15923497  1
  Be  Be4  1  0.95957869  0.63590393  0.13590393  1
  Be  Be5  1  0.95957869  0.36409607  0.86409607  1
  Be  Be6  1  0.04042131  0.13590393  0.36409607  1
  Be  Be7  1  0.04042131  0.86409607  0.63590393  1
  Si  Si8  1  -0.00000000  -0.00000000  -0.00000000  1
  Si  Si9  1  -0.00000000  0.50000000  0.50000000  1
  O  O10  1  0.18319165  -0.00000000  0.50000000  1
  O  O11  1  0.81680835  0.50000000  -0.00000000  1
  O  O12  1  0.28940431  0.64062906  0.14062906  1
  O  O13  1  0.28940431  0.35937094  0.85937094  1
  O  O14  1  0.71059569  0.14062906  0.35937094  1
  O  O15  1  0.71059569  0.85937094  0.64062906  1
  O  O16  1  0.19855402  0.08000178  0.16331731  1
  O  O17  1  0.19855402  0.91999822  0.83668269  1
  O  O18  1  0.80144598  0.16331731  0.91999822  1
  O  O19  1  0.80144598  0.41999822  0.66331731  1
  O  O20  1  0.80144598  0.83668269  0.08000178  1
  O  O21  1  0.80144598  0.58000178  0.33668269  1
  O  O22  1  0.19855402  0.33668269  0.41999822  1
  O  O23  1  0.19855402  0.66331731  0.58000178  1
