# generated using pymatgen
data_SrU(MoO4)4
_symmetry_space_group_name_H-M   'P 1'
_cell_length_a   6.84245283
_cell_length_b   8.64158809
_cell_length_c   11.68001033
_cell_angle_alpha   90.62216660
_cell_angle_beta   90.00000000
_cell_angle_gamma   90.00000000
_symmetry_Int_Tables_number   1
_chemical_formula_structural   SrU(MoO4)4
_chemical_formula_sum   'Sr2 U2 Mo8 O32'
_cell_volume   690.59430908
_cell_formula_units_Z   2
loop_
 _symmetry_equiv_pos_site_id
 _symmetry_equiv_pos_as_xyz
  1  'x, y, z'
loop_
 _atom_site_type_symbol
 _atom_site_label
 _atom_site_symmetry_multiplicity
 _atom_site_fract_x
 _atom_site_fract_y
 _atom_site_fract_z
 _atom_site_occupancy
  Sr  Sr0  1  0.69570939  0.25000000  0.75000000  1
  Sr  Sr1  1  0.30429061  0.75000000  0.25000000  1
  U  U2  1  0.69658618  0.75000000  0.75000000  1
  U  U3  1  0.30341382  0.25000000  0.25000000  1
  Mo  Mo4  1  0.16481925  0.20226904  0.90553181  1
  Mo  Mo5  1  0.83518075  0.79773096  0.09446819  1
  Mo  Mo6  1  0.16481925  0.29773096  0.59446819  1
  Mo  Mo7  1  0.83518075  0.70226904  0.40553181  1
  Mo  Mo8  1  0.16504229  0.79746472  0.59577736  1
  Mo  Mo9  1  0.83495771  0.20253528  0.40422264  1
  Mo  Mo10  1  0.16504229  0.70253528  0.90422264  1
  Mo  Mo11  1  0.83495771  0.29746472  0.09577736  1
  O  O12  1  0.15023856  0.25352118  0.06937488  1
  O  O13  1  0.84976144  0.74647882  0.93062512  1
  O  O14  1  0.15023856  0.24647882  0.43062512  1
  O  O15  1  0.84976144  0.75352118  0.56937488  1
  O  O16  1  0.05732131  0.75000000  0.75000000  1
  O  O17  1  0.94267869  0.25000000  0.25000000  1
  O  O18  1  0.07217736  0.25000000  0.75000000  1
  O  O19  1  0.92782264  0.75000000  0.25000000  1
  O  O20  1  0.15589708  0.99796322  0.59797004  1
  O  O21  1  0.84410292  0.00203678  0.40202996  1
  O  O22  1  0.15589708  0.50203678  0.90202996  1
  O  O23  1  0.84410292  0.49796322  0.09797004  1
  O  O24  1  0.14168248  0.75039687  0.44113809  1
  O  O25  1  0.85831752  0.24960313  0.55886191  1
  O  O26  1  0.14168248  0.74960313  0.05886191  1
  O  O27  1  0.85831752  0.25039687  0.94113809  1
  O  O28  1  0.41661844  0.75861725  0.63042638  1
  O  O29  1  0.58338156  0.24138275  0.36957362  1
  O  O30  1  0.41661844  0.74138275  0.86957362  1
  O  O31  1  0.58338156  0.25861725  0.13042638  1
  O  O32  1  0.41171744  0.23892944  0.88105092  1
  O  O33  1  0.58828256  0.76107056  0.11894908  1
  O  O34  1  0.41171744  0.26107056  0.61894908  1
  O  O35  1  0.58828256  0.73892944  0.38105092  1
  O  O36  1  0.70074707  0.96105197  0.75373453  1
  O  O37  1  0.29925293  0.03894803  0.24626547  1
  O  O38  1  0.70074707  0.53894803  0.74626547  1
  O  O39  1  0.29925293  0.46105197  0.25373453  1
  O  O40  1  0.15135518  0.00115340  0.90333276  1
  O  O41  1  0.84864482  0.99884660  0.09666724  1
  O  O42  1  0.15135518  0.49884660  0.59666724  1
  O  O43  1  0.84864482  0.50115340  0.40333276  1
