# generated using pymatgen
data_Ta3Te4ClO15
_symmetry_space_group_name_H-M   'P 1'
_cell_length_a   7.82672596
_cell_length_b   10.42312462
_cell_length_c   19.66989024
_cell_angle_alpha   85.77361286
_cell_angle_beta   78.52432023
_cell_angle_gamma   67.94786421
_symmetry_Int_Tables_number   1
_chemical_formula_structural   Ta3Te4ClO15
_chemical_formula_sum   'Ta12 Te16 Cl4 O60'
_cell_volume   1457.52458955
_cell_formula_units_Z   4
loop_
 _symmetry_equiv_pos_site_id
 _symmetry_equiv_pos_as_xyz
  1  'x, y, z'
loop_
 _atom_site_type_symbol
 _atom_site_label
 _atom_site_symmetry_multiplicity
 _atom_site_fract_x
 _atom_site_fract_y
 _atom_site_fract_z
 _atom_site_occupancy
  Ta  Ta0  1  0.75791480  0.74548776  0.49034969  1
  Ta  Ta1  1  0.24208520  0.25451224  0.50965031  1
  Ta  Ta2  1  0.99375225  0.75451224  0.00965031  1
  Ta  Ta3  1  0.00624775  0.24548776  0.99034969  1
  Ta  Ta4  1  0.50254380  0.74838166  0.00608393  1
  Ta  Ta5  1  0.49745620  0.25161834  0.99391607  1
  Ta  Ta6  1  0.25700939  0.75161834  0.49391607  1
  Ta  Ta7  1  0.74299061  0.24838166  0.50608393  1
  Ta  Ta8  1  0.60702905  0.25880552  0.25282533  1
  Ta  Ta9  1  0.39297095  0.74119448  0.74717467  1
  Ta  Ta10  1  0.11865989  0.24119448  0.24717467  1
  Ta  Ta11  1  0.88134011  0.75880552  0.75282533  1
  Te  Te12  1  0.14081566  0.96589320  0.12472597  1
  Te  Te13  1  0.85918434  0.03410680  0.87527403  1
  Te  Te14  1  0.23143484  0.53410680  0.37527403  1
  Te  Te15  1  0.76856516  0.46589320  0.62472597  1
  Te  Te16  1  0.50991061  0.99861952  0.36348191  1
  Te  Te17  1  0.49008939  0.00138048  0.63651809  1
  Te  Te18  1  0.87201204  0.50138048  0.13651809  1
  Te  Te19  1  0.12798796  0.49861952  0.86348191  1
  Te  Te20  1  0.62564232  0.99723520  0.14380620  1
  Te  Te21  1  0.37435768  0.00276480  0.85619380  1
  Te  Te22  1  0.76668371  0.50276480  0.35619380  1
  Te  Te23  1  0.23331629  0.49723520  0.64380620  1
  Te  Te24  1  0.36066751  0.53456216  0.12920186  1
  Te  Te25  1  0.63933249  0.46543784  0.87079814  1
  Te  Te26  1  0.02443152  0.96543784  0.37079814  1
  Te  Te27  1  0.97556848  0.03456216  0.62920186  1
  Cl  Cl28  1  0.29040513  0.75000000  0.25000000  1
  Cl  Cl29  1  0.70959487  0.25000000  0.75000000  1
  Cl  Cl30  1  0.78786694  0.75000000  0.25000000  1
  Cl  Cl31  1  0.21213306  0.25000000  0.75000000  1
  O  O32  1  0.74177968  0.10194706  0.18231098  1
  O  O33  1  0.25822032  0.89805294  0.81768902  1
  O  O34  1  0.02603772  0.39805294  0.31768902  1
  O  O35  1  0.97396228  0.60194706  0.68231098  1
  O  O36  1  0.50349964  0.25253634  0.50396048  1
  O  O37  1  0.49650036  0.74746366  0.49603952  1
  O  O38  1  0.25999646  0.24746366  0.99603952  1
  O  O39  1  0.74000354  0.75253634  0.00396048  1
  O  O40  1  0.66858448  0.86820421  0.57059525  1
  O  O41  1  0.33141552  0.13179579  0.42940475  1
  O  O42  1  0.10738394  0.63179579  0.92940475  1
  O  O43  1  0.89261606  0.36820421  0.07059525  1
  O  O44  1  0.37331666  0.21007640  0.24726352  1
  O  O45  1  0.62668334  0.78992360  0.75273648  1
  O  O46  1  0.83065657  0.28992360  0.25273648  1
  O  O47  1  0.16934343  0.71007640  0.74726352  1
  O  O48  1  0.83164060  0.61821016  0.40739855  1
  O  O49  1  0.16835940  0.38178984  0.59260145  1
  O  O50  1  0.85724931  0.88178984  0.09260145  1
  O  O51  1  0.14275069  0.11821016  0.90739855  1
  O  O52  1  0.39777090  0.90550835  0.07853468  1
  O  O53  1  0.60222910  0.09449165  0.92146532  1
  O  O54  1  0.38181392  0.59449165  0.42146532  1
  O  O55  1  0.61818608  0.40550835  0.57853468  1
  O  O56  1  0.81674426  0.58512571  0.55127209  1
  O  O57  1  0.18325574  0.41487429  0.44872791  1
  O  O58  1  0.95314206  0.91487429  0.94872791  1
  O  O59  1  0.04685794  0.08512571  0.05127209  1
  O  O60  1  0.22504672  0.75069366  0.03493206  1
  O  O61  1  0.77495328  0.24930634  0.96506794  1
  O  O62  1  0.01067244  0.74930634  0.46506794  1
  O  O63  1  0.98932756  0.25069366  0.53493206  1
  O  O64  1  0.65629139  0.11041366  0.32694881  1
  O  O65  1  0.34370861  0.88958634  0.67305119  1
  O  O66  1  0.09365386  0.38958634  0.17305119  1
  O  O67  1  0.90634614  0.61041366  0.82694881  1
  O  O68  1  0.42430510  0.41076704  0.05404686  1
  O  O69  1  0.57569490  0.58923296  0.94595314  1
  O  O70  1  0.88911899  0.08923296  0.44595314  1
  O  O71  1  0.11088101  0.91076704  0.55404686  1
  O  O72  1  0.45284516  0.39543613  0.32609480  1
  O  O73  1  0.54715484  0.60456387  0.67390520  1
  O  O74  1  0.17437609  0.10456387  0.17390520  1
  O  O75  1  0.82562391  0.89543613  0.82609480  1
  O  O76  1  0.54352688  0.61323581  0.08947807  1
  O  O77  1  0.45647312  0.38676419  0.91052193  1
  O  O78  1  0.24624076  0.88676419  0.41052193  1
  O  O79  1  0.75375924  0.11323581  0.58947807  1
  O  O80  1  0.52998302  0.40172206  0.18129689  1
  O  O81  1  0.47001698  0.59827794  0.81870311  1
  O  O82  1  0.11300197  0.09827794  0.31870311  1
  O  O83  1  0.88699803  0.90172206  0.68129689  1
  O  O84  1  0.56576533  0.12502427  0.06997993  1
  O  O85  1  0.43423467  0.87497573  0.93002007  1
  O  O86  1  0.76076952  0.37497573  0.43002007  1
  O  O87  1  0.23923048  0.62502427  0.56997993  1
  O  O88  1  0.67756928  0.90824128  0.42421884  1
  O  O89  1  0.32243072  0.09175872  0.57578116  1
  O  O90  1  0.01002940  0.59175872  0.07578116  1
  O  O91  1  0.98997060  0.40824128  0.92421884  1
