# generated using pymatgen
data_U2Si7Ru12
_symmetry_space_group_name_H-M   'P 1'
_cell_length_a   4.01307629
_cell_length_b   11.28264501
_cell_length_c   26.43350097
_cell_angle_alpha   90.00000000
_cell_angle_beta   90.00000000
_cell_angle_gamma   90.00000000
_symmetry_Int_Tables_number   1
_chemical_formula_structural   U2Si7Ru12
_chemical_formula_sum   'U8 Si28 Ru48'
_cell_volume   1196.85910148
_cell_formula_units_Z   4
loop_
 _symmetry_equiv_pos_site_id
 _symmetry_equiv_pos_as_xyz
  1  'x, y, z'
loop_
 _atom_site_type_symbol
 _atom_site_label
 _atom_site_symmetry_multiplicity
 _atom_site_fract_x
 _atom_site_fract_y
 _atom_site_fract_z
 _atom_site_occupancy
  U  U0  1  0.75000000  0.70640750  0.28785680  1
  U  U1  1  0.25000000  0.29359250  0.71214320  1
  U  U2  1  0.25000000  0.79359250  0.78785680  1
  U  U3  1  0.75000000  0.20640750  0.21214320  1
  U  U4  1  0.75000000  0.66416175  0.06442526  1
  U  U5  1  0.25000000  0.33583825  0.93557474  1
  U  U6  1  0.25000000  0.83583825  0.56442526  1
  U  U7  1  0.75000000  0.16416175  0.43557474  1
  Si  Si8  1  0.75000000  0.43371228  0.36712892  1
  Si  Si9  1  0.25000000  0.56628772  0.63287108  1
  Si  Si10  1  0.25000000  0.06628772  0.86712892  1
  Si  Si11  1  0.75000000  0.93371228  0.13287108  1
  Si  Si12  1  0.75000000  0.67351560  0.70930097  1
  Si  Si13  1  0.25000000  0.32648440  0.29069903  1
  Si  Si14  1  0.25000000  0.82648440  0.20930097  1
  Si  Si15  1  0.75000000  0.17351560  0.79069903  1
  Si  Si16  1  0.75000000  0.76204399  0.86872971  1
  Si  Si17  1  0.25000000  0.23795601  0.13127029  1
  Si  Si18  1  0.25000000  0.73795601  0.36872971  1
  Si  Si19  1  0.75000000  0.26204399  0.63127029  1
  Si  Si20  1  0.75000000  0.96739504  0.93468375  1
  Si  Si21  1  0.25000000  0.03260496  0.06531625  1
  Si  Si22  1  0.25000000  0.53260496  0.43468375  1
  Si  Si23  1  0.75000000  0.46739504  0.56531625  1
  Si  Si24  1  0.75000000  0.68361111  0.50120539  1
  Si  Si25  1  0.25000000  0.31638889  0.49879461  1
  Si  Si26  1  0.25000000  0.81638889  0.00120539  1
  Si  Si27  1  0.75000000  0.18361111  0.99879461  1
  Si  Si28  1  0.75000000  0.54482239  0.93981060  1
  Si  Si29  1  0.25000000  0.45517761  0.06018940  1
  Si  Si30  1  0.25000000  0.95517761  0.43981060  1
  Si  Si31  1  0.75000000  0.04482239  0.56018940  1
  Si  Si32  1  0.75000000  0.51518943  0.18364971  1
  Si  Si33  1  0.25000000  0.48481057  0.81635029  1
  Si  Si34  1  0.25000000  0.98481057  0.68364971  1
  Si  Si35  1  0.75000000  0.01518943  0.31635029  1
  Ru  Ru36  1  0.75000000  0.96436791  0.83433182  1
  Ru  Ru37  1  0.25000000  0.03563209  0.16566818  1
  Ru  Ru38  1  0.25000000  0.53563209  0.33433182  1
  Ru  Ru39  1  0.75000000  0.46436791  0.66566818  1
  Ru  Ru40  1  0.75000000  0.74753862  0.95802233  1
  Ru  Ru41  1  0.25000000  0.25246138  0.04197767  1
  Ru  Ru42  1  0.25000000  0.75246138  0.45802233  1
  Ru  Ru43  1  0.75000000  0.24753862  0.54197767  1
  Ru  Ru44  1  0.75000000  0.91986068  0.63120834  1
  Ru  Ru45  1  0.25000000  0.08013932  0.36879166  1
  Ru  Ru46  1  0.25000000  0.58013932  0.13120834  1
  Ru  Ru47  1  0.75000000  0.41986068  0.86879166  1
  Ru  Ru48  1  0.75000000  0.90752219  0.49249382  1
  Ru  Ru49  1  0.25000000  0.09247781  0.50750618  1
  Ru  Ru50  1  0.25000000  0.59247781  0.99249382  1
  Ru  Ru51  1  0.75000000  0.40752219  0.00750618  1
  Ru  Ru52  1  0.75000000  0.61901095  0.80390457  1
  Ru  Ru53  1  0.25000000  0.38098905  0.19609543  1
  Ru  Ru54  1  0.25000000  0.88098905  0.30390457  1
  Ru  Ru55  1  0.75000000  0.11901095  0.69609543  1
  Ru  Ru56  1  0.75000000  0.72994516  0.17150480  1
  Ru  Ru57  1  0.25000000  0.27005484  0.82849520  1
  Ru  Ru58  1  0.25000000  0.77005484  0.67150480  1
  Ru  Ru59  1  0.75000000  0.22994516  0.32849520  1
  Ru  Ru60  1  0.75000000  0.94522553  0.22976194  1
  Ru  Ru61  1  0.25000000  0.05477447  0.77023806  1
  Ru  Ru62  1  0.25000000  0.55477447  0.72976194  1
  Ru  Ru63  1  0.75000000  0.44522553  0.27023806  1
  Ru  Ru64  1  0.75000000  0.89142149  0.73519215  1
  Ru  Ru65  1  0.25000000  0.10857851  0.26480785  1
  Ru  Ru66  1  0.25000000  0.60857851  0.23519215  1
  Ru  Ru67  1  0.75000000  0.39142149  0.76480785  1
  Ru  Ru68  1  0.75000000  0.87993526  0.38777368  1
  Ru  Ru69  1  0.25000000  0.12006474  0.61222632  1
  Ru  Ru70  1  0.25000000  0.62006474  0.88777368  1
  Ru  Ru71  1  0.75000000  0.37993526  0.11222632  1
  Ru  Ru72  1  0.75000000  0.43032884  0.46763061  1
  Ru  Ru73  1  0.25000000  0.56967116  0.53236939  1
  Ru  Ru74  1  0.25000000  0.06967116  0.96763061  1
  Ru  Ru75  1  0.75000000  0.93032884  0.03236939  1
  Ru  Ru76  1  0.75000000  0.68055177  0.60280278  1
  Ru  Ru77  1  0.25000000  0.31944823  0.39719722  1
  Ru  Ru78  1  0.25000000  0.81944823  0.10280278  1
  Ru  Ru79  1  0.75000000  0.18055177  0.89719722  1
  Ru  Ru80  1  0.75000000  0.63185609  0.40343608  1
  Ru  Ru81  1  0.25000000  0.36814391  0.59656392  1
  Ru  Ru82  1  0.25000000  0.86814391  0.90343608  1
  Ru  Ru83  1  0.75000000  0.13185609  0.09656392  1
