# generated using pymatgen
data_SrUI6
_symmetry_space_group_name_H-M   'P 1'
_cell_length_a   8.10149868
_cell_length_b   8.10149868
_cell_length_c   15.32603955
_cell_angle_alpha   95.86200923
_cell_angle_beta   95.86200923
_cell_angle_gamma   119.43775002
_symmetry_Int_Tables_number   1
_chemical_formula_structural   SrUI6
_chemical_formula_sum   'Sr2 U2 I12'
_cell_volume   857.88217120
_cell_formula_units_Z   2
loop_
 _symmetry_equiv_pos_site_id
 _symmetry_equiv_pos_as_xyz
  1  'x, y, z'
loop_
 _atom_site_type_symbol
 _atom_site_label
 _atom_site_symmetry_multiplicity
 _atom_site_fract_x
 _atom_site_fract_y
 _atom_site_fract_z
 _atom_site_occupancy
  Sr  Sr0  1  0.45266675  0.28389971  0.63281311  1
  Sr  Sr1  1  0.28389971  0.45266675  0.13281311  1
  U  U2  1  0.78896116  0.95245329  0.63381225  1
  U  U3  1  0.95245329  0.78896116  0.13381225  1
  I  I4  1  0.68815830  0.83032644  0.24941509  1
  I  I5  1  0.83032644  0.68815830  0.74941509  1
  I  I6  1  0.60341160  0.44641138  0.01359558  1
  I  I7  1  0.44641138  0.60341160  0.51359558  1
  I  I8  1  0.53935738  0.00790835  0.75439114  1
  I  I9  1  0.00790835  0.53935738  0.25439114  1
  I  I10  1  0.73868442  0.20643049  0.51354417  1
  I  I11  1  0.20643049  0.73868442  0.01354417  1
  I  I12  1  0.14199876  0.29349824  0.75386716  1
  I  I13  1  0.29349824  0.14199876  0.25386716  1
  I  I14  1  0.91401149  0.05182226  0.01656150  1
  I  I15  1  0.05182226  0.91401149  0.51656150  1
