# generated using pymatgen
data_SmTeAs
_symmetry_space_group_name_H-M   'P 1'
_cell_length_a   4.11909907
_cell_length_b   7.66654984
_cell_length_c   10.15277848
_cell_angle_alpha   90.00000000
_cell_angle_beta   90.00000000
_cell_angle_gamma   90.00000000
_symmetry_Int_Tables_number   1
_chemical_formula_structural   SmTeAs
_chemical_formula_sum   'Sm4 Te4 As4'
_cell_volume   320.61741730
_cell_formula_units_Z   4
loop_
 _symmetry_equiv_pos_site_id
 _symmetry_equiv_pos_as_xyz
  1  'x, y, z'
loop_
 _atom_site_type_symbol
 _atom_site_label
 _atom_site_symmetry_multiplicity
 _atom_site_fract_x
 _atom_site_fract_y
 _atom_site_fract_z
 _atom_site_occupancy
  Sm  Sm0  1  0.75000000  0.77177910  0.65809760  1
  Sm  Sm1  1  0.25000000  0.22822090  0.34190240  1
  Sm  Sm2  1  0.25000000  0.72822090  0.15809760  1
  Sm  Sm3  1  0.75000000  0.27177910  0.84190240  1
  Te  Te4  1  0.75000000  0.91135592  0.35146072  1
  Te  Te5  1  0.25000000  0.08864408  0.64853928  1
  Te  Te6  1  0.25000000  0.58864408  0.85146072  1
  Te  Te7  1  0.75000000  0.41135592  0.14853928  1
  As  As8  1  0.75000000  0.90539229  0.96088315  1
  As  As9  1  0.25000000  0.09460771  0.03911685  1
  As  As10  1  0.25000000  0.59460771  0.46088315  1
  As  As11  1  0.75000000  0.40539229  0.53911685  1
