# generated using pymatgen
data_V6Si5
_symmetry_space_group_name_H-M   'P 1'
_cell_length_a   4.93361032
_cell_length_b   8.04813365
_cell_length_c   8.81530005
_cell_angle_alpha   117.16062646
_cell_angle_beta   106.25019029
_cell_angle_gamma   90.00000000
_symmetry_Int_Tables_number   1
_chemical_formula_structural   V6Si5
_chemical_formula_sum   'V12 Si10'
_cell_volume   295.62248915
_cell_formula_units_Z   2
loop_
 _symmetry_equiv_pos_site_id
 _symmetry_equiv_pos_as_xyz
  1  'x, y, z'
loop_
 _atom_site_type_symbol
 _atom_site_label
 _atom_site_symmetry_multiplicity
 _atom_site_fract_x
 _atom_site_fract_y
 _atom_site_fract_z
 _atom_site_occupancy
  V  V0  1  0.65122341  0.65122341  0.30244681  1
  V  V1  1  0.34877659  0.34877659  0.69755319  1
  V  V2  1  0.75319521  1.00000000  1.00000000  1
  V  V3  1  0.24680479  0.00000000  0.00000000  1
  V  V4  1  -0.00000000  0.50000000  0.50000000  1
  V  V5  1  0.50000000  -0.00000000  0.50000000  1
  V  V6  1  -0.00000000  -0.00000000  0.50000000  1
  V  V7  1  0.50000000  0.50000000  0.50000000  1
  V  V8  1  0.91265479  0.63290685  0.82530958  1
  V  V9  1  0.91265479  0.19240272  0.82530958  1
  V  V10  1  0.08734521  0.80759728  0.17469042  1
  V  V11  1  0.08734521  0.36709315  0.17469042  1
  Si  Si12  1  0.83264295  0.83264295  0.66528590  1
  Si  Si13  1  0.16735705  0.16735705  0.33471410  1
  Si  Si14  1  0.78754510  0.28754510  0.57509021  1
  Si  Si15  1  0.21245490  0.71245490  0.42490979  1
  Si  Si16  1  0.74222161  0.50000000  1.00000000  1
  Si  Si17  1  0.25777839  0.50000000  0.00000000  1
  Si  Si18  1  0.60506342  0.29630733  0.21012683  1
  Si  Si19  1  0.60506342  0.91381951  0.21012683  1
  Si  Si20  1  0.39493658  0.08618049  0.78987317  1
  Si  Si21  1  0.39493658  0.70369267  0.78987317  1
