# generated using pymatgen
data_Sm6Ni20As13
_symmetry_space_group_name_H-M   'P 1'
_cell_length_a   3.94837927
_cell_length_b   13.22950215
_cell_length_c   13.22950215
_cell_angle_alpha   119.99999555
_cell_angle_beta   90.00000000
_cell_angle_gamma   90.00000000
_symmetry_Int_Tables_number   1
_chemical_formula_structural   Sm6Ni20As13
_chemical_formula_sum   'Sm6 Ni20 As13'
_cell_volume   598.46191331
_cell_formula_units_Z   1
loop_
 _symmetry_equiv_pos_site_id
 _symmetry_equiv_pos_as_xyz
  1  'x, y, z'
loop_
 _atom_site_type_symbol
 _atom_site_label
 _atom_site_symmetry_multiplicity
 _atom_site_fract_x
 _atom_site_fract_y
 _atom_site_fract_z
 _atom_site_occupancy
  Sm  Sm0  1  0.00000000  0.53136216  0.81346731  1
  Sm  Sm1  1  0.00000000  0.28210515  0.46863784  1
  Sm  Sm2  1  -0.00000000  0.18653269  0.71789485  1
  Sm  Sm3  1  0.50000000  0.81216290  0.27973828  1
  Sm  Sm4  1  0.50000000  0.46757538  0.18783710  1
  Sm  Sm5  1  0.50000000  0.72026172  0.53242462  1
  Ni  Ni6  1  0.00000000  0.80202096  0.91120976  1
  Ni  Ni7  1  -0.00000000  0.10918880  0.19797904  1
  Ni  Ni8  1  -0.00000000  0.08879024  0.89081120  1
  Ni  Ni9  1  0.50000000  0.33333300  0.66666700  1
  Ni  Ni10  1  0.50000000  0.93368380  0.07621670  1
  Ni  Ni11  1  0.50000000  0.14253290  0.06631620  1
  Ni  Ni12  1  0.50000000  0.92378330  0.85746710  1
  Ni  Ni13  1  -0.00000000  0.66666700  0.33333300  1
  Ni  Ni14  1  0.00000000  0.56168641  0.58435536  1
  Ni  Ni15  1  0.00000000  0.02266895  0.43831359  1
  Ni  Ni16  1  -0.00000000  0.41564464  0.97733105  1
  Ni  Ni17  1  0.50000000  0.68860070  0.75802269  1
  Ni  Ni18  1  0.50000000  0.06942199  0.31139930  1
  Ni  Ni19  1  0.50000000  0.24197731  0.93057801  1
  Ni  Ni20  1  0.50000000  0.97664385  0.56291195  1
  Ni  Ni21  1  0.50000000  0.58626810  0.02335615  1
  Ni  Ni22  1  0.50000000  0.43708805  0.41373190  1
  Ni  Ni23  1  0.00000000  0.75609039  0.07604334  1
  Ni  Ni24  1  -0.00000000  0.31995294  0.24390961  1
  Ni  Ni25  1  0.00000000  0.92395666  0.68004706  1
  As  As26  1  0.50000000  0.47836966  0.61503305  1
  As  As27  1  0.50000000  0.13666339  0.52163034  1
  As  As28  1  0.50000000  0.38496695  0.86333661  1
  As  As29  1  0.50000000  0.72317201  0.95678790  1
  As  As30  1  0.50000000  0.23361589  0.27682799  1
  As  As31  1  0.50000000  0.04321210  0.76638411  1
  As  As32  1  -0.00000000  0.86282891  0.47611487  1
  As  As33  1  0.00000000  0.61328596  0.13717109  1
  As  As34  1  -0.00000000  0.52388513  0.38671404  1
  As  As35  1  0.00000000  0.95273279  0.23289651  1
  As  As36  1  0.00000000  0.28016372  0.04726721  1
  As  As37  1  -0.00000000  0.76710349  0.71983628  1
  As  As38  1  -0.00000000  0.00000000  0.00000000  1
