# generated using pymatgen
data_Sc2MnB2Ir5
_symmetry_space_group_name_H-M   'P 1'
_cell_length_a   3.06262437
_cell_length_b   9.42529364
_cell_length_c   9.42529364
_cell_angle_alpha   90.00000000
_cell_angle_beta   90.00000000
_cell_angle_gamma   90.00000000
_symmetry_Int_Tables_number   1
_chemical_formula_structural   Sc2MnB2Ir5
_chemical_formula_sum   'Sc4 Mn2 B4 Ir10'
_cell_volume   272.07178917
_cell_formula_units_Z   2
loop_
 _symmetry_equiv_pos_site_id
 _symmetry_equiv_pos_as_xyz
  1  'x, y, z'
loop_
 _atom_site_type_symbol
 _atom_site_label
 _atom_site_symmetry_multiplicity
 _atom_site_fract_x
 _atom_site_fract_y
 _atom_site_fract_z
 _atom_site_occupancy
  Sc  Sc0  1  0.00000000  0.17561892  0.67561892  1
  Sc  Sc1  1  -0.00000000  0.82438108  0.32438108  1
  Sc  Sc2  1  -0.00000000  0.32438108  0.17561892  1
  Sc  Sc3  1  0.00000000  0.67561892  0.82438108  1
  Mn  Mn4  1  0.00000000  -0.00000000  -0.00000000  1
  Mn  Mn5  1  -0.00000000  0.50000000  0.50000000  1
  B  B6  1  0.00000000  0.62528269  0.12528269  1
  B  B7  1  -0.00000000  0.37471731  0.87471731  1
  B  B8  1  -0.00000000  0.87471731  0.62528269  1
  B  B9  1  0.00000000  0.12528269  0.37471731  1
  Ir  Ir10  1  0.50000000  0.07076311  0.21637035  1
  Ir  Ir11  1  0.50000000  0.92923689  0.78362965  1
  Ir  Ir12  1  0.50000000  0.78362965  0.07076311  1
  Ir  Ir13  1  0.50000000  0.42923689  0.71637035  1
  Ir  Ir14  1  0.50000000  0.21637035  0.92923689  1
  Ir  Ir15  1  0.50000000  0.57076311  0.28362965  1
  Ir  Ir16  1  0.50000000  0.71637035  0.57076311  1
  Ir  Ir17  1  0.50000000  0.28362965  0.42923689  1
  Ir  Ir18  1  0.50000000  0.00000000  0.50000000  1
  Ir  Ir19  1  0.50000000  0.50000000  -0.00000000  1
