# generated using pymatgen
data_Sm3(GeRh)2
_symmetry_space_group_name_H-M   'P 1'
_cell_length_a   5.65131909
_cell_length_b   8.06831046
_cell_length_c   13.39160814
_cell_angle_alpha   90.00000000
_cell_angle_beta   90.00000000
_cell_angle_gamma   90.00000000
_symmetry_Int_Tables_number   1
_chemical_formula_structural   Sm3(GeRh)2
_chemical_formula_sum   'Sm12 Ge8 Rh8'
_cell_volume   610.61175856
_cell_formula_units_Z   4
loop_
 _symmetry_equiv_pos_site_id
 _symmetry_equiv_pos_as_xyz
  1  'x, y, z'
loop_
 _atom_site_type_symbol
 _atom_site_label
 _atom_site_symmetry_multiplicity
 _atom_site_fract_x
 _atom_site_fract_y
 _atom_site_fract_z
 _atom_site_occupancy
  Sm  Sm0  1  0.14374538  0.39853354  0.10117079  1
  Sm  Sm1  1  0.85625462  0.60146646  0.89882921  1
  Sm  Sm2  1  0.85625462  0.60146646  0.60117079  1
  Sm  Sm3  1  0.85625462  0.89853354  0.39882921  1
  Sm  Sm4  1  0.14374538  0.39853354  0.39882921  1
  Sm  Sm5  1  0.14374538  0.10146646  0.60117079  1
  Sm  Sm6  1  0.14374538  0.10146646  0.89882921  1
  Sm  Sm7  1  0.85625462  0.89853354  0.10117079  1
  Sm  Sm8  1  0.63541326  0.25908349  0.25000000  1
  Sm  Sm9  1  0.36458674  0.74091651  0.75000000  1
  Sm  Sm10  1  0.36458674  0.75908349  0.25000000  1
  Sm  Sm11  1  0.63541326  0.24091651  0.75000000  1
  Ge  Ge12  1  0.14196351  0.11323213  0.25000000  1
  Ge  Ge13  1  0.85803649  0.88676787  0.75000000  1
  Ge  Ge14  1  0.85803649  0.61323213  0.25000000  1
  Ge  Ge15  1  0.14196351  0.38676787  0.75000000  1
  Ge  Ge16  1  0.63885407  0.25000000  0.00000000  1
  Ge  Ge17  1  0.36114593  0.75000000  0.00000000  1
  Ge  Ge18  1  0.36114593  0.75000000  0.50000000  1
  Ge  Ge19  1  0.63885407  0.25000000  0.50000000  1
  Rh  Rh20  1  0.37074363  0.03518730  0.09225097  1
  Rh  Rh21  1  0.62925637  0.96481270  0.90774903  1
  Rh  Rh22  1  0.62925637  0.96481270  0.59225097  1
  Rh  Rh23  1  0.62925637  0.53518730  0.40774903  1
  Rh  Rh24  1  0.37074363  0.03518730  0.40774903  1
  Rh  Rh25  1  0.37074363  0.46481270  0.59225097  1
  Rh  Rh26  1  0.37074363  0.46481270  0.90774903  1
  Rh  Rh27  1  0.62925637  0.53518730  0.09225097  1
