# generated using pymatgen
data_RbHoBeF6
_symmetry_space_group_name_H-M   'P 1'
_cell_length_a   5.87658338
_cell_length_b   6.54384500
_cell_length_c   7.19372446
_cell_angle_alpha   113.51961755
_cell_angle_beta   90.00000000
_cell_angle_gamma   90.00000000
_symmetry_Int_Tables_number   1
_chemical_formula_structural   RbHoBeF6
_chemical_formula_sum   'Rb2 Ho2 Be2 F12'
_cell_volume   253.65580494
_cell_formula_units_Z   2
loop_
 _symmetry_equiv_pos_site_id
 _symmetry_equiv_pos_as_xyz
  1  'x, y, z'
loop_
 _atom_site_type_symbol
 _atom_site_label
 _atom_site_symmetry_multiplicity
 _atom_site_fract_x
 _atom_site_fract_y
 _atom_site_fract_z
 _atom_site_occupancy
  Rb  Rb0  1  0.75000000  0.07637851  0.20974921  1
  Rb  Rb1  1  0.25000000  0.92362149  0.79025079  1
  Ho  Ho2  1  0.75000000  0.39029045  0.81871663  1
  Ho  Ho3  1  0.25000000  0.60970955  0.18128337  1
  Be  Be4  1  0.75000000  0.76601358  0.53387910  1
  Be  Be5  1  0.25000000  0.23398642  0.46612090  1
  F  F6  1  0.96533525  0.76075351  0.40357578  1
  F  F7  1  0.03466475  0.23924649  0.59642422  1
  F  F8  1  0.46533525  0.23924649  0.59642422  1
  F  F9  1  0.53466475  0.76075351  0.40357578  1
  F  F10  1  0.75000000  0.56496854  0.59854432  1
  F  F11  1  0.25000000  0.43503146  0.40145568  1
  F  F12  1  0.99911002  0.67309790  0.96748344  1
  F  F13  1  0.00088998  0.32690210  0.03251656  1
  F  F14  1  0.49911002  0.32690210  0.03251656  1
  F  F15  1  0.50088998  0.67309790  0.96748344  1
  F  F16  1  0.75000000  0.99320500  0.73187324  1
  F  F17  1  0.25000000  0.00679500  0.26812676  1
