# generated using pymatgen
data_RbTm2Cl7
_symmetry_space_group_name_H-M   'P 1'
_cell_length_a   6.94729798
_cell_length_b   13.30827168
_cell_length_c   12.55687191
_cell_angle_alpha   90.00000000
_cell_angle_beta   90.00000000
_cell_angle_gamma   90.00000000
_symmetry_Int_Tables_number   1
_chemical_formula_structural   RbTm2Cl7
_chemical_formula_sum   'Rb4 Tm8 Cl28'
_cell_volume   1160.96479139
_cell_formula_units_Z   4
loop_
 _symmetry_equiv_pos_site_id
 _symmetry_equiv_pos_as_xyz
  1  'x, y, z'
loop_
 _atom_site_type_symbol
 _atom_site_label
 _atom_site_symmetry_multiplicity
 _atom_site_fract_x
 _atom_site_fract_y
 _atom_site_fract_z
 _atom_site_occupancy
  Rb  Rb0  1  0.75000000  0.95828417  0.19535247  1
  Rb  Rb1  1  0.25000000  0.04171583  0.80464753  1
  Rb  Rb2  1  0.25000000  0.54171583  0.69535247  1
  Rb  Rb3  1  0.75000000  0.45828417  0.30464753  1
  Tm  Tm4  1  0.75000000  0.76130907  0.54042191  1
  Tm  Tm5  1  0.25000000  0.23869093  0.45957809  1
  Tm  Tm6  1  0.25000000  0.73869093  0.04042191  1
  Tm  Tm7  1  0.75000000  0.26130907  0.95957809  1
  Tm  Tm8  1  0.75000000  0.75040675  0.84262491  1
  Tm  Tm9  1  0.25000000  0.24959325  0.15737509  1
  Tm  Tm10  1  0.25000000  0.74959325  0.34262491  1
  Tm  Tm11  1  0.75000000  0.25040675  0.65737509  1
  Cl  Cl12  1  0.98966177  0.82454985  0.69348349  1
  Cl  Cl13  1  0.01033823  0.17545015  0.30651651  1
  Cl  Cl14  1  0.01033823  0.67545015  0.19348349  1
  Cl  Cl15  1  0.48966177  0.17545015  0.30651651  1
  Cl  Cl16  1  0.98966177  0.32454985  0.80651651  1
  Cl  Cl17  1  0.51033823  0.82454985  0.69348349  1
  Cl  Cl18  1  0.51033823  0.32454985  0.80651651  1
  Cl  Cl19  1  0.48966177  0.67545015  0.19348349  1
  Cl  Cl20  1  0.99071037  0.87730671  0.42265826  1
  Cl  Cl21  1  0.00928963  0.12269329  0.57734174  1
  Cl  Cl22  1  0.00928963  0.62269329  0.92265826  1
  Cl  Cl23  1  0.49071037  0.12269329  0.57734174  1
  Cl  Cl24  1  0.99071037  0.37730671  0.07734174  1
  Cl  Cl25  1  0.50928963  0.87730671  0.42265826  1
  Cl  Cl26  1  0.50928963  0.37730671  0.07734174  1
  Cl  Cl27  1  0.49071037  0.62269329  0.92265826  1
  Cl  Cl28  1  0.98966047  0.86583646  0.96006523  1
  Cl  Cl29  1  0.01033953  0.13416354  0.03993477  1
  Cl  Cl30  1  0.01033953  0.63416354  0.46006523  1
  Cl  Cl31  1  0.48966047  0.13416354  0.03993477  1
  Cl  Cl32  1  0.98966047  0.36583646  0.53993477  1
  Cl  Cl33  1  0.51033953  0.86583646  0.96006523  1
  Cl  Cl34  1  0.51033953  0.36583646  0.53993477  1
  Cl  Cl35  1  0.48966047  0.63416354  0.46006523  1
  Cl  Cl36  1  0.75000000  0.60906973  0.68883562  1
  Cl  Cl37  1  0.25000000  0.39093027  0.31116438  1
  Cl  Cl38  1  0.25000000  0.89093027  0.18883562  1
  Cl  Cl39  1  0.75000000  0.10906973  0.81116438  1
