# generated using pymatgen
data_La3FeNiS7
_symmetry_space_group_name_H-M   'P 1'
_cell_length_a   5.89927888
_cell_length_b   10.20623626
_cell_length_c   10.20910794
_cell_angle_alpha   119.99124239
_cell_angle_beta   90.00000000
_cell_angle_gamma   90.00000000
_symmetry_Int_Tables_number   1
_chemical_formula_structural   La3FeNiS7
_chemical_formula_sum   'La6 Fe2 Ni2 S14'
_cell_volume   532.37945904
_cell_formula_units_Z   2
loop_
 _symmetry_equiv_pos_site_id
 _symmetry_equiv_pos_as_xyz
  1  'x, y, z'
loop_
 _atom_site_type_symbol
 _atom_site_label
 _atom_site_symmetry_multiplicity
 _atom_site_fract_x
 _atom_site_fract_y
 _atom_site_fract_z
 _atom_site_occupancy
  La  La0  1  0.24937289  0.23117061  0.37215939  1
  La  La1  1  0.24928703  0.62782975  0.85903830  1
  La  La2  1  0.24934287  0.14100947  0.76875035  1
  La  La3  1  0.74937289  0.76882939  0.62784061  1
  La  La4  1  0.74928703  0.37217025  0.14096170  1
  La  La5  1  0.74934287  0.85899053  0.23124965  1
  Fe  Fe6  1  0.83357098  0.33324281  0.66654577  1
  Fe  Fe7  1  0.33357098  0.66675719  0.33345423  1
  Ni  Ni8  1  0.47161553  0.00001274  0.00000761  1
  Ni  Ni9  1  0.97161553  0.99998726  0.99999239  1
  S  S10  1  0.72103193  0.13763393  0.22161285  1
  S  S11  1  0.72105743  0.77845253  0.91596045  1
  S  S12  1  0.72102623  0.08396345  0.86249303  1
  S  S13  1  0.22103193  0.86236607  0.77838715  1
  S  S14  1  0.22105743  0.22154747  0.08403955  1
  S  S15  1  0.22102623  0.91603655  0.13750697  1
  S  S16  1  0.97066901  0.09784736  0.51630493  1
  S  S17  1  0.97070758  0.48371399  0.58147413  1
  S  S18  1  0.97076631  0.41855920  0.90225811  1
  S  S19  1  0.47066901  0.90215264  0.48369507  1
  S  S20  1  0.47070758  0.51628601  0.41852587  1
  S  S21  1  0.47076631  0.58144080  0.09774189  1
  S  S22  1  0.46055221  0.33335248  0.66670194  1
  S  S23  1  0.96055221  0.66664752  0.33329806  1
