# generated using pymatgen
data_ScAgSn
_symmetry_space_group_name_H-M   'P 1'
_cell_length_a   7.18884491
_cell_length_b   8.41511658
_cell_length_c   8.41511658
_cell_angle_alpha   62.95510992
_cell_angle_beta   64.71388146
_cell_angle_gamma   64.71388146
_symmetry_Int_Tables_number   1
_chemical_formula_structural   ScAgSn
_chemical_formula_sum   'Sc6 Ag6 Sn6'
_cell_volume   392.44048913
_cell_formula_units_Z   6
loop_
 _symmetry_equiv_pos_site_id
 _symmetry_equiv_pos_as_xyz
  1  'x, y, z'
loop_
 _atom_site_type_symbol
 _atom_site_label
 _atom_site_symmetry_multiplicity
 _atom_site_fract_x
 _atom_site_fract_y
 _atom_site_fract_z
 _atom_site_occupancy
  Sc  Sc0  1  0.17478519  0.54108359  0.04108359  1
  Sc  Sc1  1  0.75695237  0.45891641  0.95891641  1
  Sc  Sc2  1  0.75967717  0.97948925  0.47948925  1
  Sc  Sc3  1  0.21865567  0.02051075  0.52051075  1
  Sc  Sc4  1  0.32108149  0.24851322  0.74851322  1
  Sc  Sc5  1  0.31810794  0.75148678  0.25148678  1
  Ag  Ag6  1  0.00082090  1.00000000  1.00000000  1
  Ag  Ag7  1  0.00082090  0.50000000  0.50000000  1
  Ag  Ag8  1  0.51194652  0.59826725  0.64447858  1
  Ag  Ag9  1  0.75469235  0.40173275  0.35552142  1
  Ag  Ag10  1  0.75469235  0.85552142  0.90173275  1
  Ag  Ag11  1  0.51194652  0.14447858  0.09826725  1
  Sn  Sn12  1  0.73414493  0.77185306  0.27185306  1
  Sn  Sn13  1  0.77785105  0.22814694  0.72814694  1
  Sn  Sn14  1  0.42389919  0.82991812  0.83615583  1
  Sn  Sn15  1  0.08997314  0.17008188  0.16384417  1
  Sn  Sn16  1  0.08997314  0.66384417  0.67008188  1
  Sn  Sn17  1  0.42389919  0.33615583  0.32991812  1
