# generated using pymatgen
data_RbCaBr3
_symmetry_space_group_name_H-M   'P 1'
_cell_length_a   7.84970143
_cell_length_b   8.16408338
_cell_length_c   11.28376402
_cell_angle_alpha   90.00000000
_cell_angle_beta   90.00000000
_cell_angle_gamma   90.00000000
_symmetry_Int_Tables_number   1
_chemical_formula_structural   RbCaBr3
_chemical_formula_sum   'Rb4 Ca4 Br12'
_cell_volume   723.12697911
_cell_formula_units_Z   4
loop_
 _symmetry_equiv_pos_site_id
 _symmetry_equiv_pos_as_xyz
  1  'x, y, z'
loop_
 _atom_site_type_symbol
 _atom_site_label
 _atom_site_symmetry_multiplicity
 _atom_site_fract_x
 _atom_site_fract_y
 _atom_site_fract_z
 _atom_site_occupancy
  Rb  Rb0  1  0.01996403  0.43515660  0.25000000  1
  Rb  Rb1  1  0.98003597  0.56484340  0.75000000  1
  Rb  Rb2  1  0.51996403  0.06484340  0.75000000  1
  Rb  Rb3  1  0.48003597  0.93515660  0.25000000  1
  Ca  Ca4  1  -0.00000000  -0.00000000  0.00000000  1
  Ca  Ca5  1  0.50000000  0.50000000  0.00000000  1
  Ca  Ca6  1  -0.00000000  -0.00000000  0.50000000  1
  Ca  Ca7  1  0.50000000  0.50000000  0.50000000  1
  Br  Br8  1  0.29900829  0.20449572  0.04492970  1
  Br  Br9  1  0.70099171  0.79550428  0.95507030  1
  Br  Br10  1  0.79900829  0.29550428  0.95507030  1
  Br  Br11  1  0.70099171  0.79550428  0.54492970  1
  Br  Br12  1  0.20099171  0.70449572  0.04492970  1
  Br  Br13  1  0.29900829  0.20449572  0.45507030  1
  Br  Br14  1  0.20099171  0.70449572  0.45507030  1
  Br  Br15  1  0.79900829  0.29550428  0.54492970  1
  Br  Br16  1  0.58896147  0.52306133  0.25000000  1
  Br  Br17  1  0.41103853  0.47693867  0.75000000  1
  Br  Br18  1  0.08896147  0.97693867  0.75000000  1
  Br  Br19  1  0.91103853  0.02306133  0.25000000  1
