# generated using pymatgen
data_RbGd(MoO4)2
_symmetry_space_group_name_H-M   'P 1'
_cell_length_a   5.19432162
_cell_length_b   8.29729459
_cell_length_c   18.94408313
_cell_angle_alpha   90.00000000
_cell_angle_beta   90.00000000
_cell_angle_gamma   90.00000000
_symmetry_Int_Tables_number   1
_chemical_formula_structural   RbGd(MoO4)2
_chemical_formula_sum   'Rb4 Gd4 Mo8 O32'
_cell_volume   816.46756592
_cell_formula_units_Z   4
loop_
 _symmetry_equiv_pos_site_id
 _symmetry_equiv_pos_as_xyz
  1  'x, y, z'
loop_
 _atom_site_type_symbol
 _atom_site_label
 _atom_site_symmetry_multiplicity
 _atom_site_fract_x
 _atom_site_fract_y
 _atom_site_fract_z
 _atom_site_occupancy
  Rb  Rb0  1  0.00000000  0.75000000  0.23057964  1
  Rb  Rb1  1  0.00000000  0.25000000  0.76942036  1
  Rb  Rb2  1  0.50000000  0.25000000  0.26942036  1
  Rb  Rb3  1  0.50000000  0.75000000  0.73057964  1
  Gd  Gd4  1  0.00000000  0.75000000  0.99333129  1
  Gd  Gd5  1  0.00000000  0.25000000  0.00666871  1
  Gd  Gd6  1  0.50000000  0.25000000  0.50666871  1
  Gd  Gd7  1  0.50000000  0.75000000  0.49333129  1
  Mo  Mo8  1  0.97705785  0.98421507  0.59978389  1
  Mo  Mo9  1  0.02294215  0.01578493  0.40021611  1
  Mo  Mo10  1  0.52294215  0.48421507  0.90021611  1
  Mo  Mo11  1  0.02294215  0.51578493  0.59978389  1
  Mo  Mo12  1  0.47705785  0.51578493  0.09978389  1
  Mo  Mo13  1  0.97705785  0.48421507  0.40021611  1
  Mo  Mo14  1  0.47705785  0.01578493  0.90021611  1
  Mo  Mo15  1  0.52294215  0.98421507  0.09978389  1
  O  O16  1  0.90147861  0.52528511  0.68595204  1
  O  O17  1  0.09852139  0.47471489  0.31404796  1
  O  O18  1  0.59852139  0.02528511  0.81404796  1
  O  O19  1  0.09852139  0.97471489  0.68595204  1
  O  O20  1  0.40147861  0.97471489  0.18595204  1
  O  O21  1  0.90147861  0.02528511  0.31404796  1
  O  O22  1  0.40147861  0.47471489  0.81404796  1
  O  O23  1  0.59852139  0.52528511  0.18595204  1
  O  O24  1  0.72927456  0.65859166  0.90196876  1
  O  O25  1  0.27072544  0.34140834  0.09803124  1
  O  O26  1  0.77072544  0.15859166  0.59803124  1
  O  O27  1  0.27072544  0.84140834  0.90196876  1
  O  O28  1  0.22927456  0.84140834  0.40196876  1
  O  O29  1  0.72927456  0.15859166  0.09803124  1
  O  O30  1  0.22927456  0.34140834  0.59803124  1
  O  O31  1  0.77072544  0.65859166  0.40196876  1
  O  O32  1  0.74961584  0.99608598  0.96376718  1
  O  O33  1  0.25038416  0.00391402  0.03623282  1
  O  O34  1  0.75038416  0.49608598  0.53623282  1
  O  O35  1  0.25038416  0.50391402  0.96376718  1
  O  O36  1  0.24961584  0.50391402  0.46376718  1
  O  O37  1  0.74961584  0.49608598  0.03623282  1
  O  O38  1  0.24961584  0.00391402  0.53623282  1
  O  O39  1  0.75038416  0.99608598  0.46376718  1
  O  O40  1  0.76065959  0.81317611  0.58963263  1
  O  O41  1  0.23934041  0.18682389  0.41036737  1
  O  O42  1  0.73934041  0.31317611  0.91036737  1
  O  O43  1  0.23934041  0.68682389  0.58963263  1
  O  O44  1  0.26065959  0.68682389  0.08963263  1
  O  O45  1  0.76065959  0.31317611  0.41036737  1
  O  O46  1  0.26065959  0.18682389  0.91036737  1
  O  O47  1  0.73934041  0.81317611  0.08963263  1
