# generated using pymatgen
data_Sm3VGeO9
_symmetry_space_group_name_H-M   'P 1'
_cell_length_a   7.04894684
_cell_length_b   9.33381274
_cell_length_c   12.45844708
_cell_angle_alpha   90.00000000
_cell_angle_beta   90.00000000
_cell_angle_gamma   107.79571731
_symmetry_Int_Tables_number   1
_chemical_formula_structural   Sm3VGeO9
_chemical_formula_sum   'Sm12 V4 Ge4 O36'
_cell_volume   780.46534571
_cell_formula_units_Z   4
loop_
 _symmetry_equiv_pos_site_id
 _symmetry_equiv_pos_as_xyz
  1  'x, y, z'
loop_
 _atom_site_type_symbol
 _atom_site_label
 _atom_site_symmetry_multiplicity
 _atom_site_fract_x
 _atom_site_fract_y
 _atom_site_fract_z
 _atom_site_occupancy
  Sm  Sm0  1  0.67129188  0.62008347  0.36834242  1
  Sm  Sm1  1  0.32870812  0.37991653  0.63165758  1
  Sm  Sm2  1  0.82870812  0.87991653  0.86834242  1
  Sm  Sm3  1  0.17129188  0.12008347  0.13165758  1
  Sm  Sm4  1  0.24077297  0.84174971  0.36373376  1
  Sm  Sm5  1  0.75922703  0.15825029  0.63626624  1
  Sm  Sm6  1  0.25922703  0.65825029  0.86373376  1
  Sm  Sm7  1  0.74077297  0.34174971  0.13626624  1
  Sm  Sm8  1  0.50399395  0.87300461  0.10607781  1
  Sm  Sm9  1  0.49600605  0.12699539  0.89392219  1
  Sm  Sm10  1  0.99600605  0.62699539  0.60607781  1
  Sm  Sm11  1  0.00399395  0.37300461  0.39392219  1
  V  V12  1  0.19778972  0.98018534  0.66240383  1
  V  V13  1  0.80221028  0.01981466  0.33759617  1
  V  V14  1  0.30221028  0.51981466  0.16240383  1
  V  V15  1  0.69778972  0.48018534  0.83759617  1
  Ge  Ge16  1  0.94695787  0.75604055  0.10034985  1
  Ge  Ge17  1  0.05304213  0.24395945  0.89965015  1
  Ge  Ge18  1  0.55304213  0.74395945  0.60034985  1
  Ge  Ge19  1  0.44695787  0.25604055  0.39965015  1
  O  O20  1  0.89654114  0.86776314  0.34097026  1
  O  O21  1  0.10345886  0.13223686  0.65902974  1
  O  O22  1  0.60345886  0.63223686  0.84097026  1
  O  O23  1  0.39654114  0.36776314  0.15902974  1
  O  O24  1  0.65882091  0.59195861  0.57504220  1
  O  O25  1  0.34117909  0.40804139  0.42495780  1
  O  O26  1  0.84117909  0.90804139  0.07504220  1
  O  O27  1  0.15882091  0.09195861  0.92495780  1
  O  O28  1  0.17026559  0.88049778  0.54217624  1
  O  O29  1  0.82973441  0.11950222  0.45782376  1
  O  O30  1  0.32973441  0.61950222  0.04217624  1
  O  O31  1  0.67026559  0.38049778  0.95782376  1
  O  O32  1  0.78303981  0.60855369  0.17248880  1
  O  O33  1  0.21696019  0.39144631  0.82751120  1
  O  O34  1  0.71696019  0.89144631  0.67248880  1
  O  O35  1  0.28303981  0.10855369  0.32751120  1
  O  O36  1  0.07458882  0.83438079  0.75072056  1
  O  O37  1  0.92541118  0.16561921  0.24927944  1
  O  O38  1  0.42541118  0.66561921  0.25072056  1
  O  O39  1  0.57458882  0.33438079  0.74927944  1
  O  O40  1  0.99705665  0.61517016  0.41975181  1
  O  O41  1  0.00294335  0.38482984  0.58024819  1
  O  O42  1  0.50294335  0.88482984  0.91975181  1
  O  O43  1  0.49705665  0.11517016  0.08024819  1
  O  O44  1  0.17351278  0.85913064  0.16904773  1
  O  O45  1  0.82648722  0.14086936  0.83095227  1
  O  O46  1  0.32648722  0.64086936  0.66904773  1
  O  O47  1  0.67351278  0.35913064  0.33095227  1
  O  O48  1  0.56408304  0.96378118  0.28760986  1
  O  O49  1  0.43591696  0.03621882  0.71239014  1
  O  O50  1  0.93591696  0.53621882  0.78760986  1
  O  O51  1  0.06408304  0.46378118  0.21239014  1
  O  O52  1  0.49941057  0.77732854  0.46544405  1
  O  O53  1  0.50058943  0.22267146  0.53455595  1
  O  O54  1  0.00058943  0.72267146  0.96544405  1
  O  O55  1  0.99941057  0.27732854  0.03455595  1
