# generated using pymatgen
data_PrVSb3
_symmetry_space_group_name_H-M   'P 1'
_cell_length_a   6.09305273
_cell_length_b   6.29238858
_cell_length_c   13.30208979
_cell_angle_alpha   90.00000000
_cell_angle_beta   90.00000000
_cell_angle_gamma   90.00000000
_symmetry_Int_Tables_number   1
_chemical_formula_structural   PrVSb3
_chemical_formula_sum   'Pr4 V4 Sb12'
_cell_volume   510.00019927
_cell_formula_units_Z   4
loop_
 _symmetry_equiv_pos_site_id
 _symmetry_equiv_pos_as_xyz
  1  'x, y, z'
loop_
 _atom_site_type_symbol
 _atom_site_label
 _atom_site_symmetry_multiplicity
 _atom_site_fract_x
 _atom_site_fract_y
 _atom_site_fract_z
 _atom_site_occupancy
  Pr  Pr0  1  0.75000000  0.99746280  0.69098526  1
  Pr  Pr1  1  0.25000000  0.00253720  0.30901474  1
  Pr  Pr2  1  0.75000000  0.49746280  0.30901474  1
  Pr  Pr3  1  0.25000000  0.50253720  0.69098526  1
  V  V4  1  -0.00000000  0.75000000  0.09365092  1
  V  V5  1  0.00000000  0.25000000  0.90634908  1
  V  V6  1  0.50000000  0.25000000  0.90634908  1
  V  V7  1  0.50000000  0.75000000  0.09365092  1
  Sb  Sb8  1  0.00000000  0.75000000  0.49884220  1
  Sb  Sb9  1  -0.00000000  0.25000000  0.50115780  1
  Sb  Sb10  1  0.50000000  0.25000000  0.50115780  1
  Sb  Sb11  1  0.50000000  0.75000000  0.49884220  1
  Sb  Sb12  1  0.75000000  0.89530358  0.93573638  1
  Sb  Sb13  1  0.25000000  0.10469642  0.06426362  1
  Sb  Sb14  1  0.75000000  0.39530358  0.06426362  1
  Sb  Sb15  1  0.25000000  0.60469642  0.93573638  1
  Sb  Sb16  1  0.75000000  0.50176532  0.78178867  1
  Sb  Sb17  1  0.25000000  0.49823468  0.21821133  1
  Sb  Sb18  1  0.75000000  0.00176532  0.21821133  1
  Sb  Sb19  1  0.25000000  0.99823468  0.78178867  1
