# generated using pymatgen
data_Rb6CdO4
_symmetry_space_group_name_H-M   'P 1'
_cell_length_a   7.02162152
_cell_length_b   9.28427018
_cell_length_c   9.28427018
_cell_angle_alpha   120.00000027
_cell_angle_beta   90.00000000
_cell_angle_gamma   90.00000000
_symmetry_Int_Tables_number   1
_chemical_formula_structural   Rb6CdO4
_chemical_formula_sum   'Rb12 Cd2 O8'
_cell_volume   524.15965183
_cell_formula_units_Z   2
loop_
 _symmetry_equiv_pos_site_id
 _symmetry_equiv_pos_as_xyz
  1  'x, y, z'
loop_
 _atom_site_type_symbol
 _atom_site_label
 _atom_site_symmetry_multiplicity
 _atom_site_fract_x
 _atom_site_fract_y
 _atom_site_fract_z
 _atom_site_occupancy
  Rb  Rb0  1  0.88455341  0.46198381  0.92396763  1
  Rb  Rb1  1  0.88455341  0.46198381  0.53801619  1
  Rb  Rb2  1  0.38455341  0.53801619  0.07603237  1
  Rb  Rb3  1  0.88455341  0.07603237  0.53801619  1
  Rb  Rb4  1  0.38455341  0.53801619  0.46198381  1
  Rb  Rb5  1  0.38455341  0.92396763  0.46198381  1
  Rb  Rb6  1  0.71896429  0.85650669  0.71301338  1
  Rb  Rb7  1  0.71896429  0.85650669  0.14349331  1
  Rb  Rb8  1  0.21896429  0.14349331  0.28698662  1
  Rb  Rb9  1  0.71896429  0.28698662  0.14349331  1
  Rb  Rb10  1  0.21896429  0.14349331  0.85650669  1
  Rb  Rb11  1  0.21896429  0.71301338  0.85650669  1
  Cd  Cd12  1  0.99094800  0.66666700  0.33333300  1
  Cd  Cd13  1  0.49094800  0.33333300  0.66666700  1
  O  O14  1  0.67181647  0.66666700  0.33333300  1
  O  O15  1  0.17181647  0.33333300  0.66666700  1
  O  O16  1  0.60089414  0.19668887  0.39337774  1
  O  O17  1  0.60089414  0.19668887  0.80331113  1
  O  O18  1  0.10089414  0.80331113  0.60662226  1
  O  O19  1  0.60089414  0.60662226  0.80331113  1
  O  O20  1  0.10089414  0.80331113  0.19668887  1
  O  O21  1  0.10089414  0.39337774  0.19668887  1
