# generated using pymatgen
data_CsSO4
_symmetry_space_group_name_H-M   'P 1'
_cell_length_a   6.66896934
_cell_length_b   8.38418466
_cell_length_c   8.54755953
_cell_angle_alpha   90.00000000
_cell_angle_beta   90.00000000
_cell_angle_gamma   98.32883072
_symmetry_Int_Tables_number   1
_chemical_formula_structural   CsSO4
_chemical_formula_sum   'Cs4 S4 O16'
_cell_volume   472.88645069
_cell_formula_units_Z   4
loop_
 _symmetry_equiv_pos_site_id
 _symmetry_equiv_pos_as_xyz
  1  'x, y, z'
loop_
 _atom_site_type_symbol
 _atom_site_label
 _atom_site_symmetry_multiplicity
 _atom_site_fract_x
 _atom_site_fract_y
 _atom_site_fract_z
 _atom_site_occupancy
  Cs  Cs0  1  0.26953038  0.34691257  0.61956240  1
  Cs  Cs1  1  0.76953038  0.84691257  0.88043760  1
  Cs  Cs2  1  0.73046962  0.65308743  0.38043760  1
  Cs  Cs3  1  0.23046962  0.15308743  0.11956240  1
  S  S4  1  0.79677015  0.35970684  0.85763111  1
  S  S5  1  0.29677015  0.85970684  0.64236889  1
  S  S6  1  0.20322985  0.64029316  0.14236889  1
  S  S7  1  0.70322985  0.14029316  0.35763111  1
  O  O8  1  0.88712534  0.47188028  0.01311319  1
  O  O9  1  0.38712534  0.97188028  0.48688681  1
  O  O10  1  0.11287466  0.52811972  0.98688681  1
  O  O11  1  0.61287466  0.02811972  0.51311319  1
  O  O12  1  0.81907383  0.46628502  0.72171870  1
  O  O13  1  0.31907383  0.96628502  0.77828130  1
  O  O14  1  0.18092617  0.53371498  0.27828130  1
  O  O15  1  0.68092617  0.03371498  0.22171870  1
  O  O16  1  0.59083642  0.31670678  0.91414501  1
  O  O17  1  0.09083642  0.81670678  0.58585499  1
  O  O18  1  0.40916358  0.68329322  0.08585499  1
  O  O19  1  0.90916358  0.18329322  0.41414501  1
  O  O20  1  0.91800186  0.22798235  0.84981385  1
  O  O21  1  0.41800186  0.72798235  0.65018615  1
  O  O22  1  0.08199814  0.77201765  0.15018615  1
  O  O23  1  0.58199814  0.27201765  0.34981385  1
