# generated using pymatgen
data_PrZrF7
_symmetry_space_group_name_H-M   'P 1'
_cell_length_a   5.88540330
_cell_length_b   6.35311057
_cell_length_c   8.55117826
_cell_angle_alpha   101.46527689
_cell_angle_beta   90.00000000
_cell_angle_gamma   90.00000000
_symmetry_Int_Tables_number   1
_chemical_formula_structural   PrZrF7
_chemical_formula_sum   'Pr2 Zr2 F14'
_cell_volume   313.35366174
_cell_formula_units_Z   2
loop_
 _symmetry_equiv_pos_site_id
 _symmetry_equiv_pos_as_xyz
  1  'x, y, z'
loop_
 _atom_site_type_symbol
 _atom_site_label
 _atom_site_symmetry_multiplicity
 _atom_site_fract_x
 _atom_site_fract_y
 _atom_site_fract_z
 _atom_site_occupancy
  Pr  Pr0  1  0.69960421  0.65738399  0.68744573  1
  Pr  Pr1  1  0.19960421  0.34261601  0.31255427  1
  Zr  Zr2  1  0.70834235  0.81151240  0.22422770  1
  Zr  Zr3  1  0.20834235  0.18848760  0.77577230  1
  F  F4  1  0.88468549  0.44888576  0.47377513  1
  F  F5  1  0.38468549  0.55111424  0.52622487  1
  F  F6  1  0.42055372  0.93236678  0.76913947  1
  F  F7  1  0.92055372  0.06763322  0.23086053  1
  F  F8  1  0.94808726  0.97054347  0.76126625  1
  F  F9  1  0.44808726  0.02945653  0.23873375  1
  F  F10  1  0.00028620  0.44823108  0.78614002  1
  F  F11  1  0.50028620  0.55176892  0.21385998  1
  F  F12  1  0.70559043  0.75676839  0.98095906  1
  F  F13  1  0.20559043  0.24323161  0.01904094  1
  F  F14  1  0.71351022  0.85796925  0.46773107  1
  F  F15  1  0.21351022  0.14203075  0.53226893  1
  F  F16  1  0.49570013  0.37367033  0.78308499  1
  F  F17  1  0.99570013  0.62632967  0.21691501  1
