# generated using pymatgen
data_RbEr(MoO4)2
_symmetry_space_group_name_H-M   'P 1'
_cell_length_a   5.12775192
_cell_length_b   8.15291522
_cell_length_c   19.03669294
_cell_angle_alpha   90.00000000
_cell_angle_beta   90.00000000
_cell_angle_gamma   90.00000000
_symmetry_Int_Tables_number   1
_chemical_formula_structural   RbEr(MoO4)2
_chemical_formula_sum   'Rb4 Er4 Mo8 O32'
_cell_volume   795.85039648
_cell_formula_units_Z   4
loop_
 _symmetry_equiv_pos_site_id
 _symmetry_equiv_pos_as_xyz
  1  'x, y, z'
loop_
 _atom_site_type_symbol
 _atom_site_label
 _atom_site_symmetry_multiplicity
 _atom_site_fract_x
 _atom_site_fract_y
 _atom_site_fract_z
 _atom_site_occupancy
  Rb  Rb0  1  0.00000000  0.75000000  0.22897703  1
  Rb  Rb1  1  0.00000000  0.25000000  0.77102297  1
  Rb  Rb2  1  0.50000000  0.25000000  0.27102297  1
  Rb  Rb3  1  0.50000000  0.75000000  0.72897703  1
  Er  Er4  1  0.00000000  0.75000000  0.99360624  1
  Er  Er5  1  0.00000000  0.25000000  0.00639376  1
  Er  Er6  1  0.50000000  0.25000000  0.50639376  1
  Er  Er7  1  0.50000000  0.75000000  0.49360624  1
  Mo  Mo8  1  0.97600456  0.98443986  0.59772527  1
  Mo  Mo9  1  0.02399544  0.01556014  0.40227473  1
  Mo  Mo10  1  0.52399544  0.48443986  0.90227473  1
  Mo  Mo11  1  0.02399544  0.51556014  0.59772527  1
  Mo  Mo12  1  0.47600456  0.51556014  0.09772527  1
  Mo  Mo13  1  0.97600456  0.48443986  0.40227473  1
  Mo  Mo14  1  0.47600456  0.01556014  0.90227473  1
  Mo  Mo15  1  0.52399544  0.98443986  0.09772527  1
  O  O16  1  0.90728739  0.52514868  0.68409128  1
  O  O17  1  0.09271261  0.47485132  0.31590872  1
  O  O18  1  0.59271261  0.02514868  0.81590872  1
  O  O19  1  0.09271261  0.97485132  0.68409128  1
  O  O20  1  0.40728739  0.97485132  0.18409128  1
  O  O21  1  0.90728739  0.02514868  0.31590872  1
  O  O22  1  0.40728739  0.47485132  0.81590872  1
  O  O23  1  0.59271261  0.52514868  0.18409128  1
  O  O24  1  0.73460087  0.66120225  0.90477325  1
  O  O25  1  0.26539913  0.33879775  0.09522675  1
  O  O26  1  0.76539913  0.16120225  0.59522675  1
  O  O27  1  0.26539913  0.83879775  0.90477325  1
  O  O28  1  0.23460087  0.83879775  0.40477325  1
  O  O29  1  0.73460087  0.16120225  0.09522675  1
  O  O30  1  0.23460087  0.33879775  0.59522675  1
  O  O31  1  0.76539913  0.66120225  0.40477325  1
  O  O32  1  0.75392644  0.99393696  0.96483385  1
  O  O33  1  0.24607356  0.00606304  0.03516615  1
  O  O34  1  0.74607356  0.49393696  0.53516615  1
  O  O35  1  0.24607356  0.50606304  0.96483385  1
  O  O36  1  0.25392644  0.50606304  0.46483385  1
  O  O37  1  0.75392644  0.49393696  0.03516615  1
  O  O38  1  0.25392644  0.00606304  0.53516615  1
  O  O39  1  0.74607356  0.99393696  0.46483385  1
  O  O40  1  0.75648948  0.81054964  0.58727906  1
  O  O41  1  0.24351052  0.18945036  0.41272094  1
  O  O42  1  0.74351052  0.31054964  0.91272094  1
  O  O43  1  0.24351052  0.68945036  0.58727906  1
  O  O44  1  0.25648948  0.68945036  0.08727906  1
  O  O45  1  0.75648948  0.31054964  0.41272094  1
  O  O46  1  0.25648948  0.18945036  0.91272094  1
  O  O47  1  0.74351052  0.81054964  0.08727906  1
