# generated using pymatgen
data_Rb3HoCl6
_symmetry_space_group_name_H-M   'P 1'
_cell_length_a   8.01720906
_cell_length_b   12.97832160
_cell_length_c   13.69146619
_cell_angle_alpha   99.08622377
_cell_angle_beta   107.02453692
_cell_angle_gamma   90.00000000
_symmetry_Int_Tables_number   1
_chemical_formula_structural   Rb3HoCl6
_chemical_formula_sum   'Rb12 Ho4 Cl24'
_cell_volume   1343.46286780
_cell_formula_units_Z   4
loop_
 _symmetry_equiv_pos_site_id
 _symmetry_equiv_pos_as_xyz
  1  'x, y, z'
loop_
 _atom_site_type_symbol
 _atom_site_label
 _atom_site_symmetry_multiplicity
 _atom_site_fract_x
 _atom_site_fract_y
 _atom_site_fract_z
 _atom_site_occupancy
  Rb  Rb0  1  0.69738069  0.06701405  0.90104513  1
  Rb  Rb1  1  0.30261931  0.93298595  0.09895487  1
  Rb  Rb2  1  0.79633556  0.43298595  0.09895487  1
  Rb  Rb3  1  0.20366444  0.56701405  0.90104513  1
  Rb  Rb4  1  0.53423463  0.35580917  0.69266754  1
  Rb  Rb5  1  0.46576537  0.64419083  0.30733246  1
  Rb  Rb6  1  0.84156709  0.14419083  0.30733246  1
  Rb  Rb7  1  0.15843291  0.85580917  0.69266754  1
  Rb  Rb8  1  0.34906152  0.29941018  0.32355305  1
  Rb  Rb9  1  0.65093848  0.70058982  0.67644695  1
  Rb  Rb10  1  0.02550847  0.20058982  0.67644695  1
  Rb  Rb11  1  0.97449153  0.79941018  0.32355305  1
  Ho  Ho12  1  0.21681054  0.25000000  -0.00000000  1
  Ho  Ho13  1  0.78318946  0.75000000  0.00000000  1
  Ho  Ho14  1  0.50000000  -0.00000000  0.50000000  1
  Ho  Ho15  1  -0.00000000  0.50000000  0.50000000  1
  Cl  Cl16  1  0.37773030  0.08135176  0.65437546  1
  Cl  Cl17  1  0.62226970  0.91864824  0.34562454  1
  Cl  Cl18  1  0.72335484  0.41864824  0.34562454  1
  Cl  Cl19  1  0.27664516  0.58135176  0.65437546  1
  Cl  Cl20  1  0.50383129  0.17968866  0.11718446  1
  Cl  Cl21  1  0.49616871  0.82031134  0.88281554  1
  Cl  Cl22  1  0.38664682  0.32031134  0.88281554  1
  Cl  Cl23  1  0.61335318  0.67968866  0.11718446  1
  Cl  Cl24  1  0.21766754  0.03487399  0.35414789  1
  Cl  Cl25  1  0.78233246  0.96512601  0.64585211  1
  Cl  Cl26  1  0.86351964  0.46512601  0.64585211  1
  Cl  Cl27  1  0.13648036  0.53487399  0.35414789  1
  Cl  Cl28  1  0.08569959  0.69550316  0.11743073  1
  Cl  Cl29  1  0.91430041  0.30449684  0.88256927  1
  Cl  Cl30  1  0.96826886  0.80449684  0.88256927  1
  Cl  Cl31  1  0.03173114  0.19550316  0.11743073  1
  Cl  Cl32  1  0.28278999  0.43445008  0.11591083  1
  Cl  Cl33  1  0.71721001  0.56554992  0.88408917  1
  Cl  Cl34  1  0.16687916  0.06554992  0.88408917  1
  Cl  Cl35  1  0.83312084  0.93445008  0.11591083  1
  Cl  Cl36  1  0.63926246  0.18550254  0.49910511  1
  Cl  Cl37  1  0.36073754  0.81449746  0.50089489  1
  Cl  Cl38  1  0.14015735  0.31449746  0.50089489  1
  Cl  Cl39  1  0.85984265  0.68550254  0.49910511  1
