# generated using pymatgen
data_RbAlBr4
_symmetry_space_group_name_H-M   'P 1'
_cell_length_a   7.65229865
_cell_length_b   12.27701467
_cell_length_c   10.12709313
_cell_angle_alpha   90.00000000
_cell_angle_beta   90.00000000
_cell_angle_gamma   90.00000000
_symmetry_Int_Tables_number   1
_chemical_formula_structural   RbAlBr4
_chemical_formula_sum   'Rb4 Al4 Br16'
_cell_volume   951.41389479
_cell_formula_units_Z   4
loop_
 _symmetry_equiv_pos_site_id
 _symmetry_equiv_pos_as_xyz
  1  'x, y, z'
loop_
 _atom_site_type_symbol
 _atom_site_label
 _atom_site_symmetry_multiplicity
 _atom_site_fract_x
 _atom_site_fract_y
 _atom_site_fract_z
 _atom_site_occupancy
  Rb  Rb0  1  0.75000000  0.81438779  0.33937249  1
  Rb  Rb1  1  0.25000000  0.18561221  0.66062751  1
  Rb  Rb2  1  0.25000000  0.68561221  0.83937249  1
  Rb  Rb3  1  0.75000000  0.31438779  0.16062751  1
  Al  Al4  1  0.75000000  0.93698994  0.80892664  1
  Al  Al5  1  0.25000000  0.06301006  0.19107336  1
  Al  Al6  1  0.25000000  0.56301006  0.30892664  1
  Al  Al7  1  0.75000000  0.43698994  0.69107336  1
  Br  Br8  1  0.75000000  0.60933451  0.60121646  1
  Br  Br9  1  0.25000000  0.39066549  0.39878354  1
  Br  Br10  1  0.25000000  0.89066549  0.10121646  1
  Br  Br11  1  0.75000000  0.10933451  0.89878354  1
  Br  Br12  1  0.75000000  0.79912886  0.96559317  1
  Br  Br13  1  0.25000000  0.20087114  0.03440683  1
  Br  Br14  1  0.25000000  0.70087114  0.46559317  1
  Br  Br15  1  0.75000000  0.29912886  0.53440683  1
  Br  Br16  1  0.99816218  0.91697571  0.67559119  1
  Br  Br17  1  0.00183782  0.08302429  0.32440881  1
  Br  Br18  1  0.00183782  0.58302429  0.17559119  1
  Br  Br19  1  0.49816218  0.08302429  0.32440881  1
  Br  Br20  1  0.99816218  0.41697571  0.82440881  1
  Br  Br21  1  0.50183782  0.91697571  0.67559119  1
  Br  Br22  1  0.50183782  0.41697571  0.82440881  1
  Br  Br23  1  0.49816218  0.58302429  0.17559119  1
