# generated using pymatgen
data_Sm3PO7
_symmetry_space_group_name_H-M   'P 1'
_cell_length_a   9.22828573
_cell_length_b   9.22828573
_cell_length_c   12.23530726
_cell_angle_alpha   102.75353792
_cell_angle_beta   102.75353792
_cell_angle_gamma   90.91169821
_symmetry_Int_Tables_number   1
_chemical_formula_structural   Sm3PO7
_chemical_formula_sum   'Sm18 P6 O42'
_cell_volume   988.90323271
_cell_formula_units_Z   6
loop_
 _symmetry_equiv_pos_site_id
 _symmetry_equiv_pos_as_xyz
  1  'x, y, z'
loop_
 _atom_site_type_symbol
 _atom_site_label
 _atom_site_symmetry_multiplicity
 _atom_site_fract_x
 _atom_site_fract_y
 _atom_site_fract_z
 _atom_site_occupancy
  Sm  Sm0  1  0.32388574  0.01268560  0.91417265  1
  Sm  Sm1  1  0.01268560  0.32388574  0.91417265  1
  Sm  Sm2  1  0.68232886  0.29732804  0.68597839  1
  Sm  Sm3  1  0.29732804  0.68232886  0.68597839  1
  Sm  Sm4  1  0.66941101  0.32249456  0.99701951  1
  Sm  Sm5  1  0.32249456  0.66941101  0.99701951  1
  Sm  Sm6  1  0.65209572  0.96670404  0.79787519  1
  Sm  Sm7  1  0.96670404  0.65209572  0.79787519  1
  Sm  Sm8  1  0.66530281  0.01431742  0.13202375  1
  Sm  Sm9  1  0.01431742  0.66530281  0.13202375  1
  Sm  Sm10  1  0.31463489  0.96593034  0.23928968  1
  Sm  Sm11  1  0.96593034  0.31463489  0.23928968  1
  Sm  Sm12  1  0.32844962  0.01355045  0.57431708  1
  Sm  Sm13  1  0.01355045  0.32844962  0.57431708  1
  Sm  Sm14  1  0.65777189  0.30992267  0.37439428  1
  Sm  Sm15  1  0.30992267  0.65777189  0.37439428  1
  Sm  Sm16  1  0.65658027  0.96711954  0.45718511  1
  Sm  Sm17  1  0.96711954  0.65658027  0.45718511  1
  P  P18  1  0.65650966  0.65650966  0.95134063  1
  P  P19  1  0.98589920  0.98589920  0.36575173  1
  P  P20  1  0.32109350  0.32109350  0.41919969  1
  P  P21  1  0.32492097  0.32492097  0.79808811  1
  P  P22  1  0.99438275  0.99438275  0.00365236  1
  P  P23  1  0.65202697  0.65202697  0.57408058  1
  O  O24  1  0.38605594  0.93241698  0.74158695  1
  O  O25  1  0.93241698  0.38605594  0.74158695  1
  O  O26  1  0.41910380  0.41910380  0.36776645  1
  O  O27  1  0.69203528  0.69203528  0.46559729  1
  O  O28  1  0.48835431  0.29442648  0.79467177  1
  O  O29  1  0.29442648  0.48835431  0.79467177  1
  O  O30  1  0.70249869  0.27772763  0.18582129  1
  O  O31  1  0.27772763  0.70249869  0.18582129  1
  O  O32  1  0.56041396  0.56041396  0.00543729  1
  O  O33  1  0.42502000  0.23031715  0.49261746  1
  O  O34  1  0.23031715  0.42502000  0.49261746  1
  O  O35  1  0.08485434  0.08485434  0.47707860  1
  O  O36  1  0.59483952  0.04583911  0.63012132  1
  O  O37  1  0.04583911  0.59483952  0.63012132  1
  O  O38  1  0.21555212  0.21555212  0.31121621  1
  O  O39  1  0.89689315  0.89689315  0.89128460  1
  O  O40  1  0.77808835  0.20548289  0.84942624  1
  O  O41  1  0.20548289  0.77808835  0.84942624  1
  O  O42  1  0.41196970  0.91565384  0.07420987  1
  O  O43  1  0.91565384  0.41196970  0.07420987  1
  O  O44  1  0.29214654  0.29214654  0.91109064  1
  O  O45  1  0.56818134  0.06380500  0.29742816  1
  O  O46  1  0.06380500  0.56818134  0.29742816  1
  O  O47  1  0.87718143  0.87718143  0.39730633  1
  O  O48  1  0.75387107  0.75387107  0.68325793  1
  O  O49  1  0.21835392  0.21835392  0.69337106  1
  O  O50  1  0.10363710  0.10363710  0.97278383  1
  O  O51  1  0.76444194  0.76444194  0.05668949  1
  O  O52  1  0.55014991  0.74554681  0.87805067  1
  O  O53  1  0.74554681  0.55014991  0.87805067  1
  O  O54  1  0.48703578  0.68046300  0.57308023  1
  O  O55  1  0.68046300  0.48703578  0.57308023  1
  O  O56  1  0.57230888  0.08457232  0.96339138  1
  O  O57  1  0.08457232  0.57230888  0.96339138  1
  O  O58  1  0.40755771  0.89511125  0.40815400  1
  O  O59  1  0.89511125  0.40755771  0.40815400  1
  O  O60  1  0.77534290  0.20122145  0.52248977  1
  O  O61  1  0.20122145  0.77534290  0.52248977  1
  O  O62  1  0.88921789  0.08368512  0.29519750  1
  O  O63  1  0.08368512  0.88921789  0.29519750  1
  O  O64  1  0.89580741  0.09047149  0.07380132  1
  O  O65  1  0.09047149  0.89580741  0.07380132  1
