# generated using pymatgen
data_Rb2LaF5
_symmetry_space_group_name_H-M   'P 1'
_cell_length_a   7.09197322
_cell_length_b   11.70098452
_cell_length_c   7.87907123
_cell_angle_alpha   90.00000000
_cell_angle_beta   90.00000000
_cell_angle_gamma   90.00000000
_symmetry_Int_Tables_number   1
_chemical_formula_structural   Rb2LaF5
_chemical_formula_sum   'Rb8 La4 F20'
_cell_volume   653.82951046
_cell_formula_units_Z   4
loop_
 _symmetry_equiv_pos_site_id
 _symmetry_equiv_pos_as_xyz
  1  'x, y, z'
loop_
 _atom_site_type_symbol
 _atom_site_label
 _atom_site_symmetry_multiplicity
 _atom_site_fract_x
 _atom_site_fract_y
 _atom_site_fract_z
 _atom_site_occupancy
  Rb  Rb0  1  0.46669830  0.83018806  0.97508381  1
  Rb  Rb1  1  0.53330170  0.16981194  0.47508381  1
  Rb  Rb2  1  0.03330170  0.33018806  0.97508381  1
  Rb  Rb3  1  0.96669830  0.66981194  0.47508381  1
  Rb  Rb4  1  0.97367849  0.67147914  0.98111006  1
  Rb  Rb5  1  0.02632151  0.32852086  0.48111006  1
  Rb  Rb6  1  0.52632151  0.17147914  0.98111006  1
  Rb  Rb7  1  0.47367849  0.82852086  0.48111006  1
  La  La8  1  0.56242949  0.49851282  0.73159107  1
  La  La9  1  0.43757051  0.50148718  0.23159107  1
  La  La10  1  0.93757051  0.99851282  0.73159107  1
  La  La11  1  0.06242949  0.00148718  0.23159107  1
  F  F12  1  0.85381093  0.92443312  0.01466225  1
  F  F13  1  0.14618907  0.07556688  0.51466225  1
  F  F14  1  0.64618907  0.42443312  0.01466225  1
  F  F15  1  0.35381093  0.57556688  0.51466225  1
  F  F16  1  0.60709112  0.98822219  0.73053174  1
  F  F17  1  0.39290888  0.01177781  0.23053174  1
  F  F18  1  0.89290888  0.48822219  0.73053174  1
  F  F19  1  0.10709112  0.51177781  0.23053174  1
  F  F20  1  0.85553993  0.92274846  0.44885389  1
  F  F21  1  0.14446007  0.07725154  0.94885389  1
  F  F22  1  0.64446007  0.42274846  0.44885389  1
  F  F23  1  0.35553993  0.57725154  0.94885389  1
  F  F24  1  0.66170428  0.69135807  0.73155229  1
  F  F25  1  0.33829572  0.30864193  0.23155229  1
  F  F26  1  0.83829572  0.19135807  0.73155229  1
  F  F27  1  0.16170428  0.80864193  0.23155229  1
  F  F28  1  0.62864315  0.66470931  0.23961489  1
  F  F29  1  0.37135685  0.33529069  0.73961489  1
  F  F30  1  0.87135685  0.16470931  0.23961489  1
  F  F31  1  0.12864315  0.83529069  0.73961489  1
