# generated using pymatgen
data_Rb2PrI5
_symmetry_space_group_name_H-M   'P 1'
_cell_length_a   9.54466566
_cell_length_b   10.06918593
_cell_length_c   15.14975648
_cell_angle_alpha   90.00000000
_cell_angle_beta   90.00000000
_cell_angle_gamma   90.00000000
_symmetry_Int_Tables_number   1
_chemical_formula_structural   Rb2PrI5
_chemical_formula_sum   'Rb8 Pr4 I20'
_cell_volume   1455.99784555
_cell_formula_units_Z   4
loop_
 _symmetry_equiv_pos_site_id
 _symmetry_equiv_pos_as_xyz
  1  'x, y, z'
loop_
 _atom_site_type_symbol
 _atom_site_label
 _atom_site_symmetry_multiplicity
 _atom_site_fract_x
 _atom_site_fract_y
 _atom_site_fract_z
 _atom_site_occupancy
  Rb  Rb0  1  0.55633242  0.49684190  0.67364765  1
  Rb  Rb1  1  0.44366758  0.50315810  0.32635235  1
  Rb  Rb2  1  0.05633242  0.50315810  0.82635235  1
  Rb  Rb3  1  0.44366758  0.99684190  0.32635235  1
  Rb  Rb4  1  0.94366758  0.49684190  0.17364765  1
  Rb  Rb5  1  0.55633242  0.00315810  0.67364765  1
  Rb  Rb6  1  0.94366758  0.00315810  0.17364765  1
  Rb  Rb7  1  0.05633242  0.99684190  0.82635235  1
  Pr  Pr8  1  0.57799474  0.75000000  0.99515924  1
  Pr  Pr9  1  0.42200526  0.25000000  0.00484076  1
  Pr  Pr10  1  0.07799474  0.25000000  0.50484076  1
  Pr  Pr11  1  0.92200526  0.75000000  0.49515924  1
  I  I12  1  0.37778594  0.75000000  0.82475758  1
  I  I13  1  0.62221406  0.25000000  0.17524242  1
  I  I14  1  0.87778594  0.25000000  0.67524242  1
  I  I15  1  0.12221406  0.75000000  0.32475758  1
  I  I16  1  0.66360312  0.45511569  0.92627967  1
  I  I17  1  0.33639688  0.54488431  0.07372033  1
  I  I18  1  0.16360312  0.54488431  0.57372033  1
  I  I19  1  0.33639688  0.95511569  0.07372033  1
  I  I20  1  0.83639688  0.45511569  0.42627967  1
  I  I21  1  0.66360312  0.04488431  0.92627967  1
  I  I22  1  0.83639688  0.04488431  0.42627967  1
  I  I23  1  0.16360312  0.95511569  0.57372033  1
  I  I24  1  0.91788542  0.75000000  0.98970380  1
  I  I25  1  0.08211458  0.25000000  0.01029620  1
  I  I26  1  0.41788542  0.25000000  0.51029620  1
  I  I27  1  0.58211458  0.75000000  0.48970380  1
  I  I28  1  0.84189543  0.75000000  0.70028193  1
  I  I29  1  0.15810457  0.25000000  0.29971807  1
  I  I30  1  0.34189543  0.25000000  0.79971807  1
  I  I31  1  0.65810457  0.75000000  0.20028193  1
