# generated using pymatgen
data_Rb2Cd2O3
_symmetry_space_group_name_H-M   'P 1'
_cell_length_a   6.62601141
_cell_length_b   7.10478593
_cell_length_c   6.83817519
_cell_angle_alpha   90.00000000
_cell_angle_beta   90.00000000
_cell_angle_gamma   117.17648039
_symmetry_Int_Tables_number   1
_chemical_formula_structural   Rb2Cd2O3
_chemical_formula_sum   'Rb4 Cd4 O6'
_cell_volume   286.37829190
_cell_formula_units_Z   2
loop_
 _symmetry_equiv_pos_site_id
 _symmetry_equiv_pos_as_xyz
  1  'x, y, z'
loop_
 _atom_site_type_symbol
 _atom_site_label
 _atom_site_symmetry_multiplicity
 _atom_site_fract_x
 _atom_site_fract_y
 _atom_site_fract_z
 _atom_site_occupancy
  Rb  Rb0  1  0.17252124  0.91662522  0.64730159  1
  Rb  Rb1  1  0.82747876  0.08337478  0.35269841  1
  Rb  Rb2  1  0.82747876  0.58337478  0.14730159  1
  Rb  Rb3  1  0.17252124  0.41662522  0.85269841  1
  Cd  Cd4  1  0.66348798  0.92252762  0.87923036  1
  Cd  Cd5  1  0.33651202  0.07747238  0.12076964  1
  Cd  Cd6  1  0.33651202  0.57747238  0.37923036  1
  Cd  Cd7  1  0.66348798  0.42252762  0.62076964  1
  O  O8  1  0.61067886  0.71792724  0.61810102  1
  O  O9  1  0.38932114  0.28207276  0.38189898  1
  O  O10  1  0.38932114  0.78207276  0.11810102  1
  O  O11  1  0.61067886  0.21792724  0.88189898  1
  O  O12  1  0.00000000  0.00000000  -0.00000000  1
  O  O13  1  0.00000000  0.50000000  0.50000000  1
