# generated using pymatgen
data_Rb2W3SeO12
_symmetry_space_group_name_H-M   'P 1'
_cell_length_a   7.37273721
_cell_length_b   7.37273721
_cell_length_c   12.51203078
_cell_angle_alpha   90.00000000
_cell_angle_beta   90.00000000
_cell_angle_gamma   119.99999687
_symmetry_Int_Tables_number   1
_chemical_formula_structural   Rb2W3SeO12
_chemical_formula_sum   'Rb4 W6 Se2 O24'
_cell_volume   589.00090012
_cell_formula_units_Z   2
loop_
 _symmetry_equiv_pos_site_id
 _symmetry_equiv_pos_as_xyz
  1  'x, y, z'
loop_
 _atom_site_type_symbol
 _atom_site_label
 _atom_site_symmetry_multiplicity
 _atom_site_fract_x
 _atom_site_fract_y
 _atom_site_fract_z
 _atom_site_occupancy
  Rb  Rb0  1  0.66666700  0.33333300  0.54696720  1
  Rb  Rb1  1  0.33333300  0.66666700  0.04696720  1
  Rb  Rb2  1  0.66666700  0.33333300  0.93245451  1
  Rb  Rb3  1  0.33333300  0.66666700  0.43245451  1
  W  W4  1  0.66129545  0.82736994  0.76386271  1
  W  W5  1  0.16607449  0.33870455  0.76386271  1
  W  W6  1  0.33870455  0.17263006  0.26386271  1
  W  W7  1  0.17263006  0.83392551  0.76386271  1
  W  W8  1  0.83392551  0.66129545  0.26386271  1
  W  W9  1  0.82736994  0.16607449  0.26386271  1
  Se  Se10  1  0.00000000  -0.00000000  0.99154095  1
  Se  Se11  1  0.00000000  -0.00000000  0.49154095  1
  O  O12  1  0.75192403  0.87262835  0.93283421  1
  O  O13  1  0.12070432  0.24807597  0.93283421  1
  O  O14  1  0.24807597  0.12737165  0.43283421  1
  O  O15  1  0.12737165  0.87929568  0.93283421  1
  O  O16  1  0.87929568  0.75192403  0.43283421  1
  O  O17  1  0.87262835  0.12070432  0.43283421  1
  O  O18  1  0.45426702  0.54222114  0.80849191  1
  O  O19  1  0.08795412  0.54573298  0.80849191  1
  O  O20  1  0.54573298  0.45777886  0.30849191  1
  O  O21  1  0.45777886  0.91204588  0.80849191  1
  O  O22  1  0.91204588  0.45426702  0.30849191  1
  O  O23  1  0.54222114  0.08795412  0.30849191  1
  O  O24  1  0.59844720  0.79187343  0.62636986  1
  O  O25  1  0.19342623  0.40155280  0.62636986  1
  O  O26  1  0.40155280  0.20812657  0.12636986  1
  O  O27  1  0.20812657  0.80657377  0.62636986  1
  O  O28  1  0.80657377  0.59844720  0.12636986  1
  O  O29  1  0.79187343  0.19342623  0.12636986  1
  O  O30  1  0.87261963  0.12309117  0.75275376  1
  O  O31  1  0.25047154  0.12738037  0.75275376  1
  O  O32  1  0.12738037  0.87690883  0.25275376  1
  O  O33  1  0.87690883  0.74952846  0.75275376  1
  O  O34  1  0.74952846  0.87261963  0.25275376  1
  O  O35  1  0.12309117  0.25047154  0.25275376  1
