# generated using pymatgen
data_SrPO4
_symmetry_space_group_name_H-M   'P 1'
_cell_length_a   6.88454196
_cell_length_b   7.28006721
_cell_length_c   7.30942179
_cell_angle_alpha   78.69846764
_cell_angle_beta   83.25210054
_cell_angle_gamma   89.59018456
_symmetry_Int_Tables_number   1
_chemical_formula_structural   SrPO4
_chemical_formula_sum   'Sr4 P4 O16'
_cell_volume   356.70802915
_cell_formula_units_Z   4
loop_
 _symmetry_equiv_pos_site_id
 _symmetry_equiv_pos_as_xyz
  1  'x, y, z'
loop_
 _atom_site_type_symbol
 _atom_site_label
 _atom_site_symmetry_multiplicity
 _atom_site_fract_x
 _atom_site_fract_y
 _atom_site_fract_z
 _atom_site_occupancy
  Sr  Sr0  1  0.55296328  0.69523426  0.24463137  1
  Sr  Sr1  1  0.44703672  0.30476574  0.75536863  1
  Sr  Sr2  1  0.14239138  0.81552401  0.68902353  1
  Sr  Sr3  1  0.85760862  0.18447599  0.31097647  1
  P  P4  1  0.37652753  0.20384515  0.28975747  1
  P  P5  1  0.62347247  0.79615485  0.71024253  1
  P  P6  1  0.05028166  0.70464540  0.21726575  1
  P  P7  1  0.94971834  0.29535460  0.78273425  1
  O  O8  1  0.19503160  0.12515992  0.42530464  1
  O  O9  1  0.80496840  0.87484008  0.57469536  1
  O  O10  1  0.49351253  0.33932466  0.37755591  1
  O  O11  1  0.50648747  0.66067534  0.62244409  1
  O  O12  1  0.31663734  0.30404267  0.09721042  1
  O  O13  1  0.68336266  0.69595733  0.90278958  1
  O  O14  1  0.51465734  0.04312549  0.24805343  1
  O  O15  1  0.48534266  0.95687451  0.75194657  1
  O  O16  1  0.92700457  0.88463252  0.17722283  1
  O  O17  1  0.07299543  0.11536748  0.82277717  1
  O  O18  1  0.18502891  0.69209756  0.03571441  1
  O  O19  1  0.81497109  0.30790244  0.96428559  1
  O  O20  1  0.90215020  0.53953403  0.27404903  1
  O  O21  1  0.09784980  0.46046597  0.72595097  1
  O  O22  1  0.18370056  0.70931452  0.37179251  1
  O  O23  1  0.81629944  0.29068548  0.62820749  1
