# generated using pymatgen
data_RbHoP2O7
_symmetry_space_group_name_H-M   'P 1'
_cell_length_a   7.88176029
_cell_length_b   8.81518993
_cell_length_c   11.03213856
_cell_angle_alpha   90.00000000
_cell_angle_beta   90.00000000
_cell_angle_gamma   105.64154412
_symmetry_Int_Tables_number   1
_chemical_formula_structural   RbHoP2O7
_chemical_formula_sum   'Rb4 Ho4 P8 O28'
_cell_volume   738.11860931
_cell_formula_units_Z   4
loop_
 _symmetry_equiv_pos_site_id
 _symmetry_equiv_pos_as_xyz
  1  'x, y, z'
loop_
 _atom_site_type_symbol
 _atom_site_label
 _atom_site_symmetry_multiplicity
 _atom_site_fract_x
 _atom_site_fract_y
 _atom_site_fract_z
 _atom_site_occupancy
  Rb  Rb0  1  0.81827716  0.94343021  0.31801168  1
  Rb  Rb1  1  0.18172284  0.05656979  0.68198832  1
  Rb  Rb2  1  0.18172284  0.55656979  0.81801168  1
  Rb  Rb3  1  0.81827716  0.44343021  0.18198832  1
  Ho  Ho4  1  0.76185798  0.74198466  0.90047523  1
  Ho  Ho5  1  0.23814202  0.25801534  0.09952477  1
  Ho  Ho6  1  0.23814202  0.75801534  0.40047523  1
  Ho  Ho7  1  0.76185798  0.24198466  0.59952477  1
  P  P8  1  0.56667921  0.80827077  0.63297303  1
  P  P9  1  0.43332079  0.19172923  0.36702697  1
  P  P10  1  0.43332079  0.69172923  0.13297303  1
  P  P11  1  0.56667921  0.30827077  0.86702697  1
  P  P12  1  0.86764422  0.67578735  0.59788842  1
  P  P13  1  0.13235578  0.32421265  0.40211158  1
  P  P14  1  0.13235578  0.82421265  0.09788842  1
  P  P15  1  0.86764422  0.17578735  0.90211158  1
  O  O16  1  0.38448739  0.76572799  0.57425021  1
  O  O17  1  0.61551261  0.23427201  0.42574979  1
  O  O18  1  0.61551261  0.73427201  0.07425021  1
  O  O19  1  0.38448739  0.26572799  0.92574979  1
  O  O20  1  0.91752830  0.74113158  0.72609086  1
  O  O21  1  0.08247170  0.25886842  0.27390914  1
  O  O22  1  0.08247170  0.75886842  0.22609086  1
  O  O23  1  0.91752830  0.24113158  0.77390914  1
  O  O24  1  0.55314488  0.76084888  0.76682262  1
  O  O25  1  0.44685512  0.23915112  0.23317738  1
  O  O26  1  0.44685512  0.73915112  0.26682262  1
  O  O27  1  0.55314488  0.26084888  0.73317738  1
  O  O28  1  0.67108347  0.97859758  0.60796334  1
  O  O29  1  0.32891653  0.02140242  0.39203666  1
  O  O30  1  0.32891653  0.52140242  0.10796334  1
  O  O31  1  0.67108347  0.47859758  0.89203666  1
  O  O32  1  0.84960102  0.00020217  0.90993712  1
  O  O33  1  0.15039898  0.99979783  0.09006288  1
  O  O34  1  0.15039898  0.49979783  0.40993712  1
  O  O35  1  0.84960102  0.50020217  0.59006288  1
  O  O36  1  0.67412174  0.69814767  0.56354910  1
  O  O37  1  0.32587826  0.30185233  0.43645090  1
  O  O38  1  0.32587826  0.80185233  0.06354910  1
  O  O39  1  0.67412174  0.19814767  0.93645090  1
  O  O40  1  0.00576559  0.72766733  0.00290546  1
  O  O41  1  0.99423441  0.27233267  0.99709454  1
  O  O42  1  0.99423441  0.77233267  0.50290546  1
  O  O43  1  0.00576559  0.22766733  0.49709454  1
