# generated using pymatgen
data_PuF4
_symmetry_space_group_name_H-M   'P 1'
_cell_length_a   8.32500157
_cell_length_b   8.32500157
_cell_length_c   8.32350294
_cell_angle_alpha   63.06642191
_cell_angle_beta   63.06642191
_cell_angle_gamma   80.44374395
_symmetry_Int_Tables_number   1
_chemical_formula_structural   PuF4
_chemical_formula_sum   'Pu6 F24'
_cell_volume   457.95340486
_cell_formula_units_Z   6
loop_
 _symmetry_equiv_pos_site_id
 _symmetry_equiv_pos_as_xyz
  1  'x, y, z'
loop_
 _atom_site_type_symbol
 _atom_site_label
 _atom_site_symmetry_multiplicity
 _atom_site_fract_x
 _atom_site_fract_y
 _atom_site_fract_z
 _atom_site_occupancy
  Pu  Pu0  1  0.36745418  0.22250628  0.83084522  1
  Pu  Pu1  1  0.63254582  0.77749372  0.16915478  1
  Pu  Pu2  1  0.77749372  0.63254582  0.66915478  1
  Pu  Pu3  1  0.22250628  0.36745418  0.33084522  1
  Pu  Pu4  1  0.21357294  0.78642706  0.75000000  1
  Pu  Pu5  1  0.78642706  0.21357294  0.25000000  1
  F  F6  1  0.68036491  0.74174891  0.89547615  1
  F  F7  1  0.31963509  0.25825109  0.10452385  1
  F  F8  1  0.25825109  0.31963509  0.60452385  1
  F  F9  1  0.74174891  0.68036491  0.39547615  1
  F  F10  1  0.17377338  0.06480133  0.54398674  1
  F  F11  1  0.82622662  0.93519867  0.45601326  1
  F  F12  1  0.93519867  0.82622662  0.95601326  1
  F  F13  1  0.06480133  0.17377338  0.04398674  1
  F  F14  1  0.60297301  0.39702699  0.75000000  1
  F  F15  1  0.39702699  0.60297301  0.25000000  1
  F  F16  1  0.50000000  -0.00000000  0.00000000  1
  F  F17  1  -0.00000000  0.50000000  0.50000000  1
  F  F18  1  0.49642482  0.74092723  0.71899815  1
  F  F19  1  0.50357518  0.25907277  0.28100185  1
  F  F20  1  0.25907277  0.50357518  0.78100185  1
  F  F21  1  0.74092723  0.49642482  0.21899815  1
  F  F22  1  0.59875419  0.18594516  0.57236109  1
  F  F23  1  0.40124581  0.81405484  0.42763891  1
  F  F24  1  0.81405484  0.40124581  0.92763891  1
  F  F25  1  0.18594516  0.59875419  0.07236109  1
  F  F26  1  0.27443161  0.97217159  0.84947457  1
  F  F27  1  0.72556839  0.02782841  0.15052543  1
  F  F28  1  0.02782841  0.72556839  0.65052543  1
  F  F29  1  0.97217159  0.27443161  0.34947457  1
