# generated using pymatgen
data_Pr3OsBr3
_symmetry_space_group_name_H-M   'P 1'
_cell_length_a   10.55526774
_cell_length_b   10.55526774
_cell_length_c   10.55526774
_cell_angle_alpha   109.47122063
_cell_angle_beta   109.47122063
_cell_angle_gamma   109.47122063
_symmetry_Int_Tables_number   1
_chemical_formula_structural   Pr3OsBr3
_chemical_formula_sum   'Pr12 Os4 Br12'
_cell_volume   905.28613868
_cell_formula_units_Z   4
loop_
 _symmetry_equiv_pos_site_id
 _symmetry_equiv_pos_as_xyz
  1  'x, y, z'
loop_
 _atom_site_type_symbol
 _atom_site_label
 _atom_site_symmetry_multiplicity
 _atom_site_fract_x
 _atom_site_fract_y
 _atom_site_fract_z
 _atom_site_occupancy
  Pr  Pr0  1  0.76602912  0.51602912  0.53205825  1
  Pr  Pr1  1  0.73397088  0.76602912  0.25000000  1
  Pr  Pr2  1  0.51602912  0.98397088  0.25000000  1
  Pr  Pr3  1  0.51602912  0.53205825  0.76602912  1
  Pr  Pr4  1  0.76602912  0.25000000  0.73397088  1
  Pr  Pr5  1  0.98397088  0.73397088  0.96794175  1
  Pr  Pr6  1  0.73397088  0.96794175  0.98397088  1
  Pr  Pr7  1  0.98397088  0.25000000  0.51602912  1
  Pr  Pr8  1  0.53205825  0.76602912  0.51602912  1
  Pr  Pr9  1  0.25000000  0.51602912  0.98397088  1
  Pr  Pr10  1  0.96794175  0.98397088  0.73397088  1
  Pr  Pr11  1  0.25000000  0.73397088  0.76602912  1
  Os  Os12  1  0.75000000  0.75000000  0.75000000  1
  Os  Os13  1  0.75000000  0.00000000  0.50000000  1
  Os  Os14  1  0.50000000  0.75000000  0.00000000  1
  Os  Os15  1  -0.00000000  0.50000000  0.75000000  1
  Br  Br16  1  0.25487610  0.24512390  0.75000000  1
  Br  Br17  1  0.24512390  0.49512390  0.49024781  1
  Br  Br18  1  0.00487610  0.25487610  0.00975219  1
  Br  Br19  1  0.24512390  0.75000000  0.25487610  1
  Br  Br20  1  0.25487610  0.00975219  0.00487610  1
  Br  Br21  1  0.49512390  0.00487610  0.75000000  1
  Br  Br22  1  0.49512390  0.49024781  0.24512390  1
  Br  Br23  1  0.00487610  0.75000000  0.49512390  1
  Br  Br24  1  0.75000000  0.25487610  0.24512390  1
  Br  Br25  1  0.00975219  0.00487610  0.25487610  1
  Br  Br26  1  0.75000000  0.49512390  0.00487610  1
  Br  Br27  1  0.49024781  0.24512390  0.49512390  1
