# generated using pymatgen
data_RbHo(MoO4)2
_symmetry_space_group_name_H-M   'P 1'
_cell_length_a   5.14660803
_cell_length_b   8.19889429
_cell_length_c   19.14372463
_cell_angle_alpha   90.00000000
_cell_angle_beta   90.00000000
_cell_angle_gamma   90.00000000
_symmetry_Int_Tables_number   1
_chemical_formula_structural   RbHo(MoO4)2
_chemical_formula_sum   'Rb4 Ho4 Mo8 O32'
_cell_volume   807.79808427
_cell_formula_units_Z   4
loop_
 _symmetry_equiv_pos_site_id
 _symmetry_equiv_pos_as_xyz
  1  'x, y, z'
loop_
 _atom_site_type_symbol
 _atom_site_label
 _atom_site_symmetry_multiplicity
 _atom_site_fract_x
 _atom_site_fract_y
 _atom_site_fract_z
 _atom_site_occupancy
  Rb  Rb0  1  0.00000000  0.75000000  0.22894185  1
  Rb  Rb1  1  0.00000000  0.25000000  0.77105815  1
  Rb  Rb2  1  0.50000000  0.25000000  0.27105815  1
  Rb  Rb3  1  0.50000000  0.75000000  0.72894185  1
  Ho  Ho4  1  0.00000000  0.75000000  0.99344386  1
  Ho  Ho5  1  0.00000000  0.25000000  0.00655614  1
  Ho  Ho6  1  0.50000000  0.25000000  0.50655614  1
  Ho  Ho7  1  0.50000000  0.75000000  0.49344386  1
  Mo  Mo8  1  0.97478493  0.98480970  0.59689097  1
  Mo  Mo9  1  0.02521507  0.01519030  0.40310903  1
  Mo  Mo10  1  0.52521507  0.48480970  0.90310903  1
  Mo  Mo11  1  0.02521507  0.51519030  0.59689097  1
  Mo  Mo12  1  0.47478493  0.51519030  0.09689097  1
  Mo  Mo13  1  0.97478493  0.48480970  0.40310903  1
  Mo  Mo14  1  0.47478493  0.01519030  0.90310903  1
  Mo  Mo15  1  0.52521507  0.98480970  0.09689097  1
  O  O16  1  0.90880662  0.52437217  0.68303170  1
  O  O17  1  0.09119338  0.47562783  0.31696830  1
  O  O18  1  0.59119338  0.02437217  0.81696830  1
  O  O19  1  0.09119338  0.97562783  0.68303170  1
  O  O20  1  0.40880662  0.97562783  0.18303170  1
  O  O21  1  0.90880662  0.02437217  0.31696830  1
  O  O22  1  0.40880662  0.47562783  0.81696830  1
  O  O23  1  0.59119338  0.52437217  0.18303170  1
  O  O24  1  0.73412148  0.66067808  0.90548321  1
  O  O25  1  0.26587852  0.33932192  0.09451679  1
  O  O26  1  0.76587852  0.16067808  0.59451679  1
  O  O27  1  0.26587852  0.83932192  0.90548321  1
  O  O28  1  0.23412148  0.83932192  0.40548321  1
  O  O29  1  0.73412148  0.16067808  0.09451679  1
  O  O30  1  0.23412148  0.33932192  0.59451679  1
  O  O31  1  0.76587852  0.66067808  0.40548321  1
  O  O32  1  0.75309202  0.99383806  0.96481522  1
  O  O33  1  0.24690798  0.00616194  0.03518478  1
  O  O34  1  0.74690798  0.49383806  0.53518478  1
  O  O35  1  0.24690798  0.50616194  0.96481522  1
  O  O36  1  0.25309202  0.50616194  0.46481522  1
  O  O37  1  0.75309202  0.49383806  0.03518478  1
  O  O38  1  0.25309202  0.00616194  0.53518478  1
  O  O39  1  0.74690798  0.99383806  0.46481522  1
  O  O40  1  0.75783658  0.81134257  0.58640720  1
  O  O41  1  0.24216342  0.18865743  0.41359280  1
  O  O42  1  0.74216342  0.31134257  0.91359280  1
  O  O43  1  0.24216342  0.68865743  0.58640720  1
  O  O44  1  0.25783658  0.68865743  0.08640720  1
  O  O45  1  0.75783658  0.31134257  0.41359280  1
  O  O46  1  0.25783658  0.18865743  0.91359280  1
  O  O47  1  0.74216342  0.81134257  0.08640720  1
