# generated using pymatgen
data_NiP8W
_symmetry_space_group_name_H-M   'P 1'
_cell_length_a   6.23811425
_cell_length_b   6.23811425
_cell_length_c   8.77249790
_cell_angle_alpha   90.00000000
_cell_angle_beta   90.00000000
_cell_angle_gamma   120.00000220
_symmetry_Int_Tables_number   1
_chemical_formula_structural   NiP8W
_chemical_formula_sum   'Ni2 P16 W2'
_cell_volume   295.63819611
_cell_formula_units_Z   2
loop_
 _symmetry_equiv_pos_site_id
 _symmetry_equiv_pos_as_xyz
  1  'x, y, z'
loop_
 _atom_site_type_symbol
 _atom_site_label
 _atom_site_symmetry_multiplicity
 _atom_site_fract_x
 _atom_site_fract_y
 _atom_site_fract_z
 _atom_site_occupancy
  Ni  Ni0  1  -0.00000000  -0.00000000  -0.00000000  1
  Ni  Ni1  1  -0.00000000  -0.00000000  0.50000000  1
  P  P2  1  0.66666700  0.33333300  0.96344816  1
  P  P3  1  0.33333300  0.66666700  0.03655184  1
  P  P4  1  0.66666700  0.33333300  0.53655184  1
  P  P5  1  0.33333300  0.66666700  0.46344816  1
  P  P6  1  0.95555029  0.27589509  0.84681926  1
  P  P7  1  0.04444971  0.72410491  0.15318074  1
  P  P8  1  0.32034480  0.04444971  0.84681926  1
  P  P9  1  0.32034480  0.27589509  0.65318074  1
  P  P10  1  0.67965520  0.95555029  0.15318074  1
  P  P11  1  0.67965520  0.72410491  0.34681926  1
  P  P12  1  0.72410491  0.67965520  0.84681926  1
  P  P13  1  0.72410491  0.04444971  0.65318074  1
  P  P14  1  0.27589509  0.32034480  0.15318074  1
  P  P15  1  0.27589509  0.95555029  0.34681926  1
  P  P16  1  0.95555029  0.67965520  0.65318074  1
  P  P17  1  0.04444971  0.32034480  0.34681926  1
  W  W18  1  0.33333300  0.66666700  0.75000000  1
  W  W19  1  0.66666700  0.33333300  0.25000000  1
