# generated using pymatgen
data_Pr2(Al3Rh)3
_symmetry_space_group_name_H-M   'P 1'
_cell_length_a   7.64797061
_cell_length_b   7.73191749
_cell_length_c   9.66238926
_cell_angle_alpha   90.00000000
_cell_angle_beta   90.00000000
_cell_angle_gamma   120.36376859
_symmetry_Int_Tables_number   1
_chemical_formula_structural   Pr2(Al3Rh)3
_chemical_formula_sum   'Pr4 Al18 Rh6'
_cell_volume   492.99775849
_cell_formula_units_Z   2
loop_
 _symmetry_equiv_pos_site_id
 _symmetry_equiv_pos_as_xyz
  1  'x, y, z'
loop_
 _atom_site_type_symbol
 _atom_site_label
 _atom_site_symmetry_multiplicity
 _atom_site_fract_x
 _atom_site_fract_y
 _atom_site_fract_z
 _atom_site_occupancy
  Pr  Pr0  1  0.67504248  0.67004021  0.25000000  1
  Pr  Pr1  1  0.32495752  0.32995979  0.75000000  1
  Pr  Pr2  1  0.32495752  0.99499773  0.25000000  1
  Pr  Pr3  1  0.67504248  0.00500227  0.75000000  1
  Al  Al4  1  1.00000000  0.13047964  0.25000000  1
  Al  Al5  1  0.00000000  0.86952036  0.75000000  1
  Al  Al6  1  0.33102082  0.33523817  0.07214553  1
  Al  Al7  1  0.66897918  0.66476183  0.92785447  1
  Al  Al8  1  0.66897918  0.66476183  0.57214553  1
  Al  Al9  1  0.66897918  0.00421735  0.42785447  1
  Al  Al10  1  0.33102082  0.33523817  0.42785447  1
  Al  Al11  1  0.33102082  0.99578265  0.57214553  1
  Al  Al12  1  0.33102082  0.99578265  0.92785447  1
  Al  Al13  1  0.66897918  0.00421735  0.07214553  1
  Al  Al14  1  1.00000000  0.33486092  0.54652372  1
  Al  Al15  1  0.00000000  0.66513908  0.45347628  1
  Al  Al16  1  0.00000000  0.66513908  0.04652372  1
  Al  Al17  1  1.00000000  0.33486092  0.95347628  1
  Al  Al18  1  0.20693345  0.54553460  0.25000000  1
  Al  Al19  1  0.79306655  0.45446540  0.75000000  1
  Al  Al20  1  0.79306655  0.33860115  0.25000000  1
  Al  Al21  1  0.20693345  0.66139885  0.75000000  1
  Rh  Rh22  1  0.65810191  0.32905095  0.00000000  1
  Rh  Rh23  1  0.34189809  0.67094905  0.00000000  1
  Rh  Rh24  1  0.34189809  0.67094905  0.50000000  1
  Rh  Rh25  1  0.65810191  0.32905095  0.50000000  1
  Rh  Rh26  1  0.00000000  0.00000000  0.00000000  1
  Rh  Rh27  1  0.00000000  0.00000000  0.50000000  1
