# generated using pymatgen
data_KMnH3(CO2)3
_symmetry_space_group_name_H-M   'P 1'
_cell_length_a   7.24645180
_cell_length_b   7.27916820
_cell_length_c   7.27916820
_cell_angle_alpha   78.58852042
_cell_angle_beta   85.00532144
_cell_angle_gamma   85.00532144
_symmetry_Int_Tables_number   1
_chemical_formula_structural   KMnH3(CO2)3
_chemical_formula_sum   'K2 Mn2 H6 C6 O12'
_cell_volume   373.98298779
_cell_formula_units_Z   2
loop_
 _symmetry_equiv_pos_site_id
 _symmetry_equiv_pos_as_xyz
  1  'x, y, z'
loop_
 _atom_site_type_symbol
 _atom_site_label
 _atom_site_symmetry_multiplicity
 _atom_site_fract_x
 _atom_site_fract_y
 _atom_site_fract_z
 _atom_site_occupancy
  K  K0  1  0.75000000  0.39923079  0.60076921  1
  K  K1  1  0.25000000  0.60076921  0.39923079  1
  Mn  Mn2  1  0.50000000  -0.00000000  0.50000000  1
  Mn  Mn3  1  -0.00000000  0.50000000  -0.00000000  1
  H  H4  1  0.51554175  0.21121303  0.06312054  1
  H  H5  1  0.98445825  0.93687946  0.78878697  1
  H  H6  1  0.48445825  0.78878697  0.93687946  1
  H  H7  1  0.01554175  0.06312054  0.21121303  1
  H  H8  1  0.75000000  0.87274502  0.12725498  1
  H  H9  1  0.25000000  0.12725498  0.87274502  1
  C  C10  1  0.75000000  0.75196320  0.24803680  1
  C  C11  1  0.25000000  0.24803680  0.75196320  1
  C  C12  1  0.63704355  0.25610986  0.12134240  1
  C  C13  1  0.86295645  0.87865760  0.74389014  1
  C  C14  1  0.36295645  0.74389014  0.87865760  1
  C  C15  1  0.13704355  0.12134240  0.25610986  1
  O  O16  1  0.62124389  0.75362318  0.37771159  1
  O  O17  1  0.87875611  0.62228841  0.24637682  1
  O  O18  1  0.37875611  0.24637682  0.62228841  1
  O  O19  1  0.12124389  0.37771159  0.75362318  1
  O  O20  1  0.64747358  0.21227292  0.29789595  1
  O  O21  1  0.85252642  0.70210405  0.78772708  1
  O  O22  1  0.35252642  0.78772708  0.70210405  1
  O  O23  1  0.14747358  0.29789595  0.21227292  1
  O  O24  1  0.74837107  0.99594742  0.65391461  1
  O  O25  1  0.75162893  0.34608539  0.00405258  1
  O  O26  1  0.25162893  0.00405258  0.34608539  1
  O  O27  1  0.24837107  0.65391461  0.99594742  1
