# generated using pymatgen
data_NdSiPd
_symmetry_space_group_name_H-M   'P 1'
_cell_length_a   4.45283173
_cell_length_b   21.85832081
_cell_length_c   7.57423325
_cell_angle_alpha   90.00000000
_cell_angle_beta   90.00000000
_cell_angle_gamma   90.00000000
_symmetry_Int_Tables_number   1
_chemical_formula_structural   NdSiPd
_chemical_formula_sum   'Nd12 Si12 Pd12'
_cell_volume   737.21091147
_cell_formula_units_Z   12
loop_
 _symmetry_equiv_pos_site_id
 _symmetry_equiv_pos_as_xyz
  1  'x, y, z'
loop_
 _atom_site_type_symbol
 _atom_site_label
 _atom_site_symmetry_multiplicity
 _atom_site_fract_x
 _atom_site_fract_y
 _atom_site_fract_z
 _atom_site_occupancy
  Nd  Nd0  1  0.75000000  0.66717398  0.29533348  1
  Nd  Nd1  1  0.25000000  0.33282602  0.70466652  1
  Nd  Nd2  1  0.25000000  0.83282602  0.79533348  1
  Nd  Nd3  1  0.75000000  0.16717398  0.20466652  1
  Nd  Nd4  1  0.75000000  0.83364217  0.20500049  1
  Nd  Nd5  1  0.25000000  0.16635783  0.79499951  1
  Nd  Nd6  1  0.25000000  0.66635783  0.70500049  1
  Nd  Nd7  1  0.75000000  0.33364217  0.29499951  1
  Nd  Nd8  1  0.75000000  0.99812152  0.28940012  1
  Nd  Nd9  1  0.25000000  0.00187848  0.71059988  1
  Nd  Nd10  1  0.25000000  0.50187848  0.78940012  1
  Nd  Nd11  1  0.75000000  0.49812152  0.21059988  1
  Si  Si12  1  0.75000000  0.92962180  0.91028105  1
  Si  Si13  1  0.25000000  0.07037820  0.08971895  1
  Si  Si14  1  0.25000000  0.57037820  0.41028105  1
  Si  Si15  1  0.75000000  0.42962180  0.58971895  1
  Si  Si16  1  0.75000000  0.72736525  0.91576202  1
  Si  Si17  1  0.25000000  0.27263475  0.08423798  1
  Si  Si18  1  0.25000000  0.77263475  0.41576202  1
  Si  Si19  1  0.75000000  0.22736525  0.58423798  1
  Si  Si20  1  0.75000000  0.60639445  0.91487408  1
  Si  Si21  1  0.25000000  0.39360555  0.08512592  1
  Si  Si22  1  0.25000000  0.89360555  0.41487408  1
  Si  Si23  1  0.75000000  0.10639445  0.58512592  1
  Pd  Pd24  1  0.75000000  0.76322959  0.58282499  1
  Pd  Pd25  1  0.25000000  0.23677041  0.41717501  1
  Pd  Pd26  1  0.25000000  0.73677041  0.08282499  1
  Pd  Pd27  1  0.75000000  0.26322959  0.91717501  1
  Pd  Pd28  1  0.75000000  0.56381703  0.58317386  1
  Pd  Pd29  1  0.25000000  0.43618297  0.41682614  1
  Pd  Pd30  1  0.25000000  0.93618297  0.08317386  1
  Pd  Pd31  1  0.75000000  0.06381703  0.91682614  1
  Pd  Pd32  1  0.75000000  0.90559071  0.58088610  1
  Pd  Pd33  1  0.25000000  0.09440929  0.41911390  1
  Pd  Pd34  1  0.25000000  0.59440929  0.08088610  1
  Pd  Pd35  1  0.75000000  0.40559071  0.91911390  1
