# generated using pymatgen
data_Nd3(GeRh)2
_symmetry_space_group_name_H-M   'P 1'
_cell_length_a   5.70929072
_cell_length_b   8.14030620
_cell_length_c   13.46230031
_cell_angle_alpha   90.00000000
_cell_angle_beta   90.00000000
_cell_angle_gamma   90.00000000
_symmetry_Int_Tables_number   1
_chemical_formula_structural   Nd3(GeRh)2
_chemical_formula_sum   'Nd12 Ge8 Rh8'
_cell_volume   625.66545050
_cell_formula_units_Z   4
loop_
 _symmetry_equiv_pos_site_id
 _symmetry_equiv_pos_as_xyz
  1  'x, y, z'
loop_
 _atom_site_type_symbol
 _atom_site_label
 _atom_site_symmetry_multiplicity
 _atom_site_fract_x
 _atom_site_fract_y
 _atom_site_fract_z
 _atom_site_occupancy
  Nd  Nd0  1  0.64782232  0.24752278  0.25000000  1
  Nd  Nd1  1  0.35217768  0.75247722  0.75000000  1
  Nd  Nd2  1  0.35217768  0.74752278  0.25000000  1
  Nd  Nd3  1  0.64782232  0.25247722  0.75000000  1
  Nd  Nd4  1  0.14822455  0.39255630  0.10088257  1
  Nd  Nd5  1  0.85177545  0.60744370  0.89911743  1
  Nd  Nd6  1  0.85177545  0.60744370  0.60088257  1
  Nd  Nd7  1  0.85177545  0.89255630  0.39911743  1
  Nd  Nd8  1  0.14822455  0.39255630  0.39911743  1
  Nd  Nd9  1  0.14822455  0.10744370  0.60088257  1
  Nd  Nd10  1  0.14822455  0.10744370  0.89911743  1
  Nd  Nd11  1  0.85177545  0.89255630  0.10088257  1
  Ge  Ge12  1  0.15173307  0.10438746  0.25000000  1
  Ge  Ge13  1  0.84826693  0.89561254  0.75000000  1
  Ge  Ge14  1  0.84826693  0.60438746  0.25000000  1
  Ge  Ge15  1  0.15173307  0.39561254  0.75000000  1
  Ge  Ge16  1  0.64534163  0.25000000  -0.00000000  1
  Ge  Ge17  1  0.35465837  0.75000000  -0.00000000  1
  Ge  Ge18  1  0.35465837  0.75000000  0.50000000  1
  Ge  Ge19  1  0.64534163  0.25000000  0.50000000  1
  Rh  Rh20  1  0.37888493  0.03524932  0.09156334  1
  Rh  Rh21  1  0.62111507  0.96475068  0.90843666  1
  Rh  Rh22  1  0.62111507  0.96475068  0.59156334  1
  Rh  Rh23  1  0.62111507  0.53524932  0.40843666  1
  Rh  Rh24  1  0.37888493  0.03524932  0.40843666  1
  Rh  Rh25  1  0.37888493  0.46475068  0.59156334  1
  Rh  Rh26  1  0.37888493  0.46475068  0.90843666  1
  Rh  Rh27  1  0.62111507  0.53524932  0.09156334  1
