# generated using pymatgen
data_NbFeSi
_symmetry_space_group_name_H-M   'P 1'
_cell_length_a   3.68283816
_cell_length_b   6.23130879
_cell_length_c   7.13281596
_cell_angle_alpha   90.00000000
_cell_angle_beta   90.00000000
_cell_angle_gamma   90.00000000
_symmetry_Int_Tables_number   1
_chemical_formula_structural   NbFeSi
_chemical_formula_sum   'Nb4 Fe4 Si4'
_cell_volume   163.69029301
_cell_formula_units_Z   4
loop_
 _symmetry_equiv_pos_site_id
 _symmetry_equiv_pos_as_xyz
  1  'x, y, z'
loop_
 _atom_site_type_symbol
 _atom_site_label
 _atom_site_symmetry_multiplicity
 _atom_site_fract_x
 _atom_site_fract_y
 _atom_site_fract_z
 _atom_site_occupancy
  Nb  Nb0  1  0.75000000  0.97570222  0.31794934  1
  Nb  Nb1  1  0.25000000  0.02429778  0.68205066  1
  Nb  Nb2  1  0.25000000  0.52429778  0.81794934  1
  Nb  Nb3  1  0.75000000  0.47570222  0.18205066  1
  Fe  Fe4  1  0.75000000  0.85904027  0.93974389  1
  Fe  Fe5  1  0.25000000  0.14095973  0.06025611  1
  Fe  Fe6  1  0.25000000  0.64095973  0.43974389  1
  Fe  Fe7  1  0.75000000  0.35904027  0.56025611  1
  Si  Si8  1  0.75000000  0.72829023  0.62219040  1
  Si  Si9  1  0.25000000  0.27170977  0.37780960  1
  Si  Si10  1  0.25000000  0.77170977  0.12219040  1
  Si  Si11  1  0.75000000  0.22829023  0.87780960  1
