# generated using pymatgen
data_NbTlCl6
_symmetry_space_group_name_H-M   'P 1'
_cell_length_a   6.48397932
_cell_length_b   6.97146582
_cell_length_c   12.51321837
_cell_angle_alpha   100.38862012
_cell_angle_beta   90.00000000
_cell_angle_gamma   117.71261768
_symmetry_Int_Tables_number   1
_chemical_formula_structural   NbTlCl6
_chemical_formula_sum   'Nb2 Tl2 Cl12'
_cell_volume   490.25208199
_cell_formula_units_Z   2
loop_
 _symmetry_equiv_pos_site_id
 _symmetry_equiv_pos_as_xyz
  1  'x, y, z'
loop_
 _atom_site_type_symbol
 _atom_site_label
 _atom_site_symmetry_multiplicity
 _atom_site_fract_x
 _atom_site_fract_y
 _atom_site_fract_z
 _atom_site_occupancy
  Nb  Nb0  1  0.50000000  0.50000000  -0.00000000  1
  Nb  Nb1  1  -0.00000000  0.50000000  0.50000000  1
  Tl  Tl2  1  0.88142053  0.00000000  0.75000000  1
  Tl  Tl3  1  0.11857947  -0.00000000  0.25000000  1
  Cl  Cl4  1  0.46282943  0.16169392  0.89624437  1
  Cl  Cl5  1  0.53717057  0.83830608  0.10375563  1
  Cl  Cl6  1  0.30113551  0.83830608  0.60375563  1
  Cl  Cl7  1  0.69886449  0.16169392  0.39624437  1
  Cl  Cl8  1  0.37041546  0.57182954  0.84072811  1
  Cl  Cl9  1  0.62958454  0.42817046  0.15927189  1
  Cl  Cl10  1  0.79858592  0.42817046  0.65927189  1
  Cl  Cl11  1  0.20141408  0.57182954  0.34072811  1
  Cl  Cl12  1  0.79538581  0.69010328  0.45974553  1
  Cl  Cl13  1  0.20461419  0.30989672  0.54025447  1
  Cl  Cl14  1  0.10528252  0.30989672  0.04025447  1
  Cl  Cl15  1  0.89471748  0.69010328  0.95974553  1
