# generated using pymatgen
data_Cu7Hg6
_symmetry_space_group_name_H-M   'P 1'
_cell_length_a   8.18956104
_cell_length_b   8.30738659
_cell_length_c   8.30738622
_cell_angle_alpha   109.75674808
_cell_angle_beta   109.18416327
_cell_angle_gamma   109.18416237
_symmetry_Int_Tables_number   1
_chemical_formula_structural   Cu7Hg6
_chemical_formula_sum   'Cu14 Hg12'
_cell_volume   436.61018787
_cell_formula_units_Z   2
loop_
 _symmetry_equiv_pos_site_id
 _symmetry_equiv_pos_as_xyz
  1  'x, y, z'
loop_
 _atom_site_type_symbol
 _atom_site_label
 _atom_site_symmetry_multiplicity
 _atom_site_fract_x
 _atom_site_fract_y
 _atom_site_fract_z
 _atom_site_occupancy
  Cu  Cu0  1  0.00449189  0.00000000  -0.00000000  1
  Cu  Cu1  1  0.50348067  0.00000000  -0.00000000  1
  Cu  Cu2  1  0.15251778  0.32053486  0.32053486  1
  Cu  Cu3  1  0.83198292  0.67946514  -0.00000000  1
  Cu  Cu4  1  0.83198292  1.00000000  0.67946514  1
  Cu  Cu5  1  0.85394947  0.67973512  0.67973512  1
  Cu  Cu6  1  0.17421435  0.32026488  0.00000000  1
  Cu  Cu7  1  0.17421435  0.00000000  0.32026488  1
  Cu  Cu8  1  0.63078639  0.80443491  0.80443491  1
  Cu  Cu9  1  0.82635149  0.19556509  -0.00000000  1
  Cu  Cu10  1  0.82635149  0.00000000  0.19556509  1
  Cu  Cu11  1  0.37702489  0.19624998  0.19624998  1
  Cu  Cu12  1  0.18077491  0.80375002  -0.00000000  1
  Cu  Cu13  1  0.18077491  1.00000000  0.80375002  1
  Hg  Hg14  1  0.11512373  0.22472828  0.61140672  1
  Hg  Hg15  1  0.50371701  0.38859328  0.61332156  1
  Hg  Hg16  1  0.89039545  0.38667844  0.77527172  1
  Hg  Hg17  1  0.11512373  0.61140672  0.22472828  1
  Hg  Hg18  1  0.89039545  0.77527172  0.38667844  1
  Hg  Hg19  1  0.50371701  0.61332156  0.38859328  1
  Hg  Hg20  1  0.20209325  0.64692307  0.64692307  1
  Hg  Hg21  1  0.55517018  0.35307693  0.00000000  1
  Hg  Hg22  1  0.55517018  0.00000000  0.35307693  1
  Hg  Hg23  1  0.80305765  0.35288870  0.35288870  1
  Hg  Hg24  1  0.45016895  0.64711130  -0.00000000  1
  Hg  Hg25  1  0.45016895  1.00000000  0.64711130  1
