# generated using pymatgen
data_NaSrVF6
_symmetry_space_group_name_H-M   'P 1'
_cell_length_a   5.49317470
_cell_length_b   9.50487368
_cell_length_c   10.54423926
_cell_angle_alpha   90.00000000
_cell_angle_beta   90.00000000
_cell_angle_gamma   90.00000000
_symmetry_Int_Tables_number   1
_chemical_formula_structural   NaSrVF6
_chemical_formula_sum   'Na4 Sr4 V4 F24'
_cell_volume   550.53509929
_cell_formula_units_Z   4
loop_
 _symmetry_equiv_pos_site_id
 _symmetry_equiv_pos_as_xyz
  1  'x, y, z'
loop_
 _atom_site_type_symbol
 _atom_site_label
 _atom_site_symmetry_multiplicity
 _atom_site_fract_x
 _atom_site_fract_y
 _atom_site_fract_z
 _atom_site_occupancy
  Na  Na0  1  0.04403115  0.64664465  0.08309950  1
  Na  Na1  1  0.45596885  0.35335535  0.58309950  1
  Na  Na2  1  0.95596885  0.14664465  0.41690050  1
  Na  Na3  1  0.54403115  0.85335535  0.91690050  1
  Sr  Sr4  1  0.50569339  0.31442411  0.17708007  1
  Sr  Sr5  1  0.99430661  0.68557589  0.67708007  1
  Sr  Sr6  1  0.49430661  0.81442411  0.32291993  1
  Sr  Sr7  1  0.00569339  0.18557589  0.82291993  1
  V  V8  1  0.03702577  0.00049572  0.12664388  1
  V  V9  1  0.46297423  0.99950428  0.62664388  1
  V  V10  1  0.96297423  0.50049572  0.37335612  1
  V  V11  1  0.53702577  0.49950428  0.87335612  1
  F  F12  1  0.20893796  0.14300550  0.58567672  1
  F  F13  1  0.29106204  0.85699450  0.08567672  1
  F  F14  1  0.79106204  0.64300550  0.91432328  1
  F  F15  1  0.70893796  0.35699450  0.41432328  1
  F  F16  1  0.21276047  0.62312107  0.29611206  1
  F  F17  1  0.28723953  0.37687893  0.79611206  1
  F  F18  1  0.78723953  0.12312107  0.20388794  1
  F  F19  1  0.71276047  0.87687893  0.70388794  1
  F  F20  1  0.21976688  0.16049445  0.04790428  1
  F  F21  1  0.28023312  0.83950555  0.54790428  1
  F  F22  1  0.78023312  0.66049445  0.45209572  1
  F  F23  1  0.71976688  0.33950555  0.95209572  1
  F  F24  1  0.15852290  0.33785536  0.31692280  1
  F  F25  1  0.34147710  0.66214464  0.81692280  1
  F  F26  1  0.84147710  0.83785536  0.18307720  1
  F  F27  1  0.65852290  0.16214464  0.68307720  1
  F  F28  1  0.35931809  0.50464002  0.03493459  1
  F  F29  1  0.14068191  0.49535998  0.53493459  1
  F  F30  1  0.64068191  0.00464002  0.46506541  1
  F  F31  1  0.85931809  0.99535998  0.96506541  1
  F  F32  1  0.22064735  0.02123779  0.28529968  1
  F  F33  1  0.27935265  0.97876221  0.78529968  1
  F  F34  1  0.77935265  0.52123779  0.21470032  1
  F  F35  1  0.72064735  0.47876221  0.71470032  1
