# generated using pymatgen
data_Pd3Se2S
_symmetry_space_group_name_H-M   'P 1'
_cell_length_a   7.04567756
_cell_length_b   11.57666785
_cell_length_c   11.57666785
_cell_angle_alpha   90.00000000
_cell_angle_beta   90.00000000
_cell_angle_gamma   90.00000000
_symmetry_Int_Tables_number   1
_chemical_formula_structural   Pd3Se2S
_chemical_formula_sum   'Pd24 Se16 S8'
_cell_volume   944.25634137
_cell_formula_units_Z   8
loop_
 _symmetry_equiv_pos_site_id
 _symmetry_equiv_pos_as_xyz
  1  'x, y, z'
loop_
 _atom_site_type_symbol
 _atom_site_label
 _atom_site_symmetry_multiplicity
 _atom_site_fract_x
 _atom_site_fract_y
 _atom_site_fract_z
 _atom_site_occupancy
  Pd  Pd0  1  -0.00000000  0.22246193  0.36016201  1
  Pd  Pd1  1  0.00000000  0.77753807  0.63983799  1
  Pd  Pd2  1  0.50000000  0.63983799  0.22246193  1
  Pd  Pd3  1  -0.00000000  0.27753807  0.86016201  1
  Pd  Pd4  1  0.50000000  0.36016201  0.77753807  1
  Pd  Pd5  1  0.00000000  0.72246193  0.13983799  1
  Pd  Pd6  1  0.50000000  0.86016201  0.72246193  1
  Pd  Pd7  1  0.50000000  0.13983799  0.27753807  1
  Pd  Pd8  1  0.25000000  0.10797063  0.60797063  1
  Pd  Pd9  1  0.75000000  0.89202937  0.39202937  1
  Pd  Pd10  1  0.25000000  0.89202937  0.39202937  1
  Pd  Pd11  1  0.75000000  0.39202937  0.10797063  1
  Pd  Pd12  1  0.75000000  0.10797063  0.60797063  1
  Pd  Pd13  1  0.25000000  0.60797063  0.89202937  1
  Pd  Pd14  1  0.75000000  0.60797063  0.89202937  1
  Pd  Pd15  1  0.25000000  0.39202937  0.10797063  1
  Pd  Pd16  1  0.00000000  0.04594209  0.13039378  1
  Pd  Pd17  1  -0.00000000  0.95405791  0.86960622  1
  Pd  Pd18  1  0.50000000  0.86960622  0.04594209  1
  Pd  Pd19  1  0.00000000  0.45405791  0.63039378  1
  Pd  Pd20  1  0.50000000  0.13039378  0.95405791  1
  Pd  Pd21  1  -0.00000000  0.54594209  0.36960622  1
  Pd  Pd22  1  0.50000000  0.63039378  0.54594209  1
  Pd  Pd23  1  0.50000000  0.36960622  0.45405791  1
  Se  Se24  1  0.27858053  0.17872820  0.11322583  1
  Se  Se25  1  0.72141947  0.82127180  0.88677417  1
  Se  Se26  1  0.27858053  0.82127180  0.88677417  1
  Se  Se27  1  0.77858053  0.88677417  0.17872820  1
  Se  Se28  1  0.72141947  0.32127180  0.61322583  1
  Se  Se29  1  0.72141947  0.17872820  0.11322583  1
  Se  Se30  1  0.22141947  0.11322583  0.82127180  1
  Se  Se31  1  0.27858053  0.67872820  0.38677417  1
  Se  Se32  1  0.77858053  0.11322583  0.82127180  1
  Se  Se33  1  0.72141947  0.67872820  0.38677417  1
  Se  Se34  1  0.22141947  0.88677417  0.17872820  1
  Se  Se35  1  0.27858053  0.32127180  0.61322583  1
  Se  Se36  1  0.22141947  0.61322583  0.67872820  1
  Se  Se37  1  0.77858053  0.38677417  0.32127180  1
  Se  Se38  1  0.22141947  0.38677417  0.32127180  1
  Se  Se39  1  0.77858053  0.61322583  0.67872820  1
  S  S40  1  0.25000000  0.59548426  0.09548426  1
  S  S41  1  0.75000000  0.40451574  0.90451574  1
  S  S42  1  0.25000000  0.40451574  0.90451574  1
  S  S43  1  0.75000000  0.90451574  0.59548426  1
  S  S44  1  0.75000000  0.59548426  0.09548426  1
  S  S45  1  0.25000000  0.09548426  0.40451574  1
  S  S46  1  0.75000000  0.09548426  0.40451574  1
  S  S47  1  0.25000000  0.90451574  0.59548426  1
