# generated using pymatgen
data_NaSrPO4
_symmetry_space_group_name_H-M   'P 1'
_cell_length_a   5.50831131
_cell_length_b   7.11679286
_cell_length_c   9.77443945
_cell_angle_alpha   90.00000000
_cell_angle_beta   90.00000000
_cell_angle_gamma   90.00000000
_symmetry_Int_Tables_number   1
_chemical_formula_structural   NaSrPO4
_chemical_formula_sum   'Na4 Sr4 P4 O16'
_cell_volume   383.17279172
_cell_formula_units_Z   4
loop_
 _symmetry_equiv_pos_site_id
 _symmetry_equiv_pos_as_xyz
  1  'x, y, z'
loop_
 _atom_site_type_symbol
 _atom_site_label
 _atom_site_symmetry_multiplicity
 _atom_site_fract_x
 _atom_site_fract_y
 _atom_site_fract_z
 _atom_site_occupancy
  Na  Na0  1  0.75000000  0.82543394  0.57111364  1
  Na  Na1  1  0.25000000  0.17456606  0.42888636  1
  Na  Na2  1  0.25000000  0.67456606  0.07111364  1
  Na  Na3  1  0.75000000  0.32543394  0.92888636  1
  Sr  Sr4  1  0.75000000  0.50907802  0.30153688  1
  Sr  Sr5  1  0.25000000  0.49092198  0.69846312  1
  Sr  Sr6  1  0.25000000  0.99092198  0.80153688  1
  Sr  Sr7  1  0.75000000  0.00907802  0.19846312  1
  P  P8  1  0.75000000  0.76960553  0.92086849  1
  P  P9  1  0.25000000  0.23039447  0.07913151  1
  P  P10  1  0.25000000  0.73039447  0.42086849  1
  P  P11  1  0.75000000  0.26960553  0.57913151  1
  O  O12  1  0.98164585  0.69645295  0.84762459  1
  O  O13  1  0.01835415  0.30354705  0.15237541  1
  O  O14  1  0.01835415  0.80354705  0.34762459  1
  O  O15  1  0.48164585  0.30354705  0.15237541  1
  O  O16  1  0.98164585  0.19645295  0.65237541  1
  O  O17  1  0.51835415  0.69645295  0.84762459  1
  O  O18  1  0.51835415  0.19645295  0.65237541  1
  O  O19  1  0.48164585  0.80354705  0.34762459  1
  O  O20  1  0.75000000  0.98843559  0.92238377  1
  O  O21  1  0.25000000  0.01156441  0.07761623  1
  O  O22  1  0.25000000  0.51156441  0.42238377  1
  O  O23  1  0.75000000  0.48843559  0.57761623  1
  O  O24  1  0.75000000  0.19491931  0.42829529  1
  O  O25  1  0.25000000  0.80508069  0.57170471  1
  O  O26  1  0.25000000  0.30508069  0.92829529  1
  O  O27  1  0.75000000  0.69491931  0.07170471  1
