# generated using pymatgen
data_Cu(SbO2)2
_symmetry_space_group_name_H-M   'P 1'
_cell_length_a   5.89252968
_cell_length_b   8.94562361
_cell_length_c   8.94562361
_cell_angle_alpha   90.00000000
_cell_angle_beta   90.00000000
_cell_angle_gamma   90.00000000
_symmetry_Int_Tables_number   1
_chemical_formula_structural   Cu(SbO2)2
_chemical_formula_sum   'Cu4 Sb8 O16'
_cell_volume   471.54486621
_cell_formula_units_Z   4
loop_
 _symmetry_equiv_pos_site_id
 _symmetry_equiv_pos_as_xyz
  1  'x, y, z'
loop_
 _atom_site_type_symbol
 _atom_site_label
 _atom_site_symmetry_multiplicity
 _atom_site_fract_x
 _atom_site_fract_y
 _atom_site_fract_z
 _atom_site_occupancy
  Cu  Cu0  1  0.26774358  -0.00000000  0.50000000  1
  Cu  Cu1  1  0.26774358  0.50000000  0.00000000  1
  Cu  Cu2  1  0.76774358  0.50000000  0.00000000  1
  Cu  Cu3  1  0.76774358  -0.00000000  0.50000000  1
  Sb  Sb4  1  0.50666997  0.34693107  0.31039803  1
  Sb  Sb5  1  0.50666997  0.15306893  0.81039803  1
  Sb  Sb6  1  0.00666997  0.31039803  0.65306893  1
  Sb  Sb7  1  0.00666997  0.81039803  0.84693107  1
  Sb  Sb8  1  0.50666997  0.65306893  0.68960197  1
  Sb  Sb9  1  0.50666997  0.84693107  0.18960197  1
  Sb  Sb10  1  0.00666997  0.68960197  0.34693107  1
  Sb  Sb11  1  0.00666997  0.18960197  0.15306893  1
  O  O12  1  0.27472062  0.31555381  0.79087860  1
  O  O13  1  0.27472062  0.18444619  0.29087860  1
  O  O14  1  0.77472062  0.79087860  0.68444619  1
  O  O15  1  0.77472062  0.29087860  0.81555381  1
  O  O16  1  0.27472062  0.68444619  0.20912140  1
  O  O17  1  0.27472062  0.81555381  0.70912140  1
  O  O18  1  0.77472062  0.20912140  0.31555381  1
  O  O19  1  0.77472062  0.70912140  0.18444619  1
  O  O20  1  0.51873762  0.37939297  0.08989363  1
  O  O21  1  0.51873762  0.12060703  0.58989363  1
  O  O22  1  0.01873762  0.08989363  0.62060703  1
  O  O23  1  0.01873762  0.58989363  0.87939297  1
  O  O24  1  0.51873762  0.62060703  0.91010637  1
  O  O25  1  0.51873762  0.87939297  0.41010637  1
  O  O26  1  0.01873762  0.91010637  0.37939297  1
  O  O27  1  0.01873762  0.41010637  0.12060703  1
