# generated using pymatgen
data_Na3TiF6
_symmetry_space_group_name_H-M   'P 1'
_cell_length_a   5.72602122
_cell_length_b   5.87370581
_cell_length_c   8.10296226
_cell_angle_alpha   90.00000000
_cell_angle_beta   89.23805447
_cell_angle_gamma   90.00000000
_symmetry_Int_Tables_number   1
_chemical_formula_structural   Na3TiF6
_chemical_formula_sum   'Na6 Ti2 F12'
_cell_volume   272.50254126
_cell_formula_units_Z   2
loop_
 _symmetry_equiv_pos_site_id
 _symmetry_equiv_pos_as_xyz
  1  'x, y, z'
loop_
 _atom_site_type_symbol
 _atom_site_label
 _atom_site_symmetry_multiplicity
 _atom_site_fract_x
 _atom_site_fract_y
 _atom_site_fract_z
 _atom_site_occupancy
  Na  Na0  1  -0.00000000  -0.00000000  0.50000000  1
  Na  Na1  1  0.50000000  0.50000000  -0.00000000  1
  Na  Na2  1  0.01305568  0.44899259  0.25216341  1
  Na  Na3  1  0.98694432  0.55100741  0.74783659  1
  Na  Na4  1  0.48694432  0.94899259  0.24783659  1
  Na  Na5  1  0.51305568  0.05100741  0.75216341  1
  Ti  Ti6  1  -0.00000000  -0.00000000  -0.00000000  1
  Ti  Ti7  1  0.50000000  0.50000000  0.50000000  1
  F  F8  1  0.17691420  0.71602792  0.06762396  1
  F  F9  1  0.82308580  0.28397208  0.93237604  1
  F  F10  1  0.32308580  0.21602792  0.43237604  1
  F  F11  1  0.67691420  0.78397208  0.56762396  1
  F  F12  1  0.88687584  0.04747648  0.22895277  1
  F  F13  1  0.11312416  0.95252352  0.77104723  1
  F  F14  1  0.61312416  0.54747648  0.27104723  1
  F  F15  1  0.38687584  0.45252352  0.72895277  1
  F  F16  1  0.28845416  0.17892933  0.04572217  1
  F  F17  1  0.71154584  0.82107067  0.95427783  1
  F  F18  1  0.21154584  0.67892933  0.45427783  1
  F  F19  1  0.78845416  0.32107067  0.54572217  1
