# generated using pymatgen
data_NaEuCu2F8
_symmetry_space_group_name_H-M   'P 1'
_cell_length_a   5.52981560
_cell_length_b   5.52981560
_cell_length_c   6.47470605
_cell_angle_alpha   115.27936136
_cell_angle_beta   115.27936136
_cell_angle_gamma   90.00000000
_symmetry_Int_Tables_number   1
_chemical_formula_structural   NaEuCu2F8
_chemical_formula_sum   'Na1 Eu1 Cu2 F8'
_cell_volume   157.80703287
_cell_formula_units_Z   1
loop_
 _symmetry_equiv_pos_site_id
 _symmetry_equiv_pos_as_xyz
  1  'x, y, z'
loop_
 _atom_site_type_symbol
 _atom_site_label
 _atom_site_symmetry_multiplicity
 _atom_site_fract_x
 _atom_site_fract_y
 _atom_site_fract_z
 _atom_site_occupancy
  Na  Na0  1  0.50000000  0.50000000  -0.00000000  1
  Eu  Eu1  1  0.00000000  -0.00000000  -0.00000000  1
  Cu  Cu2  1  0.25000000  0.75000000  0.50000000  1
  Cu  Cu3  1  0.75000000  0.25000000  0.50000000  1
  F  F4  1  0.29567856  0.44507330  0.24873012  1
  F  F5  1  0.95305156  0.80365682  0.24873012  1
  F  F6  1  0.80365682  0.29567856  0.24873012  1
  F  F7  1  0.70432144  0.19634318  0.75126988  1
  F  F8  1  0.44507330  0.95305156  0.24873012  1
  F  F9  1  0.04694844  0.55492670  0.75126988  1
  F  F10  1  0.19634318  0.04694844  0.75126988  1
  F  F11  1  0.55492670  0.70432144  0.75126988  1
