# generated using pymatgen
data_NaMn4(AsO4)3
_symmetry_space_group_name_H-M   'P 1'
_cell_length_a   6.92305653
_cell_length_b   9.12152658
_cell_length_c   9.12152658
_cell_angle_alpha   93.54221501
_cell_angle_beta   107.13607113
_cell_angle_gamma   107.13607113
_symmetry_Int_Tables_number   1
_chemical_formula_structural   NaMn4(AsO4)3
_chemical_formula_sum   'Na2 Mn8 As6 O24'
_cell_volume   518.99696611
_cell_formula_units_Z   2
loop_
 _symmetry_equiv_pos_site_id
 _symmetry_equiv_pos_as_xyz
  1  'x, y, z'
loop_
 _atom_site_type_symbol
 _atom_site_label
 _atom_site_symmetry_multiplicity
 _atom_site_fract_x
 _atom_site_fract_y
 _atom_site_fract_z
 _atom_site_occupancy
  Na  Na0  1  0.75000000  0.51209436  0.48790564  1
  Na  Na1  1  0.25000000  0.48790564  0.51209436  1
  Mn  Mn2  1  0.75000000  0.23534465  0.76465535  1
  Mn  Mn3  1  0.25000000  0.76465535  0.23534465  1
  Mn  Mn4  1  0.63444392  0.56277159  0.87401683  1
  Mn  Mn5  1  0.36555608  0.43722841  0.12598317  1
  Mn  Mn6  1  0.86555608  0.12598317  0.43722841  1
  Mn  Mn7  1  0.13444392  0.87401683  0.56277159  1
  Mn  Mn8  1  -0.00000000  -0.00000000  -0.00000000  1
  Mn  Mn9  1  0.50000000  -0.00000000  -0.00000000  1
  As  As10  1  0.75000000  0.79185359  0.20814641  1
  As  As11  1  0.25000000  0.20814641  0.79185359  1
  As  As12  1  0.86816034  0.37811164  0.15767702  1
  As  As13  1  0.13183966  0.62188836  0.84232298  1
  As  As14  1  0.63183966  0.84232298  0.62188836  1
  As  As15  1  0.36816034  0.15767702  0.37811164  1
  O  O16  1  0.77955058  0.78479172  0.02430689  1
  O  O17  1  0.22044942  0.21520828  0.97569311  1
  O  O18  1  0.72044942  0.97569311  0.21520828  1
  O  O19  1  0.27955058  0.02430689  0.78479172  1
  O  O20  1  0.67155130  0.45999836  0.09398324  1
  O  O21  1  0.32844870  0.54000164  0.90601676  1
  O  O22  1  0.82844870  0.90601676  0.54000164  1
  O  O23  1  0.17155130  0.09398324  0.45999836  1
  O  O24  1  0.60723969  0.65704264  0.65962723  1
  O  O25  1  0.39276031  0.34295736  0.34037277  1
  O  O26  1  0.89276031  0.34037277  0.34295736  1
  O  O27  1  0.10723969  0.65962723  0.65704264  1
  O  O28  1  0.79522594  0.20821301  0.02355316  1
  O  O29  1  0.20477406  0.79178699  0.97644684  1
  O  O30  1  0.70477406  0.97644684  0.79178699  1
  O  O31  1  0.29522594  0.02355316  0.20821301  1
  O  O32  1  0.88822694  0.49095677  0.83192950  1
  O  O33  1  0.11177306  0.50904323  0.16807050  1
  O  O34  1  0.61177306  0.16807050  0.50904323  1
  O  O35  1  0.38822694  0.83192950  0.49095677  1
  O  O36  1  0.52703487  0.67701071  0.24189045  1
  O  O37  1  0.47296513  0.32298929  0.75810955  1
  O  O38  1  0.97296513  0.75810955  0.32298929  1
  O  O39  1  0.02703487  0.24189045  0.67701071  1
