# generated using pymatgen
data_Pr5NiSb2
_symmetry_space_group_name_H-M   'P 1'
_cell_length_a   8.30640960
_cell_length_b   9.09485660
_cell_length_c   12.68869076
_cell_angle_alpha   90.00000000
_cell_angle_beta   90.00000000
_cell_angle_gamma   90.00000000
_symmetry_Int_Tables_number   1
_chemical_formula_structural   Pr5NiSb2
_chemical_formula_sum   'Pr20 Ni4 Sb8'
_cell_volume   958.57480963
_cell_formula_units_Z   4
loop_
 _symmetry_equiv_pos_site_id
 _symmetry_equiv_pos_as_xyz
  1  'x, y, z'
loop_
 _atom_site_type_symbol
 _atom_site_label
 _atom_site_symmetry_multiplicity
 _atom_site_fract_x
 _atom_site_fract_y
 _atom_site_fract_z
 _atom_site_occupancy
  Pr  Pr0  1  0.66390407  0.75000000  0.70792753  1
  Pr  Pr1  1  0.33609593  0.25000000  0.29207247  1
  Pr  Pr2  1  0.16390407  0.25000000  0.79207247  1
  Pr  Pr3  1  0.83609593  0.75000000  0.20792753  1
  Pr  Pr4  1  0.14170208  0.75000000  0.80221299  1
  Pr  Pr5  1  0.85829792  0.25000000  0.19778701  1
  Pr  Pr6  1  0.64170208  0.25000000  0.69778701  1
  Pr  Pr7  1  0.35829792  0.75000000  0.30221299  1
  Pr  Pr8  1  0.53949247  0.75000000  0.99874820  1
  Pr  Pr9  1  0.46050753  0.25000000  0.00125180  1
  Pr  Pr10  1  0.03949247  0.25000000  0.50125180  1
  Pr  Pr11  1  0.96050753  0.75000000  0.49874820  1
  Pr  Pr12  1  0.82071368  0.46511449  0.93287129  1
  Pr  Pr13  1  0.17928632  0.53488551  0.06712871  1
  Pr  Pr14  1  0.32071368  0.53488551  0.56712871  1
  Pr  Pr15  1  0.17928632  0.96511449  0.06712871  1
  Pr  Pr16  1  0.67928632  0.46511449  0.43287129  1
  Pr  Pr17  1  0.82071368  0.03488551  0.93287129  1
  Pr  Pr18  1  0.67928632  0.03488551  0.43287129  1
  Pr  Pr19  1  0.32071368  0.96511449  0.56712871  1
  Ni  Ni20  1  0.92546892  0.75000000  0.99046078  1
  Ni  Ni21  1  0.07453108  0.25000000  0.00953922  1
  Ni  Ni22  1  0.42546892  0.25000000  0.50953922  1
  Ni  Ni23  1  0.57453108  0.75000000  0.49046078  1
  Sb  Sb24  1  0.93924523  0.00525307  0.67541857  1
  Sb  Sb25  1  0.06075477  0.99474693  0.32458143  1
  Sb  Sb26  1  0.43924523  0.99474693  0.82458143  1
  Sb  Sb27  1  0.06075477  0.50525307  0.32458143  1
  Sb  Sb28  1  0.56075477  0.00525307  0.17541857  1
  Sb  Sb29  1  0.93924523  0.49474693  0.67541857  1
  Sb  Sb30  1  0.56075477  0.49474693  0.17541857  1
  Sb  Sb31  1  0.43924523  0.50525307  0.82458143  1
