# generated using pymatgen
data_NaCaTiMnSi2O8F
_symmetry_space_group_name_H-M   'P 1'
_cell_length_a   7.09324659
_cell_length_b   9.86857120
_cell_length_c   10.91350643
_cell_angle_alpha   90.00000000
_cell_angle_beta   107.88971989
_cell_angle_gamma   90.00000000
_symmetry_Int_Tables_number   1
_chemical_formula_structural   NaCaTiMnSi2O8F
_chemical_formula_sum   'Na4 Ca4 Ti4 Mn4 Si8 O32 F4'
_cell_volume   727.01050340
_cell_formula_units_Z   4
loop_
 _symmetry_equiv_pos_site_id
 _symmetry_equiv_pos_as_xyz
  1  'x, y, z'
loop_
 _atom_site_type_symbol
 _atom_site_label
 _atom_site_symmetry_multiplicity
 _atom_site_fract_x
 _atom_site_fract_y
 _atom_site_fract_z
 _atom_site_occupancy
  Na  Na0  1  0.33687710  0.12096024  0.42572160  1
  Na  Na1  1  0.66312290  0.87903976  0.57427840  1
  Na  Na2  1  0.66312290  0.62096024  0.07427840  1
  Na  Na3  1  0.33687710  0.37903976  0.92572160  1
  Ca  Ca4  1  0.52526315  0.39149071  0.30186521  1
  Ca  Ca5  1  0.47473685  0.60850929  0.69813479  1
  Ca  Ca6  1  0.47473685  0.89149071  0.19813479  1
  Ca  Ca7  1  0.52526315  0.10850929  0.80186521  1
  Ti  Ti8  1  0.02158331  0.39864906  0.28272274  1
  Ti  Ti9  1  0.97841669  0.60135094  0.71727726  1
  Ti  Ti10  1  0.97841669  0.89864906  0.21727726  1
  Ti  Ti11  1  0.02158331  0.10135094  0.78272274  1
  Mn  Mn12  1  0.13581190  0.63035223  0.06121890  1
  Mn  Mn13  1  0.86418810  0.36964777  0.93878110  1
  Mn  Mn14  1  0.86418810  0.13035223  0.43878110  1
  Mn  Mn15  1  0.13581190  0.86964777  0.56121890  1
  Si  Si16  1  0.20979198  0.16495793  0.12137166  1
  Si  Si17  1  0.79020802  0.83504207  0.87862834  1
  Si  Si18  1  0.79020802  0.66495793  0.37862834  1
  Si  Si19  1  0.20979198  0.33504207  0.62137166  1
  Si  Si20  1  0.67360693  0.16656783  0.12156252  1
  Si  Si21  1  0.32639307  0.83343217  0.87843748  1
  Si  Si22  1  0.32639307  0.66656783  0.37843748  1
  Si  Si23  1  0.67360693  0.33343217  0.62156252  1
  O  O24  1  0.45236740  0.16064231  0.14257175  1
  O  O25  1  0.54763260  0.83935769  0.85742825  1
  O  O26  1  0.54763260  0.66064231  0.35742825  1
  O  O27  1  0.45236740  0.33935769  0.64257175  1
  O  O28  1  0.34843515  0.76278906  0.01562124  1
  O  O29  1  0.65156485  0.23721094  0.98437876  1
  O  O30  1  0.65156485  0.26278906  0.48437876  1
  O  O31  1  0.34843515  0.73721094  0.51562124  1
  O  O32  1  0.04018126  0.52645541  0.87330048  1
  O  O33  1  0.95981874  0.47354459  0.12669952  1
  O  O34  1  0.95981874  0.02645541  0.62669952  1
  O  O35  1  0.04018126  0.97354459  0.37330048  1
  O  O36  1  0.16143538  0.00964108  0.15418574  1
  O  O37  1  0.83856462  0.99035892  0.84581426  1
  O  O38  1  0.83856462  0.50964108  0.34581426  1
  O  O39  1  0.16143538  0.49035892  0.65418574  1
  O  O40  1  0.20478238  0.26455142  0.24178192  1
  O  O41  1  0.79521762  0.73544858  0.75821808  1
  O  O42  1  0.79521762  0.76455142  0.25821808  1
  O  O43  1  0.20478238  0.23544858  0.74178192  1
  O  O44  1  0.19752434  0.75424138  0.25218145  1
  O  O45  1  0.80247566  0.24575862  0.74781855  1
  O  O46  1  0.80247566  0.25424138  0.24781855  1
  O  O47  1  0.19752434  0.74575862  0.75218145  1
  O  O48  1  0.09497064  0.27929806  0.47837329  1
  O  O49  1  0.90502936  0.72070194  0.52162671  1
  O  O50  1  0.90502936  0.77929806  0.02162671  1
  O  O51  1  0.09497064  0.22070194  0.97837329  1
  O  O52  1  0.25842417  0.50700453  0.36843775  1
  O  O53  1  0.74157583  0.49299547  0.63156225  1
  O  O54  1  0.74157583  0.00700453  0.13156225  1
  O  O55  1  0.25842417  0.99299547  0.86843775  1
  F  F56  1  0.40108090  0.49483876  0.11245391  1
  F  F57  1  0.59891910  0.50516124  0.88754609  1
  F  F58  1  0.59891910  0.99483876  0.38754609  1
  F  F59  1  0.40108090  0.00516124  0.61245391  1
