# generated using pymatgen
data_Na5Cu3As4HO16
_symmetry_space_group_name_H-M   'P 1'
_cell_length_a   5.39283458
_cell_length_b   8.65793035
_cell_length_c   9.47408509
_cell_angle_alpha   63.70410774
_cell_angle_beta   89.38138130
_cell_angle_gamma   74.23788747
_symmetry_Int_Tables_number   1
_chemical_formula_structural   Na5Cu3As4HO16
_chemical_formula_sum   'Na5 Cu3 As4 H1 O16'
_cell_volume   378.57631602
_cell_formula_units_Z   1
loop_
 _symmetry_equiv_pos_site_id
 _symmetry_equiv_pos_as_xyz
  1  'x, y, z'
loop_
 _atom_site_type_symbol
 _atom_site_label
 _atom_site_symmetry_multiplicity
 _atom_site_fract_x
 _atom_site_fract_y
 _atom_site_fract_z
 _atom_site_occupancy
  Na  Na0  1  0.34041852  0.35663234  0.63683578  1
  Na  Na1  1  0.65958148  0.64336766  0.36316422  1
  Na  Na2  1  0.70295817  0.54821220  0.73591151  1
  Na  Na3  1  0.29704183  0.45178780  0.26408849  1
  Na  Na4  1  0.00000000  -0.00000000  -0.00000000  1
  Cu  Cu5  1  0.83265761  0.25301578  0.20632585  1
  Cu  Cu6  1  0.16734239  0.74698422  0.79367415  1
  Cu  Cu7  1  0.50000000  -0.00000000  0.50000000  1
  As  As8  1  0.26016111  0.31087688  0.97910441  1
  As  As9  1  0.73983889  0.68912312  0.02089559  1
  As  As10  1  0.93516094  0.17583116  0.57400853  1
  As  As11  1  0.06483906  0.82416884  0.42599147  1
  H  H12  1  0.50000000  -0.00000000  -0.00000000  1
  O  O13  1  0.93093702  0.33125197  0.98947594  1
  O  O14  1  0.06906298  0.66874803  0.01052406  1
  O  O15  1  0.77122581  0.80025531  0.49772033  1
  O  O16  1  0.22877419  0.19974469  0.50227967  1
  O  O17  1  0.27668571  0.50280183  0.80946396  1
  O  O18  1  0.72331429  0.49719817  0.19053604  1
  O  O19  1  0.57485033  0.74231109  0.84793307  1
  O  O20  1  0.42514967  0.25768891  0.15206693  1
  O  O21  1  0.97542428  0.99114671  0.75527426  1
  O  O22  1  0.02457572  0.00885329  0.24472574  1
  O  O23  1  0.78576527  0.36426723  0.59435924  1
  O  O24  1  0.21423473  0.63573277  0.40564076  1
  O  O25  1  0.73791210  0.16127873  0.43419011  1
  O  O26  1  0.26208790  0.83872127  0.56580989  1
  O  O27  1  0.36961577  0.15067251  0.90933626  1
  O  O28  1  0.63038423  0.84932749  0.09066374  1
