# generated using pymatgen
data_Nd6Al43V4
_symmetry_space_group_name_H-M   'P 1'
_cell_length_a   11.06945930
_cell_length_b   11.06945930
_cell_length_c   17.83025305
_cell_angle_alpha   90.00000000
_cell_angle_beta   90.00000000
_cell_angle_gamma   119.99999379
_symmetry_Int_Tables_number   1
_chemical_formula_structural   Nd6Al43V4
_chemical_formula_sum   'Nd12 Al86 V8'
_cell_volume   1892.08647505
_cell_formula_units_Z   2
loop_
 _symmetry_equiv_pos_site_id
 _symmetry_equiv_pos_as_xyz
  1  'x, y, z'
loop_
 _atom_site_type_symbol
 _atom_site_label
 _atom_site_symmetry_multiplicity
 _atom_site_fract_x
 _atom_site_fract_y
 _atom_site_fract_z
 _atom_site_occupancy
  Nd  Nd0  1  0.47145712  0.47145712  0.90445382  1
  Nd  Nd1  1  0.52854288  0.52854288  0.09554618  1
  Nd  Nd2  1  1.00000000  0.52854288  0.90445382  1
  Nd  Nd3  1  0.52854288  0.52854288  0.40445382  1
  Nd  Nd4  1  1.00000000  0.52854288  0.59554618  1
  Nd  Nd5  1  0.00000000  0.47145712  0.09554618  1
  Nd  Nd6  1  0.47145712  0.47145712  0.59554618  1
  Nd  Nd7  1  0.00000000  0.47145712  0.40445382  1
  Nd  Nd8  1  0.52854288  1.00000000  0.90445382  1
  Nd  Nd9  1  0.47145712  0.00000000  0.09554618  1
  Nd  Nd10  1  0.47145712  0.00000000  0.40445382  1
  Nd  Nd11  1  0.52854288  1.00000000  0.59554618  1
  Al  Al12  1  0.85390143  0.45187028  0.75000000  1
  Al  Al13  1  0.14609857  0.54812972  0.25000000  1
  Al  Al14  1  0.59796885  0.14609857  0.75000000  1
  Al  Al15  1  0.40203115  0.54812972  0.75000000  1
  Al  Al16  1  0.40203115  0.85390143  0.25000000  1
  Al  Al17  1  0.59796885  0.45187028  0.25000000  1
  Al  Al18  1  0.54812972  0.40203115  0.75000000  1
  Al  Al19  1  0.45187028  0.85390143  0.75000000  1
  Al  Al20  1  0.45187028  0.59796885  0.25000000  1
  Al  Al21  1  0.54812972  0.14609857  0.25000000  1
  Al  Al22  1  0.14609857  0.59796885  0.75000000  1
  Al  Al23  1  0.85390143  0.40203115  0.25000000  1
  Al  Al24  1  0.84538939  0.84538939  0.38382527  1
  Al  Al25  1  0.15461061  0.15461061  0.61617473  1
  Al  Al26  1  0.00000000  0.15461061  0.38382527  1
  Al  Al27  1  0.15461061  0.15461061  0.88382527  1
  Al  Al28  1  0.00000000  0.15461061  0.11617473  1
  Al  Al29  1  1.00000000  0.84538939  0.61617473  1
  Al  Al30  1  0.84538939  0.84538939  0.11617473  1
  Al  Al31  1  1.00000000  0.84538939  0.88382527  1
  Al  Al32  1  0.15461061  0.00000000  0.38382527  1
  Al  Al33  1  0.84538939  1.00000000  0.61617473  1
  Al  Al34  1  0.84538939  1.00000000  0.88382527  1
  Al  Al35  1  0.15461061  0.00000000  0.11617473  1
  Al  Al36  1  0.75290876  0.24709124  0.00000000  1
  Al  Al37  1  0.24709124  0.75290876  0.00000000  1
  Al  Al38  1  0.49418248  0.24709124  0.00000000  1
  Al  Al39  1  0.24709124  0.75290876  0.50000000  1
  Al  Al40  1  0.50581752  0.75290876  0.50000000  1
  Al  Al41  1  0.50581752  0.75290876  0.00000000  1
  Al  Al42  1  0.75290876  0.24709124  0.50000000  1
  Al  Al43  1  0.49418248  0.24709124  0.50000000  1
  Al  Al44  1  0.75290876  0.50581752  0.00000000  1
  Al  Al45  1  0.24709124  0.49418248  0.00000000  1
  Al  Al46  1  0.24709124  0.49418248  0.50000000  1
  Al  Al47  1  0.75290876  0.50581752  0.50000000  1
  Al  Al48  1  0.85601808  0.85601808  0.75000000  1
  Al  Al49  1  0.14398192  0.14398192  0.25000000  1
  Al  Al50  1  0.00000000  0.14398192  0.75000000  1
  Al  Al51  1  1.00000000  0.85601808  0.25000000  1
  Al  Al52  1  0.14398192  0.00000000  0.75000000  1
  Al  Al53  1  0.85601808  1.00000000  0.25000000  1
  Al  Al54  1  0.66666700  0.33333300  0.87151866  1
  Al  Al55  1  0.33333300  0.66666700  0.12848134  1
  Al  Al56  1  0.33333300  0.66666700  0.37151866  1
  Al  Al57  1  0.33333300  0.66666700  0.62848134  1
  Al  Al58  1  0.66666700  0.33333300  0.62848134  1
  Al  Al59  1  0.66666700  0.33333300  0.37151866  1
  Al  Al60  1  0.66666700  0.33333300  0.12848134  1
  Al  Al61  1  0.33333300  0.66666700  0.87151866  1
  Al  Al62  1  0.75034147  0.75034147  0.97034174  1
  Al  Al63  1  0.24965853  0.24965853  0.02965826  1
  Al  Al64  1  0.00000000  0.24965853  0.97034174  1
  Al  Al65  1  0.24965853  0.24965853  0.47034174  1
  Al  Al66  1  0.00000000  0.24965853  0.52965826  1
  Al  Al67  1  1.00000000  0.75034147  0.02965826  1
  Al  Al68  1  0.75034147  0.75034147  0.52965826  1
  Al  Al69  1  1.00000000  0.75034147  0.47034174  1
  Al  Al70  1  0.24965853  0.00000000  0.97034174  1
  Al  Al71  1  0.75034147  1.00000000  0.02965826  1
  Al  Al72  1  0.75034147  1.00000000  0.47034174  1
  Al  Al73  1  0.24965853  0.00000000  0.52965826  1
  Al  Al74  1  0.84303586  0.23336843  0.83253316  1
  Al  Al75  1  0.15696414  0.76663157  0.16746684  1
  Al  Al76  1  0.39033257  0.15696414  0.83253316  1
  Al  Al77  1  0.15696414  0.76663157  0.33253316  1
  Al  Al78  1  0.60966743  0.76663157  0.66746684  1
  Al  Al79  1  0.60966743  0.84303586  0.16746684  1
  Al  Al80  1  0.84303586  0.23336843  0.66746684  1
  Al  Al81  1  0.39033257  0.23336843  0.33253316  1
  Al  Al82  1  0.76663157  0.60966743  0.83253316  1
  Al  Al83  1  0.60966743  0.84303586  0.33253316  1
  Al  Al84  1  0.23336843  0.84303586  0.66746684  1
  Al  Al85  1  0.23336843  0.39033257  0.16746684  1
  Al  Al86  1  0.39033257  0.15696414  0.66746684  1
  Al  Al87  1  0.76663157  0.15696414  0.33253316  1
  Al  Al88  1  0.39033257  0.23336843  0.16746684  1
  Al  Al89  1  0.60966743  0.76663157  0.83253316  1
  Al  Al90  1  0.23336843  0.39033257  0.33253316  1
  Al  Al91  1  0.76663157  0.15696414  0.16746684  1
  Al  Al92  1  0.76663157  0.60966743  0.66746684  1
  Al  Al93  1  0.23336843  0.84303586  0.83253316  1
  Al  Al94  1  0.15696414  0.39033257  0.66746684  1
  Al  Al95  1  0.84303586  0.60966743  0.33253316  1
  Al  Al96  1  0.84303586  0.60966743  0.16746684  1
  Al  Al97  1  0.15696414  0.39033257  0.83253316  1
  V  V98  1  0.00000000  0.00000000  0.00000000  1
  V  V99  1  0.00000000  0.00000000  0.50000000  1
  V  V100  1  0.26741986  0.26741986  0.75000000  1
  V  V101  1  0.73258014  0.73258014  0.25000000  1
  V  V102  1  1.00000000  0.73258014  0.75000000  1
  V  V103  1  0.00000000  0.26741986  0.25000000  1
  V  V104  1  0.73258014  1.00000000  0.75000000  1
  V  V105  1  0.26741986  0.00000000  0.25000000  1
