# generated using pymatgen
data_Na4CaZr2TiSi4(O8F)2
_symmetry_space_group_name_H-M   'P 1'
_cell_length_a   5.72326671
_cell_length_b   7.19700949
_cell_length_c   18.31691691
_cell_angle_alpha   90.00000000
_cell_angle_beta   94.69962525
_cell_angle_gamma   90.00000000
_symmetry_Int_Tables_number   1
_chemical_formula_structural   Na4CaZr2TiSi4(O8F)2
_chemical_formula_sum   'Na8 Ca2 Zr4 Ti2 Si8 O32 F4'
_cell_volume   751.94459919
_cell_formula_units_Z   2
loop_
 _symmetry_equiv_pos_site_id
 _symmetry_equiv_pos_as_xyz
  1  'x, y, z'
loop_
 _atom_site_type_symbol
 _atom_site_label
 _atom_site_symmetry_multiplicity
 _atom_site_fract_x
 _atom_site_fract_y
 _atom_site_fract_z
 _atom_site_occupancy
  Na  Na0  1  0.25000000  0.65405578  0.25000000  1
  Na  Na1  1  0.75000000  0.34594422  0.75000000  1
  Na  Na2  1  0.13453173  0.88745147  0.43048507  1
  Na  Na3  1  0.86546827  0.11254853  0.56951493  1
  Na  Na4  1  0.36546827  0.88745147  0.06951493  1
  Na  Na5  1  0.63453173  0.11254853  0.93048507  1
  Na  Na6  1  0.75000000  0.88882836  0.25000000  1
  Na  Na7  1  0.25000000  0.11117164  0.75000000  1
  Ca  Ca8  1  0.25000000  0.14953790  0.25000000  1
  Ca  Ca9  1  0.75000000  0.85046210  0.75000000  1
  Zr  Zr10  1  0.12451736  0.38286404  0.42528829  1
  Zr  Zr11  1  0.87548264  0.61713596  0.57471171  1
  Zr  Zr12  1  0.37548264  0.38286404  0.07471171  1
  Zr  Zr13  1  0.62451736  0.61713596  0.92528829  1
  Ti  Ti14  1  0.75000000  0.39636815  0.25000000  1
  Ti  Ti15  1  0.25000000  0.60363185  0.75000000  1
  Si  Si16  1  0.37533407  0.88284913  0.60394296  1
  Si  Si17  1  0.62466593  0.11715087  0.39605704  1
  Si  Si18  1  0.12466593  0.88284913  0.89605704  1
  Si  Si19  1  0.87533407  0.11715087  0.10394296  1
  Si  Si20  1  0.88396589  0.66088800  0.10491092  1
  Si  Si21  1  0.11603411  0.33911200  0.89508908  1
  Si  Si22  1  0.61603411  0.66088800  0.39508908  1
  Si  Si23  1  0.38396589  0.33911200  0.60491092  1
  O  O24  1  0.13389578  0.82228654  0.55658377  1
  O  O25  1  0.86610422  0.17771346  0.44341623  1
  O  O26  1  0.36610422  0.82228654  0.94341623  1
  O  O27  1  0.63389578  0.17771346  0.05658377  1
  O  O28  1  0.04169818  0.38189622  0.31546135  1
  O  O29  1  0.95830182  0.61810378  0.68453865  1
  O  O30  1  0.45830182  0.38189622  0.18453865  1
  O  O31  1  0.54169818  0.61810378  0.81546135  1
  O  O32  1  0.87334064  0.88834416  0.10925023  1
  O  O33  1  0.12665936  0.11165584  0.89074977  1
  O  O34  1  0.62665936  0.88834416  0.39074977  1
  O  O35  1  0.37334064  0.11165584  0.60925023  1
  O  O36  1  0.36491829  0.59836938  0.42278961  1
  O  O37  1  0.63508171  0.40163062  0.57721039  1
  O  O38  1  0.13508171  0.59836938  0.07721039  1
  O  O39  1  0.86491829  0.40163062  0.92278961  1
  O  O40  1  0.37950431  0.17827658  0.43043603  1
  O  O41  1  0.62049569  0.82172342  0.56956397  1
  O  O42  1  0.12049569  0.17827658  0.06956397  1
  O  O43  1  0.87950431  0.82172342  0.93043603  1
  O  O44  1  0.87002556  0.58950711  0.18926286  1
  O  O45  1  0.12997444  0.41049289  0.81073714  1
  O  O46  1  0.62997444  0.58950711  0.31073714  1
  O  O47  1  0.37002556  0.41049289  0.68926286  1
  O  O48  1  0.65136065  0.59284349  0.05159817  1
  O  O49  1  0.34863935  0.40715651  0.94840183  1
  O  O50  1  0.84863935  0.59284349  0.44840183  1
  O  O51  1  0.15136065  0.40715651  0.55159817  1
  O  O52  1  0.38376625  0.80691008  0.68863735  1
  O  O53  1  0.61623375  0.19308992  0.31136265  1
  O  O54  1  0.11623375  0.80691008  0.81136265  1
  O  O55  1  0.88376625  0.19308992  0.18863735  1
  F  F56  1  0.10353495  0.90988305  0.30934151  1
  F  F57  1  0.89646505  0.09011695  0.69065849  1
  F  F58  1  0.39646505  0.90988305  0.19065849  1
  F  F59  1  0.60353495  0.09011695  0.80934151  1
