# generated using pymatgen
data_Na2MgScF7
_symmetry_space_group_name_H-M   'P 1'
_cell_length_a   7.39024289
_cell_length_b   7.49820405
_cell_length_c   7.49820405
_cell_angle_alpha   61.04836891
_cell_angle_beta   60.47515581
_cell_angle_gamma   60.47515581
_symmetry_Int_Tables_number   1
_chemical_formula_structural   Na2MgScF7
_chemical_formula_sum   'Na4 Mg2 Sc2 F14'
_cell_volume   298.20365364
_cell_formula_units_Z   2
loop_
 _symmetry_equiv_pos_site_id
 _symmetry_equiv_pos_as_xyz
  1  'x, y, z'
loop_
 _atom_site_type_symbol
 _atom_site_label
 _atom_site_symmetry_multiplicity
 _atom_site_fract_x
 _atom_site_fract_y
 _atom_site_fract_z
 _atom_site_occupancy
  Na  Na0  1  0.24773308  0.61577850  0.88875534  1
  Na  Na1  1  0.75226692  0.11124466  0.38422150  1
  Na  Na2  1  0.25048241  0.61203667  0.38796333  1
  Na  Na3  1  0.74951759  0.61203667  0.38796333  1
  Mg  Mg4  1  0.25008406  0.11254040  0.88745960  1
  Mg  Mg5  1  0.74991594  0.11254040  0.88745960  1
  Sc  Sc6  1  0.25009473  0.11217242  0.38763811  1
  Sc  Sc7  1  0.74990527  0.61236189  0.88782758  1
  F  F8  1  0.34652762  0.78094105  0.52600372  1
  F  F9  1  0.65347238  0.47399628  0.21905895  1
  F  F10  1  0.57325158  0.06060799  0.20445496  1
  F  F11  1  0.42674842  0.79554504  0.93939201  1
  F  F12  1  0.83831453  0.79554504  0.93939201  1
  F  F13  1  0.16168547  0.06060799  0.20445496  1
  F  F14  1  0.33845641  0.16332519  0.57135578  1
  F  F15  1  0.66154359  0.42864422  0.83667481  1
  F  F16  1  0.07313739  0.42864422  0.83667481  1
  F  F17  1  0.92686261  0.16332519  0.57135578  1
  F  F18  1  -0.00000000  0.03304631  0.96695369  1
  F  F19  1  0.15315018  0.44370107  0.24999858  1
  F  F20  1  0.84684982  0.75000142  0.55629893  1
  F  F21  1  0.50000000  0.19085740  0.80914260  1
