# generated using pymatgen
data_Na2Mn2Cd(PO4)3
_symmetry_space_group_name_H-M   'P 1'
_cell_length_a   6.80444308
_cell_length_b   8.86035976
_cell_length_c   8.86035976
_cell_angle_alpha   91.94396510
_cell_angle_beta   107.43996370
_cell_angle_gamma   107.43996370
_symmetry_Int_Tables_number   1
_chemical_formula_structural   Na2Mn2Cd(PO4)3
_chemical_formula_sum   'Na4 Mn4 Cd2 P6 O24'
_cell_volume   481.69184108
_cell_formula_units_Z   2
loop_
 _symmetry_equiv_pos_site_id
 _symmetry_equiv_pos_as_xyz
  1  'x, y, z'
loop_
 _atom_site_type_symbol
 _atom_site_label
 _atom_site_symmetry_multiplicity
 _atom_site_fract_x
 _atom_site_fract_y
 _atom_site_fract_z
 _atom_site_occupancy
  Na  Na0  1  0.75000000  0.98139229  0.01860771  1
  Na  Na1  1  0.25000000  0.01860771  0.98139229  1
  Na  Na2  1  0.00000000  0.50000000  0.50000000  1
  Na  Na3  1  0.50000000  0.50000000  0.50000000  1
  Mn  Mn4  1  0.63687248  0.38359298  0.06449616  1
  Mn  Mn5  1  0.36312752  0.61640702  0.93550384  1
  Mn  Mn6  1  0.86312752  0.93550384  0.61640702  1
  Mn  Mn7  1  0.13687248  0.06449616  0.38359298  1
  Cd  Cd8  1  0.75000000  0.26727140  0.73272860  1
  Cd  Cd9  1  0.25000000  0.73272860  0.26727140  1
  P  P10  1  0.75000000  0.71764827  0.28235173  1
  P  P11  1  0.25000000  0.28235173  0.71764827  1
  P  P12  1  0.87442310  0.65620006  0.87181591  1
  P  P13  1  0.12557690  0.34379994  0.12818409  1
  P  P14  1  0.62557690  0.12818409  0.34379994  1
  P  P15  1  0.37442310  0.87181591  0.65620006  1
  O  O16  1  0.75401251  0.54396035  0.26268818  1
  O  O17  1  0.24598749  0.45603965  0.73731182  1
  O  O18  1  0.74598749  0.73731182  0.45603965  1
  O  O19  1  0.25401251  0.26268818  0.54396035  1
  O  O20  1  0.82243093  0.53668422  0.72334013  1
  O  O21  1  0.17756907  0.46331578  0.27665987  1
  O  O22  1  0.67756907  0.27665987  0.46331578  1
  O  O23  1  0.32243093  0.72334013  0.53668422  1
  O  O24  1  0.54449722  0.74442540  0.16454569  1
  O  O25  1  0.45550278  0.25557460  0.83545431  1
  O  O26  1  0.95550278  0.83545431  0.25557460  1
  O  O27  1  0.04449722  0.16454569  0.74442540  1
  O  O28  1  0.69325676  0.59777648  0.95250813  1
  O  O29  1  0.30674324  0.40222352  0.04749187  1
  O  O30  1  0.80674324  0.04749187  0.40222352  1
  O  O31  1  0.19325676  0.95250813  0.59777648  1
  O  O32  1  0.88407739  0.82728753  0.82851153  1
  O  O33  1  0.11592261  0.17271247  0.17148847  1
  O  O34  1  0.61592261  0.17148847  0.17271247  1
  O  O35  1  0.38407739  0.82851153  0.82728753  1
  O  O36  1  0.89914786  0.32792417  0.00545307  1
  O  O37  1  0.10085214  0.67207583  0.99454693  1
  O  O38  1  0.60085214  0.99454693  0.67207583  1
  O  O39  1  0.39914786  0.00545307  0.32792417  1
