# generated using pymatgen
data_MgMnSiO4
_symmetry_space_group_name_H-M   'P 1'
_cell_length_a   4.84312946
_cell_length_b   6.21332989
_cell_length_c   10.67256428
_cell_angle_alpha   90.00000000
_cell_angle_beta   90.00000000
_cell_angle_gamma   90.00000000
_symmetry_Int_Tables_number   1
_chemical_formula_structural   MgMnSiO4
_chemical_formula_sum   'Mg4 Mn4 Si4 O16'
_cell_volume   321.15838846
_cell_formula_units_Z   4
loop_
 _symmetry_equiv_pos_site_id
 _symmetry_equiv_pos_as_xyz
  1  'x, y, z'
loop_
 _atom_site_type_symbol
 _atom_site_label
 _atom_site_symmetry_multiplicity
 _atom_site_fract_x
 _atom_site_fract_y
 _atom_site_fract_z
 _atom_site_occupancy
  Mg  Mg0  1  0.00000000  -0.00000000  -0.00000000  1
  Mg  Mg1  1  0.50000000  -0.00000000  0.50000000  1
  Mg  Mg2  1  0.00000000  0.50000000  -0.00000000  1
  Mg  Mg3  1  0.50000000  0.50000000  0.50000000  1
  Mn  Mn4  1  0.48725717  0.75000000  0.77864671  1
  Mn  Mn5  1  0.51274283  0.25000000  0.22135329  1
  Mn  Mn6  1  0.98725717  0.25000000  0.72135329  1
  Mn  Mn7  1  0.01274283  0.75000000  0.27864671  1
  Si  Si8  1  0.92150367  0.75000000  0.59041182  1
  Si  Si9  1  0.07849633  0.25000000  0.40958818  1
  Si  Si10  1  0.42150367  0.25000000  0.90958818  1
  Si  Si11  1  0.57849633  0.75000000  0.09041182  1
  O  O12  1  0.73302648  0.75000000  0.94988859  1
  O  O13  1  0.26697352  0.25000000  0.05011141  1
  O  O14  1  0.23302648  0.25000000  0.55011141  1
  O  O15  1  0.76697352  0.75000000  0.44988859  1
  O  O16  1  0.25909529  0.75000000  0.58530713  1
  O  O17  1  0.74090471  0.25000000  0.41469287  1
  O  O18  1  0.75909529  0.25000000  0.91469287  1
  O  O19  1  0.24090471  0.75000000  0.08530713  1
  O  O20  1  0.77716051  0.96249046  0.65759089  1
  O  O21  1  0.22283949  0.03750954  0.34240911  1
  O  O22  1  0.27716051  0.03750954  0.84240911  1
  O  O23  1  0.22283949  0.46249046  0.34240911  1
  O  O24  1  0.72283949  0.96249046  0.15759089  1
  O  O25  1  0.77716051  0.53750954  0.65759089  1
  O  O26  1  0.72283949  0.53750954  0.15759089  1
  O  O27  1  0.27716051  0.46249046  0.84240911  1
