# generated using pymatgen
data_Nb6TlCl15
_symmetry_space_group_name_H-M   'P 1'
_cell_length_a   9.48283754
_cell_length_b   13.70425519
_cell_length_c   18.20218875
_cell_angle_alpha   90.00000000
_cell_angle_beta   90.00000000
_cell_angle_gamma   90.00000000
_symmetry_Int_Tables_number   1
_chemical_formula_structural   Nb6TlCl15
_chemical_formula_sum   'Nb24 Tl4 Cl60'
_cell_volume   2365.46954494
_cell_formula_units_Z   4
loop_
 _symmetry_equiv_pos_site_id
 _symmetry_equiv_pos_as_xyz
  1  'x, y, z'
loop_
 _atom_site_type_symbol
 _atom_site_label
 _atom_site_symmetry_multiplicity
 _atom_site_fract_x
 _atom_site_fract_y
 _atom_site_fract_z
 _atom_site_occupancy
  Nb  Nb0  1  0.92082933  0.50000000  0.39484442  1
  Nb  Nb1  1  0.07917067  0.50000000  0.60515558  1
  Nb  Nb2  1  0.92082933  0.50000000  0.10515558  1
  Nb  Nb3  1  0.07917067  0.50000000  0.89484442  1
  Nb  Nb4  1  0.85385847  0.60799744  0.97105624  1
  Nb  Nb5  1  0.14614153  0.39200256  0.02894376  1
  Nb  Nb6  1  0.85385847  0.39200256  0.52894376  1
  Nb  Nb7  1  0.14614153  0.60799744  0.02894376  1
  Nb  Nb8  1  0.14614153  0.60799744  0.47105624  1
  Nb  Nb9  1  0.85385847  0.39200256  0.97105624  1
  Nb  Nb10  1  0.14614153  0.39200256  0.47105624  1
  Nb  Nb11  1  0.85385847  0.60799744  0.52894376  1
  Nb  Nb12  1  0.66673876  0.89153253  0.83153698  1
  Nb  Nb13  1  0.33326124  0.10846747  0.16846302  1
  Nb  Nb14  1  0.66673876  0.10846747  0.66846302  1
  Nb  Nb15  1  0.33326124  0.89153253  0.16846302  1
  Nb  Nb16  1  0.33326124  0.89153253  0.33153698  1
  Nb  Nb17  1  0.66673876  0.10846747  0.83153698  1
  Nb  Nb18  1  0.33326124  0.10846747  0.33153698  1
  Nb  Nb19  1  0.66673876  0.89153253  0.66846302  1
  Nb  Nb20  1  0.45053777  -0.00000000  0.75000000  1
  Nb  Nb21  1  0.54946223  -0.00000000  0.25000000  1
  Nb  Nb22  1  0.88122022  -0.00000000  0.75000000  1
  Nb  Nb23  1  0.11877978  -0.00000000  0.25000000  1
  Tl  Tl24  1  0.18248030  0.74482837  0.75000000  1
  Tl  Tl25  1  0.81751970  0.25517163  0.25000000  1
  Tl  Tl26  1  0.18248030  0.25517163  0.75000000  1
  Tl  Tl27  1  0.81751970  0.74482837  0.25000000  1
  Cl  Cl28  1  0.66706767  0.74970972  0.93493550  1
  Cl  Cl29  1  0.33293233  0.25029028  0.06506450  1
  Cl  Cl30  1  0.66706767  0.25029028  0.56506450  1
  Cl  Cl31  1  0.33293233  0.74970972  0.06506450  1
  Cl  Cl32  1  0.33293233  0.74970972  0.43493550  1
  Cl  Cl33  1  0.66706767  0.25029028  0.93493550  1
  Cl  Cl34  1  0.33293233  0.25029028  0.43493550  1
  Cl  Cl35  1  0.66706767  0.74970972  0.56506450  1
  Cl  Cl36  1  0.92123096  0.62327868  0.84095669  1
  Cl  Cl37  1  0.07876904  0.37672132  0.15904331  1
  Cl  Cl38  1  0.92123096  0.37672132  0.65904331  1
  Cl  Cl39  1  0.07876904  0.62327868  0.15904331  1
  Cl  Cl40  1  0.07876904  0.62327868  0.34095669  1
  Cl  Cl41  1  0.92123096  0.37672132  0.84095669  1
  Cl  Cl42  1  0.07876904  0.37672132  0.34095669  1
  Cl  Cl43  1  0.92123096  0.62327868  0.65904331  1
  Cl  Cl44  1  0.40784206  0.87621935  0.84774822  1
  Cl  Cl45  1  0.59215794  0.12378065  0.15225178  1
  Cl  Cl46  1  0.40784206  0.12378065  0.65225178  1
  Cl  Cl47  1  0.59215794  0.87621935  0.15225178  1
  Cl  Cl48  1  0.59215794  0.87621935  0.34774822  1
  Cl  Cl49  1  0.40784206  0.12378065  0.84774822  1
  Cl  Cl50  1  0.59215794  0.12378065  0.34774822  1
  Cl  Cl51  1  0.40784206  0.87621935  0.65225178  1
  Cl  Cl52  1  0.65950970  0.50000000  0.93109849  1
  Cl  Cl53  1  0.34049030  0.50000000  0.06890151  1
  Cl  Cl54  1  0.65950970  0.50000000  0.56890151  1
  Cl  Cl55  1  0.34049030  0.50000000  0.43109849  1
  Cl  Cl56  1  0.65525360  0.74790319  0.75000000  1
  Cl  Cl57  1  0.34474640  0.25209681  0.25000000  1
  Cl  Cl58  1  0.65525360  0.25209681  0.75000000  1
  Cl  Cl59  1  0.34474640  0.74790319  0.25000000  1
  Cl  Cl60  1  0.66957587  -0.00000000  0.94001181  1
  Cl  Cl61  1  0.33042413  -0.00000000  0.05998819  1
  Cl  Cl62  1  0.66957587  -0.00000000  0.55998819  1
  Cl  Cl63  1  0.33042413  -0.00000000  0.44001181  1
  Cl  Cl64  1  0.18628143  0.50000000  0.75000000  1
  Cl  Cl65  1  0.81371857  0.50000000  0.25000000  1
  Cl  Cl66  1  0.16724398  -0.00000000  0.75000000  1
  Cl  Cl67  1  0.83275602  -0.00000000  0.25000000  1
  Cl  Cl68  1  0.73325544  0.62535603  0.40803885  1
  Cl  Cl69  1  0.26674456  0.37464397  0.59196115  1
  Cl  Cl70  1  0.73325544  0.37464397  0.09196115  1
  Cl  Cl71  1  0.26674456  0.62535603  0.59196115  1
  Cl  Cl72  1  0.26674456  0.62535603  0.90803885  1
  Cl  Cl73  1  0.73325544  0.37464397  0.40803885  1
  Cl  Cl74  1  0.26674456  0.37464397  0.90803885  1
  Cl  Cl75  1  0.73325544  0.62535603  0.09196115  1
  Cl  Cl76  1  0.92504328  0.87639015  0.84556017  1
  Cl  Cl77  1  0.07495672  0.12360985  0.15443983  1
  Cl  Cl78  1  0.92504328  0.12360985  0.65443983  1
  Cl  Cl79  1  0.07495672  0.87639015  0.15443983  1
  Cl  Cl80  1  0.07495672  0.87639015  0.34556017  1
  Cl  Cl81  1  0.92504328  0.12360985  0.84556017  1
  Cl  Cl82  1  0.07495672  0.12360985  0.34556017  1
  Cl  Cl83  1  0.92504328  0.87639015  0.65443983  1
  Cl  Cl84  1  0.00000000  0.75132403  -0.00000000  1
  Cl  Cl85  1  0.00000000  0.24867597  -0.00000000  1
  Cl  Cl86  1  0.00000000  0.24867597  0.50000000  1
  Cl  Cl87  1  0.00000000  0.75132403  0.50000000  1
