# generated using pymatgen
data_H10C3BrN
_symmetry_space_group_name_H-M   'P 1'
_cell_length_a   5.65283883
_cell_length_b   7.27023569
_cell_length_c   8.60832846
_cell_angle_alpha   90.00000000
_cell_angle_beta   90.00000000
_cell_angle_gamma   107.28311524
_symmetry_Int_Tables_number   1
_chemical_formula_structural   H10C3BrN
_chemical_formula_sum   'H20 C6 Br2 N2'
_cell_volume   337.80676608
_cell_formula_units_Z   2
loop_
 _symmetry_equiv_pos_site_id
 _symmetry_equiv_pos_as_xyz
  1  'x, y, z'
loop_
 _atom_site_type_symbol
 _atom_site_label
 _atom_site_symmetry_multiplicity
 _atom_site_fract_x
 _atom_site_fract_y
 _atom_site_fract_z
 _atom_site_occupancy
  H  H0  1  0.70619320  0.92398488  0.75000000  1
  H  H1  1  0.29380680  0.07601512  0.25000000  1
  H  H2  1  0.83308816  0.66622983  0.64555554  1
  H  H3  1  0.16691184  0.33377017  0.14555554  1
  H  H4  1  0.16691184  0.33377017  0.35444446  1
  H  H5  1  0.83308816  0.66622983  0.85444446  1
  H  H6  1  0.58696516  0.49679805  0.75000000  1
  H  H7  1  0.41303484  0.50320195  0.25000000  1
  H  H8  1  0.28589657  0.61648203  0.60907846  1
  H  H9  1  0.71410343  0.38351797  0.10907846  1
  H  H10  1  0.71410343  0.38351797  0.39092154  1
  H  H11  1  0.28589657  0.61648203  0.89092154  1
  H  H12  1  0.31722443  0.86985672  0.60847474  1
  H  H13  1  0.68277557  0.13014328  0.10847474  1
  H  H14  1  0.68277557  0.13014328  0.39152526  1
  H  H15  1  0.31722443  0.86985672  0.89152526  1
  H  H16  1  0.53731747  0.78088736  0.50522001  1
  H  H17  1  0.46268253  0.21911264  0.00522001  1
  H  H18  1  0.46268253  0.21911264  0.49477999  1
  H  H19  1  0.53731747  0.78088736  0.99477999  1
  C  C20  1  0.71749815  0.64275472  0.75000000  1
  C  C21  1  0.28250185  0.35724528  0.25000000  1
  C  C22  1  0.41713432  0.76160925  0.60750367  1
  C  C23  1  0.58286568  0.23839075  0.10750367  1
  C  C24  1  0.58286568  0.23839075  0.39249633  1
  C  C25  1  0.41713432  0.76160925  0.89249633  1
  Br  Br26  1  0.98200822  0.81942918  0.25000000  1
  Br  Br27  1  0.01799178  0.18057082  0.75000000  1
  N  N28  1  0.57303899  0.78377583  0.75000000  1
  N  N29  1  0.42696101  0.21622417  0.25000000  1
