# generated using pymatgen
data_Mg2MnGa3
_symmetry_space_group_name_H-M   'P 1'
_cell_length_a   5.11294868
_cell_length_b   5.11294868
_cell_length_c   8.58841961
_cell_angle_alpha   90.00000000
_cell_angle_beta   90.00000000
_cell_angle_gamma   115.72462167
_symmetry_Int_Tables_number   1
_chemical_formula_structural   Mg2MnGa3
_chemical_formula_sum   'Mg4 Mn2 Ga6'
_cell_volume   202.26846038
_cell_formula_units_Z   2
loop_
 _symmetry_equiv_pos_site_id
 _symmetry_equiv_pos_as_xyz
  1  'x, y, z'
loop_
 _atom_site_type_symbol
 _atom_site_label
 _atom_site_symmetry_multiplicity
 _atom_site_fract_x
 _atom_site_fract_y
 _atom_site_fract_z
 _atom_site_occupancy
  Mg  Mg0  1  0.67278996  0.32721004  0.43377290  1
  Mg  Mg1  1  0.32721004  0.67278996  0.56622710  1
  Mg  Mg2  1  0.32721004  0.67278996  0.93377290  1
  Mg  Mg3  1  0.67278996  0.32721004  0.06622710  1
  Mn  Mn4  1  0.84204719  0.15795281  0.75000000  1
  Mn  Mn5  1  0.15795281  0.84204719  0.25000000  1
  Ga  Ga6  1  0.35416990  0.17156769  0.75000000  1
  Ga  Ga7  1  0.64583010  0.82843231  0.25000000  1
  Ga  Ga8  1  0.82843231  0.64583010  0.75000000  1
  Ga  Ga9  1  0.17156769  0.35416990  0.25000000  1
  Ga  Ga10  1  -0.00000000  0.00000000  -0.00000000  1
  Ga  Ga11  1  -0.00000000  0.00000000  0.50000000  1
