# generated using pymatgen
data_MgAl3SiBO9
_symmetry_space_group_name_H-M   'P 1'
_cell_length_a   5.81666962
_cell_length_b   11.10122032
_cell_length_c   10.43481849
_cell_angle_alpha   90.00000000
_cell_angle_beta   90.00000000
_cell_angle_gamma   90.00000000
_symmetry_Int_Tables_number   1
_chemical_formula_structural   MgAl3SiBO9
_chemical_formula_sum   'Mg4 Al12 Si4 B4 O36'
_cell_volume   673.79846629
_cell_formula_units_Z   4
loop_
 _symmetry_equiv_pos_site_id
 _symmetry_equiv_pos_as_xyz
  1  'x, y, z'
loop_
 _atom_site_type_symbol
 _atom_site_label
 _atom_site_symmetry_multiplicity
 _atom_site_fract_x
 _atom_site_fract_y
 _atom_site_fract_z
 _atom_site_occupancy
  Mg  Mg0  1  0.75000000  0.71880023  0.59274137  1
  Mg  Mg1  1  0.25000000  0.28119977  0.40725863  1
  Mg  Mg2  1  0.25000000  0.78119977  0.09274137  1
  Mg  Mg3  1  0.75000000  0.21880023  0.90725863  1
  Al  Al4  1  0.00000000  0.00000000  0.00000000  1
  Al  Al5  1  0.00000000  0.50000000  0.50000000  1
  Al  Al6  1  0.50000000  0.00000000  0.00000000  1
  Al  Al7  1  0.50000000  0.50000000  0.50000000  1
  Al  Al8  1  0.00000000  0.00000000  0.50000000  1
  Al  Al9  1  0.00000000  0.50000000  0.00000000  1
  Al  Al10  1  0.50000000  0.00000000  0.50000000  1
  Al  Al11  1  0.50000000  0.50000000  0.00000000  1
  Al  Al12  1  0.75000000  0.94785960  0.72635201  1
  Al  Al13  1  0.25000000  0.05214040  0.27364799  1
  Al  Al14  1  0.25000000  0.55214040  0.22635201  1
  Al  Al15  1  0.75000000  0.44785960  0.77364799  1
  Si  Si16  1  0.75000000  0.76374725  0.93389501  1
  Si  Si17  1  0.25000000  0.23625275  0.06610499  1
  Si  Si18  1  0.25000000  0.73625275  0.43389501  1
  Si  Si19  1  0.75000000  0.26374725  0.56610499  1
  B  B20  1  0.75000000  0.99951446  0.25116971  1
  B  B21  1  0.25000000  0.00048554  0.74883029  1
  B  B22  1  0.25000000  0.50048554  0.75116971  1
  B  B23  1  0.75000000  0.49951446  0.24883029  1
  O  O24  1  0.75000000  0.78839096  0.77498199  1
  O  O25  1  0.25000000  0.21160904  0.22501801  1
  O  O26  1  0.25000000  0.71160904  0.27498199  1
  O  O27  1  0.75000000  0.28839096  0.72501801  1
  O  O28  1  0.95462204  0.99850399  0.31937839  1
  O  O29  1  0.04537796  0.00149601  0.68062161  1
  O  O30  1  0.04537796  0.50149601  0.81937839  1
  O  O31  1  0.45462204  0.00149601  0.68062161  1
  O  O32  1  0.95462204  0.49850399  0.18062161  1
  O  O33  1  0.54537796  0.99850399  0.31937839  1
  O  O34  1  0.54537796  0.49850399  0.18062161  1
  O  O35  1  0.45462204  0.50149601  0.81937839  1
  O  O36  1  0.75000000  0.90033381  0.54688434  1
  O  O37  1  0.25000000  0.09966619  0.45311566  1
  O  O38  1  0.25000000  0.59966619  0.04688434  1
  O  O39  1  0.75000000  0.40033381  0.95311566  1
  O  O40  1  0.75000000  0.52230086  0.61857399  1
  O  O41  1  0.25000000  0.47769914  0.38142601  1
  O  O42  1  0.25000000  0.97769914  0.11857399  1
  O  O43  1  0.75000000  0.02230086  0.88142601  1
  O  O44  1  0.75000000  0.50362679  0.37852757  1
  O  O45  1  0.25000000  0.49637321  0.62147243  1
  O  O46  1  0.25000000  0.99637321  0.87852757  1
  O  O47  1  0.75000000  0.00362679  0.12147243  1
  O  O48  1  0.97790613  0.82961538  0.99284578  1
  O  O49  1  0.02209387  0.17038462  0.00715422  1
  O  O50  1  0.02209387  0.67038462  0.49284578  1
  O  O51  1  0.47790613  0.17038462  0.00715422  1
  O  O52  1  0.97790613  0.32961538  0.50715422  1
  O  O53  1  0.52209387  0.82961538  0.99284578  1
  O  O54  1  0.52209387  0.32961538  0.50715422  1
  O  O55  1  0.47790613  0.67038462  0.49284578  1
  O  O56  1  0.75000000  0.62042674  0.97383210  1
  O  O57  1  0.25000000  0.37957326  0.02616790  1
  O  O58  1  0.25000000  0.87957326  0.47383210  1
  O  O59  1  0.75000000  0.12042674  0.52616790  1
