# generated using pymatgen
data_Mg3H2(SO5)2
_symmetry_space_group_name_H-M   'P 1'
_cell_length_a   7.54316997
_cell_length_b   7.54316997
_cell_length_c   13.12916876
_cell_angle_alpha   90.00000000
_cell_angle_beta   90.00000000
_cell_angle_gamma   90.00000000
_symmetry_Int_Tables_number   1
_chemical_formula_structural   Mg3H2(SO5)2
_chemical_formula_sum   'Mg12 H8 S8 O40'
_cell_volume   747.04199820
_cell_formula_units_Z   4
loop_
 _symmetry_equiv_pos_site_id
 _symmetry_equiv_pos_as_xyz
  1  'x, y, z'
loop_
 _atom_site_type_symbol
 _atom_site_label
 _atom_site_symmetry_multiplicity
 _atom_site_fract_x
 _atom_site_fract_y
 _atom_site_fract_z
 _atom_site_occupancy
  Mg  Mg0  1  0.39784541  0.14236984  0.24318331  1
  Mg  Mg1  1  0.60215459  0.85763016  0.74318331  1
  Mg  Mg2  1  0.35763016  0.89784541  0.49318331  1
  Mg  Mg3  1  0.10215459  0.64236984  0.00681669  1
  Mg  Mg4  1  0.64236984  0.10215459  0.99318331  1
  Mg  Mg5  1  0.89784541  0.35763016  0.50681669  1
  Mg  Mg6  1  0.14236984  0.39784541  0.75681669  1
  Mg  Mg7  1  0.85763016  0.60215459  0.25681669  1
  Mg  Mg8  1  0.37253306  0.37253306  -0.00000000  1
  Mg  Mg9  1  0.62746694  0.62746694  0.50000000  1
  Mg  Mg10  1  0.12746694  0.87253306  0.25000000  1
  Mg  Mg11  1  0.87253306  0.12746694  0.75000000  1
  H  H12  1  0.17738823  0.09787314  0.38783389  1
  H  H13  1  0.82261177  0.90212686  0.88783389  1
  H  H14  1  0.40212686  0.67738823  0.63783389  1
  H  H15  1  0.32261177  0.59787314  0.86216611  1
  H  H16  1  0.59787314  0.32261177  0.13783389  1
  H  H17  1  0.67738823  0.40212686  0.36216611  1
  H  H18  1  0.09787314  0.17738823  0.61216611  1
  H  H19  1  0.90212686  0.82261177  0.11216611  1
  S  S20  1  0.00172775  0.25018247  0.12400422  1
  S  S21  1  0.99827225  0.74981753  0.62400422  1
  S  S22  1  0.24981753  0.50172775  0.37400422  1
  S  S23  1  0.49827225  0.75018247  0.12599578  1
  S  S24  1  0.75018247  0.49827225  0.87400422  1
  S  S25  1  0.50172775  0.24981753  0.62599578  1
  S  S26  1  0.25018247  0.00172775  0.87599578  1
  S  S27  1  0.74981753  0.99827225  0.37599578  1
  O  O28  1  0.14200818  0.39120280  0.44241424  1
  O  O29  1  0.85799182  0.60879720  0.94241424  1
  O  O30  1  0.10879720  0.64200818  0.69241424  1
  O  O31  1  0.35799182  0.89120280  0.80758576  1
  O  O32  1  0.89120280  0.35799182  0.19241424  1
  O  O33  1  0.64200818  0.10879720  0.30758576  1
  O  O34  1  0.39120280  0.14200818  0.55758576  1
  O  O35  1  0.60879720  0.85799182  0.05758576  1
  O  O36  1  0.12282815  0.13149495  0.18372718  1
  O  O37  1  0.87717185  0.86850505  0.68372718  1
  O  O38  1  0.36850505  0.62282815  0.43372718  1
  O  O39  1  0.37717185  0.63149495  0.06627282  1
  O  O40  1  0.63149495  0.37717185  0.93372718  1
  O  O41  1  0.62282815  0.36850505  0.56627282  1
  O  O42  1  0.13149495  0.12282815  0.81627282  1
  O  O43  1  0.86850505  0.87717185  0.31627282  1
  O  O44  1  0.25918462  0.00867907  0.36119386  1
  O  O45  1  0.74081538  0.99132093  0.86119386  1
  O  O46  1  0.49132093  0.75918462  0.61119386  1
  O  O47  1  0.24081538  0.50867907  0.88880614  1
  O  O48  1  0.50867907  0.24081538  0.11119386  1
  O  O49  1  0.75918462  0.49132093  0.38880614  1
  O  O50  1  0.00867907  0.25918462  0.63880614  1
  O  O51  1  0.99132093  0.74081538  0.13880614  1
  O  O52  1  0.35942358  0.39020704  0.30720415  1
  O  O53  1  0.64057642  0.60979296  0.80720415  1
  O  O54  1  0.10979296  0.85942358  0.55720415  1
  O  O55  1  0.14057642  0.89020704  0.94279585  1
  O  O56  1  0.89020704  0.14057642  0.05720415  1
  O  O57  1  0.85942358  0.10979296  0.44279585  1
  O  O58  1  0.39020704  0.35942358  0.69279585  1
  O  O59  1  0.60979296  0.64057642  0.19279585  1
  O  O60  1  0.11794179  0.37077932  0.06211619  1
  O  O61  1  0.88205821  0.62922068  0.56211619  1
  O  O62  1  0.12922068  0.61794179  0.31211619  1
  O  O63  1  0.38205821  0.87077932  0.18788381  1
  O  O64  1  0.87077932  0.38205821  0.81211619  1
  O  O65  1  0.61794179  0.12922068  0.68788381  1
  O  O66  1  0.37077932  0.11794179  0.93788381  1
  O  O67  1  0.62922068  0.88205821  0.43788381  1
