# generated using pymatgen
data_MgZn2(AsO4)2
_symmetry_space_group_name_H-M   'P 1'
_cell_length_a   5.35266719
_cell_length_b   7.88662946
_cell_length_c   8.58507050
_cell_angle_alpha   90.00000000
_cell_angle_beta   90.00000000
_cell_angle_gamma   96.33285960
_symmetry_Int_Tables_number   1
_chemical_formula_structural   MgZn2(AsO4)2
_chemical_formula_sum   'Mg2 Zn4 As4 O16'
_cell_volume   360.20297778
_cell_formula_units_Z   2
loop_
 _symmetry_equiv_pos_site_id
 _symmetry_equiv_pos_as_xyz
  1  'x, y, z'
loop_
 _atom_site_type_symbol
 _atom_site_label
 _atom_site_symmetry_multiplicity
 _atom_site_fract_x
 _atom_site_fract_y
 _atom_site_fract_z
 _atom_site_occupancy
  Mg  Mg0  1  -0.00000000  -0.00000000  0.00000000  1
  Mg  Mg1  1  0.50000000  0.50000000  0.50000000  1
  Zn  Zn2  1  0.90654727  0.88829144  0.63914667  1
  Zn  Zn3  1  0.09345273  0.11170856  0.36085333  1
  Zn  Zn4  1  0.59345273  0.61170856  0.13914667  1
  Zn  Zn5  1  0.40654727  0.38829144  0.86085333  1
  As  As6  1  0.04464315  0.69327491  0.30661001  1
  As  As7  1  0.95535685  0.30672509  0.69338999  1
  As  As8  1  0.45535685  0.80672509  0.80661001  1
  As  As9  1  0.54464315  0.19327491  0.19338999  1
  O  O10  1  0.81271376  0.53958828  0.36302972  1
  O  O11  1  0.18728624  0.46041172  0.63697028  1
  O  O12  1  0.68728624  0.96041172  0.86302972  1
  O  O13  1  0.31271376  0.03958828  0.13697028  1
  O  O14  1  0.07078710  0.86409471  0.43283805  1
  O  O15  1  0.92921290  0.13590529  0.56716195  1
  O  O16  1  0.42921290  0.63590529  0.93283805  1
  O  O17  1  0.57078710  0.36409471  0.06716195  1
  O  O18  1  0.93161869  0.75491045  0.12825634  1
  O  O19  1  0.06838131  0.24508955  0.87174366  1
  O  O20  1  0.56838131  0.74508955  0.62825634  1
  O  O21  1  0.43161869  0.25491045  0.37174366  1
  O  O22  1  0.33127942  0.61550529  0.30352550  1
  O  O23  1  0.66872058  0.38449471  0.69647450  1
  O  O24  1  0.16872058  0.88449471  0.80352550  1
  O  O25  1  0.83127942  0.11550529  0.19647450  1
