# generated using pymatgen
data_Lu4CdPt
_symmetry_space_group_name_H-M   'P 1'
_cell_length_a   9.48041888
_cell_length_b   9.48041888
_cell_length_c   9.48041888
_cell_angle_alpha   60.00000000
_cell_angle_beta   60.00000000
_cell_angle_gamma   60.00000000
_symmetry_Int_Tables_number   1
_chemical_formula_structural   Lu4CdPt
_chemical_formula_sum   'Lu16 Cd4 Pt4'
_cell_volume   602.51460950
_cell_formula_units_Z   4
loop_
 _symmetry_equiv_pos_site_id
 _symmetry_equiv_pos_as_xyz
  1  'x, y, z'
loop_
 _atom_site_type_symbol
 _atom_site_label
 _atom_site_symmetry_multiplicity
 _atom_site_fract_x
 _atom_site_fract_y
 _atom_site_fract_z
 _atom_site_occupancy
  Lu  Lu0  1  0.64827325  0.64827325  0.64827325  1
  Lu  Lu1  1  0.05518026  0.64827325  0.64827325  1
  Lu  Lu2  1  0.64827325  0.05518026  0.64827325  1
  Lu  Lu3  1  0.64827325  0.64827325  0.05518026  1
  Lu  Lu4  1  0.81102490  0.81102490  0.18897510  1
  Lu  Lu5  1  0.18897510  0.18897510  0.81102490  1
  Lu  Lu6  1  0.81102490  0.18897510  0.81102490  1
  Lu  Lu7  1  0.18897510  0.81102490  0.18897510  1
  Lu  Lu8  1  0.18897510  0.81102490  0.81102490  1
  Lu  Lu9  1  0.81102490  0.18897510  0.18897510  1
  Lu  Lu10  1  0.43520050  0.43520050  0.06479950  1
  Lu  Lu11  1  0.06479950  0.06479950  0.43520050  1
  Lu  Lu12  1  0.43520050  0.06479950  0.43520050  1
  Lu  Lu13  1  0.06479950  0.43520050  0.06479950  1
  Lu  Lu14  1  0.06479950  0.43520050  0.43520050  1
  Lu  Lu15  1  0.43520050  0.06479950  0.06479950  1
  Cd  Cd16  1  0.41797222  0.41797222  0.41797222  1
  Cd  Cd17  1  0.74608333  0.41797222  0.41797222  1
  Cd  Cd18  1  0.41797222  0.74608333  0.41797222  1
  Cd  Cd19  1  0.41797222  0.41797222  0.74608333  1
  Pt  Pt20  1  0.85710868  0.85710868  0.85710868  1
  Pt  Pt21  1  0.42867397  0.85710868  0.85710868  1
  Pt  Pt22  1  0.85710868  0.42867397  0.85710868  1
  Pt  Pt23  1  0.85710868  0.85710868  0.42867397  1
