# generated using pymatgen
data_Hf9BOs4
_symmetry_space_group_name_H-M   'P 1'
_cell_length_a   8.58854085
_cell_length_b   8.37118011
_cell_length_c   8.37118011
_cell_angle_alpha   120.00629790
_cell_angle_beta   90.00000000
_cell_angle_gamma   90.00000000
_symmetry_Int_Tables_number   1
_chemical_formula_structural   Hf9BOs4
_chemical_formula_sum   'Hf18 B2 Os8'
_cell_volume   521.18970034
_cell_formula_units_Z   2
loop_
 _symmetry_equiv_pos_site_id
 _symmetry_equiv_pos_as_xyz
  1  'x, y, z'
loop_
 _atom_site_type_symbol
 _atom_site_label
 _atom_site_symmetry_multiplicity
 _atom_site_fract_x
 _atom_site_fract_y
 _atom_site_fract_z
 _atom_site_occupancy
  Hf  Hf0  1  0.56004023  0.80087528  0.60182452  1
  Hf  Hf1  1  0.56006318  0.80102532  0.19897468  1
  Hf  Hf2  1  0.56004023  0.39817548  0.19912472  1
  Hf  Hf3  1  0.43995977  0.19912472  0.39817548  1
  Hf  Hf4  1  0.43993682  0.19897468  0.80102532  1
  Hf  Hf5  1  0.43995977  0.60182452  0.80087528  1
  Hf  Hf6  1  0.06004023  0.19912472  0.39817548  1
  Hf  Hf7  1  0.06006318  0.19897468  0.80102532  1
  Hf  Hf8  1  0.06004023  0.60182452  0.80087528  1
  Hf  Hf9  1  0.93995977  0.80087528  0.60182452  1
  Hf  Hf10  1  0.93993682  0.80102532  0.19897468  1
  Hf  Hf11  1  0.93995977  0.39817548  0.19912472  1
  Hf  Hf12  1  0.75000000  0.45807114  0.91611808  1
  Hf  Hf13  1  0.75000000  0.45801964  0.54198036  1
  Hf  Hf14  1  0.75000000  0.08388192  0.54192886  1
  Hf  Hf15  1  0.25000000  0.54192886  0.08388192  1
  Hf  Hf16  1  0.25000000  0.54198036  0.45801964  1
  Hf  Hf17  1  0.25000000  0.91611808  0.45807114  1
  B  B18  1  0.75000000  0.66672162  0.33327838  1
  B  B19  1  0.25000000  0.33327838  0.66672162  1
  Os  Os20  1  0.75000000  0.11397664  0.22792039  1
  Os  Os21  1  0.75000000  0.11403278  0.88596722  1
  Os  Os22  1  0.75000000  0.77207961  0.88602336  1
  Os  Os23  1  0.25000000  0.88602336  0.77207961  1
  Os  Os24  1  0.25000000  0.88596722  0.11403278  1
  Os  Os25  1  0.25000000  0.22792039  0.11397664  1
  Os  Os26  1  0.50000000  -0.00000000  0.00000000  1
  Os  Os27  1  0.00000000  -0.00000000  0.00000000  1
