# generated using pymatgen
data_LuB4Rh
_symmetry_space_group_name_H-M   'P 1'
_cell_length_a   3.52903560
_cell_length_b   5.91851413
_cell_length_c   11.47067934
_cell_angle_alpha   90.00000000
_cell_angle_beta   90.00000000
_cell_angle_gamma   90.00000000
_symmetry_Int_Tables_number   1
_chemical_formula_structural   LuB4Rh
_chemical_formula_sum   'Lu4 B16 Rh4'
_cell_volume   239.58403096
_cell_formula_units_Z   4
loop_
 _symmetry_equiv_pos_site_id
 _symmetry_equiv_pos_as_xyz
  1  'x, y, z'
loop_
 _atom_site_type_symbol
 _atom_site_label
 _atom_site_symmetry_multiplicity
 _atom_site_fract_x
 _atom_site_fract_y
 _atom_site_fract_z
 _atom_site_occupancy
  Lu  Lu0  1  0.50000000  0.37042365  0.14905616  1
  Lu  Lu1  1  0.50000000  0.62957635  0.85094384  1
  Lu  Lu2  1  0.50000000  0.12957635  0.64905616  1
  Lu  Lu3  1  0.50000000  0.87042365  0.35094384  1
  B  B4  1  0.00000000  0.11394149  0.04750385  1
  B  B5  1  0.00000000  0.88605851  0.95249615  1
  B  B6  1  0.00000000  0.38605851  0.54750385  1
  B  B7  1  0.00000000  0.61394149  0.45249615  1
  B  B8  1  -0.00000000  0.13501751  0.46949822  1
  B  B9  1  -0.00000000  0.86498249  0.53050178  1
  B  B10  1  0.00000000  0.36498249  0.96949822  1
  B  B11  1  0.00000000  0.63501751  0.03050178  1
  B  B12  1  -0.00000000  0.02429228  0.19359469  1
  B  B13  1  0.00000000  0.97570772  0.80640531  1
  B  B14  1  0.00000000  0.47570772  0.69359469  1
  B  B15  1  0.00000000  0.52429228  0.30640531  1
  B  B16  1  0.00000000  0.21047252  0.31198386  1
  B  B17  1  0.00000000  0.78952748  0.68801614  1
  B  B18  1  0.00000000  0.28952748  0.81198386  1
  B  B19  1  0.00000000  0.71047252  0.18801614  1
  Rh  Rh20  1  0.50000000  0.35781164  0.40490900  1
  Rh  Rh21  1  0.50000000  0.64218836  0.59509100  1
  Rh  Rh22  1  0.50000000  0.14218836  0.90490900  1
  Rh  Rh23  1  0.50000000  0.85781164  0.09509100  1
