# generated using pymatgen
data_Lu4CdPd
_symmetry_space_group_name_H-M   'P 1'
_cell_length_a   9.48394479
_cell_length_b   9.48394479
_cell_length_c   9.48394479
_cell_angle_alpha   60.00000000
_cell_angle_beta   60.00000000
_cell_angle_gamma   60.00000000
_symmetry_Int_Tables_number   1
_chemical_formula_structural   Lu4CdPd
_chemical_formula_sum   'Lu16 Cd4 Pd4'
_cell_volume   603.18711091
_cell_formula_units_Z   4
loop_
 _symmetry_equiv_pos_site_id
 _symmetry_equiv_pos_as_xyz
  1  'x, y, z'
loop_
 _atom_site_type_symbol
 _atom_site_label
 _atom_site_symmetry_multiplicity
 _atom_site_fract_x
 _atom_site_fract_y
 _atom_site_fract_z
 _atom_site_occupancy
  Lu  Lu0  1  0.64595582  0.64595582  0.64595582  1
  Lu  Lu1  1  0.06213255  0.64595582  0.64595582  1
  Lu  Lu2  1  0.64595582  0.06213255  0.64595582  1
  Lu  Lu3  1  0.64595582  0.64595582  0.06213255  1
  Lu  Lu4  1  0.81156183  0.81156183  0.18843817  1
  Lu  Lu5  1  0.18843817  0.18843817  0.81156183  1
  Lu  Lu6  1  0.81156183  0.18843817  0.81156183  1
  Lu  Lu7  1  0.18843817  0.81156183  0.18843817  1
  Lu  Lu8  1  0.18843817  0.81156183  0.81156183  1
  Lu  Lu9  1  0.81156183  0.18843817  0.18843817  1
  Lu  Lu10  1  0.43364096  0.43364096  0.06635904  1
  Lu  Lu11  1  0.06635904  0.06635904  0.43364096  1
  Lu  Lu12  1  0.43364096  0.06635904  0.43364096  1
  Lu  Lu13  1  0.06635904  0.43364096  0.06635904  1
  Lu  Lu14  1  0.06635904  0.43364096  0.43364096  1
  Lu  Lu15  1  0.43364096  0.06635904  0.06635904  1
  Cd  Cd16  1  0.41707725  0.41707725  0.41707725  1
  Cd  Cd17  1  0.74876824  0.41707725  0.41707725  1
  Cd  Cd18  1  0.41707725  0.74876824  0.41707725  1
  Cd  Cd19  1  0.41707725  0.41707725  0.74876824  1
  Pd  Pd20  1  0.85492324  0.85492324  0.85492324  1
  Pd  Pd21  1  0.43523029  0.85492324  0.85492324  1
  Pd  Pd22  1  0.85492324  0.43523029  0.85492324  1
  Pd  Pd23  1  0.85492324  0.85492324  0.43523029  1
