# generated using pymatgen
data_Lu2(Al3Ir)3
_symmetry_space_group_name_H-M   'P 1'
_cell_length_a   7.52291606
_cell_length_b   7.52291606
_cell_length_c   9.41110381
_cell_angle_alpha   90.00000000
_cell_angle_beta   90.00000000
_cell_angle_gamma   119.60893754
_symmetry_Int_Tables_number   1
_chemical_formula_structural   Lu2(Al3Ir)3
_chemical_formula_sum   'Lu4 Al18 Ir6'
_cell_volume   463.06457429
_cell_formula_units_Z   2
loop_
 _symmetry_equiv_pos_site_id
 _symmetry_equiv_pos_as_xyz
  1  'x, y, z'
loop_
 _atom_site_type_symbol
 _atom_site_label
 _atom_site_symmetry_multiplicity
 _atom_site_fract_x
 _atom_site_fract_y
 _atom_site_fract_z
 _atom_site_occupancy
  Lu  Lu0  1  0.66937719  0.99590866  0.25000000  1
  Lu  Lu1  1  0.33062281  0.00409134  0.75000000  1
  Lu  Lu2  1  0.99590866  0.66937719  0.25000000  1
  Lu  Lu3  1  0.00409134  0.33062281  0.75000000  1
  Al  Al4  1  0.12582954  0.12582954  0.25000000  1
  Al  Al5  1  0.87417046  0.87417046  0.75000000  1
  Al  Al6  1  0.33453111  0.00083827  0.07402419  1
  Al  Al7  1  0.66546889  0.99916173  0.92597581  1
  Al  Al8  1  0.66546889  0.99916173  0.57402419  1
  Al  Al9  1  0.00083827  0.33453111  0.42597581  1
  Al  Al10  1  0.33453111  0.00083827  0.42597581  1
  Al  Al11  1  0.99916173  0.66546889  0.57402419  1
  Al  Al12  1  0.99916173  0.66546889  0.92597581  1
  Al  Al13  1  0.00083827  0.33453111  0.07402419  1
  Al  Al14  1  0.33331326  0.33331326  0.55611622  1
  Al  Al15  1  0.66668674  0.66668674  0.44388378  1
  Al  Al16  1  0.66668674  0.66668674  0.05611622  1
  Al  Al17  1  0.33331326  0.33331326  0.94388378  1
  Al  Al18  1  0.54726823  0.33730720  0.25000000  1
  Al  Al19  1  0.45273177  0.66269280  0.75000000  1
  Al  Al20  1  0.33730720  0.54726823  0.25000000  1
  Al  Al21  1  0.66269280  0.45273177  0.75000000  1
  Ir  Ir22  1  0.32784076  0.67215924  0.00000000  1
  Ir  Ir23  1  0.67215924  0.32784076  0.00000000  1
  Ir  Ir24  1  0.67215924  0.32784076  0.50000000  1
  Ir  Ir25  1  0.32784076  0.67215924  0.50000000  1
  Ir  Ir26  1  0.00000000  -0.00000000  0.00000000  1
  Ir  Ir27  1  0.00000000  -0.00000000  0.50000000  1
