# generated using pymatgen
data_Li13(Si5Pd7)2
_symmetry_space_group_name_H-M   'P 1'
_cell_length_a   4.40407819
_cell_length_b   12.81827271
_cell_length_c   18.73296345
_cell_angle_alpha   90.00000000
_cell_angle_beta   90.00000000
_cell_angle_gamma   90.00000000
_symmetry_Int_Tables_number   1
_chemical_formula_structural   Li13(Si5Pd7)2
_chemical_formula_sum   'Li26 Si20 Pd28'
_cell_volume   1057.52590259
_cell_formula_units_Z   2
loop_
 _symmetry_equiv_pos_site_id
 _symmetry_equiv_pos_as_xyz
  1  'x, y, z'
loop_
 _atom_site_type_symbol
 _atom_site_label
 _atom_site_symmetry_multiplicity
 _atom_site_fract_x
 _atom_site_fract_y
 _atom_site_fract_z
 _atom_site_occupancy
  Li  Li0  1  -0.00000000  0.02149293  0.27311800  1
  Li  Li1  1  0.00000000  0.97850707  0.72688200  1
  Li  Li2  1  0.50000000  0.47850707  0.77311800  1
  Li  Li3  1  0.50000000  0.52149293  0.22688200  1
  Li  Li4  1  -0.00000000  0.21752133  0.22401642  1
  Li  Li5  1  -0.00000000  0.78247867  0.77598358  1
  Li  Li6  1  0.50000000  0.28247867  0.72401642  1
  Li  Li7  1  0.50000000  0.71752133  0.27598358  1
  Li  Li8  1  -0.00000000  0.99299343  0.13634243  1
  Li  Li9  1  -0.00000000  0.00700657  0.86365757  1
  Li  Li10  1  0.50000000  0.50700657  0.63634243  1
  Li  Li11  1  0.50000000  0.49299343  0.36365757  1
  Li  Li12  1  0.00000000  0.20479588  0.64658447  1
  Li  Li13  1  0.00000000  0.79520412  0.35341553  1
  Li  Li14  1  0.50000000  0.29520412  0.14658447  1
  Li  Li15  1  0.50000000  0.70479588  0.85341553  1
  Li  Li16  1  0.00000000  0.01096401  0.58521652  1
  Li  Li17  1  -0.00000000  0.98903599  0.41478348  1
  Li  Li18  1  0.50000000  0.48903599  0.08521652  1
  Li  Li19  1  0.50000000  0.51096401  0.91478348  1
  Li  Li20  1  -0.00000000  0.00000000  0.00000000  1
  Li  Li21  1  0.50000000  0.50000000  0.50000000  1
  Li  Li22  1  -0.00000000  0.78614664  0.06166698  1
  Li  Li23  1  -0.00000000  0.21385336  0.93833302  1
  Li  Li24  1  0.50000000  0.71385336  0.56166698  1
  Li  Li25  1  0.50000000  0.28614664  0.43833302  1
  Si  Si26  1  -0.00000000  0.19538952  0.50503318  1
  Si  Si27  1  0.00000000  0.80461048  0.49496682  1
  Si  Si28  1  0.50000000  0.30461048  0.00503318  1
  Si  Si29  1  0.50000000  0.69538952  0.99496682  1
  Si  Si30  1  -0.00000000  0.38453621  0.31050076  1
  Si  Si31  1  0.00000000  0.61546379  0.68949924  1
  Si  Si32  1  0.50000000  0.11546379  0.81050076  1
  Si  Si33  1  0.50000000  0.88453621  0.18949924  1
  Si  Si34  1  0.00000000  0.38282423  0.56578404  1
  Si  Si35  1  -0.00000000  0.61717577  0.43421596  1
  Si  Si36  1  0.50000000  0.11717577  0.06578404  1
  Si  Si37  1  0.50000000  0.88282423  0.93421596  1
  Si  Si38  1  0.00000000  0.37302862  0.06363846  1
  Si  Si39  1  0.00000000  0.62697138  0.93636154  1
  Si  Si40  1  0.50000000  0.12697138  0.56363846  1
  Si  Si41  1  0.50000000  0.87302862  0.43636154  1
  Si  Si42  1  -0.00000000  0.63230122  0.18086598  1
  Si  Si43  1  0.00000000  0.36769878  0.81913402  1
  Si  Si44  1  0.50000000  0.86769878  0.68086598  1
  Si  Si45  1  0.50000000  0.13230122  0.31913402  1
  Pd  Pd46  1  -0.00000000  0.20930541  0.37300389  1
  Pd  Pd47  1  0.00000000  0.79069459  0.62699611  1
  Pd  Pd48  1  0.50000000  0.29069459  0.87300389  1
  Pd  Pd49  1  0.50000000  0.70930541  0.12699611  1
  Pd  Pd50  1  -0.00000000  0.42681136  0.43832102  1
  Pd  Pd51  1  -0.00000000  0.57318864  0.56167898  1
  Pd  Pd52  1  0.50000000  0.07318864  0.93832102  1
  Pd  Pd53  1  0.50000000  0.92681136  0.06167898  1
  Pd  Pd54  1  -0.00000000  0.57814987  0.30668388  1
  Pd  Pd55  1  -0.00000000  0.42185013  0.69331612  1
  Pd  Pd56  1  0.50000000  0.92185013  0.80668388  1
  Pd  Pd57  1  0.50000000  0.07814987  0.19331612  1
  Pd  Pd58  1  0.00000000  0.43668232  0.18508002  1
  Pd  Pd59  1  -0.00000000  0.56331768  0.81491998  1
  Pd  Pd60  1  0.50000000  0.06331768  0.68508002  1
  Pd  Pd61  1  0.50000000  0.93668232  0.31491998  1
  Pd  Pd62  1  0.00000000  0.18656452  0.08595474  1
  Pd  Pd63  1  -0.00000000  0.81343548  0.91404526  1
  Pd  Pd64  1  0.50000000  0.31343548  0.58595474  1
  Pd  Pd65  1  0.50000000  0.68656452  0.41404526  1
  Pd  Pd66  1  -0.00000000  0.57103102  0.06015075  1
  Pd  Pd67  1  0.00000000  0.42896898  0.93984925  1
  Pd  Pd68  1  0.50000000  0.92896898  0.56015075  1
  Pd  Pd69  1  0.50000000  0.07103102  0.43984925  1
  Pd  Pd70  1  0.00000000  0.18763259  0.78848195  1
  Pd  Pd71  1  -0.00000000  0.81236741  0.21151805  1
  Pd  Pd72  1  0.50000000  0.31236741  0.28848195  1
  Pd  Pd73  1  0.50000000  0.68763259  0.71151805  1
