# generated using pymatgen
data_LaAs2Pd3
_symmetry_space_group_name_H-M   'P 1'
_cell_length_a   4.20023721
_cell_length_b   8.71326886
_cell_length_c   10.13921831
_cell_angle_alpha   107.68972637
_cell_angle_beta   90.00000000
_cell_angle_gamma   103.94706777
_symmetry_Int_Tables_number   1
_chemical_formula_structural   LaAs2Pd3
_chemical_formula_sum   'La3 As6 Pd9'
_cell_volume   342.02680371
_cell_formula_units_Z   3
loop_
 _symmetry_equiv_pos_site_id
 _symmetry_equiv_pos_as_xyz
  1  'x, y, z'
loop_
 _atom_site_type_symbol
 _atom_site_label
 _atom_site_symmetry_multiplicity
 _atom_site_fract_x
 _atom_site_fract_y
 _atom_site_fract_z
 _atom_site_occupancy
  La  La0  1  0.84487659  0.68975319  0.29931507  1
  La  La1  1  0.15512341  0.31024681  0.70068493  1
  La  La2  1  -0.00000000  -0.00000000  -0.00000000  1
  As  As3  1  0.80088070  0.60176140  0.86978056  1
  As  As4  1  0.19911930  0.39823860  0.13021944  1
  As  As5  1  0.53798720  0.07597439  0.78421449  1
  As  As6  1  0.46201280  0.92402561  0.21578551  1
  As  As7  1  0.63582458  0.27164915  0.45201986  1
  As  As8  1  0.36417542  0.72835085  0.54798014  1
  Pd  Pd9  1  0.95654001  0.91308002  0.66744312  1
  Pd  Pd10  1  0.04345999  0.08691998  0.33255688  1
  Pd  Pd11  1  0.77958879  0.55917757  0.60832579  1
  Pd  Pd12  1  0.22041121  0.44082243  0.39167421  1
  Pd  Pd13  1  0.37678185  0.75356370  0.79984790  1
  Pd  Pd14  1  0.62321815  0.24643630  0.20015210  1
  Pd  Pd15  1  0.50000000  -0.00000000  0.50000000  1
  Pd  Pd16  1  0.68012679  0.36025357  0.96846364  1
  Pd  Pd17  1  0.31987321  0.63974643  0.03153636  1
