# generated using pymatgen
data_Lu12In2Fe3
_symmetry_space_group_name_H-M   'P 1'
_cell_length_a   8.18506139
_cell_length_b   8.18506139
_cell_length_c   8.18506139
_cell_angle_alpha   108.48295972
_cell_angle_beta   111.46635425
_cell_angle_gamma   108.48295972
_symmetry_Int_Tables_number   1
_chemical_formula_structural   Lu12In2Fe3
_chemical_formula_sum   'Lu12 In2 Fe3'
_cell_volume   421.74239874
_cell_formula_units_Z   1
loop_
 _symmetry_equiv_pos_site_id
 _symmetry_equiv_pos_as_xyz
  1  'x, y, z'
loop_
 _atom_site_type_symbol
 _atom_site_label
 _atom_site_symmetry_multiplicity
 _atom_site_fract_x
 _atom_site_fract_y
 _atom_site_fract_z
 _atom_site_occupancy
  Lu  Lu0  1  0.30641383  0.61282766  0.30641383  1
  Lu  Lu1  1  0.69358617  0.38717234  0.69358617  1
  Lu  Lu2  1  0.69358617  0.00000000  0.30641383  1
  Lu  Lu3  1  0.30641383  -0.00000000  0.69358617  1
  Lu  Lu4  1  0.19218070  0.23612931  0.42831001  1
  Lu  Lu5  1  0.80781930  0.76387069  0.57168999  1
  Lu  Lu6  1  0.19218070  0.76387069  0.95605139  1
  Lu  Lu7  1  0.95605139  0.76387069  0.19218070  1
  Lu  Lu8  1  0.80781930  0.23612931  0.04394861  1
  Lu  Lu9  1  0.04394861  0.23612931  0.80781930  1
  Lu  Lu10  1  0.42831001  0.23612931  0.19218070  1
  Lu  Lu11  1  0.57168999  0.76387069  0.80781930  1
  In  In12  1  -0.00000000  0.50000000  0.50000000  1
  In  In13  1  0.50000000  0.50000000  0.00000000  1
  Fe  Fe14  1  0.38296381  0.00000000  0.38296381  1
  Fe  Fe15  1  0.61703619  0.00000000  0.61703619  1
  Fe  Fe16  1  -0.00000000  0.00000000  0.00000000  1
