# generated using pymatgen
data_MgH8C4(NO3)2
_symmetry_space_group_name_H-M   'P 1'
_cell_length_a   8.60024531
_cell_length_b   8.76998337
_cell_length_c   12.60294089
_cell_angle_alpha   90.31597441
_cell_angle_beta   90.00000000
_cell_angle_gamma   90.00000000
_symmetry_Int_Tables_number   1
_chemical_formula_structural   MgH8C4(NO3)2
_chemical_formula_sum   'Mg4 H32 C16 N8 O24'
_cell_volume   950.54986400
_cell_formula_units_Z   4
loop_
 _symmetry_equiv_pos_site_id
 _symmetry_equiv_pos_as_xyz
  1  'x, y, z'
loop_
 _atom_site_type_symbol
 _atom_site_label
 _atom_site_symmetry_multiplicity
 _atom_site_fract_x
 _atom_site_fract_y
 _atom_site_fract_z
 _atom_site_occupancy
  Mg  Mg0  1  0.50000000  -0.00000000  -0.00000000  1
  Mg  Mg1  1  0.00000000  0.00000000  0.50000000  1
  Mg  Mg2  1  0.00000000  0.50000000  -0.00000000  1
  Mg  Mg3  1  0.50000000  0.50000000  0.50000000  1
  H  H4  1  0.64197711  0.00505831  0.36256102  1
  H  H5  1  0.14197711  0.99494169  0.13743898  1
  H  H6  1  0.35802289  0.99494169  0.63743898  1
  H  H7  1  0.85802289  0.00505831  0.86256102  1
  H  H8  1  0.94864672  0.29247374  0.33456813  1
  H  H9  1  0.44864672  0.70752626  0.16543187  1
  H  H10  1  0.05135328  0.70752626  0.66543187  1
  H  H11  1  0.55135328  0.29247374  0.83456813  1
  H  H12  1  0.02284348  0.27915658  0.20215799  1
  H  H13  1  0.52284348  0.72084342  0.29784201  1
  H  H14  1  0.97715652  0.72084342  0.79784201  1
  H  H15  1  0.47715652  0.27915658  0.70215799  1
  H  H16  1  0.52835196  0.17006281  0.38013587  1
  H  H17  1  0.02835196  0.82993719  0.11986413  1
  H  H18  1  0.47164804  0.82993719  0.61986413  1
  H  H19  1  0.97164804  0.17006281  0.88013587  1
  H  H20  1  0.70190917  0.70057597  0.04523925  1
  H  H21  1  0.20190917  0.29942403  0.45476075  1
  H  H22  1  0.29809083  0.29942403  0.95476075  1
  H  H23  1  0.79809083  0.70057597  0.54523925  1
  H  H24  1  0.87021710  0.53995564  0.31117274  1
  H  H25  1  0.37021710  0.46004436  0.18882726  1
  H  H26  1  0.12978290  0.46004436  0.68882726  1
  H  H27  1  0.62978290  0.53995564  0.81117274  1
  H  H28  1  0.78061992  0.21410629  0.07911014  1
  H  H29  1  0.28061992  0.78589371  0.42088986  1
  H  H30  1  0.21938008  0.78589371  0.92088986  1
  H  H31  1  0.71938008  0.21410629  0.57911014  1
  H  H32  1  0.43981712  0.18028312  0.21226331  1
  H  H33  1  0.93981712  0.81971688  0.28773669  1
  H  H34  1  0.56018288  0.81971688  0.78773669  1
  H  H35  1  0.06018288  0.18028312  0.71226331  1
  C  C36  1  0.77004121  0.76682257  0.98675544  1
  C  C37  1  0.27004121  0.23317743  0.51324456  1
  C  C38  1  0.22995879  0.23317743  0.01324456  1
  C  C39  1  0.72995879  0.76682257  0.48675544  1
  C  C40  1  0.72482241  0.27232756  0.01081431  1
  C  C41  1  0.22482241  0.72767244  0.48918569  1
  C  C42  1  0.27517759  0.72767244  0.98918569  1
  C  C43  1  0.77517759  0.27232756  0.51081431  1
  C  C44  1  0.52066401  0.08666623  0.23134682  1
  C  C45  1  0.02066401  0.91333377  0.26865318  1
  C  C46  1  0.47933599  0.91333377  0.76865318  1
  C  C47  1  0.97933599  0.08666623  0.73134682  1
  C  C48  1  0.92602327  0.48251171  0.24291127  1
  C  C49  1  0.42602327  0.51748829  0.25708873  1
  C  C50  1  0.07397673  0.51748829  0.75708873  1
  C  C51  1  0.57397673  0.48251171  0.74291127  1
  N  N52  1  0.56559099  0.08419512  0.33188687  1
  N  N53  1  0.06559099  0.91580488  0.16811313  1
  N  N54  1  0.43440901  0.91580488  0.66811313  1
  N  N55  1  0.93440901  0.08419512  0.83188687  1
  N  N56  1  0.96967323  0.34030443  0.26142080  1
  N  N57  1  0.46967323  0.65969557  0.23857920  1
  N  N58  1  0.03032677  0.65969557  0.73857920  1
  N  N59  1  0.53032677  0.34030443  0.76142080  1
  O  O60  1  0.71327874  0.89218225  0.95467111  1
  O  O61  1  0.21327874  0.10781775  0.54532889  1
  O  O62  1  0.28672126  0.10781775  0.04532889  1
  O  O63  1  0.78672126  0.89218225  0.45467111  1
  O  O64  1  0.60107310  0.21257135  0.97364540  1
  O  O65  1  0.10107310  0.78742865  0.52635460  1
  O  O66  1  0.39892690  0.78742865  0.02635460  1
  O  O67  1  0.89892690  0.21257135  0.47364540  1
  O  O68  1  0.56248938  0.99245988  0.16141076  1
  O  O69  1  0.06248938  0.00754012  0.33858924  1
  O  O70  1  0.43751062  0.00754012  0.83858924  1
  O  O71  1  0.93751062  0.99245988  0.66141076  1
  O  O72  1  0.78816818  0.39094479  0.97493688  1
  O  O73  1  0.28816818  0.60905521  0.52506312  1
  O  O74  1  0.21183182  0.60905521  0.02506312  1
  O  O75  1  0.71183182  0.39094479  0.47493688  1
  O  O76  1  0.89947559  0.71213896  0.95615111  1
  O  O77  1  0.39947559  0.28786104  0.54384889  1
  O  O78  1  0.10052441  0.28786104  0.04384889  1
  O  O79  1  0.60052441  0.71213896  0.45615111  1
  O  O80  1  0.94254692  0.55260110  0.15686832  1
  O  O81  1  0.44254692  0.44739890  0.34313168  1
  O  O82  1  0.05745308  0.44739890  0.84313168  1
  O  O83  1  0.55745308  0.55260110  0.65686832  1
