# generated using pymatgen
data_Lu12(MnC3)5
_symmetry_space_group_name_H-M   'P 1'
_cell_length_a   4.90068119
_cell_length_b   10.28358878
_cell_length_c   10.28358878
_cell_angle_alpha   119.99999947
_cell_angle_beta   90.00000000
_cell_angle_gamma   90.00000000
_symmetry_Int_Tables_number   1
_chemical_formula_structural   Lu12(MnC3)5
_chemical_formula_sum   'Lu12 Mn5 C15'
_cell_volume   448.82443008
_cell_formula_units_Z   1
loop_
 _symmetry_equiv_pos_site_id
 _symmetry_equiv_pos_as_xyz
  1  'x, y, z'
loop_
 _atom_site_type_symbol
 _atom_site_label
 _atom_site_symmetry_multiplicity
 _atom_site_fract_x
 _atom_site_fract_y
 _atom_site_fract_z
 _atom_site_occupancy
  Lu  Lu0  1  0.50000000  0.20669208  0.20669208  1
  Lu  Lu1  1  0.50000000  0.00000000  0.79330792  1
  Lu  Lu2  1  0.50000000  0.79330792  0.00000000  1
  Lu  Lu3  1  0.00000000  0.73083756  0.18548342  1
  Lu  Lu4  1  0.00000000  0.45464586  0.26916244  1
  Lu  Lu5  1  0.00000000  0.54535414  0.81451658  1
  Lu  Lu6  1  -0.00000000  0.81451658  0.54535414  1
  Lu  Lu7  1  -0.00000000  0.18548342  0.73083756  1
  Lu  Lu8  1  0.00000000  0.26916244  0.45464586  1
  Lu  Lu9  1  0.50000000  0.56872946  0.56872946  1
  Lu  Lu10  1  0.50000000  1.00000000  0.43127054  1
  Lu  Lu11  1  0.50000000  0.43127054  1.00000000  1
  Mn  Mn12  1  0.00000000  0.84685221  0.84685221  1
  Mn  Mn13  1  -0.00000000  1.00000000  0.15314779  1
  Mn  Mn14  1  0.00000000  0.15314779  1.00000000  1
  Mn  Mn15  1  0.50000000  0.66666700  0.33333300  1
  Mn  Mn16  1  0.50000000  0.33333300  0.66666700  1
  C  C17  1  0.00000000  0.67330979  0.67330979  1
  C  C18  1  -0.00000000  0.00000000  0.32669021  1
  C  C19  1  0.00000000  0.32669021  0.00000000  1
  C  C20  1  -0.00000000  0.20553296  0.20553296  1
  C  C21  1  0.00000000  0.00000000  0.79446704  1
  C  C22  1  -0.00000000  0.79446704  0.00000000  1
  C  C23  1  0.00000000  0.54149216  0.54149216  1
  C  C24  1  -0.00000000  1.00000000  0.45850784  1
  C  C25  1  0.00000000  0.45850784  1.00000000  1
  C  C26  1  0.50000000  0.71834096  0.19130940  1
  C  C27  1  0.50000000  0.47296843  0.28165904  1
  C  C28  1  0.50000000  0.52703157  0.80869060  1
  C  C29  1  0.50000000  0.80869060  0.52703157  1
  C  C30  1  0.50000000  0.19130940  0.71834096  1
  C  C31  1  0.50000000  0.28165904  0.47296843  1
