# generated using pymatgen
data_LiSm(WO4)2
_symmetry_space_group_name_H-M   'P 1'
_cell_length_a   7.18555881
_cell_length_b   7.41884623
_cell_length_c   7.47851775
_cell_angle_alpha   113.82427266
_cell_angle_beta   115.55386991
_cell_angle_gamma   91.66463593
_symmetry_Int_Tables_number   1
_chemical_formula_structural   LiSm(WO4)2
_chemical_formula_sum   'Li2 Sm2 W4 O16'
_cell_volume   318.88540296
_cell_formula_units_Z   2
loop_
 _symmetry_equiv_pos_site_id
 _symmetry_equiv_pos_as_xyz
  1  'x, y, z'
loop_
 _atom_site_type_symbol
 _atom_site_label
 _atom_site_symmetry_multiplicity
 _atom_site_fract_x
 _atom_site_fract_y
 _atom_site_fract_z
 _atom_site_occupancy
  Li  Li0  1  0.25260129  0.67570235  0.00994200  1
  Li  Li1  1  0.74739871  0.32429765  0.99005800  1
  Sm  Sm2  1  0.18416959  0.28799531  0.46195529  1
  Sm  Sm3  1  0.81583041  0.71200469  0.53804471  1
  W  W4  1  0.26145845  0.29323784  0.03079416  1
  W  W5  1  0.73854155  0.70676216  0.96920584  1
  W  W6  1  0.64854803  0.10585499  0.28869520  1
  W  W7  1  0.35145197  0.89414501  0.71130480  1
  O  O8  1  0.18412441  0.36391485  0.80457259  1
  O  O9  1  0.81587559  0.63608515  0.19542741  1
  O  O10  1  0.44922133  0.54036723  0.25261462  1
  O  O11  1  0.55077867  0.45963277  0.74738538  1
  O  O12  1  0.86595975  0.01225528  0.20189173  1
  O  O13  1  0.13404025  0.98774472  0.79810827  1
  O  O14  1  0.70894991  0.00713618  0.48561675  1
  O  O15  1  0.29105009  0.99286382  0.51438325  1
  O  O16  1  0.17706754  0.63523240  0.55789548  1
  O  O17  1  0.82293246  0.36476760  0.44210452  1
  O  O18  1  0.48095884  0.82764495  0.00811219  1
  O  O19  1  0.51904116  0.17235505  0.99188781  1
  O  O20  1  0.04220120  0.30594492  0.09583365  1
  O  O21  1  0.95779880  0.69405508  0.90416635  1
  O  O22  1  0.38467797  0.17272571  0.26329700  1
  O  O23  1  0.61532203  0.82727429  0.73670300  1
