# generated using pymatgen
data_Sm(PO3)3
_symmetry_space_group_name_H-M   'P 1'
_cell_length_a   10.40833761
_cell_length_b   11.73864605
_cell_length_c   20.56856300
_cell_angle_alpha   90.00000000
_cell_angle_beta   90.00000000
_cell_angle_gamma   97.63537910
_symmetry_Int_Tables_number   1
_chemical_formula_structural   Sm(PO3)3
_chemical_formula_sum   'Sm12 P36 O108'
_cell_volume   2490.78112723
_cell_formula_units_Z   12
loop_
 _symmetry_equiv_pos_site_id
 _symmetry_equiv_pos_as_xyz
  1  'x, y, z'
loop_
 _atom_site_type_symbol
 _atom_site_label
 _atom_site_symmetry_multiplicity
 _atom_site_fract_x
 _atom_site_fract_y
 _atom_site_fract_z
 _atom_site_occupancy
  Sm  Sm0  1  0.01590279  0.99908828  0.65786048  1
  Sm  Sm1  1  0.98409721  0.00091172  0.34213952  1
  Sm  Sm2  1  0.48409721  0.00091172  0.15786048  1
  Sm  Sm3  1  0.51590279  0.99908828  0.84213952  1
  Sm  Sm4  1  0.00000000  0.50000000  -0.00000000  1
  Sm  Sm5  1  0.50000000  0.50000000  0.50000000  1
  Sm  Sm6  1  0.48033783  0.49996196  0.17504087  1
  Sm  Sm7  1  0.51966217  0.50003804  0.82495913  1
  Sm  Sm8  1  0.01966217  0.50003804  0.67504087  1
  Sm  Sm9  1  0.98033783  0.49996196  0.32495913  1
  Sm  Sm10  1  0.00000000  -0.00000000  -0.00000000  1
  Sm  Sm11  1  0.50000000  -0.00000000  0.50000000  1
  P  P12  1  0.01732158  0.75405693  0.11153724  1
  P  P13  1  0.98267842  0.24594307  0.88846276  1
  P  P14  1  0.48267842  0.24594307  0.61153724  1
  P  P15  1  0.51732158  0.75405693  0.38846276  1
  P  P16  1  0.32087704  0.14394920  0.72164312  1
  P  P17  1  0.67912296  0.85605080  0.27835688  1
  P  P18  1  0.17912296  0.85605080  0.22164312  1
  P  P19  1  0.82087704  0.14394920  0.77835688  1
  P  P20  1  0.02898060  0.26165281  0.55166062  1
  P  P21  1  0.97101940  0.73834719  0.44833938  1
  P  P22  1  0.47101940  0.73834719  0.05166062  1
  P  P23  1  0.52898060  0.26165281  0.94833938  1
  P  P24  1  0.17637699  0.35084554  0.12341834  1
  P  P25  1  0.82362301  0.64915446  0.87658166  1
  P  P26  1  0.32362301  0.64915446  0.62341834  1
  P  P27  1  0.67637699  0.35084554  0.37658166  1
  P  P28  1  0.18924025  0.35910932  0.43858563  1
  P  P29  1  0.81075975  0.64089068  0.56141437  1
  P  P30  1  0.31075975  0.64089068  0.93858563  1
  P  P31  1  0.68924025  0.35910932  0.06141437  1
  P  P32  1  0.31738730  0.17921723  0.04328907  1
  P  P33  1  0.68261270  0.82078277  0.95671093  1
  P  P34  1  0.18261270  0.82078277  0.54328907  1
  P  P35  1  0.81738730  0.17921723  0.45671093  1
  P  P36  1  0.30684560  0.15368918  0.38633008  1
  P  P37  1  0.69315440  0.84631082  0.61366992  1
  P  P38  1  0.19315440  0.84631082  0.88633008  1
  P  P39  1  0.80684560  0.15368918  0.11366992  1
  P  P40  1  0.49528325  0.23870854  0.27751572  1
  P  P41  1  0.50471675  0.76129146  0.72248428  1
  P  P42  1  0.00471675  0.76129146  0.77751572  1
  P  P43  1  0.99528325  0.23870854  0.22248428  1
  P  P44  1  0.30833217  0.66834740  0.29078855  1
  P  P45  1  0.69166783  0.33165260  0.70921145  1
  P  P46  1  0.19166783  0.33165260  0.79078855  1
  P  P47  1  0.80833217  0.66834740  0.20921145  1
  O  O48  1  0.26517679  0.28010742  0.39290982  1
  O  O49  1  0.73482321  0.71989258  0.60709018  1
  O  O50  1  0.23482321  0.71989258  0.89290982  1
  O  O51  1  0.76517679  0.28010742  0.10709018  1
  O  O52  1  0.40190068  0.13199514  0.43832282  1
  O  O53  1  0.59809932  0.86800486  0.56167718  1
  O  O54  1  0.09809932  0.86800486  0.93832282  1
  O  O55  1  0.90190068  0.13199514  0.06167718  1
  O  O56  1  0.03967703  0.15142109  0.58658310  1
  O  O57  1  0.96032297  0.84857891  0.41341690  1
  O  O58  1  0.46032297  0.84857891  0.08658310  1
  O  O59  1  0.53967703  0.15142109  0.91341690  1
  O  O60  1  0.13640239  0.26925061  0.49482206  1
  O  O61  1  0.86359761  0.73074939  0.50517794  1
  O  O62  1  0.36359761  0.73074939  0.99482206  1
  O  O63  1  0.63640239  0.26925061  0.00517794  1
  O  O64  1  0.07668156  0.39368219  0.40129841  1
  O  O65  1  0.92331844  0.60631781  0.59870159  1
  O  O66  1  0.42331844  0.60631781  0.90129841  1
  O  O67  1  0.57668156  0.39368219  0.09870159  1
  O  O68  1  0.20162535  0.10237916  0.01836272  1
  O  O69  1  0.79837465  0.89762084  0.98163728  1
  O  O70  1  0.29837465  0.89762084  0.51836272  1
  O  O71  1  0.70162535  0.10237916  0.48163728  1
  O  O72  1  0.28719393  0.45309633  0.46496717  1
  O  O73  1  0.71280607  0.54690367  0.53503283  1
  O  O74  1  0.21280607  0.54690367  0.96496717  1
  O  O75  1  0.78719393  0.45309633  0.03503283  1
  O  O76  1  0.37725562  0.70567993  0.35840581  1
  O  O77  1  0.62274438  0.29432007  0.64159419  1
  O  O78  1  0.12274438  0.29432007  0.85840581  1
  O  O79  1  0.87725562  0.70567993  0.14159419  1
  O  O80  1  0.37724162  0.16798640  0.31683984  1
  O  O81  1  0.62275838  0.83201360  0.68316016  1
  O  O82  1  0.12275838  0.83201360  0.81683984  1
  O  O83  1  0.87724162  0.16798640  0.18316016  1
  O  O84  1  0.27196853  0.28538259  0.08149584  1
  O  O85  1  0.72803147  0.71461741  0.91850416  1
  O  O86  1  0.22803147  0.71461741  0.58149584  1
  O  O87  1  0.77196853  0.28538259  0.41850416  1
  O  O88  1  0.05009558  0.66443892  0.06462662  1
  O  O89  1  0.94990442  0.33556108  0.93537338  1
  O  O90  1  0.44990442  0.33556108  0.56462662  1
  O  O91  1  0.55009558  0.66443892  0.43537338  1
  O  O92  1  0.22774767  0.21066657  0.76563971  1
  O  O93  1  0.77225233  0.78933343  0.23436029  1
  O  O94  1  0.27225233  0.78933343  0.26563971  1
  O  O95  1  0.72774767  0.21066657  0.73436029  1
  O  O96  1  0.41330386  0.12649035  0.08380545  1
  O  O97  1  0.58669614  0.87350965  0.91619455  1
  O  O98  1  0.08669614  0.87350965  0.58380545  1
  O  O99  1  0.91330386  0.12649035  0.41619455  1
  O  O100  1  0.18713430  0.58923197  0.30605082  1
  O  O101  1  0.81286570  0.41076803  0.69394918  1
  O  O102  1  0.31286570  0.41076803  0.80605082  1
  O  O103  1  0.68713430  0.58923197  0.19394918  1
  O  O104  1  0.19023504  0.06542982  0.37860925  1
  O  O105  1  0.80976496  0.93457018  0.62139075  1
  O  O106  1  0.30976496  0.93457018  0.87860925  1
  O  O107  1  0.69023504  0.06542982  0.12139075  1
  O  O108  1  0.04104153  0.37140488  0.58967547  1
  O  O109  1  0.95895847  0.62859512  0.41032453  1
  O  O110  1  0.45895847  0.62859512  0.08967547  1
  O  O111  1  0.54104153  0.37140488  0.91032453  1
  O  O112  1  0.23269288  0.05283622  0.68638830  1
  O  O113  1  0.76730712  0.94716378  0.31361170  1
  O  O114  1  0.26730712  0.94716378  0.18638830  1
  O  O115  1  0.73269288  0.05283622  0.81361170  1
  O  O116  1  0.26118014  0.44003981  0.16157700  1
  O  O117  1  0.73881986  0.55996019  0.83842300  1
  O  O118  1  0.23881986  0.55996019  0.66157700  1
  O  O119  1  0.76118014  0.44003981  0.33842300  1
  O  O120  1  0.10929749  0.74900020  0.48454322  1
  O  O121  1  0.89070251  0.25099980  0.51545678  1
  O  O122  1  0.39070251  0.25099980  0.98454322  1
  O  O123  1  0.60929749  0.74900020  0.01545678  1
  O  O124  1  0.46580629  0.35593931  0.25773676  1
  O  O125  1  0.53419371  0.64406069  0.74226324  1
  O  O126  1  0.03419371  0.64406069  0.75773676  1
  O  O127  1  0.96580629  0.35593931  0.24226324  1
  O  O128  1  0.40498481  0.62728907  0.24544392  1
  O  O129  1  0.59501519  0.37271093  0.75455608  1
  O  O130  1  0.09501519  0.37271093  0.74544392  1
  O  O131  1  0.90498481  0.62728907  0.25455608  1
  O  O132  1  0.02723192  0.15893134  0.27484859  1
  O  O133  1  0.97276808  0.84106866  0.72515141  1
  O  O134  1  0.47276808  0.84106866  0.77484859  1
  O  O135  1  0.52723192  0.15893134  0.22515141  1
  O  O136  1  0.11342459  0.24955686  0.17096871  1
  O  O137  1  0.88657541  0.75044314  0.82903129  1
  O  O138  1  0.38657541  0.75044314  0.67096871  1
  O  O139  1  0.61342459  0.24955686  0.32903129  1
  O  O140  1  0.07360482  0.39022033  0.08117446  1
  O  O141  1  0.92639518  0.60977967  0.91882554  1
  O  O142  1  0.42639518  0.60977967  0.58117446  1
  O  O143  1  0.57360482  0.39022033  0.41882554  1
  O  O144  1  0.48888075  0.12617303  0.58748856  1
  O  O145  1  0.51111925  0.87382697  0.41251144  1
  O  O146  1  0.01111925  0.87382697  0.08748856  1
  O  O147  1  0.98888075  0.12617303  0.91251144  1
  O  O148  1  0.11791441  0.75654314  0.17164571  1
  O  O149  1  0.88208559  0.24345686  0.82835429  1
  O  O150  1  0.38208559  0.24345686  0.67164571  1
  O  O151  1  0.61791441  0.75654314  0.32835429  1
  O  O152  1  0.42709679  0.10760037  0.76286618  1
  O  O153  1  0.57290321  0.89239963  0.23713382  1
  O  O154  1  0.07290321  0.89239963  0.26286618  1
  O  O155  1  0.92709679  0.10760037  0.73713382  1
