# generated using pymatgen
data_Mg5As4(H11O13)2
_symmetry_space_group_name_H-M   'P 1'
_cell_length_a   6.69958773
_cell_length_b   7.85330739
_cell_length_c   10.61438650
_cell_angle_alpha   81.29993749
_cell_angle_beta   81.19479814
_cell_angle_gamma   84.09874796
_symmetry_Int_Tables_number   1
_chemical_formula_structural   Mg5As4(H11O13)2
_chemical_formula_sum   'Mg5 As4 H22 O26'
_cell_volume   543.71564738
_cell_formula_units_Z   1
loop_
 _symmetry_equiv_pos_site_id
 _symmetry_equiv_pos_as_xyz
  1  'x, y, z'
loop_
 _atom_site_type_symbol
 _atom_site_label
 _atom_site_symmetry_multiplicity
 _atom_site_fract_x
 _atom_site_fract_y
 _atom_site_fract_z
 _atom_site_occupancy
  Mg  Mg0  1  0.00000000  -0.00000000  0.50000000  1
  Mg  Mg1  1  0.60375534  0.08054914  0.09340083  1
  Mg  Mg2  1  0.39624466  0.91945086  0.90659917  1
  Mg  Mg3  1  0.10836607  0.63762003  0.06421910  1
  Mg  Mg4  1  0.89163393  0.36237997  0.93578090  1
  As  As5  1  0.08262533  0.03863881  0.16471549  1
  As  As6  1  0.91737467  0.96136119  0.83528451  1
  As  As7  1  0.59623620  0.63052445  0.13184378  1
  As  As8  1  0.40376380  0.36947555  0.86815622  1
  H  H9  1  0.36851229  0.13522174  0.30327578  1
  H  H10  1  0.63148771  0.86477826  0.69672422  1
  H  H11  1  0.34295032  0.45783547  0.61265015  1
  H  H12  1  0.65704968  0.54216453  0.38734985  1
  H  H13  1  0.25629770  0.48365221  0.26771490  1
  H  H14  1  0.74370230  0.51634779  0.73228510  1
  H  H15  1  0.35524991  0.00178206  0.60186451  1
  H  H16  1  0.64475009  0.99821794  0.39813549  1
  H  H17  1  0.12195266  0.76514005  0.35350774  1
  H  H18  1  0.87804734  0.23485995  0.64649226  1
  H  H19  1  0.27232060  0.19754287  0.55534843  1
  H  H20  1  0.72767940  0.80245713  0.44465157  1
  H  H21  1  0.20054409  0.18502435  0.79808440  1
  H  H22  1  0.79945591  0.81497565  0.20191560  1
  H  H23  1  0.10908467  0.44666904  0.62630669  1
  H  H24  1  0.89091533  0.55333096  0.37369331  1
  H  H25  1  0.09655768  0.34999393  0.26072119  1
  H  H26  1  0.90344232  0.65000607  0.73927881  1
  H  H27  1  0.52719527  0.28058056  0.27446739  1
  H  H28  1  0.47280473  0.71941944  0.72553261  1
  H  H29  1  0.18607558  0.65208881  0.48207876  1
  H  H30  1  0.81392442  0.34791119  0.51792124  1
  O  O31  1  0.89417906  0.15318884  0.08644729  1
  O  O32  1  0.10582094  0.84681116  0.91355271  1
  O  O33  1  0.82444739  0.56137890  0.05247742  1
  O  O34  1  0.17555261  0.43862110  0.94752258  1
  O  O35  1  0.15183005  0.77154032  0.44127111  1
  O  O36  1  0.84816995  0.22845968  0.55872889  1
  O  O37  1  0.41398161  0.68542428  0.03344071  1
  O  O38  1  0.58601839  0.31457572  0.96655929  1
  O  O39  1  0.31335263  0.04614929  0.06951881  1
  O  O40  1  0.68664737  0.95385071  0.93048119  1
  O  O41  1  0.23442711  0.43834188  0.56337971  1
  O  O42  1  0.76557289  0.56165812  0.43662029  1
  O  O43  1  0.51512174  0.15321026  0.27578517  1
  O  O44  1  0.48487826  0.84678974  0.72421483  1
  O  O45  1  0.02464738  0.82396370  0.19945039  1
  O  O46  1  0.97535262  0.17603630  0.80054961  1
  O  O47  1  0.51192974  0.49410644  0.26621539  1
  O  O48  1  0.48807026  0.50589356  0.73378461  1
  O  O49  1  0.35469735  0.17947965  0.80737589  1
  O  O50  1  0.64530265  0.82052035  0.19262411  1
  O  O51  1  0.09731535  0.12139443  0.30393176  1
  O  O52  1  0.90268465  0.87860557  0.69606824  1
  O  O53  1  0.26632831  0.07502010  0.54563449  1
  O  O54  1  0.73367169  0.92497990  0.45436551  1
  O  O55  1  0.11677568  0.47628169  0.24604276  1
  O  O56  1  0.88322432  0.52371831  0.75395724  1
