# generated using pymatgen
data_Fe2O3
_symmetry_space_group_name_H-M   'P 1'
_cell_length_a   5.03646213
_cell_length_b   5.26540453
_cell_length_c   7.77423893
_cell_angle_alpha   90.00000000
_cell_angle_beta   90.08627968
_cell_angle_gamma   90.00000000
_symmetry_Int_Tables_number   1
_chemical_formula_structural   Fe2O3
_chemical_formula_sum   'Fe8 O12'
_cell_volume   206.16489000
_cell_formula_units_Z   4
loop_
 _symmetry_equiv_pos_site_id
 _symmetry_equiv_pos_as_xyz
  1  'x, y, z'
loop_
 _atom_site_type_symbol
 _atom_site_label
 _atom_site_symmetry_multiplicity
 _atom_site_fract_x
 _atom_site_fract_y
 _atom_site_fract_z
 _atom_site_occupancy
  Fe  Fe0  1  0.50000000  0.50000000  0.50000000  1
  Fe  Fe1  1  -0.00000000  -0.00000000  0.00000000  1
  Fe  Fe2  1  0.50000000  0.50000000  0.00000000  1
  Fe  Fe3  1  -0.00000000  -0.00000000  0.50000000  1
  Fe  Fe4  1  0.97650112  0.56160101  0.74667122  1
  Fe  Fe5  1  0.47650112  0.93839899  0.24667122  1
  Fe  Fe6  1  0.02349888  0.43839899  0.25332878  1
  Fe  Fe7  1  0.52349888  0.06160101  0.75332878  1
  O  O8  1  0.18075347  0.68394795  0.42101378  1
  O  O9  1  0.68075347  0.81605205  0.92101378  1
  O  O10  1  0.81924653  0.31605205  0.57898622  1
  O  O11  1  0.31924653  0.18394795  0.07898622  1
  O  O12  1  0.18237080  0.68565580  0.08533961  1
  O  O13  1  0.68237080  0.81434420  0.58533961  1
  O  O14  1  0.81762920  0.31434420  0.91466039  1
  O  O15  1  0.31762920  0.18565580  0.41466039  1
  O  O16  1  0.65313847  0.58162742  0.25107681  1
  O  O17  1  0.15313847  0.91837258  0.75107681  1
  O  O18  1  0.34686153  0.41837258  0.74892319  1
  O  O19  1  0.84686153  0.08162742  0.24892319  1
