# generated using pymatgen
data_KYbBeF6
_symmetry_space_group_name_H-M   'P 1'
_cell_length_a   6.05594762
_cell_length_b   6.41907501
_cell_length_c   7.10185530
_cell_angle_alpha   111.71105301
_cell_angle_beta   90.00000000
_cell_angle_gamma   90.00000000
_symmetry_Int_Tables_number   1
_chemical_formula_structural   KYbBeF6
_chemical_formula_sum   'K2 Yb2 Be2 F12'
_cell_volume   256.49016420
_cell_formula_units_Z   2
loop_
 _symmetry_equiv_pos_site_id
 _symmetry_equiv_pos_as_xyz
  1  'x, y, z'
loop_
 _atom_site_type_symbol
 _atom_site_label
 _atom_site_symmetry_multiplicity
 _atom_site_fract_x
 _atom_site_fract_y
 _atom_site_fract_z
 _atom_site_occupancy
  K  K0  1  0.75000000  0.07377349  0.23444520  1
  K  K1  1  0.25000000  0.92622651  0.76555480  1
  Yb  Yb2  1  0.75000000  0.35197879  0.77897893  1
  Yb  Yb3  1  0.25000000  0.64802121  0.22102107  1
  Be  Be4  1  0.75000000  0.76607320  0.54082746  1
  Be  Be5  1  0.25000000  0.23392680  0.45917254  1
  F  F6  1  0.95809589  0.78190907  0.41794556  1
  F  F7  1  0.04190411  0.21809093  0.58205444  1
  F  F8  1  0.45809589  0.21809093  0.58205444  1
  F  F9  1  0.54190411  0.78190907  0.41794556  1
  F  F10  1  0.75000000  0.54769266  0.58129640  1
  F  F11  1  0.25000000  0.45230734  0.41870360  1
  F  F12  1  0.99449733  0.63846903  0.96879833  1
  F  F13  1  0.00550267  0.36153097  0.03120167  1
  F  F14  1  0.49449733  0.36153097  0.03120167  1
  F  F15  1  0.50550267  0.63846903  0.96879833  1
  F  F16  1  0.75000000  0.97564056  0.75374808  1
  F  F17  1  0.25000000  0.02435944  0.24625192  1
