# generated using pymatgen
data_KSc(SO4)2
_symmetry_space_group_name_H-M   'P 1'
_cell_length_a   5.04417450
_cell_length_b   5.04417450
_cell_length_c   8.18278595
_cell_angle_alpha   86.06231834
_cell_angle_beta   86.06231834
_cell_angle_gamma   64.30787527
_symmetry_Int_Tables_number   1
_chemical_formula_structural   KSc(SO4)2
_chemical_formula_sum   'K1 Sc1 S2 O8'
_cell_volume   186.99872930
_cell_formula_units_Z   1
loop_
 _symmetry_equiv_pos_site_id
 _symmetry_equiv_pos_as_xyz
  1  'x, y, z'
loop_
 _atom_site_type_symbol
 _atom_site_label
 _atom_site_symmetry_multiplicity
 _atom_site_fract_x
 _atom_site_fract_y
 _atom_site_fract_z
 _atom_site_occupancy
  K  K0  1  -0.00000000  -0.00000000  0.50000000  1
  Sc  Sc1  1  -0.00000000  -0.00000000  0.00000000  1
  S  S2  1  0.36946990  0.36946990  0.79752194  1
  S  S3  1  0.63053010  0.63053010  0.20247806  1
  O  O4  1  0.31353224  0.31353224  0.63380238  1
  O  O5  1  0.68646776  0.68646776  0.36619762  1
  O  O6  1  0.69540902  0.24349837  0.81966102  1
  O  O7  1  0.30459098  0.75650163  0.18033898  1
  O  O8  1  0.75650163  0.30459098  0.18033898  1
  O  O9  1  0.24349837  0.69540902  0.81966102  1
  O  O10  1  0.24015029  0.24015029  0.93109703  1
  O  O11  1  0.75984971  0.75984971  0.06890297  1
