# generated using pymatgen
data_KTlCl2
_symmetry_space_group_name_H-M   'P 1'
_cell_length_a   9.14609954
_cell_length_b   9.14609954
_cell_length_c   9.13979343
_cell_angle_alpha   120.02282408
_cell_angle_beta   120.02282401
_cell_angle_gamma   90.00000000
_symmetry_Int_Tables_number   1
_chemical_formula_structural   KTlCl2
_chemical_formula_sum   'K4 Tl4 Cl8'
_cell_volume   540.24816875
_cell_formula_units_Z   4
loop_
 _symmetry_equiv_pos_site_id
 _symmetry_equiv_pos_as_xyz
  1  'x, y, z'
loop_
 _atom_site_type_symbol
 _atom_site_label
 _atom_site_symmetry_multiplicity
 _atom_site_fract_x
 _atom_site_fract_y
 _atom_site_fract_z
 _atom_site_occupancy
  K  K0  1  0.62500000  0.87500000  0.25000000  1
  K  K1  1  0.62500000  0.37500000  0.25000000  1
  K  K2  1  0.62500000  0.37500000  0.75000000  1
  K  K3  1  0.12500000  0.37500000  0.75000000  1
  Tl  Tl4  1  0.12500000  0.37500000  0.25000000  1
  Tl  Tl5  1  0.12500000  0.87500000  0.25000000  1
  Tl  Tl6  1  0.12500000  0.87500000  0.75000000  1
  Tl  Tl7  1  0.62500000  0.87500000  0.75000000  1
  Cl  Cl8  1  0.38188379  0.12759456  0.25501680  1
  Cl  Cl9  1  0.87313301  0.12742224  0.25501680  1
  Cl  Cl10  1  0.37742224  0.13188379  0.75501680  1
  Cl  Cl11  1  0.86811621  0.62240544  0.24498320  1
  Cl  Cl12  1  0.37759456  0.62313301  0.75501680  1
  Cl  Cl13  1  0.37686699  0.62257776  0.24498320  1
  Cl  Cl14  1  0.87257776  0.61811621  0.74498320  1
  Cl  Cl15  1  0.87240544  0.12686699  0.74498320  1
