# generated using pymatgen
data_KSr2Br5
_symmetry_space_group_name_H-M   'P 1'
_cell_length_a   8.49424582
_cell_length_b   9.42390833
_cell_length_c   13.58866225
_cell_angle_alpha   90.09056160
_cell_angle_beta   90.00000000
_cell_angle_gamma   90.00000000
_symmetry_Int_Tables_number   1
_chemical_formula_structural   KSr2Br5
_chemical_formula_sum   'K4 Sr8 Br20'
_cell_volume   1087.75738368
_cell_formula_units_Z   4
loop_
 _symmetry_equiv_pos_site_id
 _symmetry_equiv_pos_as_xyz
  1  'x, y, z'
loop_
 _atom_site_type_symbol
 _atom_site_label
 _atom_site_symmetry_multiplicity
 _atom_site_fract_x
 _atom_site_fract_y
 _atom_site_fract_z
 _atom_site_occupancy
  K  K0  1  0.97814144  0.50435225  0.67757093  1
  K  K1  1  0.02185856  0.49564775  0.32242907  1
  K  K2  1  0.47814144  0.49564775  0.82242907  1
  K  K3  1  0.52185856  0.50435225  0.17757093  1
  Sr  Sr4  1  0.97725727  0.00038875  0.67839471  1
  Sr  Sr5  1  0.02274273  0.99961125  0.32160529  1
  Sr  Sr6  1  0.47725727  0.99961125  0.82160529  1
  Sr  Sr7  1  0.52274273  0.00038875  0.17839471  1
  Sr  Sr8  1  0.92816931  0.75052918  0.99379408  1
  Sr  Sr9  1  0.07183069  0.24947082  0.00620592  1
  Sr  Sr10  1  0.42816931  0.24947082  0.50620592  1
  Sr  Sr11  1  0.57183069  0.75052918  0.49379408  1
  Br  Br12  1  0.83752943  0.46344997  0.90876414  1
  Br  Br13  1  0.16247057  0.53655003  0.09123586  1
  Br  Br14  1  0.33752943  0.53655003  0.59123586  1
  Br  Br15  1  0.66247057  0.46344997  0.40876414  1
  Br  Br16  1  0.16550350  0.78265947  0.81665895  1
  Br  Br17  1  0.83449650  0.21734053  0.18334105  1
  Br  Br18  1  0.66550350  0.21734053  0.68334105  1
  Br  Br19  1  0.33449650  0.78265947  0.31665895  1
  Br  Br20  1  0.69553095  0.77205436  0.71549105  1
  Br  Br21  1  0.30446905  0.22794564  0.28450895  1
  Br  Br22  1  0.19553095  0.22794564  0.78450895  1
  Br  Br23  1  0.80446905  0.77205436  0.21549105  1
  Br  Br24  1  0.54519334  0.78064011  0.99719368  1
  Br  Br25  1  0.45480666  0.21935989  0.00280632  1
  Br  Br26  1  0.04519334  0.21935989  0.50280632  1
  Br  Br27  1  0.95480666  0.78064011  0.49719368  1
  Br  Br28  1  0.33922134  0.95939431  0.60058585  1
  Br  Br29  1  0.66077866  0.04060569  0.39941415  1
  Br  Br30  1  0.83922134  0.04060569  0.89941415  1
  Br  Br31  1  0.16077866  0.95939431  0.10058585  1
