# generated using pymatgen
data_KNdF4
_symmetry_space_group_name_H-M   'P 1'
_cell_length_a   3.77783320
_cell_length_b   6.29715657
_cell_length_c   15.76801612
_cell_angle_alpha   90.00000000
_cell_angle_beta   90.00000000
_cell_angle_gamma   90.00000000
_symmetry_Int_Tables_number   1
_chemical_formula_structural   KNdF4
_chemical_formula_sum   'K4 Nd4 F16'
_cell_volume   375.11490912
_cell_formula_units_Z   4
loop_
 _symmetry_equiv_pos_site_id
 _symmetry_equiv_pos_as_xyz
  1  'x, y, z'
loop_
 _atom_site_type_symbol
 _atom_site_label
 _atom_site_symmetry_multiplicity
 _atom_site_fract_x
 _atom_site_fract_y
 _atom_site_fract_z
 _atom_site_occupancy
  K  K0  1  0.75000000  0.77685319  0.79826362  1
  K  K1  1  0.25000000  0.22314681  0.20173638  1
  K  K2  1  0.25000000  0.72314681  0.29826362  1
  K  K3  1  0.75000000  0.27685319  0.70173638  1
  Nd  Nd4  1  0.75000000  0.24910555  0.43853271  1
  Nd  Nd5  1  0.25000000  0.75089445  0.56146729  1
  Nd  Nd6  1  0.25000000  0.25089445  0.93853271  1
  Nd  Nd7  1  0.75000000  0.74910555  0.06146729  1
  F  F8  1  0.75000000  0.89402451  0.63499088  1
  F  F9  1  0.25000000  0.10597549  0.36500912  1
  F  F10  1  0.25000000  0.60597549  0.13499088  1
  F  F11  1  0.75000000  0.39402451  0.86500912  1
  F  F12  1  0.75000000  0.86559776  0.46483071  1
  F  F13  1  0.25000000  0.13440224  0.53516929  1
  F  F14  1  0.25000000  0.63440224  0.96483071  1
  F  F15  1  0.75000000  0.36559776  0.03516929  1
  F  F16  1  0.75000000  0.99589750  0.94190693  1
  F  F17  1  0.25000000  0.00410250  0.05809307  1
  F  F18  1  0.25000000  0.50410250  0.44190693  1
  F  F19  1  0.75000000  0.49589750  0.55809307  1
  F  F20  1  0.75000000  0.91226201  0.19369810  1
  F  F21  1  0.25000000  0.08773799  0.80630190  1
  F  F22  1  0.25000000  0.58773799  0.69369810  1
  F  F23  1  0.75000000  0.41226201  0.30630190  1
