# generated using pymatgen
data_KTb(MoO4)2
_symmetry_space_group_name_H-M   'P 1'
_cell_length_a   5.15831319
_cell_length_b   8.16187020
_cell_length_c   18.46751101
_cell_angle_alpha   90.00000000
_cell_angle_beta   90.00000000
_cell_angle_gamma   90.00000000
_symmetry_Int_Tables_number   1
_chemical_formula_structural   KTb(MoO4)2
_chemical_formula_sum   'K4 Tb4 Mo8 O32'
_cell_volume   777.50959544
_cell_formula_units_Z   4
loop_
 _symmetry_equiv_pos_site_id
 _symmetry_equiv_pos_as_xyz
  1  'x, y, z'
loop_
 _atom_site_type_symbol
 _atom_site_label
 _atom_site_symmetry_multiplicity
 _atom_site_fract_x
 _atom_site_fract_y
 _atom_site_fract_z
 _atom_site_occupancy
  K  K0  1  -0.00000000  0.75000000  0.23010468  1
  K  K1  1  -0.00000000  0.25000000  0.76989532  1
  K  K2  1  0.50000000  0.25000000  0.26989532  1
  K  K3  1  0.50000000  0.75000000  0.73010468  1
  Tb  Tb4  1  -0.00000000  0.75000000  0.99395707  1
  Tb  Tb5  1  -0.00000000  0.25000000  0.00604293  1
  Tb  Tb6  1  0.50000000  0.25000000  0.50604293  1
  Tb  Tb7  1  0.50000000  0.75000000  0.49395707  1
  Mo  Mo8  1  0.97685668  0.98361338  0.60090680  1
  Mo  Mo9  1  0.02314332  0.01638662  0.39909320  1
  Mo  Mo10  1  0.52314332  0.48361338  0.89909320  1
  Mo  Mo11  1  0.02314332  0.51638662  0.60090680  1
  Mo  Mo12  1  0.47685668  0.51638662  0.10090680  1
  Mo  Mo13  1  0.97685668  0.48361338  0.39909320  1
  Mo  Mo14  1  0.47685668  0.01638662  0.89909320  1
  Mo  Mo15  1  0.52314332  0.98361338  0.10090680  1
  O  O16  1  0.89771723  0.52549536  0.68922544  1
  O  O17  1  0.10228277  0.47450464  0.31077456  1
  O  O18  1  0.60228277  0.02549536  0.81077456  1
  O  O19  1  0.10228277  0.97450464  0.68922544  1
  O  O20  1  0.39771723  0.97450464  0.18922544  1
  O  O21  1  0.89771723  0.02549536  0.31077456  1
  O  O22  1  0.39771723  0.47450464  0.81077456  1
  O  O23  1  0.60228277  0.52549536  0.18922544  1
  O  O24  1  0.72974442  0.66104205  0.90094170  1
  O  O25  1  0.27025558  0.33895795  0.09905830  1
  O  O26  1  0.77025558  0.16104205  0.59905830  1
  O  O27  1  0.27025558  0.83895795  0.90094170  1
  O  O28  1  0.22974442  0.83895795  0.40094170  1
  O  O29  1  0.72974442  0.16104205  0.09905830  1
  O  O30  1  0.22974442  0.33895795  0.59905830  1
  O  O31  1  0.77025558  0.66104205  0.40094170  1
  O  O32  1  0.75028022  0.99592630  0.96493444  1
  O  O33  1  0.24971978  0.00407370  0.03506556  1
  O  O34  1  0.74971978  0.49592630  0.53506556  1
  O  O35  1  0.24971978  0.50407370  0.96493444  1
  O  O36  1  0.25028022  0.50407370  0.46493444  1
  O  O37  1  0.75028022  0.49592630  0.03506556  1
  O  O38  1  0.25028022  0.00407370  0.53506556  1
  O  O39  1  0.74971978  0.99592630  0.46493444  1
  O  O40  1  0.75480335  0.81127266  0.59263168  1
  O  O41  1  0.24519665  0.18872734  0.40736832  1
  O  O42  1  0.74519665  0.31127266  0.90736832  1
  O  O43  1  0.24519665  0.68872734  0.59263168  1
  O  O44  1  0.25480335  0.68872734  0.09263168  1
  O  O45  1  0.75480335  0.31127266  0.40736832  1
  O  O46  1  0.25480335  0.18872734  0.90736832  1
  O  O47  1  0.74519665  0.81127266  0.09263168  1
