# generated using pymatgen
data_NaB5H8O13
_symmetry_space_group_name_H-M   'P 1'
_cell_length_a   9.88898645
_cell_length_b   9.88898645
_cell_length_c   13.66442506
_cell_angle_alpha   102.22479053
_cell_angle_beta   102.22479053
_cell_angle_gamma   111.06974459
_symmetry_Int_Tables_number   1
_chemical_formula_structural   NaB5H8O13
_chemical_formula_sum   'Na4 B20 H32 O52'
_cell_volume   1156.35377509
_cell_formula_units_Z   4
loop_
 _symmetry_equiv_pos_site_id
 _symmetry_equiv_pos_as_xyz
  1  'x, y, z'
loop_
 _atom_site_type_symbol
 _atom_site_label
 _atom_site_symmetry_multiplicity
 _atom_site_fract_x
 _atom_site_fract_y
 _atom_site_fract_z
 _atom_site_occupancy
  Na  Na0  1  0.12464844  0.87535156  0.75000000  1
  Na  Na1  1  0.87535156  0.12464844  0.25000000  1
  Na  Na2  1  0.34080616  0.65919384  0.25000000  1
  Na  Na3  1  0.65919384  0.34080616  0.75000000  1
  B  B4  1  0.32859992  0.15837131  0.17579798  1
  B  B5  1  0.84162869  0.67140008  0.32420202  1
  B  B6  1  0.67140008  0.84162869  0.82420202  1
  B  B7  1  0.15837131  0.32859992  0.67579798  1
  B  B8  1  0.20556005  0.06739422  0.98269598  1
  B  B9  1  0.93260578  0.79443995  0.51730402  1
  B  B10  1  0.79443995  0.93260578  0.01730402  1
  B  B11  1  0.06739422  0.20556005  0.48269598  1
  B  B12  1  0.47895669  0.16622151  0.04715535  1
  B  B13  1  0.83377849  0.52104331  0.45284465  1
  B  B14  1  0.52104331  0.83377849  0.95284465  1
  B  B15  1  0.16622151  0.47895669  0.54715535  1
  B  B16  1  0.36403747  0.13870554  0.35893923  1
  B  B17  1  0.86129446  0.63596253  0.14106077  1
  B  B18  1  0.63596253  0.86129446  0.64106077  1
  B  B19  1  0.13870554  0.36403747  0.85893923  1
  B  B20  1  0.38810883  0.37558214  0.33373480  1
  B  B21  1  0.62441786  0.61189117  0.16626520  1
  B  B22  1  0.61189117  0.62441786  0.66626520  1
  B  B23  1  0.37558214  0.38810883  0.83373480  1
  H  H24  1  0.70668605  0.24828910  0.09056539  1
  H  H25  1  0.75171090  0.29331395  0.40943461  1
  H  H26  1  0.29331395  0.75171090  0.90943461  1
  H  H27  1  0.24828910  0.70668605  0.59056539  1
  H  H28  1  0.31857040  0.94442252  0.39949121  1
  H  H29  1  0.05557748  0.68142960  0.10050879  1
  H  H30  1  0.68142960  0.05557748  0.60050879  1
  H  H31  1  0.94442252  0.31857040  0.89949121  1
  H  H32  1  0.40612879  0.86355586  0.74971588  1
  H  H33  1  0.13644414  0.59387121  0.75028412  1
  H  H34  1  0.59387121  0.13644414  0.25028412  1
  H  H35  1  0.86355586  0.40612879  0.24971588  1
  H  H36  1  0.37148568  0.96426155  0.67574908  1
  H  H37  1  0.03573845  0.62851432  0.82425092  1
  H  H38  1  0.62851432  0.03573845  0.32425092  1
  H  H39  1  0.96426155  0.37148568  0.17574908  1
  H  H40  1  0.63907710  0.81338336  0.33829576  1
  H  H41  1  0.18661664  0.36092290  0.16170424  1
  H  H42  1  0.36092290  0.18661664  0.66170424  1
  H  H43  1  0.81338336  0.63907710  0.83829576  1
  H  H44  1  0.59674729  0.89151745  0.43346768  1
  H  H45  1  0.10848255  0.40325271  0.06653232  1
  H  H46  1  0.40325271  0.10848255  0.56653232  1
  H  H47  1  0.89151745  0.59674729  0.93346768  1
  H  H48  1  0.21865784  0.70213663  0.41691318  1
  H  H49  1  0.29786337  0.78134216  0.08308682  1
  H  H50  1  0.78134216  0.29786337  0.58308682  1
  H  H51  1  0.70213663  0.21865784  0.91691318  1
  H  H52  1  0.11579557  0.72644033  0.32192412  1
  H  H53  1  0.27355967  0.88420443  0.17807588  1
  H  H54  1  0.88420443  0.27355967  0.67807588  1
  H  H55  1  0.72644033  0.11579557  0.82192412  1
  O  O56  1  0.19354001  0.07667800  0.08097288  1
  O  O57  1  0.92332200  0.80645999  0.41902712  1
  O  O58  1  0.80645999  0.92332200  0.91902712  1
  O  O59  1  0.07667800  0.19354001  0.58097288  1
  O  O60  1  0.47059666  0.18181075  0.14795841  1
  O  O61  1  0.81818925  0.52940334  0.35204159  1
  O  O62  1  0.52940334  0.81818925  0.85204159  1
  O  O63  1  0.18181075  0.47059666  0.64795841  1
  O  O64  1  0.32011059  0.07113954  0.25115728  1
  O  O65  1  0.92886046  0.67988941  0.24884272  1
  O  O66  1  0.67988941  0.92886046  0.74884272  1
  O  O67  1  0.07113954  0.32011059  0.75115728  1
  O  O68  1  0.32509097  0.30656926  0.22582323  1
  O  O69  1  0.69343074  0.67490903  0.27417677  1
  O  O70  1  0.67490903  0.69343074  0.77417677  1
  O  O71  1  0.30656926  0.32509097  0.72582323  1
  O  O72  1  0.08192447  0.00912213  0.89276303  1
  O  O73  1  0.99087787  0.91807553  0.60723697  1
  O  O74  1  0.91807553  0.99087787  0.10723697  1
  O  O75  1  0.00912213  0.08192447  0.39276303  1
  O  O76  1  0.34465724  0.11169399  0.96214798  1
  O  O77  1  0.88830601  0.65534276  0.53785202  1
  O  O78  1  0.65534276  0.88830601  0.03785202  1
  O  O79  1  0.11169399  0.34465724  0.46214798  1
  O  O80  1  0.61424565  0.19999604  0.02568959  1
  O  O81  1  0.80000396  0.38575435  0.47431041  1
  O  O82  1  0.38575435  0.80000396  0.97431041  1
  O  O83  1  0.19999604  0.61424565  0.52568959  1
  O  O84  1  0.36817284  0.05856352  0.42874287  1
  O  O85  1  0.94143648  0.63182716  0.07125713  1
  O  O86  1  0.63182716  0.94143648  0.57125713  1
  O  O87  1  0.05856352  0.36817284  0.92874287  1
  O  O88  1  0.40992257  0.29531599  0.40177151  1
  O  O89  1  0.70468401  0.59007743  0.09822849  1
  O  O90  1  0.59007743  0.70468401  0.59822849  1
  O  O91  1  0.29531599  0.40992257  0.90177151  1
  O  O92  1  0.42873279  0.52882694  0.36335050  1
  O  O93  1  0.47117306  0.57126721  0.13664950  1
  O  O94  1  0.57126721  0.47117306  0.63664950  1
  O  O95  1  0.52882694  0.42873279  0.86335050  1
  O  O96  1  0.32709575  0.86720439  0.69374065  1
  O  O97  1  0.13279561  0.67290425  0.80625935  1
  O  O98  1  0.67290425  0.13279561  0.30625935  1
  O  O99  1  0.86720439  0.32709575  0.19374065  1
  O  O100  1  0.58344866  0.87551654  0.35711421  1
  O  O101  1  0.12448346  0.41655134  0.14288579  1
  O  O102  1  0.41655134  0.12448346  0.64288579  1
  O  O103  1  0.87551654  0.58344866  0.85711421  1
  O  O104  1  0.22315488  0.75263357  0.36170250  1
  O  O105  1  0.24736643  0.77684512  0.13829750  1
  O  O106  1  0.77684512  0.24736643  0.63829750  1
  O  O107  1  0.75263357  0.22315488  0.86170250  1
