# generated using pymatgen
data_KRb2InF6
_symmetry_space_group_name_H-M   'P 1'
_cell_length_a   6.55506404
_cell_length_b   6.55130759
_cell_length_c   9.28037743
_cell_angle_alpha   90.00000000
_cell_angle_beta   90.04869654
_cell_angle_gamma   90.00000000
_symmetry_Int_Tables_number   1
_chemical_formula_structural   KRb2InF6
_chemical_formula_sum   'K2 Rb4 In2 F12'
_cell_volume   398.53861885
_cell_formula_units_Z   2
loop_
 _symmetry_equiv_pos_site_id
 _symmetry_equiv_pos_as_xyz
  1  'x, y, z'
loop_
 _atom_site_type_symbol
 _atom_site_label
 _atom_site_symmetry_multiplicity
 _atom_site_fract_x
 _atom_site_fract_y
 _atom_site_fract_z
 _atom_site_occupancy
  K  K0  1  0.00000000  -0.00000000  0.50000000  1
  K  K1  1  0.50000000  0.50000000  0.00000000  1
  Rb  Rb2  1  0.00173669  0.47202636  0.25122269  1
  Rb  Rb3  1  0.99826331  0.52797364  0.74877731  1
  Rb  Rb4  1  0.49826331  0.97202636  0.24877731  1
  Rb  Rb5  1  0.50173669  0.02797364  0.75122269  1
  In  In6  1  -0.00000000  -0.00000000  0.00000000  1
  In  In7  1  0.50000000  0.50000000  0.50000000  1
  F  F8  1  0.26202096  0.18285907  0.03345875  1
  F  F9  1  0.73797904  0.81714093  0.96654125  1
  F  F10  1  0.23797904  0.68285907  0.46654125  1
  F  F11  1  0.76202096  0.31714093  0.53345875  1
  F  F12  1  0.93418473  0.01643161  0.22334903  1
  F  F13  1  0.06581527  0.98356839  0.77665097  1
  F  F14  1  0.56581527  0.51643161  0.27665097  1
  F  F15  1  0.43418473  0.48356839  0.72334903  1
  F  F16  1  0.17912873  0.73487904  0.03549975  1
  F  F17  1  0.82087127  0.26512096  0.96450025  1
  F  F18  1  0.32087127  0.23487904  0.46450025  1
  F  F19  1  0.67912873  0.76512096  0.53549975  1
