# generated using pymatgen
data_KTmBeF6
_symmetry_space_group_name_H-M   'P 1'
_cell_length_a   5.76657801
_cell_length_b   6.40475426
_cell_length_c   7.03365337
_cell_angle_alpha   113.13744980
_cell_angle_beta   90.00000000
_cell_angle_gamma   90.00000000
_symmetry_Int_Tables_number   1
_chemical_formula_structural   KTmBeF6
_chemical_formula_sum   'K2 Tm2 Be2 F12'
_cell_volume   238.88229962
_cell_formula_units_Z   2
loop_
 _symmetry_equiv_pos_site_id
 _symmetry_equiv_pos_as_xyz
  1  'x, y, z'
loop_
 _atom_site_type_symbol
 _atom_site_label
 _atom_site_symmetry_multiplicity
 _atom_site_fract_x
 _atom_site_fract_y
 _atom_site_fract_z
 _atom_site_occupancy
  K  K0  1  0.75000000  0.07136907  0.20344190  1
  K  K1  1  0.25000000  0.92863093  0.79655810  1
  Tm  Tm2  1  0.75000000  0.38974129  0.82134915  1
  Tm  Tm3  1  0.25000000  0.61025871  0.17865085  1
  Be  Be4  1  0.75000000  0.76643222  0.53582138  1
  Be  Be5  1  0.25000000  0.23356778  0.46417862  1
  F  F6  1  0.96812035  0.76582805  0.40286027  1
  F  F7  1  0.03187965  0.23417195  0.59713973  1
  F  F8  1  0.46812035  0.23417195  0.59713973  1
  F  F9  1  0.53187965  0.76582805  0.40286027  1
  F  F10  1  0.75000000  0.55842513  0.59434176  1
  F  F11  1  0.25000000  0.44157487  0.40565824  1
  F  F12  1  0.99881445  0.67669718  0.96578255  1
  F  F13  1  0.00118555  0.32330282  0.03421745  1
  F  F14  1  0.49881445  0.32330282  0.03421745  1
  F  F15  1  0.50118555  0.67669718  0.96578255  1
  F  F16  1  0.75000000  0.98995920  0.73807998  1
  F  F17  1  0.25000000  0.01004080  0.26192002  1
