# generated using pymatgen
data_La2Ta3(SeO4)2
_symmetry_space_group_name_H-M   'P 1'
_cell_length_a   7.72412277
_cell_length_b   10.02764677
_cell_length_c   12.08996242
_cell_angle_alpha   90.00000000
_cell_angle_beta   90.00000000
_cell_angle_gamma   90.00000000
_symmetry_Int_Tables_number   1
_chemical_formula_structural   La2Ta3(SeO4)2
_chemical_formula_sum   'La8 Ta12 Se8 O32'
_cell_volume   936.42531592
_cell_formula_units_Z   4
loop_
 _symmetry_equiv_pos_site_id
 _symmetry_equiv_pos_as_xyz
  1  'x, y, z'
loop_
 _atom_site_type_symbol
 _atom_site_label
 _atom_site_symmetry_multiplicity
 _atom_site_fract_x
 _atom_site_fract_y
 _atom_site_fract_z
 _atom_site_occupancy
  La  La0  1  -0.00000000  0.22813911  0.34873068  1
  La  La1  1  -0.00000000  0.77186089  0.65126932  1
  La  La2  1  0.50000000  0.27186089  0.84873068  1
  La  La3  1  0.50000000  0.72813911  0.15126932  1
  La  La4  1  -0.00000000  0.70776459  0.15646351  1
  La  La5  1  0.00000000  0.29223541  0.84353649  1
  La  La6  1  0.50000000  0.79223541  0.65646351  1
  La  La7  1  0.50000000  0.20776459  0.34353649  1
  Ta  Ta8  1  0.25015207  0.36403819  0.08286416  1
  Ta  Ta9  1  0.74984793  0.63596181  0.91713584  1
  Ta  Ta10  1  0.25015207  0.63596181  0.91713584  1
  Ta  Ta11  1  0.24984793  0.13596181  0.58286416  1
  Ta  Ta12  1  0.74984793  0.36403819  0.08286416  1
  Ta  Ta13  1  0.75015207  0.86403819  0.41713584  1
  Ta  Ta14  1  0.24984793  0.86403819  0.41713584  1
  Ta  Ta15  1  0.75015207  0.13596181  0.58286416  1
  Ta  Ta16  1  0.21530453  0.00000000  0.00000000  1
  Ta  Ta17  1  0.78469547  0.00000000  0.00000000  1
  Ta  Ta18  1  0.28469547  0.50000000  0.50000000  1
  Ta  Ta19  1  0.71530453  0.50000000  0.50000000  1
  Se  Se20  1  0.00000000  0.01802720  0.16138037  1
  Se  Se21  1  -0.00000000  0.98197280  0.83861963  1
  Se  Se22  1  0.50000000  0.48197280  0.66138037  1
  Se  Se23  1  0.50000000  0.51802720  0.33861963  1
  Se  Se24  1  0.00000000  0.52399976  0.36336607  1
  Se  Se25  1  0.00000000  0.47600024  0.63663393  1
  Se  Se26  1  0.50000000  0.97600024  0.86336607  1
  Se  Se27  1  0.50000000  0.02399976  0.13663393  1
  O  O28  1  0.00000000  0.36661051  0.05218351  1
  O  O29  1  0.00000000  0.63338949  0.94781649  1
  O  O30  1  0.50000000  0.13338949  0.55218351  1
  O  O31  1  0.50000000  0.86661051  0.44781649  1
  O  O32  1  0.24783414  0.28821850  0.22275347  1
  O  O33  1  0.75216586  0.71178150  0.77724653  1
  O  O34  1  0.24783414  0.71178150  0.77724653  1
  O  O35  1  0.25216586  0.21178150  0.72275347  1
  O  O36  1  0.75216586  0.28821850  0.22275347  1
  O  O37  1  0.74783414  0.78821850  0.27724653  1
  O  O38  1  0.25216586  0.78821850  0.27724653  1
  O  O39  1  0.74783414  0.21178150  0.72275347  1
  O  O40  1  -0.00000000  0.14779139  0.55176172  1
  O  O41  1  0.00000000  0.85220861  0.44823828  1
  O  O42  1  0.50000000  0.35220861  0.05176172  1
  O  O43  1  0.50000000  0.64779139  0.94823828  1
  O  O44  1  0.26350965  0.30274591  0.47684755  1
  O  O45  1  0.73649035  0.69725409  0.52315245  1
  O  O46  1  0.26350965  0.69725409  0.52315245  1
  O  O47  1  0.23649035  0.19725409  0.97684755  1
  O  O48  1  0.73649035  0.30274591  0.47684755  1
  O  O49  1  0.76350965  0.80274591  0.02315245  1
  O  O50  1  0.23649035  0.80274591  0.02315245  1
  O  O51  1  0.76350965  0.19725409  0.97684755  1
  O  O52  1  0.24484586  0.05636696  0.39813537  1
  O  O53  1  0.75515414  0.94363304  0.60186463  1
  O  O54  1  0.24484586  0.94363304  0.60186463  1
  O  O55  1  0.25515414  0.44363304  0.89813537  1
  O  O56  1  0.75515414  0.05636696  0.39813537  1
  O  O57  1  0.74484586  0.55636696  0.10186463  1
  O  O58  1  0.25515414  0.55636696  0.10186463  1
  O  O59  1  0.74484586  0.44363304  0.89813537  1
