# generated using pymatgen
data_KPr(PSe3)2
_symmetry_space_group_name_H-M   'P 1'
_cell_length_a   7.89780404
_cell_length_b   12.57355093
_cell_length_c   11.97874569
_cell_angle_alpha   109.52316332
_cell_angle_beta   90.00000000
_cell_angle_gamma   90.00000000
_symmetry_Int_Tables_number   1
_chemical_formula_structural   KPr(PSe3)2
_chemical_formula_sum   'K4 Pr4 P8 Se24'
_cell_volume   1121.14034556
_cell_formula_units_Z   4
loop_
 _symmetry_equiv_pos_site_id
 _symmetry_equiv_pos_as_xyz
  1  'x, y, z'
loop_
 _atom_site_type_symbol
 _atom_site_label
 _atom_site_symmetry_multiplicity
 _atom_site_fract_x
 _atom_site_fract_y
 _atom_site_fract_z
 _atom_site_occupancy
  K  K0  1  0.41281974  0.87176047  0.62588858  1
  K  K1  1  0.58718026  0.12823953  0.37411142  1
  K  K2  1  0.91281974  0.12823953  0.87411142  1
  K  K3  1  0.08718026  0.87176047  0.12588858  1
  Pr  Pr4  1  0.60329801  0.64915590  0.90481192  1
  Pr  Pr5  1  0.39670199  0.35084410  0.09518808  1
  Pr  Pr6  1  0.10329801  0.35084410  0.59518808  1
  Pr  Pr7  1  0.89670199  0.64915590  0.40481192  1
  P  P8  1  0.88336663  0.79009757  0.73264297  1
  P  P9  1  0.11663337  0.20990243  0.26735703  1
  P  P10  1  0.38336663  0.20990243  0.76735703  1
  P  P11  1  0.61663337  0.79009757  0.23264297  1
  P  P12  1  0.59762662  0.32408381  0.75340270  1
  P  P13  1  0.40237338  0.67591619  0.24659730  1
  P  P14  1  0.09762662  0.67591619  0.74659730  1
  P  P15  1  0.90237338  0.32408381  0.25340270  1
  Se  Se16  1  0.68898352  0.67133445  0.63257489  1
  Se  Se17  1  0.31101648  0.32866555  0.36742511  1
  Se  Se18  1  0.18898352  0.32866555  0.86742511  1
  Se  Se19  1  0.81101648  0.67133445  0.13257489  1
  Se  Se20  1  0.97261488  0.55134803  0.81607603  1
  Se  Se21  1  0.02738512  0.44865197  0.18392397  1
  Se  Se22  1  0.47261488  0.44865197  0.68392397  1
  Se  Se23  1  0.52738512  0.55134803  0.31607603  1
  Se  Se24  1  0.29095514  0.78530512  0.86099475  1
  Se  Se25  1  0.70904486  0.21469488  0.13900525  1
  Se  Se26  1  0.79095514  0.21469488  0.63900525  1
  Se  Se27  1  0.20904486  0.78530512  0.36099475  1
  Se  Se28  1  0.68953299  0.41164226  0.93612600  1
  Se  Se29  1  0.31046701  0.58835774  0.06387400  1
  Se  Se30  1  0.18953299  0.58835774  0.56387400  1
  Se  Se31  1  0.81046701  0.41164226  0.43612600  1
  Se  Se32  1  0.98153482  0.88973791  0.62787305  1
  Se  Se33  1  0.01846518  0.11026209  0.37212695  1
  Se  Se34  1  0.48153482  0.11026209  0.87212695  1
  Se  Se35  1  0.51846518  0.88973791  0.12787305  1
  Se  Se36  1  0.78560589  0.87009940  0.91445808  1
  Se  Se37  1  0.21439411  0.12990060  0.08554192  1
  Se  Se38  1  0.28560589  0.12990060  0.58554192  1
  Se  Se39  1  0.71439411  0.87009940  0.41445808  1
