# generated using pymatgen
data_LaSBr
_symmetry_space_group_name_H-M   'P 1'
_cell_length_a   7.02545577
_cell_length_b   7.21937094
_cell_length_c   14.10482220
_cell_angle_alpha   90.00000000
_cell_angle_beta   90.00000000
_cell_angle_gamma   90.00000000
_symmetry_Int_Tables_number   1
_chemical_formula_structural   LaSBr
_chemical_formula_sum   'La8 S8 Br8'
_cell_volume   715.38771324
_cell_formula_units_Z   8
loop_
 _symmetry_equiv_pos_site_id
 _symmetry_equiv_pos_as_xyz
  1  'x, y, z'
loop_
 _atom_site_type_symbol
 _atom_site_label
 _atom_site_symmetry_multiplicity
 _atom_site_fract_x
 _atom_site_fract_y
 _atom_site_fract_z
 _atom_site_occupancy
  La  La0  1  0.74137154  0.53255356  0.59236869  1
  La  La1  1  0.25862846  0.46744644  0.40763131  1
  La  La2  1  0.75862846  0.03255356  0.40763131  1
  La  La3  1  0.25862846  0.96744644  0.09236869  1
  La  La4  1  0.24137154  0.96744644  0.59236869  1
  La  La5  1  0.74137154  0.03255356  0.90763131  1
  La  La6  1  0.24137154  0.46744644  0.90763131  1
  La  La7  1  0.75862846  0.53255356  0.09236869  1
  S  S8  1  0.00100030  0.75762629  0.97633942  1
  S  S9  1  0.99899970  0.24237371  0.02366058  1
  S  S10  1  0.49899970  0.25762629  0.02366058  1
  S  S11  1  0.99899970  0.74237371  0.47633942  1
  S  S12  1  0.50100030  0.74237371  0.97633942  1
  S  S13  1  0.00100030  0.25762629  0.52366058  1
  S  S14  1  0.50100030  0.24237371  0.52366058  1
  S  S15  1  0.49899970  0.75762629  0.47633942  1
  Br  Br16  1  0.82128652  0.90015282  0.70220295  1
  Br  Br17  1  0.17871348  0.09984718  0.29779705  1
  Br  Br18  1  0.67871348  0.40015282  0.29779705  1
  Br  Br19  1  0.17871348  0.59984718  0.20220295  1
  Br  Br20  1  0.32128652  0.59984718  0.70220295  1
  Br  Br21  1  0.82128652  0.40015282  0.79779705  1
  Br  Br22  1  0.32128652  0.09984718  0.79779705  1
  Br  Br23  1  0.67871348  0.90015282  0.20220295  1
