# generated using pymatgen
data_LaIn2Cl5
_symmetry_space_group_name_H-M   'P 1'
_cell_length_a   8.20313419
_cell_length_b   9.00218207
_cell_length_c   13.03998270
_cell_angle_alpha   90.00000000
_cell_angle_beta   90.00000000
_cell_angle_gamma   90.00000000
_symmetry_Int_Tables_number   1
_chemical_formula_structural   LaIn2Cl5
_chemical_formula_sum   'La4 In8 Cl20'
_cell_volume   962.95196456
_cell_formula_units_Z   4
loop_
 _symmetry_equiv_pos_site_id
 _symmetry_equiv_pos_as_xyz
  1  'x, y, z'
loop_
 _atom_site_type_symbol
 _atom_site_label
 _atom_site_symmetry_multiplicity
 _atom_site_fract_x
 _atom_site_fract_y
 _atom_site_fract_z
 _atom_site_occupancy
  La  La0  1  0.57565179  0.75000000  0.99390812  1
  La  La1  1  0.42434821  0.25000000  0.00609188  1
  La  La2  1  0.07565179  0.25000000  0.50609188  1
  La  La3  1  0.92434821  0.75000000  0.49390812  1
  In  In4  1  0.54899661  0.49390160  0.67095804  1
  In  In5  1  0.45100339  0.50609840  0.32904196  1
  In  In6  1  0.04899661  0.50609840  0.82904196  1
  In  In7  1  0.45100339  0.99390160  0.32904196  1
  In  In8  1  0.95100339  0.49390160  0.17095804  1
  In  In9  1  0.54899661  0.00609840  0.67095804  1
  In  In10  1  0.95100339  0.00609840  0.17095804  1
  In  In11  1  0.04899661  0.99390160  0.82904196  1
  Cl  Cl12  1  0.37424344  0.75000000  0.81885008  1
  Cl  Cl13  1  0.62575656  0.25000000  0.18114992  1
  Cl  Cl14  1  0.87424344  0.25000000  0.68114992  1
  Cl  Cl15  1  0.12575656  0.75000000  0.31885008  1
  Cl  Cl16  1  0.66410255  0.45734158  0.92270463  1
  Cl  Cl17  1  0.33589745  0.54265842  0.07729537  1
  Cl  Cl18  1  0.16410255  0.54265842  0.57729537  1
  Cl  Cl19  1  0.33589745  0.95734158  0.07729537  1
  Cl  Cl20  1  0.83589745  0.45734158  0.42270463  1
  Cl  Cl21  1  0.66410255  0.04265842  0.92270463  1
  Cl  Cl22  1  0.83589745  0.04265842  0.42270463  1
  Cl  Cl23  1  0.16410255  0.95734158  0.57729537  1
  Cl  Cl24  1  0.92511408  0.75000000  0.99293258  1
  Cl  Cl25  1  0.07488592  0.25000000  0.00706742  1
  Cl  Cl26  1  0.42511408  0.25000000  0.50706742  1
  Cl  Cl27  1  0.57488592  0.75000000  0.49293258  1
  Cl  Cl28  1  0.83544188  0.75000000  0.70598211  1
  Cl  Cl29  1  0.16455812  0.25000000  0.29401789  1
  Cl  Cl30  1  0.33544188  0.25000000  0.79401789  1
  Cl  Cl31  1  0.66455812  0.75000000  0.20598211  1
