# generated using pymatgen
data_MnH8C4(NO3)2
_symmetry_space_group_name_H-M   'P 1'
_cell_length_a   8.35969206
_cell_length_b   8.35969206
_cell_length_c   8.69144033
_cell_angle_alpha   64.14910636
_cell_angle_beta   64.14910636
_cell_angle_gamma   62.80224879
_symmetry_Int_Tables_number   1
_chemical_formula_structural   MnH8C4(NO3)2
_chemical_formula_sum   'Mn2 H16 C8 N4 O12'
_cell_volume   464.42767538
_cell_formula_units_Z   2
loop_
 _symmetry_equiv_pos_site_id
 _symmetry_equiv_pos_as_xyz
  1  'x, y, z'
loop_
 _atom_site_type_symbol
 _atom_site_label
 _atom_site_symmetry_multiplicity
 _atom_site_fract_x
 _atom_site_fract_y
 _atom_site_fract_z
 _atom_site_occupancy
  Mn  Mn0  1  0.00000000  0.50000000  0.50000000  1
  Mn  Mn1  1  0.50000000  0.00000000  -0.00000000  1
  H  H2  1  0.32192051  0.67807949  0.25000000  1
  H  H3  1  0.67807949  0.32192051  0.75000000  1
  H  H4  1  0.82507723  0.70415549  0.17672613  1
  H  H5  1  0.29584451  0.17492277  0.32327387  1
  H  H6  1  0.17492277  0.29584451  0.82327387  1
  H  H7  1  0.70415549  0.82507723  0.67672613  1
  H  H8  1  0.38429628  0.85861614  0.48650918  1
  H  H9  1  0.14138386  0.61570372  0.01349082  1
  H  H10  1  0.61570372  0.14138386  0.51349082  1
  H  H11  1  0.85861614  0.38429628  0.98650918  1
  H  H12  1  0.15902424  0.99335077  0.60202095  1
  H  H13  1  0.00664923  0.84097576  0.89797905  1
  H  H14  1  0.84097576  0.00664923  0.39797905  1
  H  H15  1  0.99335077  0.15902424  0.10202095  1
  H  H16  1  0.39803127  0.60196873  0.75000000  1
  H  H17  1  0.60196873  0.39803127  0.25000000  1
  C  C18  1  0.19435078  0.80564922  0.25000000  1
  C  C19  1  0.80564922  0.19435078  0.75000000  1
  C  C20  1  0.70374255  0.73205628  0.29555528  1
  C  C21  1  0.26794372  0.29625745  0.20444472  1
  C  C22  1  0.29625745  0.26794372  0.70444472  1
  C  C23  1  0.73205628  0.70374255  0.79555528  1
  C  C24  1  0.27215608  0.72784392  0.75000000  1
  C  C25  1  0.72784392  0.27215608  0.25000000  1
  N  N26  1  0.27170963  0.86909291  0.60200900  1
  N  N27  1  0.13090709  0.72829037  0.89799100  1
  N  N28  1  0.72829037  0.13090709  0.39799100  1
  N  N29  1  0.86909291  0.27170963  0.10200900  1
  O  O30  1  0.72738376  0.64317652  0.44919609  1
  O  O31  1  0.35682348  0.27261624  0.05080391  1
  O  O32  1  0.27261624  0.35682348  0.55080391  1
  O  O33  1  0.64317652  0.72738376  0.94919609  1
  O  O34  1  0.14918007  0.45167377  0.23194143  1
  O  O35  1  0.54832623  0.85081993  0.26805857  1
  O  O36  1  0.85081993  0.54832623  0.76805857  1
  O  O37  1  0.45167377  0.14918007  0.73194143  1
  O  O38  1  0.03734599  0.78447024  0.35485183  1
  O  O39  1  0.21552976  0.96265401  0.14514817  1
  O  O40  1  0.96265401  0.21552976  0.64514817  1
  O  O41  1  0.78447024  0.03734599  0.85485183  1
