# generated using pymatgen
data_KCaCl3
_symmetry_space_group_name_H-M   'P 1'
_cell_length_a   7.32660165
_cell_length_b   7.61943586
_cell_length_c   10.53205113
_cell_angle_alpha   90.00000000
_cell_angle_beta   90.00000000
_cell_angle_gamma   90.00000000
_symmetry_Int_Tables_number   1
_chemical_formula_structural   KCaCl3
_chemical_formula_sum   'K4 Ca4 Cl12'
_cell_volume   587.94723970
_cell_formula_units_Z   4
loop_
 _symmetry_equiv_pos_site_id
 _symmetry_equiv_pos_as_xyz
  1  'x, y, z'
loop_
 _atom_site_type_symbol
 _atom_site_label
 _atom_site_symmetry_multiplicity
 _atom_site_fract_x
 _atom_site_fract_y
 _atom_site_fract_z
 _atom_site_occupancy
  K  K0  1  0.01687202  0.43593882  0.25000000  1
  K  K1  1  0.98312798  0.56406118  0.75000000  1
  K  K2  1  0.51687202  0.06406118  0.75000000  1
  K  K3  1  0.48312798  0.93593882  0.25000000  1
  Ca  Ca4  1  -0.00000000  0.00000000  0.00000000  1
  Ca  Ca5  1  0.50000000  0.50000000  0.00000000  1
  Ca  Ca6  1  -0.00000000  0.00000000  0.50000000  1
  Ca  Ca7  1  0.50000000  0.50000000  0.50000000  1
  Cl  Cl8  1  0.30402386  0.19942380  0.05074627  1
  Cl  Cl9  1  0.69597614  0.80057620  0.94925373  1
  Cl  Cl10  1  0.80402386  0.30057620  0.94925373  1
  Cl  Cl11  1  0.69597614  0.80057620  0.55074627  1
  Cl  Cl12  1  0.19597614  0.69942380  0.05074627  1
  Cl  Cl13  1  0.30402386  0.19942380  0.44925373  1
  Cl  Cl14  1  0.19597614  0.69942380  0.44925373  1
  Cl  Cl15  1  0.80402386  0.30057620  0.55074627  1
  Cl  Cl16  1  0.59888650  0.53237395  0.25000000  1
  Cl  Cl17  1  0.40111350  0.46762605  0.75000000  1
  Cl  Cl18  1  0.09888650  0.96762605  0.75000000  1
  Cl  Cl19  1  0.90111350  0.03237395  0.25000000  1
