# generated using pymatgen
data_Li(ErGe)4
_symmetry_space_group_name_H-M   'P 1'
_cell_length_a   7.08617649
_cell_length_b   7.67923953
_cell_length_c   14.58434047
_cell_angle_alpha   90.00000000
_cell_angle_beta   90.00000000
_cell_angle_gamma   90.00000000
_symmetry_Int_Tables_number   1
_chemical_formula_structural   Li(ErGe)4
_chemical_formula_sum   'Li4 Er16 Ge16'
_cell_volume   793.62798465
_cell_formula_units_Z   4
loop_
 _symmetry_equiv_pos_site_id
 _symmetry_equiv_pos_as_xyz
  1  'x, y, z'
loop_
 _atom_site_type_symbol
 _atom_site_label
 _atom_site_symmetry_multiplicity
 _atom_site_fract_x
 _atom_site_fract_y
 _atom_site_fract_z
 _atom_site_occupancy
  Li  Li0  1  0.84161259  0.47850915  0.75000000  1
  Li  Li1  1  0.15838741  0.52149085  0.25000000  1
  Li  Li2  1  0.65838741  0.97850915  0.25000000  1
  Li  Li3  1  0.34161259  0.02149085  0.75000000  1
  Er  Er4  1  0.67195867  0.82380463  0.87223043  1
  Er  Er5  1  0.32804133  0.17619537  0.12776957  1
  Er  Er6  1  0.82804133  0.32380463  0.12776957  1
  Er  Er7  1  0.32804133  0.17619537  0.37223043  1
  Er  Er8  1  0.17195867  0.67619537  0.87223043  1
  Er  Er9  1  0.67195867  0.82380463  0.62776957  1
  Er  Er10  1  0.17195867  0.67619537  0.62776957  1
  Er  Er11  1  0.82804133  0.32380463  0.37223043  1
  Er  Er12  1  0.98597411  0.81408406  0.40332087  1
  Er  Er13  1  0.01402589  0.18591594  0.59667913  1
  Er  Er14  1  0.51402589  0.31408406  0.59667913  1
  Er  Er15  1  0.01402589  0.18591594  0.90332087  1
  Er  Er16  1  0.48597411  0.68591594  0.40332087  1
  Er  Er17  1  0.98597411  0.81408406  0.09667913  1
  Er  Er18  1  0.48597411  0.68591594  0.09667913  1
  Er  Er19  1  0.51402589  0.31408406  0.90332087  1
  Ge  Ge20  1  0.98239254  0.91199131  0.75000000  1
  Ge  Ge21  1  0.01760746  0.08800869  0.25000000  1
  Ge  Ge22  1  0.51760746  0.41199131  0.25000000  1
  Ge  Ge23  1  0.48239254  0.58800869  0.75000000  1
  Ge  Ge24  1  0.71566175  0.13701104  0.75000000  1
  Ge  Ge25  1  0.28433825  0.86298896  0.25000000  1
  Ge  Ge26  1  0.78433825  0.63701104  0.25000000  1
  Ge  Ge27  1  0.21566175  0.36298896  0.75000000  1
  Ge  Ge28  1  0.83291909  0.53388321  0.96274506  1
  Ge  Ge29  1  0.16708091  0.46611679  0.03725494  1
  Ge  Ge30  1  0.66708091  0.03388321  0.03725494  1
  Ge  Ge31  1  0.16708091  0.46611679  0.46274506  1
  Ge  Ge32  1  0.33291909  0.96611679  0.96274506  1
  Ge  Ge33  1  0.83291909  0.53388321  0.53725494  1
  Ge  Ge34  1  0.33291909  0.96611679  0.53725494  1
  Ge  Ge35  1  0.66708091  0.03388321  0.46274506  1
