# generated using pymatgen
data_K2ZrFe(PO4)3
_symmetry_space_group_name_H-M   'P 1'
_cell_length_a   10.21028632
_cell_length_b   10.21028632
_cell_length_c   10.21028632
_cell_angle_alpha   90.00000000
_cell_angle_beta   90.00000000
_cell_angle_gamma   90.00000000
_symmetry_Int_Tables_number   1
_chemical_formula_structural   K2ZrFe(PO4)3
_chemical_formula_sum   'K8 Zr4 Fe4 P12 O48'
_cell_volume   1064.42180502
_cell_formula_units_Z   4
loop_
 _symmetry_equiv_pos_site_id
 _symmetry_equiv_pos_as_xyz
  1  'x, y, z'
loop_
 _atom_site_type_symbol
 _atom_site_label
 _atom_site_symmetry_multiplicity
 _atom_site_fract_x
 _atom_site_fract_y
 _atom_site_fract_z
 _atom_site_occupancy
  K  K0  1  0.04898163  0.04898163  0.04898163  1
  K  K1  1  0.45101837  0.95101837  0.54898163  1
  K  K2  1  0.95101837  0.54898163  0.45101837  1
  K  K3  1  0.54898163  0.45101837  0.95101837  1
  K  K4  1  0.81537036  0.81537036  0.81537036  1
  K  K5  1  0.68462964  0.18462964  0.31537036  1
  K  K6  1  0.18462964  0.31537036  0.68462964  1
  K  K7  1  0.31537036  0.68462964  0.18462964  1
  Zr  Zr8  1  0.33598803  0.33598803  0.33598803  1
  Zr  Zr9  1  0.16401197  0.66401197  0.83598803  1
  Zr  Zr10  1  0.66401197  0.83598803  0.16401197  1
  Zr  Zr11  1  0.83598803  0.16401197  0.66401197  1
  Fe  Fe12  1  0.60442966  0.60442966  0.60442966  1
  Fe  Fe13  1  0.89557034  0.39557034  0.10442966  1
  Fe  Fe14  1  0.39557034  0.10442966  0.89557034  1
  Fe  Fe15  1  0.10442966  0.89557034  0.39557034  1
  P  P16  1  0.01850289  0.20746280  0.37080807  1
  P  P17  1  0.48149711  0.79253720  0.87080807  1
  P  P18  1  0.98149711  0.70746280  0.12919193  1
  P  P19  1  0.37080807  0.01850289  0.20746280  1
  P  P20  1  0.51850289  0.29253720  0.62919193  1
  P  P21  1  0.87080807  0.48149711  0.79253720  1
  P  P22  1  0.12919193  0.98149711  0.70746280  1
  P  P23  1  0.62919193  0.51850289  0.29253720  1
  P  P24  1  0.20746280  0.37080807  0.01850289  1
  P  P25  1  0.70746280  0.12919193  0.98149711  1
  P  P26  1  0.29253720  0.62919193  0.51850289  1
  P  P27  1  0.79253720  0.87080807  0.48149711  1
  O  O28  1  0.01534740  0.06184385  0.32897879  1
  O  O29  1  0.48465260  0.93815615  0.82897879  1
  O  O30  1  0.98465260  0.56184385  0.17102121  1
  O  O31  1  0.32897879  0.01534740  0.06184385  1
  O  O32  1  0.51534740  0.43815615  0.67102121  1
  O  O33  1  0.82897879  0.48465260  0.93815615  1
  O  O34  1  0.17102121  0.98465260  0.56184385  1
  O  O35  1  0.67102121  0.51534740  0.43815615  1
  O  O36  1  0.06184385  0.32897879  0.01534740  1
  O  O37  1  0.56184385  0.17102121  0.98465260  1
  O  O38  1  0.43815615  0.67102121  0.51534740  1
  O  O39  1  0.93815615  0.82897879  0.48465260  1
  O  O40  1  0.04845032  0.79432011  0.23174722  1
  O  O41  1  0.45154968  0.20567989  0.73174722  1
  O  O42  1  0.95154968  0.29432011  0.26825278  1
  O  O43  1  0.23174722  0.04845032  0.79432011  1
  O  O44  1  0.54845032  0.70567989  0.76825278  1
  O  O45  1  0.73174722  0.45154968  0.20567989  1
  O  O46  1  0.26825278  0.95154968  0.29432011  1
  O  O47  1  0.76825278  0.54845032  0.70567989  1
  O  O48  1  0.79432011  0.23174722  0.04845032  1
  O  O49  1  0.29432011  0.26825278  0.95154968  1
  O  O50  1  0.70567989  0.76825278  0.54845032  1
  O  O51  1  0.20567989  0.73174722  0.45154968  1
  O  O52  1  0.16117330  0.25205763  0.39831183  1
  O  O53  1  0.33882670  0.74794237  0.89831183  1
  O  O54  1  0.83882670  0.75205763  0.10168817  1
  O  O55  1  0.39831183  0.16117330  0.25205763  1
  O  O56  1  0.66117330  0.24794237  0.60168817  1
  O  O57  1  0.89831183  0.33882670  0.74794237  1
  O  O58  1  0.10168817  0.83882670  0.75205763  1
  O  O59  1  0.60168817  0.66117330  0.24794237  1
  O  O60  1  0.25205763  0.39831183  0.16117330  1
  O  O61  1  0.75205763  0.10168817  0.83882670  1
  O  O62  1  0.24794237  0.60168817  0.66117330  1
  O  O63  1  0.74794237  0.89831183  0.33882670  1
  O  O64  1  0.27075882  0.49828840  0.44322265  1
  O  O65  1  0.22924118  0.50171160  0.94322265  1
  O  O66  1  0.72924118  0.99828840  0.05677735  1
  O  O67  1  0.44322265  0.27075882  0.49828840  1
  O  O68  1  0.77075882  0.00171160  0.55677735  1
  O  O69  1  0.94322265  0.22924118  0.50171160  1
  O  O70  1  0.05677735  0.72924118  0.99828840  1
  O  O71  1  0.55677735  0.77075882  0.00171160  1
  O  O72  1  0.49828840  0.44322265  0.27075882  1
  O  O73  1  0.99828840  0.05677735  0.72924118  1
  O  O74  1  0.00171160  0.55677735  0.77075882  1
  O  O75  1  0.50171160  0.94322265  0.22924118  1
