# generated using pymatgen
data_La2(Ga3Ru)3
_symmetry_space_group_name_H-M   'P 1'
_cell_length_a   7.60069206
_cell_length_b   7.60069206
_cell_length_c   9.97689065
_cell_angle_alpha   90.00000000
_cell_angle_beta   90.00000000
_cell_angle_gamma   119.35834077
_symmetry_Int_Tables_number   1
_chemical_formula_structural   La2(Ga3Ru)3
_chemical_formula_sum   'La4 Ga18 Ru6'
_cell_volume   502.34723399
_cell_formula_units_Z   2
loop_
 _symmetry_equiv_pos_site_id
 _symmetry_equiv_pos_as_xyz
  1  'x, y, z'
loop_
 _atom_site_type_symbol
 _atom_site_label
 _atom_site_symmetry_multiplicity
 _atom_site_fract_x
 _atom_site_fract_y
 _atom_site_fract_z
 _atom_site_occupancy
  La  La0  1  0.66923567  0.99702287  0.25000000  1
  La  La1  1  0.33076433  0.00297713  0.75000000  1
  La  La2  1  0.99702287  0.66923567  0.25000000  1
  La  La3  1  0.00297713  0.33076433  0.75000000  1
  Ga  Ga4  1  0.13023478  0.13023478  0.25000000  1
  Ga  Ga5  1  0.86976522  0.86976522  0.75000000  1
  Ga  Ga6  1  0.33520674  0.00845455  0.07149450  1
  Ga  Ga7  1  0.66479326  0.99154545  0.92850550  1
  Ga  Ga8  1  0.66479326  0.99154545  0.57149450  1
  Ga  Ga9  1  0.00845455  0.33520674  0.42850550  1
  Ga  Ga10  1  0.33520674  0.00845455  0.42850550  1
  Ga  Ga11  1  0.99154545  0.66479326  0.57149450  1
  Ga  Ga12  1  0.99154545  0.66479326  0.92850550  1
  Ga  Ga13  1  0.00845455  0.33520674  0.07149450  1
  Ga  Ga14  1  0.33919756  0.33919756  0.55336913  1
  Ga  Ga15  1  0.66080244  0.66080244  0.44663087  1
  Ga  Ga16  1  0.66080244  0.66080244  0.05336913  1
  Ga  Ga17  1  0.33919756  0.33919756  0.94663087  1
  Ga  Ga18  1  0.54265980  0.33594796  0.25000000  1
  Ga  Ga19  1  0.45734020  0.66405204  0.75000000  1
  Ga  Ga20  1  0.33594796  0.54265980  0.25000000  1
  Ga  Ga21  1  0.66405204  0.45734020  0.75000000  1
  Ru  Ru22  1  0.32739341  0.67260659  0.00000000  1
  Ru  Ru23  1  0.67260659  0.32739341  0.00000000  1
  Ru  Ru24  1  0.67260659  0.32739341  0.50000000  1
  Ru  Ru25  1  0.32739341  0.67260659  0.50000000  1
  Ru  Ru26  1  0.00000000  -0.00000000  0.00000000  1
  Ru  Ru27  1  0.00000000  -0.00000000  0.50000000  1
