# generated using pymatgen
data_K3HoF6
_symmetry_space_group_name_H-M   'P 1'
_cell_length_a   6.38355485
_cell_length_b   6.59136108
_cell_length_c   9.13477139
_cell_angle_alpha   90.00000000
_cell_angle_beta   90.42025083
_cell_angle_gamma   90.00000000
_symmetry_Int_Tables_number   1
_chemical_formula_structural   K3HoF6
_chemical_formula_sum   'K6 Ho2 F12'
_cell_volume   384.34717928
_cell_formula_units_Z   2
loop_
 _symmetry_equiv_pos_site_id
 _symmetry_equiv_pos_as_xyz
  1  'x, y, z'
loop_
 _atom_site_type_symbol
 _atom_site_label
 _atom_site_symmetry_multiplicity
 _atom_site_fract_x
 _atom_site_fract_y
 _atom_site_fract_z
 _atom_site_occupancy
  K  K0  1  0.00000000  0.00000000  0.50000000  1
  K  K1  1  0.50000000  0.50000000  0.00000000  1
  K  K2  1  0.98806562  0.54934951  0.25314292  1
  K  K3  1  0.01193438  0.45065049  0.74685708  1
  K  K4  1  0.51193438  0.04934951  0.24685708  1
  K  K5  1  0.48806562  0.95065049  0.75314292  1
  Ho  Ho6  1  0.00000000  0.00000000  0.00000000  1
  Ho  Ho7  1  0.50000000  0.50000000  0.50000000  1
  F  F8  1  0.83126134  0.27258219  0.06449383  1
  F  F9  1  0.16873866  0.72741781  0.93550617  1
  F  F10  1  0.66873866  0.77258219  0.43550617  1
  F  F11  1  0.33126134  0.22741781  0.56449383  1
  F  F12  1  0.10626684  0.94976412  0.22380822  1
  F  F13  1  0.89373316  0.05023588  0.77619178  1
  F  F14  1  0.39373316  0.44976412  0.27619178  1
  F  F15  1  0.60626684  0.55023588  0.72380822  1
  F  F16  1  0.72167409  0.82443410  0.04750229  1
  F  F17  1  0.27832591  0.17556590  0.95249771  1
  F  F18  1  0.77832591  0.32443410  0.45249771  1
  F  F19  1  0.22167409  0.67556590  0.54750229  1
