# generated using pymatgen
data_KEr2Cl7
_symmetry_space_group_name_H-M   'P 1'
_cell_length_a   6.93561204
_cell_length_b   12.62407252
_cell_length_c   13.31700810
_cell_angle_alpha   90.00000000
_cell_angle_beta   90.83908527
_cell_angle_gamma   90.00000000
_symmetry_Int_Tables_number   1
_chemical_formula_structural   KEr2Cl7
_chemical_formula_sum   'K4 Er8 Cl28'
_cell_volume   1165.85452687
_cell_formula_units_Z   4
loop_
 _symmetry_equiv_pos_site_id
 _symmetry_equiv_pos_as_xyz
  1  'x, y, z'
loop_
 _atom_site_type_symbol
 _atom_site_label
 _atom_site_symmetry_multiplicity
 _atom_site_fract_x
 _atom_site_fract_y
 _atom_site_fract_z
 _atom_site_occupancy
  K  K0  1  0.26714699  0.79873455  0.03826040  1
  K  K1  1  0.73285301  0.20126545  0.96173960  1
  K  K2  1  0.73285301  0.29873455  0.46173960  1
  K  K3  1  0.26714699  0.70126545  0.53826040  1
  Er  Er4  1  0.22089529  0.46314103  0.23796626  1
  Er  Er5  1  0.77910471  0.53685897  0.76203374  1
  Er  Er6  1  0.77910471  0.96314103  0.26203374  1
  Er  Er7  1  0.22089529  0.03685897  0.73796626  1
  Er  Er8  1  0.27436861  0.16034493  0.24927038  1
  Er  Er9  1  0.72563139  0.83965507  0.75072962  1
  Er  Er10  1  0.72563139  0.66034493  0.25072962  1
  Er  Er11  1  0.27436861  0.33965507  0.74927038  1
  Cl  Cl12  1  0.05632442  0.02703330  0.13470754  1
  Cl  Cl13  1  0.94367558  0.97296670  0.86529246  1
  Cl  Cl14  1  0.94367558  0.52703330  0.36529246  1
  Cl  Cl15  1  0.05632442  0.47296670  0.63470754  1
  Cl  Cl16  1  0.25710616  0.31475304  0.39177466  1
  Cl  Cl17  1  0.74289384  0.68524696  0.60822534  1
  Cl  Cl18  1  0.74289384  0.81475304  0.10822534  1
  Cl  Cl19  1  0.25710616  0.18524696  0.89177466  1
  Cl  Cl20  1  0.48350621  0.32235105  0.17362167  1
  Cl  Cl21  1  0.51649379  0.67764895  0.82637833  1
  Cl  Cl22  1  0.51649379  0.82235105  0.32637833  1
  Cl  Cl23  1  0.48350621  0.17764895  0.67362167  1
  Cl  Cl24  1  0.02592187  0.07387877  0.37862442  1
  Cl  Cl25  1  0.97407813  0.92612123  0.62137558  1
  Cl  Cl26  1  0.97407813  0.57387877  0.12137558  1
  Cl  Cl27  1  0.02592187  0.42612123  0.87862442  1
  Cl  Cl28  1  0.53655253  0.05880590  0.13168912  1
  Cl  Cl29  1  0.46344747  0.94119410  0.86831088  1
  Cl  Cl30  1  0.46344747  0.55880590  0.36831088  1
  Cl  Cl31  1  0.53655253  0.44119410  0.63168912  1
  Cl  Cl32  1  0.00278774  0.29702572  0.17604170  1
  Cl  Cl33  1  0.99721226  0.70297428  0.82395830  1
  Cl  Cl34  1  0.99721226  0.79702572  0.32395830  1
  Cl  Cl35  1  0.00278774  0.20297428  0.67604170  1
  Cl  Cl36  1  0.54461169  0.08641390  0.37722759  1
  Cl  Cl37  1  0.45538831  0.91358610  0.62277241  1
  Cl  Cl38  1  0.45538831  0.58641390  0.12277241  1
  Cl  Cl39  1  0.54461169  0.41358610  0.87722759  1
