# generated using pymatgen
data_K2RbScV2O8
_symmetry_space_group_name_H-M   'P 1'
_cell_length_a   5.85509922
_cell_length_b   5.85509922
_cell_length_c   7.67128554
_cell_angle_alpha   90.00000000
_cell_angle_beta   90.00000000
_cell_angle_gamma   120.00000178
_symmetry_Int_Tables_number   1
_chemical_formula_structural   K2RbScV2O8
_chemical_formula_sum   'K2 Rb1 Sc1 V2 O8'
_cell_volume   227.75466955
_cell_formula_units_Z   1
loop_
 _symmetry_equiv_pos_site_id
 _symmetry_equiv_pos_as_xyz
  1  'x, y, z'
loop_
 _atom_site_type_symbol
 _atom_site_label
 _atom_site_symmetry_multiplicity
 _atom_site_fract_x
 _atom_site_fract_y
 _atom_site_fract_z
 _atom_site_occupancy
  K  K0  1  0.66666700  0.33333300  0.30237612  1
  K  K1  1  0.33333300  0.66666700  0.69762388  1
  Rb  Rb2  1  0.00000000  0.00000000  0.00000000  1
  Sc  Sc3  1  0.00000000  0.00000000  0.50000000  1
  V  V4  1  0.66666700  0.33333300  0.74182841  1
  V  V5  1  0.33333300  0.66666700  0.25817159  1
  O  O6  1  0.66666700  0.33333300  0.96162425  1
  O  O7  1  0.33333300  0.66666700  0.03837575  1
  O  O8  1  0.83044504  0.66089009  0.66343837  1
  O  O9  1  0.16955496  0.33910991  0.33656163  1
  O  O10  1  0.83044504  0.16955496  0.66343837  1
  O  O11  1  0.16955496  0.83044504  0.33656163  1
  O  O12  1  0.33910991  0.16955496  0.66343837  1
  O  O13  1  0.66089009  0.83044504  0.33656163  1
