# generated using pymatgen
data_LuH9C5(NO4)2
_symmetry_space_group_name_H-M   'P 1'
_cell_length_a   6.69289569
_cell_length_b   8.51126190
_cell_length_c   9.69490795
_cell_angle_alpha   90.00000000
_cell_angle_beta   110.19252915
_cell_angle_gamma   90.00000000
_symmetry_Int_Tables_number   1
_chemical_formula_structural   LuH9C5(NO4)2
_chemical_formula_sum   'Lu2 H18 C10 N4 O16'
_cell_volume   518.32669894
_cell_formula_units_Z   2
loop_
 _symmetry_equiv_pos_site_id
 _symmetry_equiv_pos_as_xyz
  1  'x, y, z'
loop_
 _atom_site_type_symbol
 _atom_site_label
 _atom_site_symmetry_multiplicity
 _atom_site_fract_x
 _atom_site_fract_y
 _atom_site_fract_z
 _atom_site_occupancy
  Lu  Lu0  1  0.85798340  0.75000000  0.71596680  1
  Lu  Lu1  1  0.14201660  0.25000000  0.28403320  1
  H  H2  1  0.92611215  0.56145331  0.41951364  1
  H  H3  1  0.50659851  0.43854669  0.58048636  1
  H  H4  1  0.07388785  0.06145331  0.58048636  1
  H  H5  1  0.49340149  0.93854669  0.41951364  1
  H  H6  1  0.31277934  0.75000000  0.62555868  1
  H  H7  1  0.68722066  0.25000000  0.37444132  1
  H  H8  1  0.23474304  -0.00000000  0.00000000  1
  H  H9  1  0.76525696  0.50000000  -0.00000000  1
  H  H10  1  0.64704181  0.17022142  0.98940520  1
  H  H11  1  0.65763661  0.82977858  0.01059480  1
  H  H12  1  0.35295819  0.67022142  0.01059480  1
  H  H13  1  0.34236339  0.32977858  0.98940520  1
  H  H14  1  0.64356376  0.10127032  0.81476709  1
  H  H15  1  0.82879667  0.89872968  0.18523291  1
  H  H16  1  0.35643624  0.60127032  0.18523291  1
  H  H17  1  0.17120333  0.39872968  0.81476709  1
  H  H18  1  0.34465854  0.25000000  0.68931707  1
  H  H19  1  0.65534146  0.75000000  0.31068293  1
  C  C20  1  0.99437676  0.47645112  0.51035829  1
  C  C21  1  0.48401847  0.52354888  0.48964171  1
  C  C22  1  0.00562324  0.97645112  0.48964171  1
  C  C23  1  0.51598153  0.02354888  0.51035829  1
  C  C24  1  0.37359961  0.75000000  0.74719921  1
  C  C25  1  0.62640039  0.25000000  0.25280079  1
  C  C26  1  0.06952422  -0.00000000  -0.00000000  1
  C  C27  1  0.93047578  0.50000000  0.00000000  1
  C  C28  1  0.40490934  0.25000000  0.80981867  1
  C  C29  1  0.59509066  0.75000000  0.19018133  1
  N  N30  1  0.57544865  0.16565268  0.87678402  1
  N  N31  1  0.69866463  0.83434732  0.12321598  1
  N  N32  1  0.42455135  0.66565268  0.12321598  1
  N  N33  1  0.30133537  0.33434732  0.87678402  1
  O  O34  1  0.23912230  0.76429328  0.81214577  1
  O  O35  1  0.42697653  0.23570672  0.18785423  1
  O  O36  1  0.76087770  0.26429328  0.18785423  1
  O  O37  1  0.57302347  0.73570672  0.81214577  1
  O  O38  1  0.92966535  0.92513859  0.89980208  1
  O  O39  1  0.02986327  0.07486141  0.10019792  1
  O  O40  1  0.07033465  0.42513859  0.10019792  1
  O  O41  1  0.97013673  0.57486141  0.89980208  1
  O  O42  1  0.99429105  0.51605224  0.63637619  1
  O  O43  1  0.35791486  0.48394776  0.36362381  1
  O  O44  1  0.00570895  0.01605224  0.36362381  1
  O  O45  1  0.64208514  0.98394776  0.63637619  1
  O  O46  1  0.58621586  0.65202304  0.51868424  1
  O  O47  1  0.06753162  0.34797696  0.48131576  1
  O  O48  1  0.41378414  0.15202304  0.48131576  1
  O  O49  1  0.93246838  0.84797696  0.51868424  1
