# generated using pymatgen
data_K3HoCl6
_symmetry_space_group_name_H-M   'P 1'
_cell_length_a   7.77072601
_cell_length_b   13.15470200
_cell_length_c   12.64889137
_cell_angle_alpha   108.80014114
_cell_angle_beta   90.00000000
_cell_angle_gamma   90.00000000
_symmetry_Int_Tables_number   1
_chemical_formula_structural   K3HoCl6
_chemical_formula_sum   'K12 Ho4 Cl24'
_cell_volume   1224.00673922
_cell_formula_units_Z   4
loop_
 _symmetry_equiv_pos_site_id
 _symmetry_equiv_pos_as_xyz
  1  'x, y, z'
loop_
 _atom_site_type_symbol
 _atom_site_label
 _atom_site_symmetry_multiplicity
 _atom_site_fract_x
 _atom_site_fract_y
 _atom_site_fract_z
 _atom_site_occupancy
  K  K0  1  0.43485559  0.68521272  0.73285075  1
  K  K1  1  0.56514441  0.31478728  0.26714925  1
  K  K2  1  0.93485559  0.31478728  0.76714925  1
  K  K3  1  0.06514441  0.68521272  0.23285075  1
  K  K4  1  0.96627328  0.90230231  0.64243693  1
  K  K5  1  0.03372672  0.09769769  0.35756307  1
  K  K6  1  0.46627328  0.09769769  0.85756307  1
  K  K7  1  0.53372672  0.90230231  0.14243693  1
  K  K8  1  0.93535878  0.67962946  0.88747944  1
  K  K9  1  0.06464122  0.32037054  0.11252056  1
  K  K10  1  0.43535878  0.32037054  0.61252056  1
  K  K11  1  0.56464122  0.67962946  0.38747944  1
  Ho  Ho12  1  0.00000000  0.50000000  0.50000000  1
  Ho  Ho13  1  0.50000000  0.50000000  0.00000000  1
  Ho  Ho14  1  0.00000000  -0.00000000  0.00000000  1
  Ho  Ho15  1  0.50000000  -0.00000000  0.50000000  1
  Cl  Cl16  1  0.49876715  0.88106792  0.62946796  1
  Cl  Cl17  1  0.50123285  0.11893208  0.37053204  1
  Cl  Cl18  1  0.99876715  0.11893208  0.87053204  1
  Cl  Cl19  1  0.00123285  0.88106792  0.12946796  1
  Cl  Cl20  1  0.29191724  0.65425837  0.99517097  1
  Cl  Cl21  1  0.70808276  0.34574163  0.00482903  1
  Cl  Cl22  1  0.79191724  0.34574163  0.50482903  1
  Cl  Cl23  1  0.20808276  0.65425837  0.49517097  1
  Cl  Cl24  1  0.78639838  0.65191595  0.60671443  1
  Cl  Cl25  1  0.21360162  0.34808405  0.39328557  1
  Cl  Cl26  1  0.28639838  0.34808405  0.89328557  1
  Cl  Cl27  1  0.71360162  0.65191595  0.10671443  1
  Cl  Cl28  1  0.64163499  0.50060327  0.80908555  1
  Cl  Cl29  1  0.35836501  0.49939673  0.19091445  1
  Cl  Cl30  1  0.14163499  0.49939673  0.69091445  1
  Cl  Cl31  1  0.85836501  0.50060327  0.30908555  1
  Cl  Cl32  1  0.17882479  0.86173556  0.84574713  1
  Cl  Cl33  1  0.82117521  0.13826444  0.15425287  1
  Cl  Cl34  1  0.67882479  0.13826444  0.65425287  1
  Cl  Cl35  1  0.32117521  0.86173556  0.34574713  1
  Cl  Cl36  1  0.71667580  0.89841661  0.90503313  1
  Cl  Cl37  1  0.28332420  0.10158339  0.09496687  1
  Cl  Cl38  1  0.21667580  0.10158339  0.59496687  1
  Cl  Cl39  1  0.78332420  0.89841661  0.40503313  1
