# generated using pymatgen
data_K5Zn4Sn5H4S17N
_symmetry_space_group_name_H-M   'P 1'
_cell_length_a   9.78850953
_cell_length_b   11.08670917
_cell_length_c   11.08670917
_cell_angle_alpha   78.76227310
_cell_angle_beta   63.80341282
_cell_angle_gamma   63.80341282
_symmetry_Int_Tables_number   1
_chemical_formula_structural   K5Zn4Sn5H4S17N
_chemical_formula_sum   'K5 Zn4 Sn5 H4 S17 N1'
_cell_volume   968.68454510
_cell_formula_units_Z   1
loop_
 _symmetry_equiv_pos_site_id
 _symmetry_equiv_pos_as_xyz
  1  'x, y, z'
loop_
 _atom_site_type_symbol
 _atom_site_label
 _atom_site_symmetry_multiplicity
 _atom_site_fract_x
 _atom_site_fract_y
 _atom_site_fract_z
 _atom_site_occupancy
  K  K0  1  0.26004149  -0.00000000  0.47991702  1
  K  K1  1  0.73995851  -0.00000000  0.52008298  1
  K  K2  1  0.26004149  0.47991702  0.00000000  1
  K  K3  1  0.73995851  0.52008298  0.00000000  1
  K  K4  1  0.00000000  -0.00000000  -0.00000000  1
  Zn  Zn5  1  0.77415747  0.86375913  0.86375913  1
  Zn  Zn6  1  0.50167572  0.13624087  0.13624087  1
  Zn  Zn7  1  0.36208341  0.86375913  0.13624087  1
  Zn  Zn8  1  0.36208341  0.13624087  0.86375913  1
  Sn  Sn9  1  0.75000000  0.50000000  0.50000000  1
  Sn  Sn10  1  0.50179918  0.77718104  0.77718104  1
  Sn  Sn11  1  0.05616126  0.22281896  0.22281896  1
  Sn  Sn12  1  0.72101978  0.77718104  0.22281896  1
  Sn  Sn13  1  0.72101978  0.22281896  0.77718104  1
  H  H14  1  0.25232664  0.55913075  0.55913075  1
  H  H15  1  0.37058815  0.44086925  0.44086925  1
  H  H16  1  0.18854260  0.55913075  0.44086925  1
  H  H17  1  0.18854260  0.44086925  0.55913075  1
  S  S18  1  0.46652956  0.64351215  0.64351215  1
  S  S19  1  0.75355386  0.35648785  0.35648785  1
  S  S20  1  0.88995829  0.64351215  0.35648785  1
  S  S21  1  0.88995829  0.35648785  0.64351215  1
  S  S22  1  0.78911631  0.72133827  0.72133827  1
  S  S23  1  0.23179284  0.27866173  0.27866173  1
  S  S24  1  0.48954543  0.72133827  0.27866173  1
  S  S25  1  0.48954543  0.27866173  0.72133827  1
  S  S26  1  0.50000000  -0.00000000  -0.00000000  1
  S  S27  1  0.35667370  0.00557821  0.72307739  1
  S  S28  1  0.08532930  0.99442179  0.27692261  1
  S  S29  1  0.92024891  0.72307739  0.99442179  1
  S  S30  1  0.35667370  0.72307739  0.00557821  1
  S  S31  1  0.63774809  0.27692261  0.00557821  1
  S  S32  1  0.08532930  0.27692261  0.99442179  1
  S  S33  1  0.92024891  0.99442179  0.72307739  1
  S  S34  1  0.63774809  0.00557821  0.27692261  1
  N  N35  1  0.25000000  0.50000000  0.50000000  1
