# generated using pymatgen
data_K2EuF5
_symmetry_space_group_name_H-M   'P 1'
_cell_length_a   6.73259435
_cell_length_b   7.60013972
_cell_length_c   11.17449882
_cell_angle_alpha   90.00000000
_cell_angle_beta   90.00000000
_cell_angle_gamma   90.00000000
_symmetry_Int_Tables_number   1
_chemical_formula_structural   K2EuF5
_chemical_formula_sum   'K8 Eu4 F20'
_cell_volume   571.78410552
_cell_formula_units_Z   4
loop_
 _symmetry_equiv_pos_site_id
 _symmetry_equiv_pos_as_xyz
  1  'x, y, z'
loop_
 _atom_site_type_symbol
 _atom_site_label
 _atom_site_symmetry_multiplicity
 _atom_site_fract_x
 _atom_site_fract_y
 _atom_site_fract_z
 _atom_site_occupancy
  K  K0  1  0.97455268  0.00236383  0.67178429  1
  K  K1  1  0.02544732  0.99763617  0.32821571  1
  K  K2  1  0.47455268  0.99763617  0.82821571  1
  K  K3  1  0.02544732  0.50236383  0.32821571  1
  K  K4  1  0.52544732  0.00236383  0.17178429  1
  K  K5  1  0.97455268  0.49763617  0.67178429  1
  K  K6  1  0.52544732  0.49763617  0.17178429  1
  K  K7  1  0.47455268  0.50236383  0.82821571  1
  Eu  Eu8  1  0.93910911  0.75000000  0.99956362  1
  Eu  Eu9  1  0.06089089  0.25000000  0.00043638  1
  Eu  Eu10  1  0.43910911  0.25000000  0.50043638  1
  Eu  Eu11  1  0.56089089  0.75000000  0.49956362  1
  F  F12  1  0.67236212  0.75000000  0.69380384  1
  F  F13  1  0.32763788  0.25000000  0.30619616  1
  F  F14  1  0.17236212  0.25000000  0.80619616  1
  F  F15  1  0.82763788  0.75000000  0.19380384  1
  F  F16  1  0.13591758  0.75000000  0.83378798  1
  F  F17  1  0.86408242  0.25000000  0.16621202  1
  F  F18  1  0.63591758  0.25000000  0.66621202  1
  F  F19  1  0.36408242  0.75000000  0.33378798  1
  F  F20  1  0.59474427  0.75000000  0.98935900  1
  F  F21  1  0.40525573  0.25000000  0.01064100  1
  F  F22  1  0.09474427  0.25000000  0.51064100  1
  F  F23  1  0.90525573  0.75000000  0.48935900  1
  F  F24  1  0.85579101  0.46912328  0.91681194  1
  F  F25  1  0.14420899  0.53087672  0.08318806  1
  F  F26  1  0.35579101  0.53087672  0.58318806  1
  F  F27  1  0.14420899  0.96912328  0.08318806  1
  F  F28  1  0.64420899  0.46912328  0.41681194  1
  F  F29  1  0.85579101  0.03087672  0.91681194  1
  F  F30  1  0.64420899  0.03087672  0.41681194  1
  F  F31  1  0.35579101  0.96912328  0.58318806  1
