# generated using pymatgen
data_Ho5SbPt2
_symmetry_space_group_name_H-M   'P 1'
_cell_length_a   7.71844437
_cell_length_b   7.71844437
_cell_length_c   8.75605898
_cell_angle_alpha   116.15166146
_cell_angle_beta   116.15166146
_cell_angle_gamma   90.00000000
_symmetry_Int_Tables_number   1
_chemical_formula_structural   Ho5SbPt2
_chemical_formula_sum   'Ho10 Sb2 Pt4'
_cell_volume   407.90569833
_cell_formula_units_Z   2
loop_
 _symmetry_equiv_pos_site_id
 _symmetry_equiv_pos_as_xyz
  1  'x, y, z'
loop_
 _atom_site_type_symbol
 _atom_site_label
 _atom_site_symmetry_multiplicity
 _atom_site_fract_x
 _atom_site_fract_y
 _atom_site_fract_z
 _atom_site_occupancy
  Ho  Ho0  1  0.00000000  0.00000000  0.00000000  1
  Ho  Ho1  1  0.50000000  0.50000000  0.00000000  1
  Ho  Ho2  1  0.29639157  0.79639157  0.27640184  1
  Ho  Ho3  1  0.70360843  0.20360843  0.72359816  1
  Ho  Ho4  1  0.98001028  0.48001028  0.27640184  1
  Ho  Ho5  1  0.48001028  0.29639157  0.27640184  1
  Ho  Ho6  1  0.20360843  0.01998972  0.72359816  1
  Ho  Ho7  1  0.01998972  0.51998972  0.72359816  1
  Ho  Ho8  1  0.51998972  0.70360843  0.72359816  1
  Ho  Ho9  1  0.79639157  0.98001028  0.27640184  1
  Sb  Sb10  1  0.25000000  0.25000000  0.50000000  1
  Sb  Sb11  1  0.75000000  0.75000000  0.50000000  1
  Pt  Pt12  1  0.63723927  0.13723927  0.00000000  1
  Pt  Pt13  1  0.36276073  0.86276073  1.00000000  1
  Pt  Pt14  1  0.86276073  0.63723927  0.00000000  1
  Pt  Pt15  1  0.13723927  0.36276073  0.00000000  1
