# generated using pymatgen
data_HoRhO3
_symmetry_space_group_name_H-M   'P 1'
_cell_length_a   5.27949968
_cell_length_b   5.78402567
_cell_length_c   7.65628914
_cell_angle_alpha   90.00000000
_cell_angle_beta   90.00000000
_cell_angle_gamma   90.00000000
_symmetry_Int_Tables_number   1
_chemical_formula_structural   HoRhO3
_chemical_formula_sum   'Ho4 Rh4 O12'
_cell_volume   233.79827677
_cell_formula_units_Z   4
loop_
 _symmetry_equiv_pos_site_id
 _symmetry_equiv_pos_as_xyz
  1  'x, y, z'
loop_
 _atom_site_type_symbol
 _atom_site_label
 _atom_site_symmetry_multiplicity
 _atom_site_fract_x
 _atom_site_fract_y
 _atom_site_fract_z
 _atom_site_occupancy
  Ho  Ho0  1  0.03050738  0.41599659  0.25000000  1
  Ho  Ho1  1  0.96949262  0.58400341  0.75000000  1
  Ho  Ho2  1  0.53050738  0.08400341  0.75000000  1
  Ho  Ho3  1  0.46949262  0.91599659  0.25000000  1
  Rh  Rh4  1  -0.00000000  0.00000000  0.00000000  1
  Rh  Rh5  1  0.50000000  0.50000000  0.00000000  1
  Rh  Rh6  1  -0.00000000  0.00000000  0.50000000  1
  Rh  Rh7  1  0.50000000  0.50000000  0.50000000  1
  O  O8  1  0.32237988  0.19030317  0.06475674  1
  O  O9  1  0.67762012  0.80969683  0.93524326  1
  O  O10  1  0.82237988  0.30969683  0.93524326  1
  O  O11  1  0.67762012  0.80969683  0.56475674  1
  O  O12  1  0.17762012  0.69030317  0.06475674  1
  O  O13  1  0.32237988  0.19030317  0.43524326  1
  O  O14  1  0.17762012  0.69030317  0.43524326  1
  O  O15  1  0.82237988  0.30969683  0.56475674  1
  O  O16  1  0.63746336  0.55453812  0.25000000  1
  O  O17  1  0.36253664  0.44546188  0.75000000  1
  O  O18  1  0.13746336  0.94546188  0.75000000  1
  O  O19  1  0.86253664  0.05453812  0.25000000  1
