# generated using pymatgen
data_La12InCo6
_symmetry_space_group_name_H-M   'P 1'
_cell_length_a   8.79709140
_cell_length_b   8.79709140
_cell_length_c   8.79709140
_cell_angle_alpha   109.47122063
_cell_angle_beta   109.47122063
_cell_angle_gamma   109.47122063
_symmetry_Int_Tables_number   1
_chemical_formula_structural   La12InCo6
_chemical_formula_sum   'La12 In1 Co6'
_cell_volume   524.07738868
_cell_formula_units_Z   1
loop_
 _symmetry_equiv_pos_site_id
 _symmetry_equiv_pos_as_xyz
  1  'x, y, z'
loop_
 _atom_site_type_symbol
 _atom_site_label
 _atom_site_symmetry_multiplicity
 _atom_site_fract_x
 _atom_site_fract_y
 _atom_site_fract_z
 _atom_site_occupancy
  La  La0  1  0.81144293  0.68998411  0.50142704  1
  La  La1  1  0.18855707  0.31001589  0.49857296  1
  La  La2  1  0.18855707  0.68998411  0.87854118  1
  La  La3  1  0.81144293  0.31001589  0.12145882  1
  La  La4  1  0.68998411  0.50142704  0.81144293  1
  La  La5  1  0.31001589  0.49857296  0.18855707  1
  La  La6  1  0.68998411  0.87854118  0.18855707  1
  La  La7  1  0.31001589  0.12145882  0.81144293  1
  La  La8  1  0.50142704  0.81144293  0.68998411  1
  La  La9  1  0.49857296  0.18855707  0.31001589  1
  La  La10  1  0.12145882  0.81144293  0.31001589  1
  La  La11  1  0.87854118  0.18855707  0.68998411  1
  In  In12  1  -0.00000000  0.00000000  -0.00000000  1
  Co  Co13  1  0.88286382  0.38286382  0.50000000  1
  Co  Co14  1  0.11713618  0.61713618  0.50000000  1
  Co  Co15  1  0.38286382  0.50000000  0.88286382  1
  Co  Co16  1  0.61713618  0.50000000  0.11713618  1
  Co  Co17  1  0.50000000  0.88286382  0.38286382  1
  Co  Co18  1  0.50000000  0.11713618  0.61713618  1
