# generated using pymatgen
data_HfNiAs
_symmetry_space_group_name_H-M   'P 1'
_cell_length_a   3.86170368
_cell_length_b   6.45593096
_cell_length_c   7.28926548
_cell_angle_alpha   90.00000000
_cell_angle_beta   90.00000000
_cell_angle_gamma   90.00000000
_symmetry_Int_Tables_number   1
_chemical_formula_structural   HfNiAs
_chemical_formula_sum   'Hf4 Ni4 As4'
_cell_volume   181.72789296
_cell_formula_units_Z   4
loop_
 _symmetry_equiv_pos_site_id
 _symmetry_equiv_pos_as_xyz
  1  'x, y, z'
loop_
 _atom_site_type_symbol
 _atom_site_label
 _atom_site_symmetry_multiplicity
 _atom_site_fract_x
 _atom_site_fract_y
 _atom_site_fract_z
 _atom_site_occupancy
  Hf  Hf0  1  0.75000000  0.01156018  0.31109358  1
  Hf  Hf1  1  0.25000000  0.98843982  0.68890642  1
  Hf  Hf2  1  0.25000000  0.48843982  0.81109358  1
  Hf  Hf3  1  0.75000000  0.51156018  0.18890642  1
  Ni  Ni4  1  0.75000000  0.67082356  0.57747472  1
  Ni  Ni5  1  0.25000000  0.32917644  0.42252528  1
  Ni  Ni6  1  0.25000000  0.82917644  0.07747472  1
  Ni  Ni7  1  0.75000000  0.17082356  0.92252528  1
  As  As8  1  0.75000000  0.78544386  0.89687884  1
  As  As9  1  0.25000000  0.21455614  0.10312116  1
  As  As10  1  0.25000000  0.71455614  0.39687884  1
  As  As11  1  0.75000000  0.28544386  0.60312116  1
