# generated using pymatgen
data_Ho5SbPd2
_symmetry_space_group_name_H-M   'P 1'
_cell_length_a   7.72842635
_cell_length_b   7.72842635
_cell_length_c   8.73311216
_cell_angle_alpha   116.26212132
_cell_angle_beta   116.26212132
_cell_angle_gamma   90.00000000
_symmetry_Int_Tables_number   1
_chemical_formula_structural   Ho5SbPd2
_chemical_formula_sum   'Ho10 Sb2 Pd4'
_cell_volume   406.86933263
_cell_formula_units_Z   2
loop_
 _symmetry_equiv_pos_site_id
 _symmetry_equiv_pos_as_xyz
  1  'x, y, z'
loop_
 _atom_site_type_symbol
 _atom_site_label
 _atom_site_symmetry_multiplicity
 _atom_site_fract_x
 _atom_site_fract_y
 _atom_site_fract_z
 _atom_site_occupancy
  Ho  Ho0  1  -0.00000000  0.00000000  -0.00000000  1
  Ho  Ho1  1  0.50000000  0.50000000  -0.00000000  1
  Ho  Ho2  1  0.29916084  0.79916084  0.28485404  1
  Ho  Ho3  1  0.70083916  0.20083916  0.71514596  1
  Ho  Ho4  1  0.98569320  0.48569320  0.28485404  1
  Ho  Ho5  1  0.48569320  0.29916084  0.28485404  1
  Ho  Ho6  1  0.20083916  0.01430680  0.71514596  1
  Ho  Ho7  1  0.01430680  0.51430680  0.71514596  1
  Ho  Ho8  1  0.51430680  0.70083916  0.71514596  1
  Ho  Ho9  1  0.79916084  0.98569320  0.28485404  1
  Sb  Sb10  1  0.25000000  0.25000000  0.50000000  1
  Sb  Sb11  1  0.75000000  0.75000000  0.50000000  1
  Pd  Pd12  1  0.63733799  0.13733799  1.00000000  1
  Pd  Pd13  1  0.36266201  0.86266201  0.00000000  1
  Pd  Pd14  1  0.86266201  0.63733799  -0.00000000  1
  Pd  Pd15  1  0.13733799  0.36266201  0.00000000  1
