# generated using pymatgen
data_HoFeGe2O7
_symmetry_space_group_name_H-M   'P 1'
_cell_length_a   6.72954720
_cell_length_b   8.64429731
_cell_length_c   9.80812795
_cell_angle_alpha   90.00000000
_cell_angle_beta   100.53349040
_cell_angle_gamma   90.00000000
_symmetry_Int_Tables_number   1
_chemical_formula_structural   HoFeGe2O7
_chemical_formula_sum   'Ho4 Fe4 Ge8 O28'
_cell_volume   560.94548734
_cell_formula_units_Z   4
loop_
 _symmetry_equiv_pos_site_id
 _symmetry_equiv_pos_as_xyz
  1  'x, y, z'
loop_
 _atom_site_type_symbol
 _atom_site_label
 _atom_site_symmetry_multiplicity
 _atom_site_fract_x
 _atom_site_fract_y
 _atom_site_fract_z
 _atom_site_occupancy
  Ho  Ho0  1  0.24947876  0.04269966  0.74794486  1
  Ho  Ho1  1  0.75052124  0.95730034  0.25205514  1
  Ho  Ho2  1  0.75052124  0.54269966  0.25205514  1
  Ho  Ho3  1  0.24947876  0.45730034  0.74794486  1
  Fe  Fe4  1  0.25121791  0.05511525  0.24938184  1
  Fe  Fe5  1  0.74878209  0.94488475  0.75061816  1
  Fe  Fe6  1  0.74878209  0.55511525  0.75061816  1
  Fe  Fe7  1  0.25121791  0.44488475  0.24938184  1
  Ge  Ge8  1  0.95705930  0.25000000  0.96727808  1
  Ge  Ge9  1  0.04294070  0.75000000  0.03272192  1
  Ge  Ge10  1  0.02544015  0.25000000  0.44731450  1
  Ge  Ge11  1  0.97455985  0.75000000  0.55268550  1
  Ge  Ge12  1  0.48300356  0.25000000  0.05035806  1
  Ge  Ge13  1  0.51699644  0.75000000  0.94964194  1
  Ge  Ge14  1  0.54950090  0.25000000  0.53088989  1
  Ge  Ge15  1  0.45049910  0.75000000  0.46911011  1
  O  O16  1  0.75032804  0.25000000  0.43448441  1
  O  O17  1  0.24967196  0.75000000  0.56551559  1
  O  O18  1  0.75599677  0.25000000  0.06404077  1
  O  O19  1  0.24400323  0.75000000  0.93595923  1
  O  O20  1  0.34749197  0.25000000  0.38255057  1
  O  O21  1  0.65250803  0.75000000  0.61744943  1
  O  O22  1  0.35144582  0.25000000  0.87925457  1
  O  O23  1  0.64855418  0.75000000  0.12074543  1
  O  O24  1  0.15673985  0.25000000  0.61831988  1
  O  O25  1  0.84326015  0.75000000  0.38168012  1
  O  O26  1  0.15681083  0.25000000  0.11678534  1
  O  O27  1  0.84318917  0.75000000  0.88321466  1
  O  O28  1  0.45919396  0.58476311  0.36161728  1
  O  O29  1  0.54080604  0.41523689  0.63838272  1
  O  O30  1  0.54080604  0.08476311  0.63838272  1
  O  O31  1  0.45919396  0.91523689  0.36161728  1
  O  O32  1  0.03295076  0.07096620  0.36090279  1
  O  O33  1  0.96704924  0.92903380  0.63909721  1
  O  O34  1  0.96704924  0.57096620  0.63909721  1
  O  O35  1  0.03295076  0.42903380  0.36090279  1
  O  O36  1  0.47367289  0.07328758  0.14071042  1
  O  O37  1  0.52632711  0.92671242  0.85928958  1
  O  O38  1  0.52632711  0.57328758  0.85928958  1
  O  O39  1  0.47367289  0.42671242  0.14071042  1
  O  O40  1  0.03828235  0.58512784  0.14055696  1
  O  O41  1  0.96171765  0.41487216  0.85944304  1
  O  O42  1  0.96171765  0.08512784  0.85944304  1
  O  O43  1  0.03828235  0.91487216  0.14055696  1
