# generated using pymatgen
data_K2MgGeO4
_symmetry_space_group_name_H-M   'P 1'
_cell_length_a   5.68144694
_cell_length_b   11.36805126
_cell_length_c   16.03364230
_cell_angle_alpha   90.00000000
_cell_angle_beta   90.00000000
_cell_angle_gamma   90.00000000
_symmetry_Int_Tables_number   1
_chemical_formula_structural   K2MgGeO4
_chemical_formula_sum   'K16 Mg8 Ge8 O32'
_cell_volume   1035.56453528
_cell_formula_units_Z   8
loop_
 _symmetry_equiv_pos_site_id
 _symmetry_equiv_pos_as_xyz
  1  'x, y, z'
loop_
 _atom_site_type_symbol
 _atom_site_label
 _atom_site_symmetry_multiplicity
 _atom_site_fract_x
 _atom_site_fract_y
 _atom_site_fract_z
 _atom_site_occupancy
  K  K0  1  0.96839659  0.77164964  0.62944795  1
  K  K1  1  0.03160341  0.22835036  0.12944795  1
  K  K2  1  0.03160341  0.27164964  0.62944795  1
  K  K3  1  0.96839659  0.72835036  0.12944795  1
  K  K4  1  0.98390764  0.50445793  0.75628243  1
  K  K5  1  0.01609236  0.49554207  0.25628243  1
  K  K6  1  0.01609236  0.00445793  0.75628243  1
  K  K7  1  0.98390764  0.99554207  0.25628243  1
  K  K8  1  0.46686494  0.73374044  0.00026126  1
  K  K9  1  0.53313506  0.26625956  0.50026126  1
  K  K10  1  0.53313506  0.23374044  0.00026126  1
  K  K11  1  0.46686494  0.76625956  0.50026126  1
  K  K12  1  0.48812597  0.99291450  0.87491135  1
  K  K13  1  0.51187403  0.00708550  0.37491135  1
  K  K14  1  0.51187403  0.49291450  0.87491135  1
  K  K15  1  0.48812597  0.50708550  0.37491135  1
  Mg  Mg16  1  0.97751528  0.98301540  0.00486618  1
  Mg  Mg17  1  0.02248472  0.01698460  0.50486618  1
  Mg  Mg18  1  0.02248472  0.48301540  0.00486618  1
  Mg  Mg19  1  0.97751528  0.51698460  0.50486618  1
  Mg  Mg20  1  0.48871375  0.76355940  0.75103380  1
  Mg  Mg21  1  0.51128625  0.23644060  0.25103380  1
  Mg  Mg22  1  0.51128625  0.26355940  0.75103380  1
  Mg  Mg23  1  0.48871375  0.73644060  0.25103380  1
  Ge  Ge24  1  0.47752416  0.51381350  0.62574187  1
  Ge  Ge25  1  0.52247584  0.48618650  0.12574187  1
  Ge  Ge26  1  0.52247584  0.01381350  0.62574187  1
  Ge  Ge27  1  0.47752416  0.98618650  0.12574187  1
  Ge  Ge28  1  0.99062671  0.73118640  0.88023753  1
  Ge  Ge29  1  0.00937329  0.26881360  0.38023753  1
  Ge  Ge30  1  0.00937329  0.23118640  0.88023753  1
  Ge  Ge31  1  0.99062671  0.76881360  0.38023753  1
  O  O32  1  0.41669600  0.66170477  0.65596006  1
  O  O33  1  0.58330400  0.33829523  0.15596006  1
  O  O34  1  0.58330400  0.16170477  0.65596006  1
  O  O35  1  0.41669600  0.83829523  0.15596006  1
  O  O36  1  0.74039869  0.69367217  0.81888059  1
  O  O37  1  0.25960131  0.30632783  0.31888059  1
  O  O38  1  0.25960131  0.19367217  0.81888059  1
  O  O39  1  0.74039869  0.80632783  0.31888059  1
  O  O40  1  0.88550479  0.40332006  0.41724676  1
  O  O41  1  0.11449521  0.59667994  0.91724676  1
  O  O42  1  0.11449521  0.90332006  0.41724676  1
  O  O43  1  0.88550479  0.09667994  0.91724676  1
  O  O44  1  0.78264490  0.48974830  0.60523844  1
  O  O45  1  0.21735510  0.51025170  0.10523844  1
  O  O46  1  0.21735510  0.98974830  0.60523844  1
  O  O47  1  0.78264490  0.01025170  0.10523844  1
  O  O48  1  0.79091231  0.30298228  0.81876300  1
  O  O49  1  0.20908769  0.69701772  0.31876300  1
  O  O50  1  0.20908769  0.80298228  0.81876300  1
  O  O51  1  0.79091231  0.19701772  0.31876300  1
  O  O52  1  0.68862108  0.98572214  0.53314535  1
  O  O53  1  0.31137892  0.01427786  0.03314535  1
  O  O54  1  0.31137892  0.48572214  0.53314535  1
  O  O55  1  0.68862108  0.51427786  0.03314535  1
  O  O56  1  0.90928419  0.82161839  0.96627873  1
  O  O57  1  0.09071581  0.17838161  0.46627873  1
  O  O58  1  0.09071581  0.32161839  0.96627873  1
  O  O59  1  0.90928419  0.67838161  0.46627873  1
  O  O60  1  0.60806761  0.91504125  0.70700471  1
  O  O61  1  0.39193239  0.08495875  0.20700471  1
  O  O62  1  0.39193239  0.41504125  0.70700471  1
  O  O63  1  0.60806761  0.58495875  0.20700471  1
