# generated using pymatgen
data_CsCa(SeO4)3
_symmetry_space_group_name_H-M   'P 1'
_cell_length_a   6.06374041
_cell_length_b   8.75557430
_cell_length_c   11.96146017
_cell_angle_alpha   106.64878713
_cell_angle_beta   90.00000000
_cell_angle_gamma   90.00000000
_symmetry_Int_Tables_number   1
_chemical_formula_structural   CsCa(SeO4)3
_chemical_formula_sum   'Cs2 Ca2 Se6 O24'
_cell_volume   608.43017143
_cell_formula_units_Z   2
loop_
 _symmetry_equiv_pos_site_id
 _symmetry_equiv_pos_as_xyz
  1  'x, y, z'
loop_
 _atom_site_type_symbol
 _atom_site_label
 _atom_site_symmetry_multiplicity
 _atom_site_fract_x
 _atom_site_fract_y
 _atom_site_fract_z
 _atom_site_occupancy
  Cs  Cs0  1  0.75000000  0.13412274  0.27319750  1
  Cs  Cs1  1  0.25000000  0.86587726  0.72680250  1
  Ca  Ca2  1  0.75000000  0.61470832  0.14847538  1
  Ca  Ca3  1  0.25000000  0.38529168  0.85152462  1
  Se  Se4  1  0.25000000  0.42534107  0.19885797  1
  Se  Se5  1  0.75000000  0.57465893  0.80114203  1
  Se  Se6  1  0.75000000  0.78002848  0.46871481  1
  Se  Se7  1  0.25000000  0.21997152  0.53128519  1
  Se  Se8  1  0.75000000  0.18993001  0.94179845  1
  Se  Se9  1  0.25000000  0.81006999  0.05820155  1
  O  O10  1  0.25000000  0.23157150  0.19722973  1
  O  O11  1  0.75000000  0.76842850  0.80277027  1
  O  O12  1  0.75000000  0.54743963  0.93402427  1
  O  O13  1  0.25000000  0.45256037  0.06597573  1
  O  O14  1  0.48058553  0.51097917  0.26694256  1
  O  O15  1  0.98058553  0.48902083  0.73305744  1
  O  O16  1  0.51941447  0.48902083  0.73305744  1
  O  O17  1  0.01941447  0.51097917  0.26694256  1
  O  O18  1  0.25000000  0.05236994  0.41899911  1
  O  O19  1  0.75000000  0.94763006  0.58100089  1
  O  O20  1  0.75000000  0.81521989  0.33999176  1
  O  O21  1  0.25000000  0.18478011  0.66000824  1
  O  O22  1  0.47947362  0.31769499  0.51009065  1
  O  O23  1  0.97947362  0.68230501  0.48990935  1
  O  O24  1  0.52052638  0.68230501  0.48990935  1
  O  O25  1  0.02052638  0.31769499  0.51009065  1
  O  O26  1  0.75000000  0.01624491  0.98069569  1
  O  O27  1  0.25000000  0.98375509  0.01930431  1
  O  O28  1  0.75000000  0.32441266  0.07354214  1
  O  O29  1  0.25000000  0.67558734  0.92645786  1
  O  O30  1  0.52308717  0.19890328  0.86664036  1
  O  O31  1  0.02308717  0.80109672  0.13335964  1
  O  O32  1  0.47691283  0.80109672  0.13335964  1
  O  O33  1  0.97691283  0.19890328  0.86664036  1
