# generated using pymatgen
data_Hf3(Mn2Si3)2
_symmetry_space_group_name_H-M   'P 1'
_cell_length_a   5.03105160
_cell_length_b   16.95296300
_cell_length_c   16.95296300
_cell_angle_alpha   90.00000000
_cell_angle_beta   90.00000000
_cell_angle_gamma   90.00000000
_symmetry_Int_Tables_number   1
_chemical_formula_structural   Hf3(Mn2Si3)2
_chemical_formula_sum   'Hf24 Mn32 Si48'
_cell_volume   1445.93909398
_cell_formula_units_Z   8
loop_
 _symmetry_equiv_pos_site_id
 _symmetry_equiv_pos_as_xyz
  1  'x, y, z'
loop_
 _atom_site_type_symbol
 _atom_site_label
 _atom_site_symmetry_multiplicity
 _atom_site_fract_x
 _atom_site_fract_y
 _atom_site_fract_z
 _atom_site_occupancy
  Hf  Hf0  1  -0.00000000  0.47249276  0.20995786  1
  Hf  Hf1  1  -0.00000000  0.52750724  0.79004214  1
  Hf  Hf2  1  0.50000000  0.79004214  0.47249276  1
  Hf  Hf3  1  -0.00000000  0.02750724  0.70995786  1
  Hf  Hf4  1  0.50000000  0.20995786  0.52750724  1
  Hf  Hf5  1  -0.00000000  0.97249276  0.29004214  1
  Hf  Hf6  1  0.50000000  0.70995786  0.97249276  1
  Hf  Hf7  1  0.50000000  0.29004214  0.02750724  1
  Hf  Hf8  1  -0.00000000  0.28321304  0.29823621  1
  Hf  Hf9  1  -0.00000000  0.71678696  0.70176379  1
  Hf  Hf10  1  0.50000000  0.70176379  0.28321304  1
  Hf  Hf11  1  -0.00000000  0.21678696  0.79823621  1
  Hf  Hf12  1  0.50000000  0.29823621  0.71678696  1
  Hf  Hf13  1  -0.00000000  0.78321304  0.20176379  1
  Hf  Hf14  1  0.50000000  0.79823621  0.78321304  1
  Hf  Hf15  1  0.50000000  0.20176379  0.21678696  1
  Hf  Hf16  1  -0.00000000  0.20332583  0.10143059  1
  Hf  Hf17  1  -0.00000000  0.79667417  0.89856941  1
  Hf  Hf18  1  0.50000000  0.89856941  0.20332583  1
  Hf  Hf19  1  -0.00000000  0.29667417  0.60143059  1
  Hf  Hf20  1  0.50000000  0.10143059  0.79667417  1
  Hf  Hf21  1  -0.00000000  0.70332583  0.39856941  1
  Hf  Hf22  1  0.50000000  0.60143059  0.70332583  1
  Hf  Hf23  1  0.50000000  0.39856941  0.29667417  1
  Mn  Mn24  1  0.25000000  0.62490319  0.12490319  1
  Mn  Mn25  1  0.75000000  0.37509681  0.87509681  1
  Mn  Mn26  1  0.25000000  0.37509681  0.87509681  1
  Mn  Mn27  1  0.75000000  0.87509681  0.62490319  1
  Mn  Mn28  1  0.75000000  0.62490319  0.12490319  1
  Mn  Mn29  1  0.25000000  0.12490319  0.37509681  1
  Mn  Mn30  1  0.75000000  0.12490319  0.37509681  1
  Mn  Mn31  1  0.25000000  0.87509681  0.62490319  1
  Mn  Mn32  1  0.24995007  0.05177966  0.15496080  1
  Mn  Mn33  1  0.75004993  0.94822034  0.84503920  1
  Mn  Mn34  1  0.24995007  0.94822034  0.84503920  1
  Mn  Mn35  1  0.74995007  0.84503920  0.05177966  1
  Mn  Mn36  1  0.75004993  0.44822034  0.65496080  1
  Mn  Mn37  1  0.75004993  0.05177966  0.15496080  1
  Mn  Mn38  1  0.25004993  0.15496080  0.94822034  1
  Mn  Mn39  1  0.24995007  0.55177966  0.34503920  1
  Mn  Mn40  1  0.74995007  0.15496080  0.94822034  1
  Mn  Mn41  1  0.75004993  0.55177966  0.34503920  1
  Mn  Mn42  1  0.25004993  0.84503920  0.05177966  1
  Mn  Mn43  1  0.24995007  0.44822034  0.65496080  1
  Mn  Mn44  1  0.25004993  0.65496080  0.55177966  1
  Mn  Mn45  1  0.74995007  0.34503920  0.44822034  1
  Mn  Mn46  1  0.25004993  0.34503920  0.44822034  1
  Mn  Mn47  1  0.74995007  0.65496080  0.55177966  1
  Mn  Mn48  1  -0.00000000  0.38502485  0.03971656  1
  Mn  Mn49  1  -0.00000000  0.61497515  0.96028344  1
  Mn  Mn50  1  0.50000000  0.96028344  0.38502485  1
  Mn  Mn51  1  -0.00000000  0.11497515  0.53971656  1
  Mn  Mn52  1  0.50000000  0.03971656  0.61497515  1
  Mn  Mn53  1  -0.00000000  0.88502485  0.46028344  1
  Mn  Mn54  1  0.50000000  0.53971656  0.88502485  1
  Mn  Mn55  1  0.50000000  0.46028344  0.11497515  1
  Si  Si56  1  -0.00000000  0.02165722  0.43536917  1
  Si  Si57  1  -0.00000000  0.97834278  0.56463083  1
  Si  Si58  1  0.50000000  0.56463083  0.02165722  1
  Si  Si59  1  -0.00000000  0.47834278  0.93536917  1
  Si  Si60  1  0.50000000  0.43536917  0.97834278  1
  Si  Si61  1  -0.00000000  0.52165722  0.06463083  1
  Si  Si62  1  0.50000000  0.93536917  0.52165722  1
  Si  Si63  1  0.50000000  0.06463083  0.47834278  1
  Si  Si64  1  -0.00000000  0.06214613  0.03078566  1
  Si  Si65  1  -0.00000000  0.93785387  0.96921434  1
  Si  Si66  1  0.50000000  0.96921434  0.06214613  1
  Si  Si67  1  -0.00000000  0.43785387  0.53078566  1
  Si  Si68  1  0.50000000  0.03078566  0.93785387  1
  Si  Si69  1  -0.00000000  0.56214613  0.46921434  1
  Si  Si70  1  0.50000000  0.53078566  0.56214613  1
  Si  Si71  1  0.50000000  0.46921434  0.43785387  1
  Si  Si72  1  -0.00000000  0.43086655  0.36284740  1
  Si  Si73  1  -0.00000000  0.56913345  0.63715260  1
  Si  Si74  1  0.50000000  0.63715260  0.43086655  1
  Si  Si75  1  -0.00000000  0.06913345  0.86284740  1
  Si  Si76  1  0.50000000  0.36284740  0.56913345  1
  Si  Si77  1  -0.00000000  0.93086655  0.13715260  1
  Si  Si78  1  0.50000000  0.86284740  0.93086655  1
  Si  Si79  1  0.50000000  0.13715260  0.06913345  1
  Si  Si80  1  -0.00000000  0.22423186  0.45163531  1
  Si  Si81  1  -0.00000000  0.77576814  0.54836469  1
  Si  Si82  1  0.50000000  0.54836469  0.22423186  1
  Si  Si83  1  -0.00000000  0.27576814  0.95163531  1
  Si  Si84  1  0.50000000  0.45163531  0.77576814  1
  Si  Si85  1  -0.00000000  0.72423186  0.04836469  1
  Si  Si86  1  0.50000000  0.95163531  0.72423186  1
  Si  Si87  1  0.50000000  0.04836469  0.27576814  1
  Si  Si88  1  0.25000000  0.16055759  0.66055759  1
  Si  Si89  1  0.75000000  0.83944241  0.33944241  1
  Si  Si90  1  0.25000000  0.83944241  0.33944241  1
  Si  Si91  1  0.75000000  0.33944241  0.16055759  1
  Si  Si92  1  0.75000000  0.16055759  0.66055759  1
  Si  Si93  1  0.25000000  0.66055759  0.83944241  1
  Si  Si94  1  0.75000000  0.66055759  0.83944241  1
  Si  Si95  1  0.25000000  0.33944241  0.16055759  1
  Si  Si96  1  -0.00000000  0.13049351  0.24893564  1
  Si  Si97  1  -0.00000000  0.86950649  0.75106436  1
  Si  Si98  1  0.50000000  0.75106436  0.13049351  1
  Si  Si99  1  -0.00000000  0.36950649  0.74893564  1
  Si  Si100  1  0.50000000  0.24893564  0.86950649  1
  Si  Si101  1  -0.00000000  0.63049351  0.25106436  1
  Si  Si102  1  0.50000000  0.74893564  0.63049351  1
  Si  Si103  1  0.50000000  0.25106436  0.36950649  1
