# generated using pymatgen
data_Eu2B2O5
_symmetry_space_group_name_H-M   'P 1'
_cell_length_a   5.36769553
_cell_length_b   7.77066917
_cell_length_c   11.96704358
_cell_angle_alpha   92.91678904
_cell_angle_beta   90.00000000
_cell_angle_gamma   90.00000000
_symmetry_Int_Tables_number   1
_chemical_formula_structural   Eu2B2O5
_chemical_formula_sum   'Eu8 B8 O20'
_cell_volume   498.50574501
_cell_formula_units_Z   4
loop_
 _symmetry_equiv_pos_site_id
 _symmetry_equiv_pos_as_xyz
  1  'x, y, z'
loop_
 _atom_site_type_symbol
 _atom_site_label
 _atom_site_symmetry_multiplicity
 _atom_site_fract_x
 _atom_site_fract_y
 _atom_site_fract_z
 _atom_site_occupancy
  Eu  Eu0  1  0.90925605  0.87720728  0.66151444  1
  Eu  Eu1  1  0.09074395  0.12279272  0.33848556  1
  Eu  Eu2  1  0.40925605  0.12279272  0.83848556  1
  Eu  Eu3  1  0.59074395  0.87720728  0.16151444  1
  Eu  Eu4  1  0.44912616  0.61681443  0.86648155  1
  Eu  Eu5  1  0.55087384  0.38318557  0.13351845  1
  Eu  Eu6  1  0.94912616  0.38318557  0.63351845  1
  Eu  Eu7  1  0.05087384  0.61681443  0.36648155  1
  B  B8  1  0.94999778  0.33901886  0.91576074  1
  B  B9  1  0.05000222  0.66098114  0.08423926  1
  B  B10  1  0.44999778  0.66098114  0.58423926  1
  B  B11  1  0.55000222  0.33901886  0.41576074  1
  B  B12  1  0.92739829  0.83970365  0.90564678  1
  B  B13  1  0.07260171  0.16029635  0.09435322  1
  B  B14  1  0.42739829  0.16029635  0.59435322  1
  B  B15  1  0.57260171  0.83970365  0.40564678  1
  O  O16  1  0.70678744  0.89205574  0.86022023  1
  O  O17  1  0.29321256  0.10794426  0.13977977  1
  O  O18  1  0.20678744  0.10794426  0.63977977  1
  O  O19  1  0.79321256  0.89205574  0.36022023  1
  O  O20  1  0.14876287  0.85784942  0.85129785  1
  O  O21  1  0.85123713  0.14215058  0.14870215  1
  O  O22  1  0.64876287  0.14215058  0.64870215  1
  O  O23  1  0.35123713  0.85784942  0.35129785  1
  O  O24  1  0.59951142  0.75457820  0.50746630  1
  O  O25  1  0.40048858  0.24542180  0.49253370  1
  O  O26  1  0.09951142  0.24542180  0.99253370  1
  O  O27  1  0.90048858  0.75457820  0.00746630  1
  O  O28  1  0.69738999  0.35520633  0.92874264  1
  O  O29  1  0.30261001  0.64479367  0.07125736  1
  O  O30  1  0.19738999  0.64479367  0.57125736  1
  O  O31  1  0.80261001  0.35520633  0.42874264  1
  O  O32  1  0.59139342  0.59902445  0.66892764  1
  O  O33  1  0.40860658  0.40097555  0.33107236  1
  O  O34  1  0.09139342  0.40097555  0.83107236  1
  O  O35  1  0.90860658  0.59902445  0.16892764  1
