# generated using pymatgen
data_GaNi10P3
_symmetry_space_group_name_H-M   'P 1'
_cell_length_a   7.61904412
_cell_length_b   7.61904412
_cell_length_c   9.42113069
_cell_angle_alpha   90.00000000
_cell_angle_beta   90.00000000
_cell_angle_gamma   120.00000209
_symmetry_Int_Tables_number   1
_chemical_formula_structural   GaNi10P3
_chemical_formula_sum   'Ga3 Ni30 P9'
_cell_volume   473.62501050
_cell_formula_units_Z   3
loop_
 _symmetry_equiv_pos_site_id
 _symmetry_equiv_pos_as_xyz
  1  'x, y, z'
loop_
 _atom_site_type_symbol
 _atom_site_label
 _atom_site_symmetry_multiplicity
 _atom_site_fract_x
 _atom_site_fract_y
 _atom_site_fract_z
 _atom_site_occupancy
  Ga  Ga0  1  0.66666700  0.33333300  0.63961435  1
  Ga  Ga1  1  0.33333300  0.66666700  0.36038565  1
  Ga  Ga2  1  0.00000000  -0.00000000  -0.00000000  1
  Ni  Ni3  1  0.66012331  0.66012331  0.50000000  1
  Ni  Ni4  1  0.33987669  0.33987669  0.50000000  1
  Ni  Ni5  1  0.00000000  0.33987669  0.50000000  1
  Ni  Ni6  1  1.00000000  0.66012331  0.50000000  1
  Ni  Ni7  1  0.33987669  0.00000000  0.50000000  1
  Ni  Ni8  1  0.66012331  1.00000000  0.50000000  1
  Ni  Ni9  1  0.00000000  -0.00000000  0.61988389  1
  Ni  Ni10  1  0.00000000  -0.00000000  0.38011611  1
  Ni  Ni11  1  0.18505374  0.37010748  0.93245530  1
  Ni  Ni12  1  0.81494626  0.62989252  0.06754470  1
  Ni  Ni13  1  0.18505374  0.81494626  0.93245530  1
  Ni  Ni14  1  0.81494626  0.18505374  0.06754470  1
  Ni  Ni15  1  0.62989252  0.81494626  0.93245530  1
  Ni  Ni16  1  0.37010748  0.18505374  0.06754470  1
  Ni  Ni17  1  0.66666700  0.33333300  0.89888479  1
  Ni  Ni18  1  0.33333300  0.66666700  0.10111521  1
  Ni  Ni19  1  0.49401895  0.98803789  0.75647186  1
  Ni  Ni20  1  0.50598105  0.01196211  0.24352814  1
  Ni  Ni21  1  0.49401895  0.50598105  0.75647186  1
  Ni  Ni22  1  0.50598105  0.49401895  0.24352814  1
  Ni  Ni23  1  0.01196211  0.50598105  0.75647186  1
  Ni  Ni24  1  0.98803789  0.49401895  0.24352814  1
  Ni  Ni25  1  0.66666700  0.33333300  0.38980324  1
  Ni  Ni26  1  0.33333300  0.66666700  0.61019676  1
  Ni  Ni27  1  0.86460093  0.72920187  0.80085312  1
  Ni  Ni28  1  0.13539907  0.27079813  0.19914688  1
  Ni  Ni29  1  0.86460093  0.13539907  0.80085312  1
  Ni  Ni30  1  0.13539907  0.86460093  0.19914688  1
  Ni  Ni31  1  0.27079813  0.13539907  0.80085312  1
  Ni  Ni32  1  0.72920187  0.86460093  0.19914688  1
  P  P33  1  0.50000000  0.50000000  -0.00000000  1
  P  P34  1  0.00000000  0.50000000  -0.00000000  1
  P  P35  1  0.50000000  -0.00000000  -0.00000000  1
  P  P36  1  0.16543103  0.33086205  0.69090437  1
  P  P37  1  0.83456897  0.66913795  0.30909563  1
  P  P38  1  0.16543103  0.83456897  0.69090437  1
  P  P39  1  0.83456897  0.16543103  0.30909563  1
  P  P40  1  0.66913795  0.83456897  0.69090437  1
  P  P41  1  0.33086205  0.16543103  0.30909563  1
