# generated using pymatgen
data_Ho6Ti4Al43
_symmetry_space_group_name_H-M   'P 1'
_cell_length_a   11.08066481
_cell_length_b   11.08066481
_cell_length_c   17.75162869
_cell_angle_alpha   90.00000000
_cell_angle_beta   90.00000000
_cell_angle_gamma   120.00000173
_symmetry_Int_Tables_number   1
_chemical_formula_structural   Ho6Ti4Al43
_chemical_formula_sum   'Ho12 Ti8 Al86'
_cell_volume   1887.55869262
_cell_formula_units_Z   2
loop_
 _symmetry_equiv_pos_site_id
 _symmetry_equiv_pos_as_xyz
  1  'x, y, z'
loop_
 _atom_site_type_symbol
 _atom_site_label
 _atom_site_symmetry_multiplicity
 _atom_site_fract_x
 _atom_site_fract_y
 _atom_site_fract_z
 _atom_site_occupancy
  Ho  Ho0  1  0.46919952  0.46919952  0.90370339  1
  Ho  Ho1  1  0.53080048  0.53080048  0.09629661  1
  Ho  Ho2  1  1.00000000  0.53080048  0.90370339  1
  Ho  Ho3  1  0.53080048  0.53080048  0.40370339  1
  Ho  Ho4  1  1.00000000  0.53080048  0.59629661  1
  Ho  Ho5  1  0.00000000  0.46919952  0.09629661  1
  Ho  Ho6  1  0.46919952  0.46919952  0.59629661  1
  Ho  Ho7  1  0.00000000  0.46919952  0.40370339  1
  Ho  Ho8  1  0.53080048  1.00000000  0.90370339  1
  Ho  Ho9  1  0.46919952  0.00000000  0.09629661  1
  Ho  Ho10  1  0.46919952  0.00000000  0.40370339  1
  Ho  Ho11  1  0.53080048  1.00000000  0.59629661  1
  Ti  Ti12  1  -0.00000000  0.00000000  -0.00000000  1
  Ti  Ti13  1  -0.00000000  0.00000000  0.50000000  1
  Ti  Ti14  1  0.27135018  0.27135018  0.75000000  1
  Ti  Ti15  1  0.72864982  0.72864982  0.25000000  1
  Ti  Ti16  1  1.00000000  0.72864982  0.75000000  1
  Ti  Ti17  1  0.00000000  0.27135018  0.25000000  1
  Ti  Ti18  1  0.72864982  1.00000000  0.75000000  1
  Ti  Ti19  1  0.27135018  0.00000000  0.25000000  1
  Al  Al20  1  0.85073687  0.44771470  0.75000000  1
  Al  Al21  1  0.14926313  0.55228530  0.25000000  1
  Al  Al22  1  0.59697783  0.14926313  0.75000000  1
  Al  Al23  1  0.40302217  0.55228530  0.75000000  1
  Al  Al24  1  0.40302217  0.85073687  0.25000000  1
  Al  Al25  1  0.59697783  0.44771470  0.25000000  1
  Al  Al26  1  0.55228530  0.40302217  0.75000000  1
  Al  Al27  1  0.44771470  0.85073687  0.75000000  1
  Al  Al28  1  0.44771470  0.59697783  0.25000000  1
  Al  Al29  1  0.55228530  0.14926313  0.25000000  1
  Al  Al30  1  0.14926313  0.59697783  0.75000000  1
  Al  Al31  1  0.85073687  0.40302217  0.25000000  1
  Al  Al32  1  0.84209934  0.84209934  0.38438813  1
  Al  Al33  1  0.15790066  0.15790066  0.61561187  1
  Al  Al34  1  1.00000000  0.15790066  0.38438813  1
  Al  Al35  1  0.15790066  0.15790066  0.88438813  1
  Al  Al36  1  1.00000000  0.15790066  0.11561187  1
  Al  Al37  1  0.00000000  0.84209934  0.61561187  1
  Al  Al38  1  0.84209934  0.84209934  0.11561187  1
  Al  Al39  1  0.00000000  0.84209934  0.88438813  1
  Al  Al40  1  0.15790066  1.00000000  0.38438813  1
  Al  Al41  1  0.84209934  0.00000000  0.61561187  1
  Al  Al42  1  0.84209934  0.00000000  0.88438813  1
  Al  Al43  1  0.15790066  1.00000000  0.11561187  1
  Al  Al44  1  0.75262661  0.24737339  -0.00000000  1
  Al  Al45  1  0.24737339  0.75262661  -0.00000000  1
  Al  Al46  1  0.49474678  0.24737339  -0.00000000  1
  Al  Al47  1  0.24737339  0.75262661  0.50000000  1
  Al  Al48  1  0.50525322  0.75262661  0.50000000  1
  Al  Al49  1  0.50525322  0.75262661  -0.00000000  1
  Al  Al50  1  0.75262661  0.24737339  0.50000000  1
  Al  Al51  1  0.49474678  0.24737339  0.50000000  1
  Al  Al52  1  0.75262661  0.50525322  -0.00000000  1
  Al  Al53  1  0.24737339  0.49474678  -0.00000000  1
  Al  Al54  1  0.24737339  0.49474678  0.50000000  1
  Al  Al55  1  0.75262661  0.50525322  0.50000000  1
  Al  Al56  1  0.85338450  0.85338450  0.75000000  1
  Al  Al57  1  0.14661550  0.14661550  0.25000000  1
  Al  Al58  1  1.00000000  0.14661550  0.75000000  1
  Al  Al59  1  0.00000000  0.85338450  0.25000000  1
  Al  Al60  1  0.14661550  1.00000000  0.75000000  1
  Al  Al61  1  0.85338450  0.00000000  0.25000000  1
  Al  Al62  1  0.66666700  0.33333300  0.87377180  1
  Al  Al63  1  0.33333300  0.66666700  0.12622820  1
  Al  Al64  1  0.33333300  0.66666700  0.37377180  1
  Al  Al65  1  0.33333300  0.66666700  0.62622820  1
  Al  Al66  1  0.66666700  0.33333300  0.62622820  1
  Al  Al67  1  0.66666700  0.33333300  0.37377180  1
  Al  Al68  1  0.66666700  0.33333300  0.12622820  1
  Al  Al69  1  0.33333300  0.66666700  0.87377180  1
  Al  Al70  1  0.74567513  0.74567513  0.97058990  1
  Al  Al71  1  0.25432487  0.25432487  0.02941010  1
  Al  Al72  1  1.00000000  0.25432487  0.97058990  1
  Al  Al73  1  0.25432487  0.25432487  0.47058990  1
  Al  Al74  1  1.00000000  0.25432487  0.52941010  1
  Al  Al75  1  0.00000000  0.74567513  0.02941010  1
  Al  Al76  1  0.74567513  0.74567513  0.52941010  1
  Al  Al77  1  0.00000000  0.74567513  0.47058990  1
  Al  Al78  1  0.25432487  1.00000000  0.97058990  1
  Al  Al79  1  0.74567513  0.00000000  0.02941010  1
  Al  Al80  1  0.74567513  0.00000000  0.47058990  1
  Al  Al81  1  0.25432487  1.00000000  0.52941010  1
  Al  Al82  1  0.84154989  0.23521077  0.83555792  1
  Al  Al83  1  0.15845011  0.76478923  0.16444208  1
  Al  Al84  1  0.39366087  0.15845011  0.83555792  1
  Al  Al85  1  0.15845011  0.76478923  0.33555792  1
  Al  Al86  1  0.60633913  0.76478923  0.66444208  1
  Al  Al87  1  0.60633913  0.84154989  0.16444208  1
  Al  Al88  1  0.84154989  0.23521077  0.66444208  1
  Al  Al89  1  0.39366087  0.23521077  0.33555792  1
  Al  Al90  1  0.76478923  0.60633913  0.83555792  1
  Al  Al91  1  0.60633913  0.84154989  0.33555792  1
  Al  Al92  1  0.23521077  0.84154989  0.66444208  1
  Al  Al93  1  0.23521077  0.39366087  0.16444208  1
  Al  Al94  1  0.39366087  0.15845011  0.66444208  1
  Al  Al95  1  0.76478923  0.15845011  0.33555792  1
  Al  Al96  1  0.39366087  0.23521077  0.16444208  1
  Al  Al97  1  0.60633913  0.76478923  0.83555792  1
  Al  Al98  1  0.23521077  0.39366087  0.33555792  1
  Al  Al99  1  0.76478923  0.15845011  0.16444208  1
  Al  Al100  1  0.76478923  0.60633913  0.66444208  1
  Al  Al101  1  0.23521077  0.84154989  0.83555792  1
  Al  Al102  1  0.15845011  0.39366087  0.66444208  1
  Al  Al103  1  0.84154989  0.60633913  0.33555792  1
  Al  Al104  1  0.84154989  0.60633913  0.16444208  1
  Al  Al105  1  0.15845011  0.39366087  0.83555792  1
