# generated using pymatgen
data_Ho4MgRu
_symmetry_space_group_name_H-M   'P 1'
_cell_length_a   9.66888397
_cell_length_b   9.66888397
_cell_length_c   9.66888397
_cell_angle_alpha   60.00000000
_cell_angle_beta   60.00000000
_cell_angle_gamma   60.00000000
_symmetry_Int_Tables_number   1
_chemical_formula_structural   Ho4MgRu
_chemical_formula_sum   'Ho16 Mg4 Ru4'
_cell_volume   639.16656317
_cell_formula_units_Z   4
loop_
 _symmetry_equiv_pos_site_id
 _symmetry_equiv_pos_as_xyz
  1  'x, y, z'
loop_
 _atom_site_type_symbol
 _atom_site_label
 _atom_site_symmetry_multiplicity
 _atom_site_fract_x
 _atom_site_fract_y
 _atom_site_fract_z
 _atom_site_occupancy
  Ho  Ho0  1  0.65632392  0.65632392  0.65632392  1
  Ho  Ho1  1  0.03102824  0.65632392  0.65632392  1
  Ho  Ho2  1  0.65632392  0.03102824  0.65632392  1
  Ho  Ho3  1  0.65632392  0.65632392  0.03102824  1
  Ho  Ho4  1  0.81420230  0.81420230  0.18579770  1
  Ho  Ho5  1  0.18579770  0.18579770  0.81420230  1
  Ho  Ho6  1  0.81420230  0.18579770  0.81420230  1
  Ho  Ho7  1  0.18579770  0.81420230  0.18579770  1
  Ho  Ho8  1  0.18579770  0.81420230  0.81420230  1
  Ho  Ho9  1  0.81420230  0.18579770  0.18579770  1
  Ho  Ho10  1  0.43697154  0.43697154  0.06302846  1
  Ho  Ho11  1  0.06302846  0.06302846  0.43697154  1
  Ho  Ho12  1  0.43697154  0.06302846  0.43697154  1
  Ho  Ho13  1  0.06302846  0.43697154  0.06302846  1
  Ho  Ho14  1  0.06302846  0.43697154  0.43697154  1
  Ho  Ho15  1  0.43697154  0.06302846  0.06302846  1
  Mg  Mg16  1  0.42097636  0.42097636  0.42097636  1
  Mg  Mg17  1  0.73707093  0.42097636  0.42097636  1
  Mg  Mg18  1  0.42097636  0.73707093  0.42097636  1
  Mg  Mg19  1  0.42097636  0.42097636  0.73707093  1
  Ru  Ru20  1  0.86044060  0.86044060  0.86044060  1
  Ru  Ru21  1  0.41867821  0.86044060  0.86044060  1
  Ru  Ru22  1  0.86044060  0.41867821  0.86044060  1
  Ru  Ru23  1  0.86044060  0.86044060  0.41867821  1
