# generated using pymatgen
data_In2(SeO4)3
_symmetry_space_group_name_H-M   'P 1'
_cell_length_a   9.06692178
_cell_length_b   9.31212535
_cell_length_c   12.70457979
_cell_angle_alpha   90.00000000
_cell_angle_beta   90.83029366
_cell_angle_gamma   90.00000000
_symmetry_Int_Tables_number   1
_chemical_formula_structural   In2(SeO4)3
_chemical_formula_sum   'In8 Se12 O48'
_cell_volume   1072.56441771
_cell_formula_units_Z   4
loop_
 _symmetry_equiv_pos_site_id
 _symmetry_equiv_pos_as_xyz
  1  'x, y, z'
loop_
 _atom_site_type_symbol
 _atom_site_label
 _atom_site_symmetry_multiplicity
 _atom_site_fract_x
 _atom_site_fract_y
 _atom_site_fract_z
 _atom_site_occupancy
  In  In0  1  0.25152996  0.53270113  0.38529197  1
  In  In1  1  0.74847004  0.46729887  0.61470803  1
  In  In2  1  0.24847004  0.03270113  0.11470803  1
  In  In3  1  0.75152996  0.96729887  0.88529197  1
  In  In4  1  0.74961651  0.53553997  0.11490890  1
  In  In5  1  0.25038349  0.46446003  0.88509110  1
  In  In6  1  0.75038349  0.03553997  0.38509110  1
  In  In7  1  0.24961651  0.96446003  0.61490890  1
  Se  Se8  1  0.10953945  0.38414199  0.14659022  1
  Se  Se9  1  0.89046055  0.61585801  0.85340978  1
  Se  Se10  1  0.39046055  0.88414199  0.35340978  1
  Se  Se11  1  0.60953945  0.11585801  0.64659022  1
  Se  Se12  1  0.89764121  0.88034797  0.15378116  1
  Se  Se13  1  0.10235879  0.11965203  0.84621884  1
  Se  Se14  1  0.60235879  0.38034797  0.34621884  1
  Se  Se15  1  0.39764121  0.61965203  0.65378116  1
  Se  Se16  1  0.46076085  0.75211769  0.00402956  1
  Se  Se17  1  0.53923915  0.24788231  0.99597044  1
  Se  Se18  1  0.03923915  0.25211769  0.49597044  1
  Se  Se19  1  0.96076085  0.74788231  0.50402956  1
  O  O20  1  0.15067443  0.22012499  0.19153188  1
  O  O21  1  0.84932557  0.77987501  0.80846812  1
  O  O22  1  0.34932557  0.72012499  0.30846812  1
  O  O23  1  0.65067443  0.27987501  0.69153188  1
  O  O24  1  0.04460868  0.62157499  0.43395761  1
  O  O25  1  0.95539132  0.37842501  0.56604239  1
  O  O26  1  0.45539132  0.12157499  0.06604239  1
  O  O27  1  0.54460868  0.87842501  0.93395761  1
  O  O28  1  0.56700161  0.69396789  0.10420796  1
  O  O29  1  0.43299839  0.30603211  0.89579204  1
  O  O30  1  0.93299839  0.19396789  0.39579204  1
  O  O31  1  0.06700161  0.80603211  0.60420796  1
  O  O32  1  0.07103927  0.91807347  0.18945868  1
  O  O33  1  0.92896073  0.08192653  0.81054132  1
  O  O34  1  0.42896073  0.41807347  0.31054132  1
  O  O35  1  0.57103927  0.58192653  0.68945868  1
  O  O36  1  0.12438617  0.50679528  0.24129135  1
  O  O37  1  0.87561383  0.49320472  0.75870865  1
  O  O38  1  0.37561383  0.00679528  0.25870865  1
  O  O39  1  0.62438617  0.99320472  0.74129135  1
  O  O40  1  0.91886651  0.87899329  0.41881352  1
  O  O41  1  0.08113349  0.12100671  0.58118648  1
  O  O42  1  0.58113349  0.37899329  0.08118648  1
  O  O43  1  0.41886651  0.62100671  0.91881352  1
  O  O44  1  0.93381147  0.38353047  0.10279257  1
  O  O45  1  0.06618853  0.61646953  0.89720743  1
  O  O46  1  0.56618853  0.88353047  0.39720743  1
  O  O47  1  0.43381147  0.11646953  0.60279257  1
  O  O48  1  0.77958979  0.98660527  0.21793912  1
  O  O49  1  0.22041021  0.01339473  0.78206088  1
  O  O50  1  0.72041021  0.48660527  0.28206088  1
  O  O51  1  0.27958979  0.51339473  0.71793912  1
  O  O52  1  0.30515430  0.81976077  0.05351007  1
  O  O53  1  0.69484570  0.18023923  0.94648993  1
  O  O54  1  0.19484570  0.31976077  0.44648993  1
  O  O55  1  0.80515430  0.68023923  0.55351007  1
  O  O56  1  0.87388554  0.90429054  0.02503071  1
  O  O57  1  0.12611446  0.09570946  0.97496929  1
  O  O58  1  0.62611446  0.40429054  0.47496929  1
  O  O59  1  0.37388554  0.59570946  0.52503071  1
  O  O60  1  0.87729865  0.70668898  0.18406308  1
  O  O61  1  0.12270135  0.29331102  0.81593692  1
  O  O62  1  0.62270135  0.20668898  0.31593692  1
  O  O63  1  0.37729865  0.79331102  0.68406308  1
  O  O64  1  0.27105668  0.92747850  0.44759593  1
  O  O65  1  0.72894332  0.07252150  0.55240407  1
  O  O66  1  0.22894332  0.42747850  0.05240407  1
  O  O67  1  0.77105668  0.57252150  0.94759593  1
