# generated using pymatgen
data_Ho2MnNiO6
_symmetry_space_group_name_H-M   'P 1'
_cell_length_a   5.25962999
_cell_length_b   5.60253953
_cell_length_c   7.57565317
_cell_angle_alpha   90.00000000
_cell_angle_beta   89.25451725
_cell_angle_gamma   90.00000000
_symmetry_Int_Tables_number   1
_chemical_formula_structural   Ho2MnNiO6
_chemical_formula_sum   'Ho4 Mn2 Ni2 O12'
_cell_volume   223.21503531
_cell_formula_units_Z   2
loop_
 _symmetry_equiv_pos_site_id
 _symmetry_equiv_pos_as_xyz
  1  'x, y, z'
loop_
 _atom_site_type_symbol
 _atom_site_label
 _atom_site_symmetry_multiplicity
 _atom_site_fract_x
 _atom_site_fract_y
 _atom_site_fract_z
 _atom_site_occupancy
  Ho  Ho0  1  0.02132330  0.42931782  0.25303852  1
  Ho  Ho1  1  0.97867670  0.57068218  0.74696148  1
  Ho  Ho2  1  0.47867670  0.92931782  0.24696148  1
  Ho  Ho3  1  0.52132330  0.07068218  0.75303852  1
  Mn  Mn4  1  -0.00000000  -0.00000000  -0.00000000  1
  Mn  Mn5  1  0.50000000  0.50000000  0.50000000  1
  Ni  Ni6  1  -0.00000000  -0.00000000  0.50000000  1
  Ni  Ni7  1  0.50000000  0.50000000  -0.00000000  1
  O  O8  1  0.88737967  0.04157939  0.24230351  1
  O  O9  1  0.11262033  0.95842061  0.75769649  1
  O  O10  1  0.61262033  0.54157939  0.25769649  1
  O  O11  1  0.38737967  0.45842061  0.74230351  1
  O  O12  1  0.18533919  0.70910210  0.06158780  1
  O  O13  1  0.81466081  0.29089790  0.93841220  1
  O  O14  1  0.31466081  0.20910210  0.43841220  1
  O  O15  1  0.68533919  0.79089790  0.56158780  1
  O  O16  1  0.29866968  0.18846928  0.05187438  1
  O  O17  1  0.70133032  0.81153072  0.94812562  1
  O  O18  1  0.20133032  0.68846928  0.44812562  1
  O  O19  1  0.79866968  0.31153072  0.55187438  1
