# generated using pymatgen
data_NaLaP2H4CO7
_symmetry_space_group_name_H-M   'P 1'
_cell_length_a   7.07261421
_cell_length_b   6.96166336
_cell_length_c   15.32647883
_cell_angle_alpha   90.00000000
_cell_angle_beta   90.00000000
_cell_angle_gamma   95.27743405
_symmetry_Int_Tables_number   1
_chemical_formula_structural   NaLaP2H4CO7
_chemical_formula_sum   'Na4 La4 P8 H16 C4 O28'
_cell_volume   751.43339351
_cell_formula_units_Z   4
loop_
 _symmetry_equiv_pos_site_id
 _symmetry_equiv_pos_as_xyz
  1  'x, y, z'
loop_
 _atom_site_type_symbol
 _atom_site_label
 _atom_site_symmetry_multiplicity
 _atom_site_fract_x
 _atom_site_fract_y
 _atom_site_fract_z
 _atom_site_occupancy
  Na  Na0  1  0.20822501  0.13678226  0.53645268  1
  Na  Na1  1  0.79177499  0.36321774  0.03645268  1
  Na  Na2  1  0.79177499  0.86321774  0.46354732  1
  Na  Na3  1  0.20822501  0.63678226  0.96354732  1
  La  La4  1  0.65555471  0.42772411  0.60266909  1
  La  La5  1  0.34444529  0.07227589  0.10266909  1
  La  La6  1  0.34444529  0.57227589  0.39733091  1
  La  La7  1  0.65555471  0.92772411  0.89733091  1
  P  P8  1  0.82875285  0.36381457  0.40956684  1
  P  P9  1  0.17124715  0.13618543  0.90956684  1
  P  P10  1  0.17124715  0.63618543  0.59043316  1
  P  P11  1  0.82875285  0.86381457  0.09043316  1
  P  P12  1  0.52203806  0.90233064  0.65705295  1
  P  P13  1  0.47796194  0.59766936  0.15705295  1
  P  P14  1  0.47796194  0.09766936  0.34294705  1
  P  P15  1  0.52203806  0.40233064  0.84294705  1
  H  H16  1  0.96858663  0.20805703  0.70175558  1
  H  H17  1  0.03141337  0.29194297  0.20175558  1
  H  H18  1  0.03141337  0.79194297  0.29824442  1
  H  H19  1  0.96858663  0.70805703  0.79824442  1
  H  H20  1  0.90022465  0.12359118  0.61170551  1
  H  H21  1  0.09977535  0.37640882  0.11170551  1
  H  H22  1  0.09977535  0.87640882  0.38829449  1
  H  H23  1  0.90022465  0.62359118  0.88829449  1
  H  H24  1  0.68829399  0.32576370  0.26752861  1
  H  H25  1  0.31170601  0.17423630  0.76752861  1
  H  H26  1  0.31170601  0.67423630  0.73247139  1
  H  H27  1  0.68829399  0.82576370  0.23247139  1
  H  H28  1  0.80768335  0.12290214  0.29724687  1
  H  H29  1  0.19231665  0.37709786  0.79724687  1
  H  H30  1  0.19231665  0.87709786  0.70275313  1
  H  H31  1  0.80768335  0.62290214  0.20275313  1
  C  C32  1  0.71088030  0.22596260  0.32148343  1
  C  C33  1  0.28911970  0.27403740  0.82148343  1
  C  C34  1  0.28911970  0.77403740  0.67851657  1
  C  C35  1  0.71088030  0.72596260  0.17851657  1
  O  O36  1  0.63277900  0.77411275  0.59689328  1
  O  O37  1  0.36722100  0.72588725  0.09689328  1
  O  O38  1  0.36722100  0.22588725  0.40310672  1
  O  O39  1  0.63277900  0.27411275  0.90310672  1
  O  O40  1  0.98407316  0.53948157  0.62596786  1
  O  O41  1  0.01592684  0.96051843  0.12596786  1
  O  O42  1  0.01592684  0.46051843  0.37403214  1
  O  O43  1  0.98407316  0.03948157  0.87403214  1
  O  O44  1  0.30860965  0.48207986  0.56090851  1
  O  O45  1  0.69139035  0.01792014  0.06090851  1
  O  O46  1  0.69139035  0.51792014  0.43909149  1
  O  O47  1  0.30860965  0.98207986  0.93909149  1
  O  O48  1  0.61247949  0.43036906  0.75207689  1
  O  O49  1  0.38752051  0.06963094  0.25207689  1
  O  O50  1  0.38752051  0.56963094  0.24792311  1
  O  O51  1  0.61247949  0.93036906  0.74792311  1
  O  O52  1  0.99185512  0.10973431  0.65844452  1
  O  O53  1  0.00814488  0.39026569  0.15844452  1
  O  O54  1  0.00814488  0.89026569  0.34155548  1
  O  O55  1  0.99185512  0.60973431  0.84155548  1
  O  O56  1  0.85227230  0.22818180  0.48858886  1
  O  O57  1  0.14772770  0.27181820  0.98858886  1
  O  O58  1  0.14772770  0.77181820  0.51141114  1
  O  O59  1  0.85227230  0.72818180  0.01141114  1
  O  O60  1  0.49630804  0.09826094  0.61316551  1
  O  O61  1  0.50369196  0.40173906  0.11316551  1
  O  O62  1  0.50369196  0.90173906  0.38683449  1
  O  O63  1  0.49630804  0.59826094  0.88683449  1
