# generated using pymatgen
data_EuZrF7
_symmetry_space_group_name_H-M   'P 1'
_cell_length_a   5.81150743
_cell_length_b   6.23458717
_cell_length_c   8.44408143
_cell_angle_alpha   101.40534477
_cell_angle_beta   90.00000000
_cell_angle_gamma   90.00000000
_symmetry_Int_Tables_number   1
_chemical_formula_structural   EuZrF7
_chemical_formula_sum   'Eu2 Zr2 F14'
_cell_volume   299.90725603
_cell_formula_units_Z   2
loop_
 _symmetry_equiv_pos_site_id
 _symmetry_equiv_pos_as_xyz
  1  'x, y, z'
loop_
 _atom_site_type_symbol
 _atom_site_label
 _atom_site_symmetry_multiplicity
 _atom_site_fract_x
 _atom_site_fract_y
 _atom_site_fract_z
 _atom_site_occupancy
  Eu  Eu0  1  0.69893295  0.65606890  0.68518401  1
  Eu  Eu1  1  0.19893295  0.34393110  0.31481599  1
  Zr  Zr2  1  0.70853749  0.81242971  0.22296479  1
  Zr  Zr3  1  0.20853749  0.18757029  0.77703521  1
  F  F4  1  0.88493220  0.45115992  0.47564477  1
  F  F5  1  0.38493220  0.54884008  0.52435523  1
  F  F6  1  0.42205140  0.92513813  0.76631005  1
  F  F7  1  0.92205140  0.07486187  0.23368995  1
  F  F8  1  0.94569828  0.96721480  0.76142819  1
  F  F9  1  0.44569828  0.03278520  0.23857181  1
  F  F10  1  -0.00016691  0.45188277  0.78520488  1
  F  F11  1  0.49983309  0.54811723  0.21479512  1
  F  F12  1  0.70450205  0.75721167  0.97864325  1
  F  F13  1  0.20450205  0.24278833  0.02135675  1
  F  F14  1  0.71264688  0.85609169  0.47000473  1
  F  F15  1  0.21264688  0.14390831  0.52999527  1
  F  F16  1  0.49922567  0.37594783  0.78123507  1
  F  F17  1  0.99922567  0.62405217  0.21876493  1
