# generated using pymatgen
data_Er(Al5Ru)2
_symmetry_space_group_name_H-M   'P 1'
_cell_length_a   6.85969899
_cell_length_b   6.85969899
_cell_length_c   9.14458744
_cell_angle_alpha   90.00000000
_cell_angle_beta   90.00000000
_cell_angle_gamma   96.66869142
_symmetry_Int_Tables_number   1
_chemical_formula_structural   Er(Al5Ru)2
_chemical_formula_sum   'Er2 Al20 Ru4'
_cell_volume   427.39154189
_cell_formula_units_Z   2
loop_
 _symmetry_equiv_pos_site_id
 _symmetry_equiv_pos_as_xyz
  1  'x, y, z'
loop_
 _atom_site_type_symbol
 _atom_site_label
 _atom_site_symmetry_multiplicity
 _atom_site_fract_x
 _atom_site_fract_y
 _atom_site_fract_z
 _atom_site_occupancy
  Er  Er0  1  0.87274799  0.12725201  0.75000000  1
  Er  Er1  1  0.12725201  0.87274799  0.25000000  1
  Al  Al2  1  0.62380613  0.37619387  0.95024663  1
  Al  Al3  1  0.37619387  0.62380613  0.04975337  1
  Al  Al4  1  0.37619387  0.62380613  0.45024663  1
  Al  Al5  1  0.62380613  0.37619387  0.54975337  1
  Al  Al6  1  0.77317505  0.77317505  0.00000000  1
  Al  Al7  1  0.22682495  0.22682495  -0.00000000  1
  Al  Al8  1  0.22682495  0.22682495  0.50000000  1
  Al  Al9  1  0.77317505  0.77317505  0.50000000  1
  Al  Al10  1  0.84401961  0.15598039  0.40070528  1
  Al  Al11  1  0.15598039  0.84401961  0.59929472  1
  Al  Al12  1  0.15598039  0.84401961  0.90070528  1
  Al  Al13  1  0.84401961  0.15598039  0.09929472  1
  Al  Al14  1  0.41467454  0.13949354  0.75000000  1
  Al  Al15  1  0.58532546  0.86050646  0.25000000  1
  Al  Al16  1  0.86050646  0.58532546  0.75000000  1
  Al  Al17  1  0.13949354  0.41467454  0.25000000  1
  Al  Al18  1  0.52035163  0.77806068  0.75000000  1
  Al  Al19  1  0.47964837  0.22193932  0.25000000  1
  Al  Al20  1  0.22193932  0.47964837  0.75000000  1
  Al  Al21  1  0.77806068  0.52035163  0.25000000  1
  Ru  Ru22  1  0.50000000  0.00000000  0.00000000  1
  Ru  Ru23  1  0.50000000  0.00000000  0.50000000  1
  Ru  Ru24  1  0.00000000  0.50000000  0.50000000  1
  Ru  Ru25  1  0.00000000  0.50000000  0.00000000  1
