# generated using pymatgen
data_ErB7Mo3
_symmetry_space_group_name_H-M   'P 1'
_cell_length_a   3.10426075
_cell_length_b   11.02190071
_cell_length_c   12.85992151
_cell_angle_alpha   90.00000000
_cell_angle_beta   90.00000000
_cell_angle_gamma   90.00000000
_symmetry_Int_Tables_number   1
_chemical_formula_structural   ErB7Mo3
_chemical_formula_sum   'Er4 B28 Mo12'
_cell_volume   440.00033389
_cell_formula_units_Z   4
loop_
 _symmetry_equiv_pos_site_id
 _symmetry_equiv_pos_as_xyz
  1  'x, y, z'
loop_
 _atom_site_type_symbol
 _atom_site_label
 _atom_site_symmetry_multiplicity
 _atom_site_fract_x
 _atom_site_fract_y
 _atom_site_fract_z
 _atom_site_occupancy
  Er  Er0  1  0.75000000  0.55180537  0.30800794  1
  Er  Er1  1  0.25000000  0.44819463  0.69199206  1
  Er  Er2  1  0.25000000  0.94819463  0.80800794  1
  Er  Er3  1  0.75000000  0.05180537  0.19199206  1
  B  B4  1  0.75000000  0.74988226  0.17371551  1
  B  B5  1  0.25000000  0.25011774  0.82628449  1
  B  B6  1  0.25000000  0.75011774  0.67371551  1
  B  B7  1  0.75000000  0.24988226  0.32628449  1
  B  B8  1  0.75000000  0.93238279  0.38384045  1
  B  B9  1  0.25000000  0.06761721  0.61615955  1
  B  B10  1  0.25000000  0.56761721  0.88384045  1
  B  B11  1  0.75000000  0.43238279  0.11615955  1
  B  B12  1  0.75000000  0.98930702  0.63815225  1
  B  B13  1  0.25000000  0.01069298  0.36184775  1
  B  B14  1  0.25000000  0.51069298  0.13815225  1
  B  B15  1  0.75000000  0.48930702  0.86184775  1
  B  B16  1  0.75000000  0.76923856  0.41792974  1
  B  B17  1  0.25000000  0.23076144  0.58207026  1
  B  B18  1  0.25000000  0.73076144  0.91792974  1
  B  B19  1  0.75000000  0.26923856  0.08207026  1
  B  B20  1  0.75000000  0.96273212  0.98161537  1
  B  B21  1  0.25000000  0.03726788  0.01838463  1
  B  B22  1  0.25000000  0.53726788  0.48161537  1
  B  B23  1  0.75000000  0.46273212  0.51838463  1
  B  B24  1  0.75000000  0.81373956  0.93302892  1
  B  B25  1  0.25000000  0.18626044  0.06697108  1
  B  B26  1  0.25000000  0.68626044  0.43302892  1
  B  B27  1  0.75000000  0.31373956  0.56697108  1
  B  B28  1  0.75000000  0.83437572  0.66766734  1
  B  B29  1  0.25000000  0.16562428  0.33233266  1
  B  B30  1  0.25000000  0.66562428  0.16766734  1
  B  B31  1  0.75000000  0.33437572  0.83233266  1
  Mo  Mo32  1  0.75000000  0.11792596  0.47308634  1
  Mo  Mo33  1  0.25000000  0.88207404  0.52691366  1
  Mo  Mo34  1  0.25000000  0.38207404  0.97308634  1
  Mo  Mo35  1  0.75000000  0.61792596  0.02691366  1
  Mo  Mo36  1  0.75000000  0.65913545  0.56419785  1
  Mo  Mo37  1  0.25000000  0.34086455  0.43580215  1
  Mo  Mo38  1  0.25000000  0.84086455  0.06419785  1
  Mo  Mo39  1  0.75000000  0.15913545  0.93580215  1
  Mo  Mo40  1  0.75000000  0.68462085  0.79813788  1
  Mo  Mo41  1  0.25000000  0.31537915  0.20186212  1
  Mo  Mo42  1  0.25000000  0.81537915  0.29813788  1
  Mo  Mo43  1  0.75000000  0.18462085  0.70186212  1
