# generated using pymatgen
data_DyHfF7
_symmetry_space_group_name_H-M   'P 1'
_cell_length_a   5.68275883
_cell_length_b   6.08992345
_cell_length_c   8.25066420
_cell_angle_alpha   101.88421264
_cell_angle_beta   90.00000000
_cell_angle_gamma   90.00000000
_symmetry_Int_Tables_number   1
_chemical_formula_structural   DyHfF7
_chemical_formula_sum   'Dy2 Hf2 F14'
_cell_volume   279.41517521
_cell_formula_units_Z   2
loop_
 _symmetry_equiv_pos_site_id
 _symmetry_equiv_pos_as_xyz
  1  'x, y, z'
loop_
 _atom_site_type_symbol
 _atom_site_label
 _atom_site_symmetry_multiplicity
 _atom_site_fract_x
 _atom_site_fract_y
 _atom_site_fract_z
 _atom_site_occupancy
  Dy  Dy0  1  0.69765147  0.65594220  0.68515132  1
  Dy  Dy1  1  0.19765147  0.34405780  0.31484868  1
  Hf  Hf2  1  0.70782274  0.81159129  0.22359005  1
  Hf  Hf3  1  0.20782274  0.18840871  0.77640995  1
  F  F4  1  0.88781351  0.45220557  0.47670976  1
  F  F5  1  0.38781351  0.54779443  0.52329024  1
  F  F6  1  0.42562500  0.92649691  0.76809211  1
  F  F7  1  0.92562500  0.07350309  0.23190789  1
  F  F8  1  0.94510754  0.96225814  0.76036044  1
  F  F9  1  0.44510754  0.03774186  0.23963956  1
  F  F10  1  0.99575769  0.45460983  0.78682972  1
  F  F11  1  0.49575769  0.54539017  0.21317028  1
  F  F12  1  0.70416757  0.75574946  0.97711292  1
  F  F13  1  0.20416757  0.24425054  0.02288708  1
  F  F14  1  0.71142857  0.86038942  0.47206178  1
  F  F15  1  0.21142857  0.13961058  0.52793822  1
  F  F16  1  0.50098591  0.37822249  0.78209521  1
  F  F17  1  0.00098591  0.62177751  0.21790479  1
