# generated using pymatgen
data_Sb5IO7
_symmetry_space_group_name_H-M   'P 1'
_cell_length_a   7.31681921
_cell_length_b   13.97151317
_cell_length_c   12.31063993
_cell_angle_alpha   90.00000000
_cell_angle_beta   90.00000000
_cell_angle_gamma   106.28863157
_symmetry_Int_Tables_number   1
_chemical_formula_structural   Sb5IO7
_chemical_formula_sum   'Sb20 I4 O28'
_cell_volume   1207.96604416
_cell_formula_units_Z   4
loop_
 _symmetry_equiv_pos_site_id
 _symmetry_equiv_pos_as_xyz
  1  'x, y, z'
loop_
 _atom_site_type_symbol
 _atom_site_label
 _atom_site_symmetry_multiplicity
 _atom_site_fract_x
 _atom_site_fract_y
 _atom_site_fract_z
 _atom_site_occupancy
  Sb  Sb0  1  0.92749666  0.04591494  0.22236666  1
  Sb  Sb1  1  0.42749666  0.54591494  0.77763334  1
  Sb  Sb2  1  0.03467422  0.12344493  0.70428228  1
  Sb  Sb3  1  0.53467422  0.62344493  0.29571772  1
  Sb  Sb4  1  0.45685285  0.29357888  0.19347782  1
  Sb  Sb5  1  0.95685285  0.79357888  0.80652218  1
  Sb  Sb6  1  0.40595132  0.28503976  0.76575177  1
  Sb  Sb7  1  0.90595132  0.78503976  0.23424823  1
  Sb  Sb8  1  0.94655272  0.44668121  0.32553782  1
  Sb  Sb9  1  0.44655272  0.94668121  0.67446218  1
  Sb  Sb10  1  0.94558194  0.38952708  0.72715622  1
  Sb  Sb11  1  0.44558194  0.88952708  0.27284378  1
  Sb  Sb12  1  0.26726006  0.46811713  0.08584868  1
  Sb  Sb13  1  0.76726006  0.96811713  0.91415132  1
  Sb  Sb14  1  0.34460908  0.39333405  0.46113132  1
  Sb  Sb15  1  0.84460908  0.89333405  0.53886868  1
  Sb  Sb16  1  0.77833149  0.57552693  0.55519792  1
  Sb  Sb17  1  0.27833149  0.07552693  0.44480208  1
  Sb  Sb18  1  0.81298335  0.54996877  0.93484989  1
  Sb  Sb19  1  0.31298335  0.04996877  0.06515011  1
  I  I20  1  0.69170434  0.22492340  0.94183806  1
  I  I21  1  0.19170434  0.72492340  0.05816194  1
  I  I22  1  0.82179171  0.24283696  0.40823756  1
  I  I23  1  0.32179171  0.74283696  0.59176244  1
  O  O24  1  0.29920707  0.14927528  0.18118881  1
  O  O25  1  0.79920707  0.64927528  0.81881119  1
  O  O26  1  0.23327282  0.40811110  0.73897058  1
  O  O27  1  0.73327282  0.90811110  0.26102942  1
  O  O28  1  0.47598641  0.50155175  0.19916303  1
  O  O29  1  0.97598641  0.00155175  0.80083697  1
  O  O30  1  0.59130903  0.50387697  0.42869122  1
  O  O31  1  0.09130903  0.00387697  0.57130878  1
  O  O32  1  0.55418419  0.51456746  0.64663719  1
  O  O33  1  0.05418419  0.01456746  0.35336281  1
  O  O34  1  0.55270400  0.47083001  0.87927897  1
  O  O35  1  0.05270400  0.97083001  0.12072103  1
  O  O36  1  0.02786488  0.44300816  0.17502173  1
  O  O37  1  0.52786488  0.94300816  0.82497827  1
  O  O38  1  0.20180298  0.48027117  0.39189774  1
  O  O39  1  0.70180298  0.98027117  0.60810226  1
  O  O40  1  0.91784211  0.47584597  0.59984849  1
  O  O41  1  0.41784211  0.97584597  0.40015151  1
  O  O42  1  0.97767691  0.48972729  0.84405919  1
  O  O43  1  0.47767691  0.98972729  0.15594081  1
  O  O44  1  0.27257043  0.32862040  0.09457446  1
  O  O45  1  0.77257043  0.82862040  0.90542554  1
  O  O46  1  0.33406520  0.30150919  0.33712737  1
  O  O47  1  0.83406520  0.80150919  0.66287263  1
  O  O48  1  0.31107178  0.18169207  0.64710724  1
  O  O49  1  0.81107178  0.68169207  0.35289276  1
  O  O50  1  0.17762245  0.20301915  0.83763010  1
  O  O51  1  0.67762245  0.70301915  0.16236990  1
