# generated using pymatgen
data_CuTeSeCl
_symmetry_space_group_name_H-M   'P 1'
_cell_length_a   5.04225546
_cell_length_b   8.02503445
_cell_length_c   11.15389663
_cell_angle_alpha   103.56443042
_cell_angle_beta   90.00000000
_cell_angle_gamma   90.00000000
_symmetry_Int_Tables_number   1
_chemical_formula_structural   CuTeSeCl
_chemical_formula_sum   'Cu4 Te4 Se4 Cl4'
_cell_volume   438.74516414
_cell_formula_units_Z   4
loop_
 _symmetry_equiv_pos_site_id
 _symmetry_equiv_pos_as_xyz
  1  'x, y, z'
loop_
 _atom_site_type_symbol
 _atom_site_label
 _atom_site_symmetry_multiplicity
 _atom_site_fract_x
 _atom_site_fract_y
 _atom_site_fract_z
 _atom_site_occupancy
  Cu  Cu0  1  0.13275474  0.93029418  0.75118406  1
  Cu  Cu1  1  0.86724526  0.06970582  0.24881594  1
  Cu  Cu2  1  0.63275474  0.56970582  0.74881594  1
  Cu  Cu3  1  0.36724526  0.43029418  0.25118406  1
  Te  Te4  1  0.48623488  0.13771085  0.85802241  1
  Te  Te5  1  0.51376512  0.86228915  0.14197759  1
  Te  Te6  1  0.98623488  0.36228915  0.64197759  1
  Te  Te7  1  0.01376512  0.63771085  0.35802241  1
  Se  Se8  1  0.30164482  0.42469889  0.84108227  1
  Se  Se9  1  0.69835518  0.57530111  0.15891773  1
  Se  Se10  1  0.80164482  0.07530111  0.65891773  1
  Se  Se11  1  0.19835518  0.92469889  0.34108227  1
  Cl  Cl12  1  0.35688979  0.70249150  0.62436682  1
  Cl  Cl13  1  0.64311021  0.29750850  0.37563318  1
  Cl  Cl14  1  0.85688979  0.79750850  0.87563318  1
  Cl  Cl15  1  0.14311021  0.20249150  0.12436682  1
