# generated using pymatgen
data_Gd2ZnPtO6
_symmetry_space_group_name_H-M   'P 1'
_cell_length_a   5.41821661
_cell_length_b   5.80118548
_cell_length_c   7.80417653
_cell_angle_alpha   90.00000000
_cell_angle_beta   89.86792337
_cell_angle_gamma   90.00000000
_symmetry_Int_Tables_number   1
_chemical_formula_structural   Gd2ZnPtO6
_chemical_formula_sum   'Gd4 Zn2 Pt2 O12'
_cell_volume   245.30084556
_cell_formula_units_Z   2
loop_
 _symmetry_equiv_pos_site_id
 _symmetry_equiv_pos_as_xyz
  1  'x, y, z'
loop_
 _atom_site_type_symbol
 _atom_site_label
 _atom_site_symmetry_multiplicity
 _atom_site_fract_x
 _atom_site_fract_y
 _atom_site_fract_z
 _atom_site_occupancy
  Gd  Gd0  1  0.02349955  0.42796808  0.25347483  1
  Gd  Gd1  1  0.97650045  0.57203192  0.74652517  1
  Gd  Gd2  1  0.47650045  0.92796808  0.24652517  1
  Gd  Gd3  1  0.52349955  0.07203192  0.75347483  1
  Zn  Zn4  1  0.00000000  -0.00000000  0.50000000  1
  Zn  Zn5  1  0.50000000  0.50000000  -0.00000000  1
  Pt  Pt6  1  0.00000000  -0.00000000  -0.00000000  1
  Pt  Pt7  1  0.50000000  0.50000000  0.50000000  1
  O  O8  1  0.87903297  0.04827888  0.24604036  1
  O  O9  1  0.12096703  0.95172112  0.75395964  1
  O  O10  1  0.62096703  0.54827888  0.25395964  1
  O  O11  1  0.37903297  0.45172112  0.74604036  1
  O  O12  1  0.18580464  0.70289972  0.06465816  1
  O  O13  1  0.81419536  0.29710028  0.93534184  1
  O  O14  1  0.31419536  0.20289972  0.43534184  1
  O  O15  1  0.68580464  0.79710028  0.56465816  1
  O  O16  1  0.30843795  0.19135058  0.05526920  1
  O  O17  1  0.69156205  0.80864942  0.94473080  1
  O  O18  1  0.19156205  0.69135058  0.44473080  1
  O  O19  1  0.80843795  0.30864942  0.55526920  1
