# generated using pymatgen
data_Er2Si4CN6
_symmetry_space_group_name_H-M   'P 1'
_cell_length_a   5.93819350
_cell_length_b   9.93883318
_cell_length_c   10.34815270
_cell_angle_alpha   90.00000000
_cell_angle_beta   90.37896442
_cell_angle_gamma   90.00000000
_symmetry_Int_Tables_number   1
_chemical_formula_structural   Er2Si4CN6
_chemical_formula_sum   'Er8 Si16 C4 N24'
_cell_volume   610.72131195
_cell_formula_units_Z   4
loop_
 _symmetry_equiv_pos_site_id
 _symmetry_equiv_pos_as_xyz
  1  'x, y, z'
loop_
 _atom_site_type_symbol
 _atom_site_label
 _atom_site_symmetry_multiplicity
 _atom_site_fract_x
 _atom_site_fract_y
 _atom_site_fract_z
 _atom_site_occupancy
  Er  Er0  1  0.75925528  0.58663561  0.41814613  1
  Er  Er1  1  0.24074472  0.41336439  0.58185387  1
  Er  Er2  1  0.74074472  0.08663561  0.08185387  1
  Er  Er3  1  0.25925528  0.91336439  0.91814613  1
  Er  Er4  1  0.76427153  0.43373138  0.09508467  1
  Er  Er5  1  0.23572847  0.56626862  0.90491533  1
  Er  Er6  1  0.73572847  0.93373138  0.40491533  1
  Er  Er7  1  0.26427153  0.06626862  0.59508467  1
  Si  Si8  1  0.25577825  0.78700924  0.42035001  1
  Si  Si9  1  0.74422175  0.21299076  0.57964999  1
  Si  Si10  1  0.24422175  0.28700924  0.07964999  1
  Si  Si11  1  0.75577825  0.71299076  0.92035001  1
  Si  Si12  1  0.48181429  0.77229173  0.15872530  1
  Si  Si13  1  0.51818571  0.22770827  0.84127470  1
  Si  Si14  1  0.01818571  0.27229173  0.34127470  1
  Si  Si15  1  0.98181429  0.72770827  0.65872530  1
  Si  Si16  1  0.24410895  0.52018961  0.24923741  1
  Si  Si17  1  0.75589105  0.47981039  0.75076259  1
  Si  Si18  1  0.25589105  0.02018961  0.25076259  1
  Si  Si19  1  0.74410895  0.97981039  0.74923741  1
  Si  Si20  1  0.97478978  0.79455212  0.17658340  1
  Si  Si21  1  0.02521022  0.20544788  0.82341660  1
  Si  Si22  1  0.52521022  0.29455212  0.32341660  1
  Si  Si23  1  0.47478978  0.70544788  0.67658340  1
  C  C24  1  0.22915023  0.70842855  0.25226099  1
  C  C25  1  0.77084977  0.29157145  0.74773901  1
  C  C26  1  0.27084977  0.20842855  0.24773901  1
  C  C27  1  0.72915023  0.79157145  0.75226099  1
  N  N28  1  0.34227633  0.95528670  0.40040506  1
  N  N29  1  0.65772367  0.04471330  0.59959494  1
  N  N30  1  0.15772367  0.45528670  0.09959494  1
  N  N31  1  0.84227633  0.54471330  0.90040506  1
  N  N32  1  0.43751331  0.94701085  0.13665216  1
  N  N33  1  0.56248669  0.05298915  0.86334784  1
  N  N34  1  0.06248669  0.44701085  0.36334784  1
  N  N35  1  0.93751331  0.55298915  0.63665216  1
  N  N36  1  0.97948555  0.96478072  0.22365894  1
  N  N37  1  0.02051445  0.03521928  0.77634106  1
  N  N38  1  0.52051445  0.46478072  0.27634106  1
  N  N39  1  0.47948555  0.53521928  0.72365894  1
  N  N40  1  0.49402688  0.70909830  0.00049938  1
  N  N41  1  0.50597312  0.29090170  0.99950062  1
  N  N42  1  0.00597312  0.20909830  0.49950062  1
  N  N43  1  0.99402688  0.79090170  0.50049938  1
  N  N44  1  0.72737870  0.73556178  0.24676196  1
  N  N45  1  0.27262130  0.26443822  0.75323804  1
  N  N46  1  0.77262130  0.23556178  0.25323804  1
  N  N47  1  0.22737870  0.76443822  0.74676196  1
  N  N48  1  0.96783262  0.79059516  0.00919429  1
  N  N49  1  0.03216738  0.20940484  0.99080571  1
  N  N50  1  0.53216738  0.29059516  0.49080571  1
  N  N51  1  0.46783262  0.70940484  0.50919429  1
