# generated using pymatgen
data_Er5Ni2Bi
_symmetry_space_group_name_H-M   'P 1'
_cell_length_a   7.57764774
_cell_length_b   7.57764774
_cell_length_c   8.64513114
_cell_angle_alpha   115.99297901
_cell_angle_beta   115.99297901
_cell_angle_gamma   90.00000000
_symmetry_Int_Tables_number   1
_chemical_formula_structural   Er5Ni2Bi
_chemical_formula_sum   'Er10 Ni4 Bi2'
_cell_volume   389.56461230
_cell_formula_units_Z   2
loop_
 _symmetry_equiv_pos_site_id
 _symmetry_equiv_pos_as_xyz
  1  'x, y, z'
loop_
 _atom_site_type_symbol
 _atom_site_label
 _atom_site_symmetry_multiplicity
 _atom_site_fract_x
 _atom_site_fract_y
 _atom_site_fract_z
 _atom_site_occupancy
  Er  Er0  1  -0.00000000  0.00000000  -0.00000000  1
  Er  Er1  1  0.50000000  0.50000000  0.00000000  1
  Er  Er2  1  0.29110257  0.79110257  0.26741707  1
  Er  Er3  1  0.70889743  0.20889743  0.73258293  1
  Er  Er4  1  0.97631450  0.47631450  0.26741707  1
  Er  Er5  1  0.47631450  0.29110257  0.26741707  1
  Er  Er6  1  0.20889743  0.02368550  0.73258293  1
  Er  Er7  1  0.02368550  0.52368550  0.73258293  1
  Er  Er8  1  0.52368550  0.70889743  0.73258293  1
  Er  Er9  1  0.79110257  0.97631450  0.26741707  1
  Ni  Ni10  1  0.62868937  0.12868937  0.00000000  1
  Ni  Ni11  1  0.37131063  0.87131063  -0.00000000  1
  Ni  Ni12  1  0.87131063  0.62868937  0.00000000  1
  Ni  Ni13  1  0.12868937  0.37131063  -0.00000000  1
  Bi  Bi14  1  0.25000000  0.25000000  0.50000000  1
  Bi  Bi15  1  0.75000000  0.75000000  0.50000000  1
