# generated using pymatgen
data_CsPO3
_symmetry_space_group_name_H-M   'P 1'
_cell_length_a   4.62419141
_cell_length_b   6.53342816
_cell_length_c   13.84518409
_cell_angle_alpha   90.00000000
_cell_angle_beta   90.00000000
_cell_angle_gamma   90.00000000
_symmetry_Int_Tables_number   1
_chemical_formula_structural   CsPO3
_chemical_formula_sum   'Cs4 P4 O12'
_cell_volume   418.28824248
_cell_formula_units_Z   4
loop_
 _symmetry_equiv_pos_site_id
 _symmetry_equiv_pos_as_xyz
  1  'x, y, z'
loop_
 _atom_site_type_symbol
 _atom_site_label
 _atom_site_symmetry_multiplicity
 _atom_site_fract_x
 _atom_site_fract_y
 _atom_site_fract_z
 _atom_site_occupancy
  Cs  Cs0  1  0.23312652  0.25000000  0.59733221  1
  Cs  Cs1  1  0.76687348  0.75000000  0.40266779  1
  Cs  Cs2  1  0.26687348  0.75000000  0.09733221  1
  Cs  Cs3  1  0.73312652  0.25000000  0.90266779  1
  P  P4  1  0.30856031  0.25000000  0.32147367  1
  P  P5  1  0.69143969  0.75000000  0.67852633  1
  P  P6  1  0.19143969  0.75000000  0.82147367  1
  P  P7  1  0.80856031  0.25000000  0.17852633  1
  O  O8  1  0.26087941  0.05269637  0.37440683  1
  O  O9  1  0.73912059  0.94730363  0.62559317  1
  O  O10  1  0.23912059  0.94730363  0.87440683  1
  O  O11  1  0.73912059  0.55269637  0.62559317  1
  O  O12  1  0.76087941  0.05269637  0.12559317  1
  O  O13  1  0.26087941  0.44730363  0.37440683  1
  O  O14  1  0.76087941  0.44730363  0.12559317  1
  O  O15  1  0.23912059  0.55269637  0.87440683  1
  O  O16  1  0.14264475  0.25000000  0.21790738  1
  O  O17  1  0.85735525  0.75000000  0.78209262  1
  O  O18  1  0.35735525  0.75000000  0.71790738  1
  O  O19  1  0.64264475  0.25000000  0.28209262  1
