# generated using pymatgen
data_DyIn2Pd
_symmetry_space_group_name_H-M   'P 1'
_cell_length_a   9.17441360
_cell_length_b   10.84421933
_cell_length_c   10.84421933
_cell_angle_alpha   79.69215317
_cell_angle_beta   64.97526966
_cell_angle_gamma   64.97526966
_symmetry_Int_Tables_number   1
_chemical_formula_structural   DyIn2Pd
_chemical_formula_sum   'Dy10 In20 Pd10'
_cell_volume   885.83207919
_cell_formula_units_Z   10
loop_
 _symmetry_equiv_pos_site_id
 _symmetry_equiv_pos_as_xyz
  1  'x, y, z'
loop_
 _atom_site_type_symbol
 _atom_site_label
 _atom_site_symmetry_multiplicity
 _atom_site_fract_x
 _atom_site_fract_y
 _atom_site_fract_z
 _atom_site_occupancy
  Dy  Dy0  1  0.67038110  0.71791023  0.71791023  1
  Dy  Dy1  1  0.10620156  0.28208977  0.28208977  1
  Dy  Dy2  1  0.38829133  0.28208977  0.71791023  1
  Dy  Dy3  1  0.38829133  0.71791023  0.28208977  1
  Dy  Dy4  1  0.67530260  0.00000000  0.40372231  1
  Dy  Dy5  1  0.07902491  0.00000000  0.59627769  1
  Dy  Dy6  1  0.07902491  0.59627769  0.00000000  1
  Dy  Dy7  1  0.67530260  0.40372231  -0.00000000  1
  Dy  Dy8  1  0.45692543  -0.00000000  -0.00000000  1
  Dy  Dy9  1  0.99578218  -0.00000000  -0.00000000  1
  In  In10  1  0.26803180  0.20899081  0.50680063  1
  In  In11  1  0.98382324  0.79100919  0.49319937  1
  In  In12  1  0.77483243  0.49319937  0.20899081  1
  In  In13  1  0.26803180  0.50680063  0.20899081  1
  In  In14  1  0.47702261  0.50680063  0.79100919  1
  In  In15  1  0.98382324  0.49319937  0.79100919  1
  In  In16  1  0.77483243  0.20899081  0.49319937  1
  In  In17  1  0.47702261  0.79100919  0.50680063  1
  In  In18  1  0.24717024  0.61779225  0.61779225  1
  In  In19  1  0.48275474  0.38220775  0.38220775  1
  In  In20  1  0.86496249  0.38220775  0.61779225  1
  In  In21  1  0.86496249  0.61779225  0.38220775  1
  In  In22  1  0.35851126  -0.00000000  0.73441963  1
  In  In23  1  0.09293089  0.00000000  0.26558037  1
  In  In24  1  0.09293089  0.26558037  -0.00000000  1
  In  In25  1  0.35851126  0.73441963  -0.00000000  1
  In  In26  1  0.88088451  0.83850420  0.83850420  1
  In  In27  1  0.55789291  0.16149580  0.16149580  1
  In  In28  1  0.71938871  0.16149580  0.83850420  1
  In  In29  1  0.71938871  0.83850420  0.16149580  1
  Pd  Pd30  1  0.11445440  0.50000000  0.50000000  1
  Pd  Pd31  1  0.61445440  0.50000000  0.50000000  1
  Pd  Pd32  1  0.37288998  -0.00000000  0.32188704  1
  Pd  Pd33  1  0.69477702  0.00000000  0.67811296  1
  Pd  Pd34  1  0.69477702  0.67811296  -0.00000000  1
  Pd  Pd35  1  0.37288998  0.32188704  0.00000000  1
  Pd  Pd36  1  0.23991732  0.78673768  0.78673768  1
  Pd  Pd37  1  0.81339269  0.21326232  0.21326232  1
  Pd  Pd38  1  0.02665500  0.21326232  0.78673768  1
  Pd  Pd39  1  0.02665500  0.78673768  0.21326232  1
