# generated using pymatgen
data_Cu4AsClO6
_symmetry_space_group_name_H-M   'P 1'
_cell_length_a   5.50402108
_cell_length_b   10.30607985
_cell_length_c   11.33269281
_cell_angle_alpha   90.00000000
_cell_angle_beta   90.00000000
_cell_angle_gamma   90.00000000
_symmetry_Int_Tables_number   1
_chemical_formula_structural   Cu4AsClO6
_chemical_formula_sum   'Cu16 As4 Cl4 O24'
_cell_volume   642.84564818
_cell_formula_units_Z   4
loop_
 _symmetry_equiv_pos_site_id
 _symmetry_equiv_pos_as_xyz
  1  'x, y, z'
loop_
 _atom_site_type_symbol
 _atom_site_label
 _atom_site_symmetry_multiplicity
 _atom_site_fract_x
 _atom_site_fract_y
 _atom_site_fract_z
 _atom_site_occupancy
  Cu  Cu0  1  0.76518146  0.95616374  0.44671254  1
  Cu  Cu1  1  0.23481854  0.04383626  0.55328746  1
  Cu  Cu2  1  0.23481854  0.45616374  0.55328746  1
  Cu  Cu3  1  0.23481854  0.54383626  0.94671254  1
  Cu  Cu4  1  0.76518146  0.54383626  0.44671254  1
  Cu  Cu5  1  0.76518146  0.45616374  0.05328746  1
  Cu  Cu6  1  0.76518146  0.04383626  0.05328746  1
  Cu  Cu7  1  0.23481854  0.95616374  0.94671254  1
  Cu  Cu8  1  0.96727023  0.75000000  0.64684514  1
  Cu  Cu9  1  0.03272977  0.25000000  0.35315486  1
  Cu  Cu10  1  0.03272977  0.75000000  0.14684514  1
  Cu  Cu11  1  0.96727023  0.25000000  0.85315486  1
  Cu  Cu12  1  0.85490735  0.75000000  0.91289153  1
  Cu  Cu13  1  0.14509265  0.25000000  0.08710847  1
  Cu  Cu14  1  0.14509265  0.75000000  0.41289153  1
  Cu  Cu15  1  0.85490735  0.25000000  0.58710847  1
  As  As16  1  0.67524055  0.00000000  0.75000000  1
  As  As17  1  0.32475945  0.00000000  0.25000000  1
  As  As18  1  0.32475945  0.50000000  0.25000000  1
  As  As19  1  0.67524055  0.50000000  0.75000000  1
  Cl  Cl20  1  0.38081283  0.75000000  0.90132187  1
  Cl  Cl21  1  0.61918717  0.25000000  0.09867813  1
  Cl  Cl22  1  0.61918717  0.75000000  0.40132187  1
  Cl  Cl23  1  0.38081283  0.25000000  0.59867813  1
  O  O24  1  0.87669997  0.87128258  0.77554416  1
  O  O25  1  0.12330003  0.12871742  0.22445584  1
  O  O26  1  0.12330003  0.37128258  0.22445584  1
  O  O27  1  0.12330003  0.62871742  0.27554416  1
  O  O28  1  0.87669997  0.62871742  0.77554416  1
  O  O29  1  0.87669997  0.37128258  0.72445584  1
  O  O30  1  0.87669997  0.12871742  0.72445584  1
  O  O31  1  0.12330003  0.87128258  0.27554416  1
  O  O32  1  0.95356642  0.38104386  0.47025337  1
  O  O33  1  0.04643358  0.61895614  0.52974663  1
  O  O34  1  0.04643358  0.88104386  0.52974663  1
  O  O35  1  0.04643358  0.11895614  0.97025337  1
  O  O36  1  0.95356642  0.11895614  0.47025337  1
  O  O37  1  0.95356642  0.88104386  0.02974663  1
  O  O38  1  0.95356642  0.61895614  0.02974663  1
  O  O39  1  0.04643358  0.38104386  0.97025337  1
  O  O40  1  0.51414183  0.96136233  0.62503562  1
  O  O41  1  0.48585817  0.03863767  0.37496438  1
  O  O42  1  0.48585817  0.46136233  0.37496438  1
  O  O43  1  0.48585817  0.53863767  0.12503562  1
  O  O44  1  0.51414183  0.53863767  0.62503562  1
  O  O45  1  0.51414183  0.46136233  0.87496438  1
  O  O46  1  0.51414183  0.03863767  0.87496438  1
  O  O47  1  0.48585817  0.96136233  0.12503562  1
