# generated using pymatgen
data_Eu3Sc2Al3O12
_symmetry_space_group_name_H-M   'P 1'
_cell_length_a   10.92011707
_cell_length_b   10.92011707
_cell_length_c   10.92011707
_cell_angle_alpha   109.47122063
_cell_angle_beta   109.47122063
_cell_angle_gamma   109.47122063
_symmetry_Int_Tables_number   1
_chemical_formula_structural   Eu3Sc2Al3O12
_chemical_formula_sum   'Eu12 Sc8 Al12 O48'
_cell_volume   1002.44370301
_cell_formula_units_Z   4
loop_
 _symmetry_equiv_pos_site_id
 _symmetry_equiv_pos_as_xyz
  1  'x, y, z'
loop_
 _atom_site_type_symbol
 _atom_site_label
 _atom_site_symmetry_multiplicity
 _atom_site_fract_x
 _atom_site_fract_y
 _atom_site_fract_z
 _atom_site_occupancy
  Eu  Eu0  1  0.87500000  0.62500000  0.75000000  1
  Eu  Eu1  1  0.12500000  0.37500000  0.25000000  1
  Eu  Eu2  1  0.62500000  0.87500000  0.25000000  1
  Eu  Eu3  1  0.62500000  0.75000000  0.87500000  1
  Eu  Eu4  1  0.87500000  0.25000000  0.62500000  1
  Eu  Eu5  1  0.37500000  0.12500000  0.75000000  1
  Eu  Eu6  1  0.37500000  0.25000000  0.12500000  1
  Eu  Eu7  1  0.12500000  0.75000000  0.37500000  1
  Eu  Eu8  1  0.75000000  0.87500000  0.62500000  1
  Eu  Eu9  1  0.25000000  0.12500000  0.37500000  1
  Eu  Eu10  1  0.25000000  0.62500000  0.87500000  1
  Eu  Eu11  1  0.75000000  0.37500000  0.12500000  1
  Sc  Sc12  1  0.00000000  0.00000000  0.00000000  1
  Sc  Sc13  1  0.50000000  0.00000000  0.50000000  1
  Sc  Sc14  1  0.50000000  0.50000000  0.00000000  1
  Sc  Sc15  1  0.00000000  0.00000000  0.50000000  1
  Sc  Sc16  1  0.00000000  0.50000000  0.50000000  1
  Sc  Sc17  1  0.50000000  0.50000000  0.50000000  1
  Sc  Sc18  1  0.50000000  0.00000000  0.00000000  1
  Sc  Sc19  1  0.00000000  0.50000000  0.00000000  1
  Al  Al20  1  0.62500000  0.37500000  0.75000000  1
  Al  Al21  1  0.37500000  0.62500000  0.25000000  1
  Al  Al22  1  0.87500000  0.12500000  0.25000000  1
  Al  Al23  1  0.37500000  0.75000000  0.62500000  1
  Al  Al24  1  0.62500000  0.25000000  0.37500000  1
  Al  Al25  1  0.12500000  0.87500000  0.75000000  1
  Al  Al26  1  0.12500000  0.25000000  0.87500000  1
  Al  Al27  1  0.87500000  0.75000000  0.12500000  1
  Al  Al28  1  0.75000000  0.62500000  0.37500000  1
  Al  Al29  1  0.25000000  0.37500000  0.62500000  1
  Al  Al30  1  0.25000000  0.87500000  0.12500000  1
  Al  Al31  1  0.75000000  0.12500000  0.87500000  1
  O  O32  1  0.70904717  0.62401689  0.52063043  1
  O  O33  1  0.29095283  0.37598311  0.47936957  1
  O  O34  1  0.79095283  0.81158326  0.41496972  1
  O  O35  1  0.39661354  0.87598311  0.08503028  1
  O  O36  1  0.62401689  0.52063043  0.70904717  1
  O  O37  1  0.70904717  0.08503028  0.68841674  1
  O  O38  1  0.20904717  0.18841674  0.58503028  1
  O  O39  1  0.60338646  0.12401689  0.91496972  1
  O  O40  1  0.37598311  0.47936957  0.29095283  1
  O  O41  1  0.29095283  0.91496972  0.31158326  1
  O  O42  1  0.10338646  0.68841674  0.97936957  1
  O  O43  1  0.81158326  0.41496972  0.79095283  1
  O  O44  1  0.79095283  0.97936957  0.87598311  1
  O  O45  1  0.89661354  0.31158326  0.02063043  1
  O  O46  1  0.18841674  0.58503028  0.20904717  1
  O  O47  1  0.20904717  0.02063043  0.12401689  1
  O  O48  1  0.87598311  0.08503028  0.39661354  1
  O  O49  1  0.39661354  0.52063043  0.81158326  1
  O  O50  1  0.12401689  0.91496972  0.60338646  1
  O  O51  1  0.60338646  0.47936957  0.18841674  1
  O  O52  1  0.68841674  0.97936957  0.10338646  1
  O  O53  1  0.10338646  0.41496972  0.62401689  1
  O  O54  1  0.31158326  0.02063043  0.89661354  1
  O  O55  1  0.89661354  0.58503028  0.37598311  1
  O  O56  1  0.52063043  0.70904717  0.62401689  1
  O  O57  1  0.62401689  0.10338646  0.41496972  1
  O  O58  1  0.47936957  0.29095283  0.37598311  1
  O  O59  1  0.37598311  0.89661354  0.58503028  1
  O  O60  1  0.08503028  0.39661354  0.87598311  1
  O  O61  1  0.87598311  0.79095283  0.97936957  1
  O  O62  1  0.91496972  0.60338646  0.12401689  1
  O  O63  1  0.12401689  0.20904717  0.02063043  1
  O  O64  1  0.97936957  0.10338646  0.68841674  1
  O  O65  1  0.68841674  0.70904717  0.08503028  1
  O  O66  1  0.02063043  0.89661354  0.31158326  1
  O  O67  1  0.31158326  0.29095283  0.91496972  1
  O  O68  1  0.41496972  0.79095283  0.81158326  1
  O  O69  1  0.81158326  0.39661354  0.52063043  1
  O  O70  1  0.58503028  0.20904717  0.18841674  1
  O  O71  1  0.18841674  0.60338646  0.47936957  1
  O  O72  1  0.08503028  0.68841674  0.70904717  1
  O  O73  1  0.91496972  0.31158326  0.29095283  1
  O  O74  1  0.97936957  0.87598311  0.79095283  1
  O  O75  1  0.02063043  0.12401689  0.20904717  1
  O  O76  1  0.41496972  0.62401689  0.10338646  1
  O  O77  1  0.58503028  0.37598311  0.89661354  1
  O  O78  1  0.52063043  0.81158326  0.39661354  1
  O  O79  1  0.47936957  0.18841674  0.60338646  1
