# generated using pymatgen
data_CsFe(SeO4)2
_symmetry_space_group_name_H-M   'P 1'
_cell_length_a   5.23426122
_cell_length_b   5.23426122
_cell_length_c   9.18697453
_cell_angle_alpha   90.00000000
_cell_angle_beta   90.00000000
_cell_angle_gamma   119.99999640
_symmetry_Int_Tables_number   1
_chemical_formula_structural   CsFe(SeO4)2
_chemical_formula_sum   'Cs1 Fe1 Se2 O8'
_cell_volume   217.97864284
_cell_formula_units_Z   1
loop_
 _symmetry_equiv_pos_site_id
 _symmetry_equiv_pos_as_xyz
  1  'x, y, z'
loop_
 _atom_site_type_symbol
 _atom_site_label
 _atom_site_symmetry_multiplicity
 _atom_site_fract_x
 _atom_site_fract_y
 _atom_site_fract_z
 _atom_site_occupancy
  Cs  Cs0  1  -0.00000000  -0.00000000  0.50000000  1
  Fe  Fe1  1  -0.00000000  -0.00000000  0.00000000  1
  Se  Se2  1  0.66666700  0.33333300  0.80147312  1
  Se  Se3  1  0.33333300  0.66666700  0.19852688  1
  O  O4  1  0.92645385  0.25887078  0.85986947  1
  O  O5  1  0.33241693  0.07354615  0.85986947  1
  O  O6  1  0.66758307  0.74112922  0.14013053  1
  O  O7  1  0.74112922  0.66758307  0.85986947  1
  O  O8  1  0.25887078  0.92645385  0.14013053  1
  O  O9  1  0.07354615  0.33241693  0.14013053  1
  O  O10  1  0.66666700  0.33333300  0.62184889  1
  O  O11  1  0.33333300  0.66666700  0.37815111  1
