# generated using pymatgen
data_CuH12Pt(CN2)4
_symmetry_space_group_name_H-M   'P 1'
_cell_length_a   7.72991725
_cell_length_b   10.80932708
_cell_length_c   14.98423966
_cell_angle_alpha   90.00000000
_cell_angle_beta   90.00000000
_cell_angle_gamma   90.00000000
_symmetry_Int_Tables_number   1
_chemical_formula_structural   CuH12Pt(CN2)4
_chemical_formula_sum   'Cu4 H48 Pt4 C16 N32'
_cell_volume   1252.01119943
_cell_formula_units_Z   4
loop_
 _symmetry_equiv_pos_site_id
 _symmetry_equiv_pos_as_xyz
  1  'x, y, z'
loop_
 _atom_site_type_symbol
 _atom_site_label
 _atom_site_symmetry_multiplicity
 _atom_site_fract_x
 _atom_site_fract_y
 _atom_site_fract_z
 _atom_site_occupancy
  Cu  Cu0  1  0.25000000  0.63043681  0.20047551  1
  Cu  Cu1  1  0.25000000  0.86956319  0.70047551  1
  Cu  Cu2  1  0.75000000  0.36956319  0.79952449  1
  Cu  Cu3  1  0.75000000  0.13043681  0.29952449  1
  H  H4  1  0.10850619  0.48015542  0.08892022  1
  H  H5  1  0.39149381  0.01984458  0.58892022  1
  H  H6  1  0.60850619  0.51984458  0.91107978  1
  H  H7  1  0.89149381  0.98015542  0.41107978  1
  H  H8  1  0.89149381  0.51984458  0.91107978  1
  H  H9  1  0.60850619  0.98015542  0.41107978  1
  H  H10  1  0.39149381  0.48015542  0.08892022  1
  H  H11  1  0.10850619  0.01984458  0.58892022  1
  H  H12  1  0.95982306  0.53435620  0.15937679  1
  H  H13  1  0.54017694  0.96564380  0.65937679  1
  H  H14  1  0.45982306  0.46564380  0.84062321  1
  H  H15  1  0.04017694  0.03435620  0.34062321  1
  H  H16  1  0.04017694  0.46564380  0.84062321  1
  H  H17  1  0.45982306  0.03435620  0.34062321  1
  H  H18  1  0.54017694  0.53435620  0.15937679  1
  H  H19  1  0.95982306  0.96564380  0.65937679  1
  H  H20  1  0.02717877  0.62117879  0.07386602  1
  H  H21  1  0.47282123  0.87882121  0.57386602  1
  H  H22  1  0.52717877  0.37882121  0.92613398  1
  H  H23  1  0.97282123  0.12117879  0.42613398  1
  H  H24  1  0.97282123  0.37882121  0.92613398  1
  H  H25  1  0.52717877  0.12117879  0.42613398  1
  H  H26  1  0.47282123  0.62117879  0.07386602  1
  H  H27  1  0.02717877  0.87882121  0.57386602  1
  H  H28  1  0.04970152  0.81333909  0.24046195  1
  H  H29  1  0.45029848  0.68666091  0.74046195  1
  H  H30  1  0.54970152  0.18666091  0.75953805  1
  H  H31  1  0.95029848  0.31333909  0.25953805  1
  H  H32  1  0.95029848  0.18666091  0.75953805  1
  H  H33  1  0.54970152  0.31333909  0.25953805  1
  H  H34  1  0.45029848  0.81333909  0.24046195  1
  H  H35  1  0.04970152  0.68666091  0.74046195  1
  H  H36  1  0.95030588  0.68075040  0.26454064  1
  H  H37  1  0.54969412  0.81924960  0.76454064  1
  H  H38  1  0.45030588  0.31924960  0.73545936  1
  H  H39  1  0.04969412  0.18075040  0.23545936  1
  H  H40  1  0.04969412  0.31924960  0.73545936  1
  H  H41  1  0.45030588  0.18075040  0.23545936  1
  H  H42  1  0.54969412  0.68075040  0.26454064  1
  H  H43  1  0.95030588  0.81924960  0.76454064  1
  H  H44  1  0.09834882  0.73663445  0.33322975  1
  H  H45  1  0.40165118  0.76336555  0.83322975  1
  H  H46  1  0.59834882  0.26336555  0.66677025  1
  H  H47  1  0.90165118  0.23663445  0.16677025  1
  H  H48  1  0.90165118  0.26336555  0.66677025  1
  H  H49  1  0.59834882  0.23663445  0.16677025  1
  H  H50  1  0.40165118  0.73663445  0.33322975  1
  H  H51  1  0.09834882  0.76336555  0.83322975  1
  Pt  Pt52  1  0.25000000  0.47616992  0.51011481  1
  Pt  Pt53  1  0.25000000  0.02383008  0.01011481  1
  Pt  Pt54  1  0.75000000  0.52383008  0.48988519  1
  Pt  Pt55  1  0.75000000  0.97616992  0.98988519  1
  C  C56  1  0.25000000  0.45853880  0.37751363  1
  C  C57  1  0.25000000  0.04146120  0.87751363  1
  C  C58  1  0.75000000  0.54146120  0.62248637  1
  C  C59  1  0.75000000  0.95853880  0.12248637  1
  C  C60  1  0.25000000  0.29216928  0.52420297  1
  C  C61  1  0.25000000  0.20783072  0.02420297  1
  C  C62  1  0.75000000  0.70783072  0.47579703  1
  C  C63  1  0.75000000  0.79216928  0.97579703  1
  C  C64  1  0.25000000  0.49393382  0.64244730  1
  C  C65  1  0.25000000  0.00606618  0.14244730  1
  C  C66  1  0.75000000  0.50606618  0.35755270  1
  C  C67  1  0.75000000  0.99393382  0.85755270  1
  C  C68  1  0.25000000  0.65863283  0.48922025  1
  C  C69  1  0.25000000  0.84136717  0.98922025  1
  C  C70  1  0.75000000  0.34136717  0.51077975  1
  C  C71  1  0.75000000  0.15863283  0.01077975  1
  N  N72  1  0.25000000  0.45610809  0.29901624  1
  N  N73  1  0.25000000  0.04389191  0.79901624  1
  N  N74  1  0.75000000  0.54389191  0.70098376  1
  N  N75  1  0.75000000  0.95610809  0.20098376  1
  N  N76  1  0.25000000  0.18401943  0.53225837  1
  N  N77  1  0.25000000  0.31598057  0.03225837  1
  N  N78  1  0.75000000  0.81598057  0.46774163  1
  N  N79  1  0.75000000  0.68401943  0.96774163  1
  N  N80  1  0.25000000  0.49761094  0.72101347  1
  N  N81  1  0.25000000  0.00238906  0.22101347  1
  N  N82  1  0.75000000  0.50238906  0.27898653  1
  N  N83  1  0.75000000  0.99761094  0.77898653  1
  N  N84  1  0.25000000  0.76388510  0.46939000  1
  N  N85  1  0.25000000  0.73611490  0.96939000  1
  N  N86  1  0.75000000  0.23611490  0.53061000  1
  N  N87  1  0.75000000  0.26388510  0.03061000  1
  N  N88  1  0.06477080  0.55805149  0.12107426  1
  N  N89  1  0.43522920  0.94194851  0.62107426  1
  N  N90  1  0.56477080  0.44194851  0.87892574  1
  N  N91  1  0.93522920  0.05805149  0.37892574  1
  N  N92  1  0.93522920  0.44194851  0.87892574  1
  N  N93  1  0.56477080  0.05805149  0.37892574  1
  N  N94  1  0.43522920  0.55805149  0.12107426  1
  N  N95  1  0.06477080  0.94194851  0.62107426  1
  N  N96  1  0.06602729  0.72685894  0.26718091  1
  N  N97  1  0.43397271  0.77314106  0.76718091  1
  N  N98  1  0.56602729  0.27314106  0.73281909  1
  N  N99  1  0.93397271  0.22685894  0.23281909  1
  N  N100  1  0.93397271  0.27314106  0.73281909  1
  N  N101  1  0.56602729  0.22685894  0.23281909  1
  N  N102  1  0.43397271  0.72685894  0.26718091  1
  N  N103  1  0.06602729  0.77314106  0.76718091  1
