# generated using pymatgen
data_CsLa(WO4)2
_symmetry_space_group_name_H-M   'P 1'
_cell_length_a   7.84262479
_cell_length_b   7.84262479
_cell_length_c   7.69993716
_cell_angle_alpha   63.08029795
_cell_angle_beta   63.08029795
_cell_angle_gamma   90.08083184
_symmetry_Int_Tables_number   1
_chemical_formula_structural   CsLa(WO4)2
_chemical_formula_sum   'Cs2 La2 W4 O16'
_cell_volume   363.61432994
_cell_formula_units_Z   2
loop_
 _symmetry_equiv_pos_site_id
 _symmetry_equiv_pos_as_xyz
  1  'x, y, z'
loop_
 _atom_site_type_symbol
 _atom_site_label
 _atom_site_symmetry_multiplicity
 _atom_site_fract_x
 _atom_site_fract_y
 _atom_site_fract_z
 _atom_site_occupancy
  Cs  Cs0  1  0.80171123  0.19828877  0.75000000  1
  Cs  Cs1  1  0.19828877  0.80171123  0.25000000  1
  La  La2  1  0.22455843  0.77544157  0.75000000  1
  La  La3  1  0.77544157  0.22455843  0.25000000  1
  W  W4  1  0.30583518  0.31472263  0.72222637  1
  W  W5  1  0.69416482  0.68527737  0.27777363  1
  W  W6  1  0.68527737  0.69416482  0.77777363  1
  W  W7  1  0.31472263  0.30583518  0.22222637  1
  O  O8  1  0.37981069  0.25235184  0.93556373  1
  O  O9  1  0.62018931  0.74764816  0.06443627  1
  O  O10  1  0.74764816  0.62018931  0.56443627  1
  O  O11  1  0.25235184  0.37981069  0.43556373  1
  O  O12  1  0.61826999  0.92523801  0.63551821  1
  O  O13  1  0.38173001  0.07476199  0.36448179  1
  O  O14  1  0.07476199  0.38173001  0.86448179  1
  O  O15  1  0.92523801  0.61826999  0.13551821  1
  O  O16  1  0.41776314  0.62652940  0.52875431  1
  O  O17  1  0.58223686  0.37347060  0.47124569  1
  O  O18  1  0.37347060  0.58223686  0.97124569  1
  O  O19  1  0.62652940  0.41776314  0.02875431  1
  O  O20  1  0.21520626  0.06043023  0.80178446  1
  O  O21  1  0.78479374  0.93956977  0.19821554  1
  O  O22  1  0.93956977  0.78479374  0.69821554  1
  O  O23  1  0.06043023  0.21520626  0.30178446  1
