# generated using pymatgen
data_Cs3LiPb4
_symmetry_space_group_name_H-M   'P 1'
_cell_length_a   7.37740798
_cell_length_b   9.47153968
_cell_length_c   10.90274062
_cell_angle_alpha   90.00000000
_cell_angle_beta   90.00000000
_cell_angle_gamma   112.92036827
_symmetry_Int_Tables_number   1
_chemical_formula_structural   Cs3LiPb4
_chemical_formula_sum   'Cs6 Li2 Pb8'
_cell_volume   701.68446945
_cell_formula_units_Z   2
loop_
 _symmetry_equiv_pos_site_id
 _symmetry_equiv_pos_as_xyz
  1  'x, y, z'
loop_
 _atom_site_type_symbol
 _atom_site_label
 _atom_site_symmetry_multiplicity
 _atom_site_fract_x
 _atom_site_fract_y
 _atom_site_fract_z
 _atom_site_occupancy
  Cs  Cs0  1  0.76812851  0.53625701  0.25000000  1
  Cs  Cs1  1  0.23187149  0.46374299  0.75000000  1
  Cs  Cs2  1  0.38821223  0.77642446  0.05420767  1
  Cs  Cs3  1  0.61178777  0.22357554  0.94579233  1
  Cs  Cs4  1  0.61178777  0.22357554  0.55420767  1
  Cs  Cs5  1  0.38821223  0.77642446  0.44579233  1
  Li  Li6  1  0.00000000  -0.00000000  0.00000000  1
  Li  Li7  1  0.00000000  -0.00000000  0.50000000  1
  Pb  Pb8  1  0.26221818  0.08424225  0.25000000  1
  Pb  Pb9  1  0.73778182  0.91575775  0.75000000  1
  Pb  Pb10  1  0.82202407  0.08424225  0.25000000  1
  Pb  Pb11  1  0.17797593  0.91575775  0.75000000  1
  Pb  Pb12  1  0.16798311  0.33596623  0.10799654  1
  Pb  Pb13  1  0.83201689  0.66403377  0.89200346  1
  Pb  Pb14  1  0.83201689  0.66403377  0.60799654  1
  Pb  Pb15  1  0.16798311  0.33596623  0.39200346  1
