# generated using pymatgen
data_Cr5Te8
_symmetry_space_group_name_H-M   'P 1'
_cell_length_a   7.29501249
_cell_length_b   7.29501249
_cell_length_c   7.90471134
_cell_angle_alpha   106.47129749
_cell_angle_beta   105.08287497
_cell_angle_gamma   114.25533503
_symmetry_Int_Tables_number   1
_chemical_formula_structural   Cr5Te8
_chemical_formula_sum   'Cr5 Te8'
_cell_volume   331.90503593
_cell_formula_units_Z   1
loop_
 _symmetry_equiv_pos_site_id
 _symmetry_equiv_pos_as_xyz
  1  'x, y, z'
loop_
 _atom_site_type_symbol
 _atom_site_label
 _atom_site_symmetry_multiplicity
 _atom_site_fract_x
 _atom_site_fract_y
 _atom_site_fract_z
 _atom_site_occupancy
  Cr  Cr0  1  0.27243298  0.77243298  0.50000000  1
  Cr  Cr1  1  0.72756702  0.22756702  0.50000000  1
  Cr  Cr2  1  0.26838390  0.74861631  0.01700021  1
  Cr  Cr3  1  0.73161610  0.25138369  0.98299979  1
  Cr  Cr4  1  0.00000000  0.00000000  -0.00000000  1
  Te  Te5  1  0.55246460  0.78241501  0.33487962  1
  Te  Te6  1  0.44753540  0.21758499  0.66512038  1
  Te  Te7  1  0.45775760  0.20644292  0.17004222  1
  Te  Te8  1  0.54224240  0.79355708  0.82995778  1
  Te  Te9  1  0.03640069  0.28771537  0.82995778  1
  Te  Te10  1  0.96359931  0.71228463  0.17004222  1
  Te  Te11  1  0.02353562  0.30087096  0.32440658  1
  Te  Te12  1  0.97646438  0.69912904  0.67559342  1
