# generated using pymatgen
data_CrNiAg2F7
_symmetry_space_group_name_H-M   'P 1'
_cell_length_a   7.44888962
_cell_length_b   7.52394298
_cell_length_c   7.52394298
_cell_angle_alpha   61.69361681
_cell_angle_beta   60.32942953
_cell_angle_gamma   60.32942953
_symmetry_Int_Tables_number   1
_chemical_formula_structural   CrNiAg2F7
_chemical_formula_sum   'Cr2 Ni2 Ag4 F14'
_cell_volume   303.33370609
_cell_formula_units_Z   2
loop_
 _symmetry_equiv_pos_site_id
 _symmetry_equiv_pos_as_xyz
  1  'x, y, z'
loop_
 _atom_site_type_symbol
 _atom_site_label
 _atom_site_symmetry_multiplicity
 _atom_site_fract_x
 _atom_site_fract_y
 _atom_site_fract_z
 _atom_site_occupancy
  Cr  Cr0  1  0.25034290  0.11220220  0.88779780  1
  Cr  Cr1  1  0.74965710  0.11220220  0.88779780  1
  Ni  Ni2  1  0.24949427  0.11273479  0.38827666  1
  Ni  Ni3  1  0.75050573  0.61172334  0.88726521  1
  Ag  Ag4  1  0.24854486  0.61371866  0.88919162  1
  Ag  Ag5  1  0.75145514  0.11080838  0.38628134  1
  Ag  Ag6  1  0.25109298  0.61265843  0.38734157  1
  Ag  Ag7  1  0.74890702  0.61265843  0.38734157  1
  F  F8  1  0.34362374  0.79110798  0.52164453  1
  F  F9  1  0.65637626  0.47835547  0.20889202  1
  F  F10  1  0.56820663  0.06957057  0.18725604  1
  F  F11  1  0.43179337  0.81274396  0.93042943  1
  F  F12  1  0.82503324  0.81274396  0.93042943  1
  F  F13  1  0.17496676  0.06957057  0.18725604  1
  F  F14  1  0.32589335  0.15497402  0.58834034  1
  F  F15  1  0.67410665  0.41165966  0.84502598  1
  F  F16  1  0.06920770  0.41165966  0.84502598  1
  F  F17  1  0.93079230  0.15497402  0.58834034  1
  F  F18  1  0.00000000  0.02720408  0.97279592  1
  F  F19  1  0.15479777  0.43446153  0.25594293  1
  F  F20  1  0.84520223  0.74405707  0.56553847  1
  F  F21  1  0.50000000  0.19771103  0.80228897  1
