# generated using pymatgen
data_CsDy2Cl7
_symmetry_space_group_name_H-M   'P 1'
_cell_length_a   7.06489162
_cell_length_b   13.98001331
_cell_length_c   12.76113411
_cell_angle_alpha   90.00000000
_cell_angle_beta   90.00000000
_cell_angle_gamma   90.00000000
_symmetry_Int_Tables_number   1
_chemical_formula_structural   CsDy2Cl7
_chemical_formula_sum   'Cs4 Dy8 Cl28'
_cell_volume   1260.38249148
_cell_formula_units_Z   4
loop_
 _symmetry_equiv_pos_site_id
 _symmetry_equiv_pos_as_xyz
  1  'x, y, z'
loop_
 _atom_site_type_symbol
 _atom_site_label
 _atom_site_symmetry_multiplicity
 _atom_site_fract_x
 _atom_site_fract_y
 _atom_site_fract_z
 _atom_site_occupancy
  Cs  Cs0  1  0.75000000  0.95827260  0.19587524  1
  Cs  Cs1  1  0.25000000  0.04172740  0.80412476  1
  Cs  Cs2  1  0.25000000  0.54172740  0.69587524  1
  Cs  Cs3  1  0.75000000  0.45827260  0.30412476  1
  Dy  Dy4  1  0.75000000  0.76165013  0.54050165  1
  Dy  Dy5  1  0.25000000  0.23834987  0.45949835  1
  Dy  Dy6  1  0.25000000  0.73834987  0.04050165  1
  Dy  Dy7  1  0.75000000  0.26165013  0.95949835  1
  Dy  Dy8  1  0.75000000  0.74996623  0.84391839  1
  Dy  Dy9  1  0.25000000  0.25003377  0.15608161  1
  Dy  Dy10  1  0.25000000  0.75003377  0.34391839  1
  Dy  Dy11  1  0.75000000  0.24996623  0.65608161  1
  Cl  Cl12  1  0.98697477  0.82142592  0.69392693  1
  Cl  Cl13  1  0.01302523  0.17857408  0.30607307  1
  Cl  Cl14  1  0.01302523  0.67857408  0.19392693  1
  Cl  Cl15  1  0.48697477  0.17857408  0.30607307  1
  Cl  Cl16  1  0.98697477  0.32142592  0.80607307  1
  Cl  Cl17  1  0.51302523  0.82142592  0.69392693  1
  Cl  Cl18  1  0.51302523  0.32142592  0.80607307  1
  Cl  Cl19  1  0.48697477  0.67857408  0.19392693  1
  Cl  Cl20  1  0.99091221  0.87254814  0.42524030  1
  Cl  Cl21  1  0.00908779  0.12745186  0.57475970  1
  Cl  Cl22  1  0.00908779  0.62745186  0.92524030  1
  Cl  Cl23  1  0.49091221  0.12745186  0.57475970  1
  Cl  Cl24  1  0.99091221  0.37254814  0.07475970  1
  Cl  Cl25  1  0.50908779  0.87254814  0.42524030  1
  Cl  Cl26  1  0.50908779  0.37254814  0.07475970  1
  Cl  Cl27  1  0.49091221  0.62745186  0.92524030  1
  Cl  Cl28  1  0.99043306  0.86269078  0.95988154  1
  Cl  Cl29  1  0.00956694  0.13730922  0.04011846  1
  Cl  Cl30  1  0.00956694  0.63730922  0.45988154  1
  Cl  Cl31  1  0.49043306  0.13730922  0.04011846  1
  Cl  Cl32  1  0.99043306  0.36269078  0.54011846  1
  Cl  Cl33  1  0.50956694  0.86269078  0.95988154  1
  Cl  Cl34  1  0.50956694  0.36269078  0.54011846  1
  Cl  Cl35  1  0.49043306  0.63730922  0.45988154  1
  Cl  Cl36  1  0.75000000  0.61418561  0.68919314  1
  Cl  Cl37  1  0.25000000  0.38581439  0.31080686  1
  Cl  Cl38  1  0.25000000  0.88581439  0.18919314  1
  Cl  Cl39  1  0.75000000  0.11418561  0.81080686  1
