# generated using pymatgen
data_CsW3Cl7
_symmetry_space_group_name_H-M   'P 1'
_cell_length_a   10.23457581
_cell_length_b   10.23457581
_cell_length_c   15.20764220
_cell_angle_alpha   90.00000000
_cell_angle_beta   90.00000000
_cell_angle_gamma   119.99999810
_symmetry_Int_Tables_number   1
_chemical_formula_structural   CsW3Cl7
_chemical_formula_sum   'Cs4 W12 Cl28'
_cell_volume   1379.53340185
_cell_formula_units_Z   4
loop_
 _symmetry_equiv_pos_site_id
 _symmetry_equiv_pos_as_xyz
  1  'x, y, z'
loop_
 _atom_site_type_symbol
 _atom_site_label
 _atom_site_symmetry_multiplicity
 _atom_site_fract_x
 _atom_site_fract_y
 _atom_site_fract_z
 _atom_site_occupancy
  Cs  Cs0  1  0.00000000  -0.00000000  0.99548836  1
  Cs  Cs1  1  0.00000000  -0.00000000  0.49548836  1
  Cs  Cs2  1  0.66666700  0.33333300  0.71037056  1
  Cs  Cs3  1  0.33333300  0.66666700  0.21037056  1
  W  W4  1  0.48689858  0.67554153  0.78322734  1
  W  W5  1  0.18864296  0.51310142  0.78322734  1
  W  W6  1  0.81135704  0.32445847  0.28322734  1
  W  W7  1  0.32445847  0.81135704  0.78322734  1
  W  W8  1  0.67554153  0.48689858  0.28322734  1
  W  W9  1  0.51310142  0.18864296  0.28322734  1
  W  W10  1  0.47657504  0.82055688  0.64185980  1
  W  W11  1  0.34398184  0.52342496  0.64185980  1
  W  W12  1  0.65601816  0.17944312  0.14185980  1
  W  W13  1  0.17944312  0.65601816  0.64185980  1
  W  W14  1  0.82055688  0.47657504  0.14185980  1
  W  W15  1  0.52342496  0.34398184  0.14185980  1
  Cl  Cl16  1  0.62840277  0.68902342  0.64288373  1
  Cl  Cl17  1  0.06062065  0.37159723  0.64288373  1
  Cl  Cl18  1  0.93937935  0.31097658  0.14288373  1
  Cl  Cl19  1  0.31097658  0.93937935  0.64288373  1
  Cl  Cl20  1  0.68902342  0.62840277  0.14288373  1
  Cl  Cl21  1  0.37159723  0.06062065  0.14288373  1
  Cl  Cl22  1  0.98762260  0.31063411  0.86887434  1
  Cl  Cl23  1  0.32301151  0.01237740  0.86887434  1
  Cl  Cl24  1  0.67698849  0.68936589  0.36887434  1
  Cl  Cl25  1  0.68936589  0.67698849  0.86887434  1
  Cl  Cl26  1  0.31063411  0.98762260  0.36887434  1
  Cl  Cl27  1  0.01237740  0.32301151  0.36887434  1
  Cl  Cl28  1  0.66666700  0.33333300  0.01004229  1
  Cl  Cl29  1  0.33333300  0.66666700  0.51004229  1
  Cl  Cl30  1  0.66666700  0.33333300  0.41420153  1
  Cl  Cl31  1  0.33333300  0.66666700  0.91420153  1
  Cl  Cl32  1  0.60939265  0.95815996  0.78184245  1
  Cl  Cl33  1  0.34876731  0.39060735  0.78184245  1
  Cl  Cl34  1  0.65123269  0.04184004  0.28184245  1
  Cl  Cl35  1  0.04184004  0.65123269  0.78184245  1
  Cl  Cl36  1  0.95815996  0.60939265  0.28184245  1
  Cl  Cl37  1  0.39060735  0.34876731  0.28184245  1
  Cl  Cl38  1  0.66743114  0.03235347  0.55567809  1
  Cl  Cl39  1  0.36492233  0.33256886  0.55567809  1
  Cl  Cl40  1  0.63507767  0.96764653  0.05567809  1
  Cl  Cl41  1  0.96764653  0.63507767  0.55567809  1
  Cl  Cl42  1  0.03235347  0.66743114  0.05567809  1
  Cl  Cl43  1  0.33256886  0.36492233  0.05567809  1
