# generated using pymatgen
data_KCr3BiO12
_symmetry_space_group_name_H-M   'P 1'
_cell_length_a   6.96734401
_cell_length_b   7.30427087
_cell_length_c   11.06888154
_cell_angle_alpha   82.19964959
_cell_angle_beta   91.94069268
_cell_angle_gamma   83.96247817
_symmetry_Int_Tables_number   1
_chemical_formula_structural   KCr3BiO12
_chemical_formula_sum   'K2 Cr6 Bi2 O24'
_cell_volume   554.33967705
_cell_formula_units_Z   2
loop_
 _symmetry_equiv_pos_site_id
 _symmetry_equiv_pos_as_xyz
  1  'x, y, z'
loop_
 _atom_site_type_symbol
 _atom_site_label
 _atom_site_symmetry_multiplicity
 _atom_site_fract_x
 _atom_site_fract_y
 _atom_site_fract_z
 _atom_site_occupancy
  K  K0  1  0.85641356  0.00818720  0.32251384  1
  K  K1  1  0.14358644  0.99181280  0.67748616  1
  Cr  Cr2  1  0.15905640  0.75840496  0.03821607  1
  Cr  Cr3  1  0.84094360  0.24159504  0.96178393  1
  Cr  Cr4  1  0.36285253  0.47344133  0.74556553  1
  Cr  Cr5  1  0.63714747  0.52655867  0.25443447  1
  Cr  Cr6  1  0.60503228  0.18160343  0.61360621  1
  Cr  Cr7  1  0.39496772  0.81839657  0.38639379  1
  Bi  Bi8  1  0.64566321  0.78097611  0.91971535  1
  Bi  Bi9  1  0.35433679  0.21902389  0.08028465  1
  O  O10  1  0.06903447  0.79546465  0.16595127  1
  O  O11  1  0.93096553  0.20453535  0.83404873  1
  O  O12  1  0.67871591  0.08594178  0.99944659  1
  O  O13  1  0.32128409  0.91405822  0.00055341  1
  O  O14  1  0.97520599  0.78701888  0.92879461  1
  O  O15  1  0.02479401  0.21298112  0.07120539  1
  O  O16  1  0.72401059  0.45561868  0.94786792  1
  O  O17  1  0.27598941  0.54438132  0.05213208  1
  O  O18  1  0.38752836  0.67789479  0.79103907  1
  O  O19  1  0.61247164  0.32210521  0.20896093  1
  O  O20  1  0.17856938  0.49256545  0.65216934  1
  O  O21  1  0.82143062  0.50743455  0.34783066  1
  O  O22  1  0.66737437  0.68797215  0.13830200  1
  O  O23  1  0.33262563  0.31202785  0.86169800  1
  O  O24  1  0.42478649  0.60203646  0.32881239  1
  O  O25  1  0.57521351  0.39796354  0.67118761  1
  O  O26  1  0.40532587  0.99143877  0.26858410  1
  O  O27  1  0.59467413  0.00856123  0.73141590  1
  O  O28  1  0.19369551  0.84318670  0.45499534  1
  O  O29  1  0.80630449  0.15681330  0.54500466  1
  O  O30  1  0.57796425  0.81760081  0.47967718  1
  O  O31  1  0.42203575  0.18239919  0.52032282  1
  O  O32  1  0.80942038  0.75555211  0.73142442  1
  O  O33  1  0.19057962  0.24444789  0.26857558  1
