# generated using pymatgen
data_Er3Ga15Ru4
_symmetry_space_group_name_H-M   'P 1'
_cell_length_a   8.79245585
_cell_length_b   9.63537125
_cell_length_c   17.81850630
_cell_angle_alpha   90.00000000
_cell_angle_beta   90.00000000
_cell_angle_gamma   90.00000000
_symmetry_Int_Tables_number   1
_chemical_formula_structural   Er3Ga15Ru4
_chemical_formula_sum   'Er12 Ga60 Ru16'
_cell_volume   1509.55848578
_cell_formula_units_Z   4
loop_
 _symmetry_equiv_pos_site_id
 _symmetry_equiv_pos_as_xyz
  1  'x, y, z'
loop_
 _atom_site_type_symbol
 _atom_site_label
 _atom_site_symmetry_multiplicity
 _atom_site_fract_x
 _atom_site_fract_y
 _atom_site_fract_z
 _atom_site_occupancy
  Er  Er0  1  0.37585347  0.25000000  0.16779025  1
  Er  Er1  1  0.62414653  0.75000000  0.83220975  1
  Er  Er2  1  0.12414653  0.75000000  0.66779025  1
  Er  Er3  1  0.87585347  0.25000000  0.33220975  1
  Er  Er4  1  0.37530146  0.25000000  0.74834125  1
  Er  Er5  1  0.62469854  0.75000000  0.25165875  1
  Er  Er6  1  0.12469854  0.75000000  0.24834125  1
  Er  Er7  1  0.87530146  0.25000000  0.75165875  1
  Er  Er8  1  0.12557241  0.25000000  0.52424687  1
  Er  Er9  1  0.87442759  0.75000000  0.47575313  1
  Er  Er10  1  0.37442759  0.75000000  0.02424687  1
  Er  Er11  1  0.62557241  0.25000000  0.97575313  1
  Ga  Ga12  1  0.12659392  0.06084825  0.25282748  1
  Ga  Ga13  1  0.87340608  0.93915175  0.74717252  1
  Ga  Ga14  1  0.37340608  0.93915175  0.75282748  1
  Ga  Ga15  1  0.87340608  0.56084825  0.74717252  1
  Ga  Ga16  1  0.62659392  0.06084825  0.24717252  1
  Ga  Ga17  1  0.12659392  0.43915175  0.25282748  1
  Ga  Ga18  1  0.62659392  0.43915175  0.24717252  1
  Ga  Ga19  1  0.37340608  0.56084825  0.75282748  1
  Ga  Ga20  1  0.00734966  0.25000000  0.16881883  1
  Ga  Ga21  1  0.99265034  0.75000000  0.83118117  1
  Ga  Ga22  1  0.49265034  0.75000000  0.66881883  1
  Ga  Ga23  1  0.50734966  0.25000000  0.33118117  1
  Ga  Ga24  1  0.13318971  0.25000000  0.04176573  1
  Ga  Ga25  1  0.86681029  0.75000000  0.95823427  1
  Ga  Ga26  1  0.36681029  0.75000000  0.54176573  1
  Ga  Ga27  1  0.63318971  0.25000000  0.45823427  1
  Ga  Ga28  1  0.37444645  0.57763642  0.33140990  1
  Ga  Ga29  1  0.62555355  0.42236358  0.66859010  1
  Ga  Ga30  1  0.12555355  0.42236358  0.83140990  1
  Ga  Ga31  1  0.62555355  0.07763642  0.66859010  1
  Ga  Ga32  1  0.87444645  0.57763642  0.16859010  1
  Ga  Ga33  1  0.37444645  0.92236358  0.33140990  1
  Ga  Ga34  1  0.87444645  0.92236358  0.16859010  1
  Ga  Ga35  1  0.12555355  0.07763642  0.83140990  1
  Ga  Ga36  1  0.22094319  0.25000000  0.35926674  1
  Ga  Ga37  1  0.77905681  0.75000000  0.64073326  1
  Ga  Ga38  1  0.27905681  0.75000000  0.85926674  1
  Ga  Ga39  1  0.72094319  0.25000000  0.14073326  1
  Ga  Ga40  1  0.12414224  0.08735201  0.67192477  1
  Ga  Ga41  1  0.87585776  0.91264799  0.32807523  1
  Ga  Ga42  1  0.37585776  0.91264799  0.17192477  1
  Ga  Ga43  1  0.87585776  0.58735201  0.32807523  1
  Ga  Ga44  1  0.62414224  0.08735201  0.82807523  1
  Ga  Ga45  1  0.12414224  0.41264799  0.67192477  1
  Ga  Ga46  1  0.62414224  0.41264799  0.82807523  1
  Ga  Ga47  1  0.37585776  0.58735201  0.17192477  1
  Ga  Ga48  1  0.37732018  0.06153780  0.46538922  1
  Ga  Ga49  1  0.62267982  0.93846220  0.53461078  1
  Ga  Ga50  1  0.12267982  0.93846220  0.96538922  1
  Ga  Ga51  1  0.62267982  0.56153780  0.53461078  1
  Ga  Ga52  1  0.87732018  0.06153780  0.03461078  1
  Ga  Ga53  1  0.37732018  0.43846220  0.46538922  1
  Ga  Ga54  1  0.87732018  0.43846220  0.03461078  1
  Ga  Ga55  1  0.12267982  0.56153780  0.96538922  1
  Ga  Ga56  1  0.45081453  0.25000000  0.57759539  1
  Ga  Ga57  1  0.54918547  0.75000000  0.42240461  1
  Ga  Ga58  1  0.04918547  0.75000000  0.07759539  1
  Ga  Ga59  1  0.95081453  0.25000000  0.92240461  1
  Ga  Ga60  1  0.30462878  0.25000000  0.91807795  1
  Ga  Ga61  1  0.69537122  0.75000000  0.08192205  1
  Ga  Ga62  1  0.19537122  0.75000000  0.41807795  1
  Ga  Ga63  1  0.80462878  0.25000000  0.58192205  1
  Ga  Ga64  1  0.37396165  0.06923303  0.03292336  1
  Ga  Ga65  1  0.62603835  0.93076697  0.96707664  1
  Ga  Ga66  1  0.12603835  0.93076697  0.53292336  1
  Ga  Ga67  1  0.62603835  0.56923303  0.96707664  1
  Ga  Ga68  1  0.87396165  0.06923303  0.46707664  1
  Ga  Ga69  1  0.37396165  0.43076697  0.03292336  1
  Ga  Ga70  1  0.87396165  0.43076697  0.46707664  1
  Ga  Ga71  1  0.12603835  0.56923303  0.53292336  1
  Ru  Ru72  1  0.11741691  0.00375055  0.39034822  1
  Ru  Ru73  1  0.88258309  0.99624945  0.60965178  1
  Ru  Ru74  1  0.38258309  0.99624945  0.89034822  1
  Ru  Ru75  1  0.88258309  0.50375055  0.60965178  1
  Ru  Ru76  1  0.61741691  0.00375055  0.10965178  1
  Ru  Ru77  1  0.11741691  0.49624945  0.39034822  1
  Ru  Ru78  1  0.61741691  0.49624945  0.10965178  1
  Ru  Ru79  1  0.38258309  0.50375055  0.89034822  1
  Ru  Ru80  1  0.13030044  0.00478766  0.11346762  1
  Ru  Ru81  1  0.86969956  0.99521234  0.88653238  1
  Ru  Ru82  1  0.36969956  0.99521234  0.61346762  1
  Ru  Ru83  1  0.86969956  0.50478766  0.88653238  1
  Ru  Ru84  1  0.63030044  0.00478766  0.38653238  1
  Ru  Ru85  1  0.13030044  0.49521234  0.11346762  1
  Ru  Ru86  1  0.63030044  0.49521234  0.38653238  1
  Ru  Ru87  1  0.36969956  0.50478766  0.61346762  1
