# generated using pymatgen
data_Dy12Ni6Pb
_symmetry_space_group_name_H-M   'P 1'
_cell_length_a   8.39022191
_cell_length_b   8.39022191
_cell_length_c   8.39022191
_cell_angle_alpha   109.47122063
_cell_angle_beta   109.47122063
_cell_angle_gamma   109.47122063
_symmetry_Int_Tables_number   1
_chemical_formula_structural   Dy12Ni6Pb
_chemical_formula_sum   'Dy12 Ni6 Pb1'
_cell_volume   454.67225358
_cell_formula_units_Z   1
loop_
 _symmetry_equiv_pos_site_id
 _symmetry_equiv_pos_as_xyz
  1  'x, y, z'
loop_
 _atom_site_type_symbol
 _atom_site_label
 _atom_site_symmetry_multiplicity
 _atom_site_fract_x
 _atom_site_fract_y
 _atom_site_fract_z
 _atom_site_occupancy
  Dy  Dy0  1  0.81135129  0.69522566  0.50657695  1
  Dy  Dy1  1  0.18864871  0.30477434  0.49342305  1
  Dy  Dy2  1  0.18864871  0.69522566  0.88387436  1
  Dy  Dy3  1  0.81135129  0.30477434  0.11612564  1
  Dy  Dy4  1  0.69522566  0.50657695  0.81135129  1
  Dy  Dy5  1  0.30477434  0.49342305  0.18864871  1
  Dy  Dy6  1  0.69522566  0.88387436  0.18864871  1
  Dy  Dy7  1  0.30477434  0.11612564  0.81135129  1
  Dy  Dy8  1  0.50657695  0.81135129  0.69522566  1
  Dy  Dy9  1  0.49342305  0.18864871  0.30477434  1
  Dy  Dy10  1  0.11612564  0.81135129  0.30477434  1
  Dy  Dy11  1  0.88387436  0.18864871  0.69522566  1
  Ni  Ni12  1  0.87745175  0.37745175  0.50000000  1
  Ni  Ni13  1  0.12254825  0.62254825  0.50000000  1
  Ni  Ni14  1  0.37745175  0.50000000  0.87745175  1
  Ni  Ni15  1  0.62254825  0.50000000  0.12254825  1
  Ni  Ni16  1  0.50000000  0.87745175  0.37745175  1
  Ni  Ni17  1  0.50000000  0.12254825  0.62254825  1
  Pb  Pb18  1  -0.00000000  -0.00000000  0.00000000  1
