# generated using pymatgen
data_Ce2(Ga3Rh)3
_symmetry_space_group_name_H-M   'P 1'
_cell_length_a   7.65659784
_cell_length_b   7.65659784
_cell_length_c   9.49292751
_cell_angle_alpha   90.00000000
_cell_angle_beta   90.00000000
_cell_angle_gamma   119.75510304
_symmetry_Int_Tables_number   1
_chemical_formula_structural   Ce2(Ga3Rh)3
_chemical_formula_sum   'Ce4 Ga18 Rh6'
_cell_volume   483.13546237
_cell_formula_units_Z   2
loop_
 _symmetry_equiv_pos_site_id
 _symmetry_equiv_pos_as_xyz
  1  'x, y, z'
loop_
 _atom_site_type_symbol
 _atom_site_label
 _atom_site_symmetry_multiplicity
 _atom_site_fract_x
 _atom_site_fract_y
 _atom_site_fract_z
 _atom_site_occupancy
  Ce  Ce0  1  0.66845183  0.99765551  0.25000000  1
  Ce  Ce1  1  0.33154817  0.00234449  0.75000000  1
  Ce  Ce2  1  0.99765551  0.66845183  0.25000000  1
  Ce  Ce3  1  0.00234449  0.33154817  0.75000000  1
  Ga  Ga4  1  0.12730453  0.12730453  0.25000000  1
  Ga  Ga5  1  0.87269547  0.87269547  0.75000000  1
  Ga  Ga6  1  0.33418065  0.00162983  0.07777667  1
  Ga  Ga7  1  0.66581935  0.99837017  0.92222333  1
  Ga  Ga8  1  0.66581935  0.99837017  0.57777667  1
  Ga  Ga9  1  0.00162983  0.33418065  0.42222333  1
  Ga  Ga10  1  0.33418065  0.00162983  0.42222333  1
  Ga  Ga11  1  0.99837017  0.66581935  0.57777667  1
  Ga  Ga12  1  0.99837017  0.66581935  0.92222333  1
  Ga  Ga13  1  0.00162983  0.33418065  0.07777667  1
  Ga  Ga14  1  0.33407716  0.33407716  0.56240198  1
  Ga  Ga15  1  0.66592284  0.66592284  0.43759802  1
  Ga  Ga16  1  0.66592284  0.66592284  0.06240198  1
  Ga  Ga17  1  0.33407716  0.33407716  0.93759802  1
  Ga  Ga18  1  0.54442644  0.33809100  0.25000000  1
  Ga  Ga19  1  0.45557356  0.66190900  0.75000000  1
  Ga  Ga20  1  0.33809100  0.54442644  0.25000000  1
  Ga  Ga21  1  0.66190900  0.45557356  0.75000000  1
  Rh  Rh22  1  0.32894578  0.67105422  0.00000000  1
  Rh  Rh23  1  0.67105422  0.32894578  0.00000000  1
  Rh  Rh24  1  0.67105422  0.32894578  0.50000000  1
  Rh  Rh25  1  0.32894578  0.67105422  0.50000000  1
  Rh  Rh26  1  -0.00000000  -0.00000000  0.00000000  1
  Rh  Rh27  1  -0.00000000  -0.00000000  0.50000000  1
