# generated using pymatgen
data_CrI3
_symmetry_space_group_name_H-M   'P 1'
_cell_length_a   7.00751446
_cell_length_b   7.00751446
_cell_length_c   21.39423350
_cell_angle_alpha   90.00000000
_cell_angle_beta   90.00000000
_cell_angle_gamma   120.00000491
_symmetry_Int_Tables_number   1
_chemical_formula_structural   CrI3
_chemical_formula_sum   'Cr6 I18'
_cell_volume   909.81972232
_cell_formula_units_Z   6
loop_
 _symmetry_equiv_pos_site_id
 _symmetry_equiv_pos_as_xyz
  1  'x, y, z'
loop_
 _atom_site_type_symbol
 _atom_site_label
 _atom_site_symmetry_multiplicity
 _atom_site_fract_x
 _atom_site_fract_y
 _atom_site_fract_z
 _atom_site_occupancy
  Cr  Cr0  1  0.22279886  0.44559772  0.66666700  1
  Cr  Cr1  1  0.22279886  0.77720114  0.33333300  1
  Cr  Cr2  1  0.55440228  0.77720114  -0.00000000  1
  Cr  Cr3  1  0.55571396  0.11142792  0.66666700  1
  Cr  Cr4  1  0.55571396  0.44428604  0.33333300  1
  Cr  Cr5  1  0.88857208  0.44428604  -0.00000000  1
  I  I6  1  0.53036501  0.77819942  0.74002594  1
  I  I7  1  0.24783441  0.46963499  0.40669294  1
  I  I8  1  0.24783441  0.77819942  0.59330706  1
  I  I9  1  0.22180058  0.75216559  0.07335894  1
  I  I10  1  0.22180058  0.46963499  0.92664106  1
  I  I11  1  0.53036501  0.75216559  0.25997406  1
  I  I12  1  0.88915055  0.41922073  0.73996075  1
  I  I13  1  0.53007019  0.11084945  0.40662775  1
  I  I14  1  0.53007019  0.41922073  0.59337225  1
  I  I15  1  0.58077927  0.46992981  0.07329375  1
  I  I16  1  0.58077927  0.11084945  0.92670625  1
  I  I17  1  0.88915055  0.46992981  0.26003925  1
  I  I18  1  0.88900157  0.13707218  0.59310278  1
  I  I19  1  0.24807061  0.11099843  0.25976978  1
  I  I20  1  0.24807061  0.13707218  0.74023022  1
  I  I21  1  0.86292782  0.75192939  0.92643578  1
  I  I22  1  0.86292782  0.11099843  0.07356422  1
  I  I23  1  0.88900157  0.75192939  0.40689722  1
