# generated using pymatgen
data_Ce2Sn3
_symmetry_space_group_name_H-M   'P 1'
_cell_length_a   6.43826849
_cell_length_b   8.40999995
_cell_length_c   11.16681848
_cell_angle_alpha   106.76587933
_cell_angle_beta   96.67224169
_cell_angle_gamma   100.28602235
_symmetry_Int_Tables_number   1
_chemical_formula_structural   Ce2Sn3
_chemical_formula_sum   'Ce8 Sn12'
_cell_volume   560.53313607
_cell_formula_units_Z   4
loop_
 _symmetry_equiv_pos_site_id
 _symmetry_equiv_pos_as_xyz
  1  'x, y, z'
loop_
 _atom_site_type_symbol
 _atom_site_label
 _atom_site_symmetry_multiplicity
 _atom_site_fract_x
 _atom_site_fract_y
 _atom_site_fract_z
 _atom_site_occupancy
  Ce  Ce0  1  0.33176304  0.03237770  0.74371619  1
  Ce  Ce1  1  0.66823696  0.96762230  0.25628381  1
  Ce  Ce2  1  0.95735515  0.25194486  0.05619910  1
  Ce  Ce3  1  0.04264485  0.74805514  0.94380090  1
  Ce  Ce4  1  0.55950554  0.43156770  0.33769318  1
  Ce  Ce5  1  0.44049446  0.56843230  0.66230682  1
  Ce  Ce6  1  0.12558179  0.75567924  0.38455840  1
  Ce  Ce7  1  0.87441821  0.24432076  0.61544160  1
  Sn  Sn8  1  0.04640103  0.35553645  0.37837151  1
  Sn  Sn9  1  0.95359897  0.64446355  0.62162849  1
  Sn  Sn10  1  0.35924879  0.16652072  0.50074832  1
  Sn  Sn11  1  0.64075121  0.83347928  0.49925168  1
  Sn  Sn12  1  0.43779866  0.17162260  0.05064148  1
  Sn  Sn13  1  0.56220134  0.82837740  0.94935852  1
  Sn  Sn14  1  0.32192798  0.60213334  0.14083106  1
  Sn  Sn15  1  0.67807202  0.39786666  0.85916894  1
  Sn  Sn16  1  0.21903139  0.40409051  0.86319045  1
  Sn  Sn17  1  0.78096861  0.59590949  0.13680955  1
  Sn  Sn18  1  0.17463758  0.03375424  0.22179940  1
  Sn  Sn19  1  0.82536242  0.96624576  0.77820060  1
