# generated using pymatgen
data_Ce3Ni2Ge7
_symmetry_space_group_name_H-M   'P 1'
_cell_length_a   4.26241481
_cell_length_b   4.28282417
_cell_length_c   12.81839405
_cell_angle_alpha   90.00000000
_cell_angle_beta   99.57053437
_cell_angle_gamma   90.00000000
_symmetry_Int_Tables_number   1
_chemical_formula_structural   Ce3Ni2Ge7
_chemical_formula_sum   'Ce3 Ni2 Ge7'
_cell_volume   230.74508639
_cell_formula_units_Z   1
loop_
 _symmetry_equiv_pos_site_id
 _symmetry_equiv_pos_as_xyz
  1  'x, y, z'
loop_
 _atom_site_type_symbol
 _atom_site_label
 _atom_site_symmetry_multiplicity
 _atom_site_fract_x
 _atom_site_fract_y
 _atom_site_fract_z
 _atom_site_occupancy
  Ce  Ce0  1  0.68485679  0.50000000  0.36971359  1
  Ce  Ce1  1  0.31514321  0.50000000  0.63028641  1
  Ce  Ce2  1  -0.00000000  0.00000000  0.00000000  1
  Ni  Ni3  1  0.87127745  0.00000000  0.74255491  1
  Ni  Ni4  1  0.12872255  0.00000000  0.25744509  1
  Ge  Ge5  1  0.58816082  -0.00000000  0.17632164  1
  Ge  Ge6  1  0.41183918  -0.00000000  0.82367836  1
  Ge  Ge7  1  0.77788143  -0.00000000  0.55576285  1
  Ge  Ge8  1  0.22211857  -0.00000000  0.44423715  1
  Ge  Ge9  1  0.91162733  0.50000000  0.82325466  1
  Ge  Ge10  1  0.08837267  0.50000000  0.17674534  1
  Ge  Ge11  1  0.50000000  0.50000000  0.00000000  1
