# generated using pymatgen
data_Co2PO4F
_symmetry_space_group_name_H-M   'P 1'
_cell_length_a   6.47960616
_cell_length_b   7.33879687
_cell_length_c   9.35351501
_cell_angle_alpha   71.18544264
_cell_angle_beta   69.73438155
_cell_angle_gamma   63.80277295
_symmetry_Int_Tables_number   1
_chemical_formula_structural   Co2PO4F
_chemical_formula_sum   'Co8 P4 O16 F4'
_cell_volume   366.71171044
_cell_formula_units_Z   4
loop_
 _symmetry_equiv_pos_site_id
 _symmetry_equiv_pos_as_xyz
  1  'x, y, z'
loop_
 _atom_site_type_symbol
 _atom_site_label
 _atom_site_symmetry_multiplicity
 _atom_site_fract_x
 _atom_site_fract_y
 _atom_site_fract_z
 _atom_site_occupancy
  Co  Co0  1  0.55681594  0.54520627  0.14349904  1
  Co  Co1  1  0.44318406  0.45479373  0.85650096  1
  Co  Co2  1  0.24552125  0.95479373  0.35650096  1
  Co  Co3  1  0.75447875  0.04520627  0.64349904  1
  Co  Co4  1  0.72084526  0.61041035  0.50163404  1
  Co  Co5  1  0.27915474  0.38958965  0.49836596  1
  Co  Co6  1  0.83288965  0.88958965  0.99836596  1
  Co  Co7  1  0.16711035  0.11041035  0.00163404  1
  P  P8  1  0.72809867  0.04592656  0.30836166  1
  P  P9  1  0.27190133  0.95407344  0.69163834  1
  P  P10  1  0.08238689  0.45407344  0.19163834  1
  P  P11  1  0.91761311  0.54592656  0.80836166  1
  O  O12  1  0.58324742  0.90254734  0.36329308  1
  O  O13  1  0.41675258  0.09745266  0.63670692  1
  O  O14  1  0.84908784  0.59745266  0.13670692  1
  O  O15  1  0.15091216  0.40254734  0.86329308  1
  O  O16  1  0.28207050  0.53071962  0.07909239  1
  O  O17  1  0.71792950  0.46928038  0.92090761  1
  O  O18  1  0.89188251  0.96928038  0.42090761  1
  O  O19  1  0.10811749  0.03071962  0.57909239  1
  O  O20  1  0.55913967  0.27545035  0.30840918  1
  O  O21  1  0.44086033  0.72454965  0.69159082  1
  O  O22  1  0.14299921  0.22454965  0.19159082  1
  O  O23  1  0.85700079  0.77545035  0.80840918  1
  O  O24  1  0.88018626  0.02274690  0.13999933  1
  O  O25  1  0.11981374  0.97725310  0.86000067  1
  O  O26  1  0.04293249  0.47725310  0.36000067  1
  O  O27  1  0.95706751  0.52274690  0.63999933  1
  F  F28  1  0.40851214  0.86533952  0.10846627  1
  F  F29  1  0.59148786  0.13466048  0.89153373  1
  F  F30  1  0.38231793  0.63466048  0.39153373  1
  F  F31  1  0.61768207  0.36533952  0.60846627  1
