# generated using pymatgen
data_CeTa7O19
_symmetry_space_group_name_H-M   'P 1'
_cell_length_a   6.29426879
_cell_length_b   6.29426879
_cell_length_c   20.18391999
_cell_angle_alpha   90.00000000
_cell_angle_beta   90.00000000
_cell_angle_gamma   119.99999046
_symmetry_Int_Tables_number   1
_chemical_formula_structural   CeTa7O19
_chemical_formula_sum   'Ce2 Ta14 O38'
_cell_volume   692.51113326
_cell_formula_units_Z   2
loop_
 _symmetry_equiv_pos_site_id
 _symmetry_equiv_pos_as_xyz
  1  'x, y, z'
loop_
 _atom_site_type_symbol
 _atom_site_label
 _atom_site_symmetry_multiplicity
 _atom_site_fract_x
 _atom_site_fract_y
 _atom_site_fract_z
 _atom_site_occupancy
  Ce  Ce0  1  0.00000000  -0.00000000  0.00000000  1
  Ce  Ce1  1  0.00000000  -0.00000000  0.50000000  1
  Ta  Ta2  1  0.97413729  0.30883091  0.84401316  1
  Ta  Ta3  1  0.33469361  0.02586271  0.84401316  1
  Ta  Ta4  1  0.97413729  0.30883091  0.65598684  1
  Ta  Ta5  1  0.33469361  0.30883091  0.34401316  1
  Ta  Ta6  1  0.69116909  0.66530639  0.84401316  1
  Ta  Ta7  1  0.33469361  0.02586271  0.65598684  1
  Ta  Ta8  1  0.69116909  0.02586271  0.34401316  1
  Ta  Ta9  1  0.33469361  0.30883091  0.15598684  1
  Ta  Ta10  1  0.69116909  0.66530639  0.65598684  1
  Ta  Ta11  1  0.69116909  0.02586271  0.15598684  1
  Ta  Ta12  1  0.97413729  0.66530639  0.34401316  1
  Ta  Ta13  1  0.97413729  0.66530639  0.15598684  1
  Ta  Ta14  1  0.66666700  0.33333300  -0.00000000  1
  Ta  Ta15  1  0.66666700  0.33333300  0.50000000  1
  O  O16  1  0.95721843  0.25281556  0.75000000  1
  O  O17  1  0.29559713  0.04278157  0.75000000  1
  O  O18  1  0.29559713  0.25281556  0.25000000  1
  O  O19  1  0.74718444  0.70440287  0.75000000  1
  O  O20  1  0.74718444  0.04278157  0.25000000  1
  O  O21  1  0.95721843  0.70440287  0.25000000  1
  O  O22  1  0.57880238  0.91180792  0.84666376  1
  O  O23  1  0.33300554  0.42119762  0.84666376  1
  O  O24  1  0.57880238  0.91180792  0.65333624  1
  O  O25  1  0.33300554  0.91180792  0.34666376  1
  O  O26  1  0.08819208  0.66699446  0.84666376  1
  O  O27  1  0.33300554  0.42119762  0.65333624  1
  O  O28  1  0.08819208  0.42119762  0.34666376  1
  O  O29  1  0.33300554  0.91180792  0.15333624  1
  O  O30  1  0.08819208  0.66699446  0.65333624  1
  O  O31  1  0.08819208  0.42119762  0.15333624  1
  O  O32  1  0.57880238  0.66699446  0.34666376  1
  O  O33  1  0.57880238  0.66699446  0.15333624  1
  O  O34  1  0.66666700  0.33333300  0.83452645  1
  O  O35  1  0.66666700  0.33333300  0.66547355  1
  O  O36  1  0.66666700  0.33333300  0.33452645  1
  O  O37  1  0.66666700  0.33333300  0.16547355  1
  O  O38  1  0.00000000  -0.00000000  0.86745867  1
  O  O39  1  0.00000000  -0.00000000  0.63254133  1
  O  O40  1  0.00000000  -0.00000000  0.36745867  1
  O  O41  1  0.00000000  -0.00000000  0.13254133  1
  O  O42  1  0.90504750  0.28915640  0.94364184  1
  O  O43  1  0.38410890  0.09495250  0.94364184  1
  O  O44  1  0.90504750  0.28915640  0.55635816  1
  O  O45  1  0.38410890  0.28915640  0.44364184  1
  O  O46  1  0.71084360  0.61589110  0.94364184  1
  O  O47  1  0.38410890  0.09495250  0.55635816  1
  O  O48  1  0.71084360  0.09495250  0.44364184  1
  O  O49  1  0.38410890  0.28915640  0.05635816  1
  O  O50  1  0.71084360  0.61589110  0.55635816  1
  O  O51  1  0.71084360  0.09495250  0.05635816  1
  O  O52  1  0.90504750  0.61589110  0.44364184  1
  O  O53  1  0.90504750  0.61589110  0.05635816  1
