# generated using pymatgen
data_CeHf2F11
_symmetry_space_group_name_H-M   'P 1'
_cell_length_a   7.80065675
_cell_length_b   8.46458891
_cell_length_c   8.46458891
_cell_angle_alpha   73.23452465
_cell_angle_beta   62.56243389
_cell_angle_gamma   62.56243389
_symmetry_Int_Tables_number   1
_chemical_formula_structural   CeHf2F11
_chemical_formula_sum   'Ce2 Hf4 F22'
_cell_volume   438.18201332
_cell_formula_units_Z   2
loop_
 _symmetry_equiv_pos_site_id
 _symmetry_equiv_pos_as_xyz
  1  'x, y, z'
loop_
 _atom_site_type_symbol
 _atom_site_label
 _atom_site_symmetry_multiplicity
 _atom_site_fract_x
 _atom_site_fract_y
 _atom_site_fract_z
 _atom_site_occupancy
  Ce  Ce0  1  0.25000000  0.25000000  0.25000000  1
  Ce  Ce1  1  0.75000000  0.75000000  0.75000000  1
  Hf  Hf2  1  0.86636639  0.81913654  0.18086346  1
  Hf  Hf3  1  0.13363361  0.18086346  0.81913654  1
  Hf  Hf4  1  0.63363361  0.31913654  0.68086346  1
  Hf  Hf5  1  0.36636639  0.68086346  0.31913654  1
  F  F6  1  0.60869696  0.05135998  0.20548775  1
  F  F7  1  0.39130304  0.94864002  0.79451225  1
  F  F8  1  0.13445531  0.20548775  0.05135998  1
  F  F9  1  0.89130304  0.29451225  0.44864002  1
  F  F10  1  0.86554469  0.79451225  0.94864002  1
  F  F11  1  0.10869696  0.70548775  0.55135998  1
  F  F12  1  0.36554469  0.44864002  0.29451225  1
  F  F13  1  0.63445531  0.55135998  0.70548775  1
  F  F14  1  0.00000000  -0.00000000  -0.00000000  1
  F  F15  1  0.50000000  0.50000000  0.50000000  1
  F  F16  1  0.62947531  0.72067253  0.27932747  1
  F  F17  1  0.37052469  0.27932747  0.72067253  1
  F  F18  1  0.87052469  0.22067253  0.77932747  1
  F  F19  1  0.12947531  0.77932747  0.22067253  1
  F  F20  1  0.76266985  0.82137093  0.44862676  1
  F  F21  1  0.23733015  0.17862907  0.55137324  1
  F  F22  1  0.96733246  0.44862676  0.82137093  1
  F  F23  1  0.73733015  0.05137324  0.67862907  1
  F  F24  1  0.03266754  0.55137324  0.17862907  1
  F  F25  1  0.26266985  0.94862676  0.32137093  1
  F  F26  1  0.53266754  0.67862907  0.05137324  1
  F  F27  1  0.46733246  0.32137093  0.94862676  1
