# generated using pymatgen
data_CaP2PdO7
_symmetry_space_group_name_H-M   'P 1'
_cell_length_a   5.96703785
_cell_length_b   13.12704055
_cell_length_c   7.29666111
_cell_angle_alpha   90.00000000
_cell_angle_beta   90.00000000
_cell_angle_gamma   90.00000000
_symmetry_Int_Tables_number   1
_chemical_formula_structural   CaP2PdO7
_chemical_formula_sum   'Ca4 P8 Pd4 O28'
_cell_volume   571.54416534
_cell_formula_units_Z   4
loop_
 _symmetry_equiv_pos_site_id
 _symmetry_equiv_pos_as_xyz
  1  'x, y, z'
loop_
 _atom_site_type_symbol
 _atom_site_label
 _atom_site_symmetry_multiplicity
 _atom_site_fract_x
 _atom_site_fract_y
 _atom_site_fract_z
 _atom_site_occupancy
  Ca  Ca0  1  0.75000000  0.75594371  0.25907386  1
  Ca  Ca1  1  0.25000000  0.24405629  0.74092614  1
  Ca  Ca2  1  0.25000000  0.74405629  0.75907386  1
  Ca  Ca3  1  0.75000000  0.25594371  0.24092614  1
  P  P4  1  0.75000000  0.87531853  0.70820108  1
  P  P5  1  0.25000000  0.12468147  0.29179892  1
  P  P6  1  0.25000000  0.62468147  0.20820108  1
  P  P7  1  0.75000000  0.37531853  0.79179892  1
  P  P8  1  0.75000000  0.59465838  0.82812166  1
  P  P9  1  0.25000000  0.40534162  0.17187834  1
  P  P10  1  0.25000000  0.90534162  0.32812166  1
  P  P11  1  0.75000000  0.09465838  0.67187834  1
  Pd  Pd12  1  0.00000000  -0.00000000  0.00000000  1
  Pd  Pd13  1  0.00000000  0.50000000  0.50000000  1
  Pd  Pd14  1  0.50000000  -0.00000000  0.00000000  1
  Pd  Pd15  1  0.50000000  0.50000000  0.50000000  1
  O  O16  1  0.75000000  0.66787204  0.98412071  1
  O  O17  1  0.25000000  0.33212796  0.01587929  1
  O  O18  1  0.25000000  0.83212796  0.48412071  1
  O  O19  1  0.75000000  0.16787204  0.51587929  1
  O  O20  1  0.75000000  0.97961491  0.59096178  1
  O  O21  1  0.25000000  0.02038509  0.40903822  1
  O  O22  1  0.25000000  0.52038509  0.09096178  1
  O  O23  1  0.75000000  0.47961491  0.90903822  1
  O  O24  1  0.75000000  0.78928204  0.57338323  1
  O  O25  1  0.25000000  0.21071796  0.42661677  1
  O  O26  1  0.25000000  0.71071796  0.07338323  1
  O  O27  1  0.75000000  0.28928204  0.92661677  1
  O  O28  1  0.97025614  0.60244717  0.71273341  1
  O  O29  1  0.02974386  0.39755283  0.28726659  1
  O  O30  1  0.02974386  0.89755283  0.21273341  1
  O  O31  1  0.47025614  0.39755283  0.28726659  1
  O  O32  1  0.97025614  0.10244717  0.78726659  1
  O  O33  1  0.52974386  0.60244717  0.71273341  1
  O  O34  1  0.52974386  0.10244717  0.78726659  1
  O  O35  1  0.47025614  0.89755283  0.21273341  1
  O  O36  1  0.96577934  0.87584114  0.82911806  1
  O  O37  1  0.03422066  0.12415886  0.17088194  1
  O  O38  1  0.03422066  0.62415886  0.32911806  1
  O  O39  1  0.46577934  0.12415886  0.17088194  1
  O  O40  1  0.96577934  0.37584114  0.67088194  1
  O  O41  1  0.53422066  0.87584114  0.82911806  1
  O  O42  1  0.53422066  0.37584114  0.67088194  1
  O  O43  1  0.46577934  0.62415886  0.32911806  1
