# generated using pymatgen
data_Cs(Nb2Cl5)3
_symmetry_space_group_name_H-M   'P 1'
_cell_length_a   9.59071815
_cell_length_b   13.86203382
_cell_length_c   18.30874178
_cell_angle_alpha   90.00000000
_cell_angle_beta   90.00000000
_cell_angle_gamma   90.00000000
_symmetry_Int_Tables_number   1
_chemical_formula_structural   Cs(Nb2Cl5)3
_chemical_formula_sum   'Cs4 Nb24 Cl60'
_cell_volume   2434.08971836
_cell_formula_units_Z   4
loop_
 _symmetry_equiv_pos_site_id
 _symmetry_equiv_pos_as_xyz
  1  'x, y, z'
loop_
 _atom_site_type_symbol
 _atom_site_label
 _atom_site_symmetry_multiplicity
 _atom_site_fract_x
 _atom_site_fract_y
 _atom_site_fract_z
 _atom_site_occupancy
  Cs  Cs0  1  0.18423317  0.74609974  0.75000000  1
  Cs  Cs1  1  0.81576683  0.25390026  0.25000000  1
  Cs  Cs2  1  0.18423317  0.25390026  0.75000000  1
  Cs  Cs3  1  0.81576683  0.74609974  0.25000000  1
  Nb  Nb4  1  0.92212691  0.50000000  0.39536340  1
  Nb  Nb5  1  0.07787309  0.50000000  0.60463660  1
  Nb  Nb6  1  0.92212691  0.50000000  0.10463660  1
  Nb  Nb7  1  0.07787309  0.50000000  0.89536340  1
  Nb  Nb8  1  0.85550166  0.60704697  0.97081717  1
  Nb  Nb9  1  0.14449834  0.39295303  0.02918283  1
  Nb  Nb10  1  0.85550166  0.39295303  0.52918283  1
  Nb  Nb11  1  0.14449834  0.60704697  0.02918283  1
  Nb  Nb12  1  0.14449834  0.60704697  0.47081717  1
  Nb  Nb13  1  0.85550166  0.39295303  0.97081717  1
  Nb  Nb14  1  0.14449834  0.39295303  0.47081717  1
  Nb  Nb15  1  0.85550166  0.60704697  0.52918283  1
  Nb  Nb16  1  0.66833885  0.89262153  0.83111009  1
  Nb  Nb17  1  0.33166115  0.10737847  0.16888991  1
  Nb  Nb18  1  0.66833885  0.10737847  0.66888991  1
  Nb  Nb19  1  0.33166115  0.89262153  0.16888991  1
  Nb  Nb20  1  0.33166115  0.89262153  0.33111009  1
  Nb  Nb21  1  0.66833885  0.10737847  0.83111009  1
  Nb  Nb22  1  0.33166115  0.10737847  0.33111009  1
  Nb  Nb23  1  0.66833885  0.89262153  0.66888991  1
  Nb  Nb24  1  0.45383027  -0.00000000  0.75000000  1
  Nb  Nb25  1  0.54616973  0.00000000  0.25000000  1
  Nb  Nb26  1  0.88095601  0.00000000  0.75000000  1
  Nb  Nb27  1  0.11904399  0.00000000  0.25000000  1
  Cl  Cl28  1  0.67123239  0.74961849  0.93360847  1
  Cl  Cl29  1  0.32876761  0.25038151  0.06639153  1
  Cl  Cl30  1  0.67123239  0.25038151  0.56639153  1
  Cl  Cl31  1  0.32876761  0.74961849  0.06639153  1
  Cl  Cl32  1  0.32876761  0.74961849  0.43360847  1
  Cl  Cl33  1  0.67123239  0.25038151  0.93360847  1
  Cl  Cl34  1  0.32876761  0.25038151  0.43360847  1
  Cl  Cl35  1  0.67123239  0.74961849  0.56639153  1
  Cl  Cl36  1  0.92028747  0.62130795  0.84149237  1
  Cl  Cl37  1  0.07971253  0.37869205  0.15850763  1
  Cl  Cl38  1  0.92028747  0.37869205  0.65850763  1
  Cl  Cl39  1  0.07971253  0.62130795  0.15850763  1
  Cl  Cl40  1  0.07971253  0.62130795  0.34149237  1
  Cl  Cl41  1  0.92028747  0.37869205  0.84149237  1
  Cl  Cl42  1  0.07971253  0.37869205  0.34149237  1
  Cl  Cl43  1  0.92028747  0.62130795  0.65850763  1
  Cl  Cl44  1  0.41303004  0.87951649  0.84892177  1
  Cl  Cl45  1  0.58696996  0.12048351  0.15107823  1
  Cl  Cl46  1  0.41303004  0.12048351  0.65107823  1
  Cl  Cl47  1  0.58696996  0.87951649  0.15107823  1
  Cl  Cl48  1  0.58696996  0.87951649  0.34892177  1
  Cl  Cl49  1  0.41303004  0.12048351  0.84892177  1
  Cl  Cl50  1  0.58696996  0.12048351  0.34892177  1
  Cl  Cl51  1  0.41303004  0.87951649  0.65107823  1
  Cl  Cl52  1  0.66303762  0.50000000  0.93179224  1
  Cl  Cl53  1  0.33696238  0.50000000  0.06820776  1
  Cl  Cl54  1  0.66303762  0.50000000  0.56820776  1
  Cl  Cl55  1  0.33696238  0.50000000  0.43179224  1
  Cl  Cl56  1  0.65710740  0.75017741  0.75000000  1
  Cl  Cl57  1  0.34289260  0.24982259  0.25000000  1
  Cl  Cl58  1  0.65710740  0.24982259  0.75000000  1
  Cl  Cl59  1  0.34289260  0.75017741  0.25000000  1
  Cl  Cl60  1  0.67041247  0.00000000  0.93883824  1
  Cl  Cl61  1  0.32958753  0.00000000  0.06116176  1
  Cl  Cl62  1  0.67041247  0.00000000  0.56116176  1
  Cl  Cl63  1  0.32958753  -0.00000000  0.43883824  1
  Cl  Cl64  1  0.18159737  0.50000000  0.75000000  1
  Cl  Cl65  1  0.81840263  0.50000000  0.25000000  1
  Cl  Cl66  1  0.16840332  0.00000000  0.75000000  1
  Cl  Cl67  1  0.83159668  -0.00000000  0.25000000  1
  Cl  Cl68  1  0.73430112  0.62259804  0.40982803  1
  Cl  Cl69  1  0.26569888  0.37740196  0.59017197  1
  Cl  Cl70  1  0.73430112  0.37740196  0.09017197  1
  Cl  Cl71  1  0.26569888  0.62259804  0.59017197  1
  Cl  Cl72  1  0.26569888  0.62259804  0.90982803  1
  Cl  Cl73  1  0.73430112  0.37740196  0.40982803  1
  Cl  Cl74  1  0.26569888  0.37740196  0.90982803  1
  Cl  Cl75  1  0.73430112  0.62259804  0.09017197  1
  Cl  Cl76  1  0.92338786  0.87793646  0.84562030  1
  Cl  Cl77  1  0.07661214  0.12206354  0.15437970  1
  Cl  Cl78  1  0.92338786  0.12206354  0.65437970  1
  Cl  Cl79  1  0.07661214  0.87793646  0.15437970  1
  Cl  Cl80  1  0.07661214  0.87793646  0.34562030  1
  Cl  Cl81  1  0.92338786  0.12206354  0.84562030  1
  Cl  Cl82  1  0.07661214  0.12206354  0.34562030  1
  Cl  Cl83  1  0.92338786  0.87793646  0.65437970  1
  Cl  Cl84  1  0.00000000  0.74909665  0.00000000  1
  Cl  Cl85  1  0.00000000  0.25090335  0.00000000  1
  Cl  Cl86  1  0.00000000  0.25090335  0.50000000  1
  Cl  Cl87  1  0.00000000  0.74909665  0.50000000  1
