# generated using pymatgen
data_LaN3
_symmetry_space_group_name_H-M   'P 1'
_cell_length_a   7.40059373
_cell_length_b   8.71095736
_cell_length_c   10.23464327
_cell_angle_alpha   90.00000000
_cell_angle_beta   90.00000000
_cell_angle_gamma   114.46460232
_symmetry_Int_Tables_number   1
_chemical_formula_structural   LaN3
_chemical_formula_sum   'La8 N24'
_cell_volume   600.55148537
_cell_formula_units_Z   8
loop_
 _symmetry_equiv_pos_site_id
 _symmetry_equiv_pos_as_xyz
  1  'x, y, z'
loop_
 _atom_site_type_symbol
 _atom_site_label
 _atom_site_symmetry_multiplicity
 _atom_site_fract_x
 _atom_site_fract_y
 _atom_site_fract_z
 _atom_site_occupancy
  La  La0  1  0.41510914  0.43190546  0.83875244  1
  La  La1  1  0.58489086  0.06809454  0.33875244  1
  La  La2  1  0.58489086  0.56809454  0.16124756  1
  La  La3  1  0.41510914  0.93190546  0.66124756  1
  La  La4  1  0.98953780  0.21244001  0.06227434  1
  La  La5  1  0.01046220  0.28755999  0.56227434  1
  La  La6  1  0.01046220  0.78755999  0.93772566  1
  La  La7  1  0.98953780  0.71244001  0.43772566  1
  N  N8  1  0.89073224  0.40367187  0.35124804  1
  N  N9  1  0.10926776  0.09632813  0.85124804  1
  N  N10  1  0.10926776  0.59632813  0.64875196  1
  N  N11  1  0.89073224  0.90367187  0.14875196  1
  N  N12  1  0.59258506  0.19125285  0.02198945  1
  N  N13  1  0.40741494  0.30874715  0.52198945  1
  N  N14  1  0.40741494  0.80874715  0.97801055  1
  N  N15  1  0.59258506  0.69125285  0.47801055  1
  N  N16  1  0.71000803  0.08363177  0.54271757  1
  N  N17  1  0.28999197  0.41636823  0.04271757  1
  N  N18  1  0.28999197  0.91636823  0.45728243  1
  N  N19  1  0.71000803  0.58363177  0.95728243  1
  N  N20  1  0.54003808  0.33285802  0.58632968  1
  N  N21  1  0.45996192  0.16714198  0.08632968  1
  N  N22  1  0.45996192  0.66714198  0.41367032  1
  N  N23  1  0.54003808  0.83285802  0.91367032  1
  N  N24  1  0.95696094  0.29443413  0.31023155  1
  N  N25  1  0.04303906  0.20556587  0.81023155  1
  N  N26  1  0.04303906  0.70556587  0.68976845  1
  N  N27  1  0.95696094  0.79443413  0.18976845  1
  N  N28  1  0.73958528  0.42407456  0.30131019  1
  N  N29  1  0.26041472  0.07592544  0.80131019  1
  N  N30  1  0.26041472  0.57592544  0.69868981  1
  N  N31  1  0.73958528  0.92407456  0.19868981  1
