# generated using pymatgen
data_Ce3PBr3
_symmetry_space_group_name_H-M   'P 1'
_cell_length_a   10.23196774
_cell_length_b   10.23196774
_cell_length_c   10.23196774
_cell_angle_alpha   109.47122063
_cell_angle_beta   109.47122063
_cell_angle_gamma   109.47122063
_symmetry_Int_Tables_number   1
_chemical_formula_structural   Ce3PBr3
_chemical_formula_sum   'Ce12 P4 Br12'
_cell_volume   824.62328917
_cell_formula_units_Z   4
loop_
 _symmetry_equiv_pos_site_id
 _symmetry_equiv_pos_as_xyz
  1  'x, y, z'
loop_
 _atom_site_type_symbol
 _atom_site_label
 _atom_site_symmetry_multiplicity
 _atom_site_fract_x
 _atom_site_fract_y
 _atom_site_fract_z
 _atom_site_occupancy
  Ce  Ce0  1  0.76160147  0.51160147  0.52320294  1
  Ce  Ce1  1  0.73839853  0.76160147  0.25000000  1
  Ce  Ce2  1  0.51160147  0.98839853  0.25000000  1
  Ce  Ce3  1  0.51160147  0.52320294  0.76160147  1
  Ce  Ce4  1  0.76160147  0.25000000  0.73839853  1
  Ce  Ce5  1  0.98839853  0.73839853  0.97679706  1
  Ce  Ce6  1  0.73839853  0.97679706  0.98839853  1
  Ce  Ce7  1  0.98839853  0.25000000  0.51160147  1
  Ce  Ce8  1  0.52320294  0.76160147  0.51160147  1
  Ce  Ce9  1  0.25000000  0.51160147  0.98839853  1
  Ce  Ce10  1  0.97679706  0.98839853  0.73839853  1
  Ce  Ce11  1  0.25000000  0.73839853  0.76160147  1
  P  P12  1  0.75000000  0.75000000  0.75000000  1
  P  P13  1  0.75000000  -0.00000000  0.50000000  1
  P  P14  1  0.50000000  0.75000000  0.00000000  1
  P  P15  1  0.00000000  0.50000000  0.75000000  1
  Br  Br16  1  0.25769297  0.24230703  0.75000000  1
  Br  Br17  1  0.24230703  0.49230703  0.48461407  1
  Br  Br18  1  0.00769297  0.25769297  0.01538593  1
  Br  Br19  1  0.24230703  0.75000000  0.25769297  1
  Br  Br20  1  0.25769297  0.01538593  0.00769297  1
  Br  Br21  1  0.49230703  0.00769297  0.75000000  1
  Br  Br22  1  0.49230703  0.48461407  0.24230703  1
  Br  Br23  1  0.00769297  0.75000000  0.49230703  1
  Br  Br24  1  0.75000000  0.25769297  0.24230703  1
  Br  Br25  1  0.01538593  0.00769297  0.25769297  1
  Br  Br26  1  0.75000000  0.49230703  0.00769297  1
  Br  Br27  1  0.48461407  0.24230703  0.49230703  1
