# generated using pymatgen
data_BaP2PdO7
_symmetry_space_group_name_H-M   'P 1'
_cell_length_a   6.27105978
_cell_length_b   14.01933912
_cell_length_c   7.61387962
_cell_angle_alpha   90.00000000
_cell_angle_beta   90.00000000
_cell_angle_gamma   90.00000000
_symmetry_Int_Tables_number   1
_chemical_formula_structural   BaP2PdO7
_chemical_formula_sum   'Ba4 P8 Pd4 O28'
_cell_volume   669.38270635
_cell_formula_units_Z   4
loop_
 _symmetry_equiv_pos_site_id
 _symmetry_equiv_pos_as_xyz
  1  'x, y, z'
loop_
 _atom_site_type_symbol
 _atom_site_label
 _atom_site_symmetry_multiplicity
 _atom_site_fract_x
 _atom_site_fract_y
 _atom_site_fract_z
 _atom_site_occupancy
  Ba  Ba0  1  0.75000000  0.76083950  0.25309930  1
  Ba  Ba1  1  0.25000000  0.23916050  0.74690070  1
  Ba  Ba2  1  0.25000000  0.73916050  0.75309930  1
  Ba  Ba3  1  0.75000000  0.26083950  0.24690070  1
  P  P4  1  0.75000000  0.88128347  0.72218543  1
  P  P5  1  0.25000000  0.11871653  0.27781457  1
  P  P6  1  0.25000000  0.61871653  0.22218543  1
  P  P7  1  0.75000000  0.38128347  0.77781457  1
  P  P8  1  0.75000000  0.58479354  0.81745746  1
  P  P9  1  0.25000000  0.41520646  0.18254254  1
  P  P10  1  0.25000000  0.91520646  0.31745746  1
  P  P11  1  0.75000000  0.08479354  0.68254254  1
  Pd  Pd12  1  0.00000000  0.00000000  -0.00000000  1
  Pd  Pd13  1  0.00000000  0.50000000  0.50000000  1
  Pd  Pd14  1  0.50000000  0.00000000  -0.00000000  1
  Pd  Pd15  1  0.50000000  0.50000000  0.50000000  1
  O  O16  1  0.75000000  0.65646544  0.96345076  1
  O  O17  1  0.25000000  0.34353456  0.03654924  1
  O  O18  1  0.25000000  0.84353456  0.46345076  1
  O  O19  1  0.75000000  0.15646544  0.53654924  1
  O  O20  1  0.75000000  0.97690871  0.60104817  1
  O  O21  1  0.25000000  0.02309129  0.39895183  1
  O  O22  1  0.25000000  0.52309129  0.10104817  1
  O  O23  1  0.75000000  0.47690871  0.89895183  1
  O  O24  1  0.75000000  0.79565669  0.60268299  1
  O  O25  1  0.25000000  0.20434331  0.39731701  1
  O  O26  1  0.25000000  0.70434331  0.10268299  1
  O  O27  1  0.75000000  0.29565669  0.89731701  1
  O  O28  1  0.95718667  0.59197140  0.70540534  1
  O  O29  1  0.04281333  0.40802860  0.29459466  1
  O  O30  1  0.04281333  0.90802860  0.20540534  1
  O  O31  1  0.45718667  0.40802860  0.29459466  1
  O  O32  1  0.95718667  0.09197140  0.79459466  1
  O  O33  1  0.54281333  0.59197140  0.70540534  1
  O  O34  1  0.54281333  0.09197140  0.79459466  1
  O  O35  1  0.45718667  0.90802860  0.20540534  1
  O  O36  1  0.95523308  0.88430484  0.83756041  1
  O  O37  1  0.04476692  0.11569516  0.16243959  1
  O  O38  1  0.04476692  0.61569516  0.33756041  1
  O  O39  1  0.45523308  0.11569516  0.16243959  1
  O  O40  1  0.95523308  0.38430484  0.66243959  1
  O  O41  1  0.54476692  0.88430484  0.83756041  1
  O  O42  1  0.54476692  0.38430484  0.66243959  1
  O  O43  1  0.45523308  0.61569516  0.33756041  1
