# generated using pymatgen
data_BaInF5
_symmetry_space_group_name_H-M   'P 1'
_cell_length_a   7.74113254
_cell_length_b   7.88023846
_cell_length_c   15.91243681
_cell_angle_alpha   90.00000000
_cell_angle_beta   95.34726132
_cell_angle_gamma   90.00000000
_symmetry_Int_Tables_number   1
_chemical_formula_structural   BaInF5
_chemical_formula_sum   'Ba8 In8 F40'
_cell_volume   966.46571672
_cell_formula_units_Z   8
loop_
 _symmetry_equiv_pos_site_id
 _symmetry_equiv_pos_as_xyz
  1  'x, y, z'
loop_
 _atom_site_type_symbol
 _atom_site_label
 _atom_site_symmetry_multiplicity
 _atom_site_fract_x
 _atom_site_fract_y
 _atom_site_fract_z
 _atom_site_occupancy
  Ba  Ba0  1  0.00055244  0.65405713  0.13677417  1
  Ba  Ba1  1  0.99944756  0.34594287  0.86322583  1
  Ba  Ba2  1  0.99944756  0.15405713  0.36322583  1
  Ba  Ba3  1  0.00055244  0.84594287  0.63677417  1
  Ba  Ba4  1  0.69008169  0.15242496  0.08723339  1
  Ba  Ba5  1  0.30991831  0.84757504  0.91276661  1
  Ba  Ba6  1  0.30991831  0.65242496  0.41276661  1
  Ba  Ba7  1  0.69008169  0.34757504  0.58723339  1
  In  In8  1  0.49480872  0.11951255  0.33859391  1
  In  In9  1  0.50519128  0.88048745  0.66140609  1
  In  In10  1  0.50519128  0.61951255  0.16140609  1
  In  In11  1  0.49480872  0.38048745  0.83859391  1
  In  In12  1  0.18999212  0.18343336  0.12497457  1
  In  In13  1  0.81000788  0.81656664  0.87502543  1
  In  In14  1  0.81000788  0.68343336  0.37502543  1
  In  In15  1  0.18999212  0.31656664  0.62497457  1
  F  F16  1  0.31509782  0.69789792  0.06702295  1
  F  F17  1  0.68490218  0.30210208  0.93297705  1
  F  F18  1  0.68490218  0.19789792  0.43297705  1
  F  F19  1  0.31509782  0.80210208  0.56702295  1
  F  F20  1  0.35129023  0.07929308  0.04076578  1
  F  F21  1  0.64870977  0.92070692  0.95923422  1
  F  F22  1  0.64870977  0.57929308  0.45923422  1
  F  F23  1  0.35129023  0.42070692  0.54076578  1
  F  F24  1  0.00358472  0.51180113  0.60932578  1
  F  F25  1  0.99641528  0.48819887  0.39067422  1
  F  F26  1  0.99641528  0.01180113  0.89067422  1
  F  F27  1  0.00358472  0.98819887  0.10932578  1
  F  F28  1  0.03022678  0.30628523  0.20633547  1
  F  F29  1  0.96977322  0.69371477  0.79366453  1
  F  F30  1  0.96977322  0.80628523  0.29366453  1
  F  F31  1  0.03022678  0.19371477  0.70633547  1
  F  F32  1  0.32173018  0.05424633  0.22881515  1
  F  F33  1  0.67826982  0.94575367  0.77118485  1
  F  F34  1  0.67826982  0.55424633  0.27118485  1
  F  F35  1  0.32173018  0.44575367  0.72881515  1
  F  F36  1  0.03975601  0.32411802  0.03328995  1
  F  F37  1  0.96024399  0.67588198  0.96671005  1
  F  F38  1  0.96024399  0.82411802  0.46671005  1
  F  F39  1  0.03975601  0.17588198  0.53328995  1
  F  F40  1  0.33985017  0.33212558  0.35090000  1
  F  F41  1  0.66014983  0.66787442  0.64910000  1
  F  F42  1  0.66014983  0.83212558  0.14910000  1
  F  F43  1  0.33985017  0.16787442  0.85090000  1
  F  F44  1  0.68804866  0.16461248  0.25801970  1
  F  F45  1  0.31195134  0.83538752  0.74198030  1
  F  F46  1  0.31195134  0.66461248  0.24198030  1
  F  F47  1  0.68804866  0.33538752  0.75801970  1
  F  F48  1  0.69788008  0.49403887  0.09948554  1
  F  F49  1  0.30211992  0.50596113  0.90051446  1
  F  F50  1  0.30211992  0.99403887  0.40051446  1
  F  F51  1  0.69788008  0.00596113  0.59948554  1
  F  F52  1  0.39234650  0.36728757  0.14539254  1
  F  F53  1  0.60765350  0.63271243  0.85460746  1
  F  F54  1  0.60765350  0.86728757  0.35460746  1
  F  F55  1  0.39234650  0.13271243  0.64539254  1
