# generated using pymatgen
data_Ba6Sm2Al4O15
_symmetry_space_group_name_H-M   'P 1'
_cell_length_a   6.01736426
_cell_length_b   8.00155918
_cell_length_c   18.68039225
_cell_angle_alpha   91.41767311
_cell_angle_beta   90.00000000
_cell_angle_gamma   90.00000000
_symmetry_Int_Tables_number   1
_chemical_formula_structural   Ba6Sm2Al4O15
_chemical_formula_sum   'Ba12 Sm4 Al8 O30'
_cell_volume   899.15374994
_cell_formula_units_Z   2
loop_
 _symmetry_equiv_pos_site_id
 _symmetry_equiv_pos_as_xyz
  1  'x, y, z'
loop_
 _atom_site_type_symbol
 _atom_site_label
 _atom_site_symmetry_multiplicity
 _atom_site_fract_x
 _atom_site_fract_y
 _atom_site_fract_z
 _atom_site_occupancy
  Ba  Ba0  1  0.75771558  0.50249683  0.41706433  1
  Ba  Ba1  1  0.24228442  0.49750317  0.58293567  1
  Ba  Ba2  1  0.75771558  0.49750317  0.08293567  1
  Ba  Ba3  1  0.24228442  0.50249683  0.91706433  1
  Ba  Ba4  1  0.74251470  0.96748000  0.40947454  1
  Ba  Ba5  1  0.25748530  0.03252000  0.59052546  1
  Ba  Ba6  1  0.74251470  0.03252000  0.09052546  1
  Ba  Ba7  1  0.25748530  0.96748000  0.90947454  1
  Ba  Ba8  1  0.72528055  -0.00000000  0.75000000  1
  Ba  Ba9  1  0.27471945  -0.00000000  0.25000000  1
  Ba  Ba10  1  0.66824027  0.50000000  0.75000000  1
  Ba  Ba11  1  0.33175973  0.50000000  0.25000000  1
  Sm  Sm12  1  0.74609612  0.75161601  0.59001523  1
  Sm  Sm13  1  0.25390388  0.24838399  0.40998477  1
  Sm  Sm14  1  0.74609612  0.24838399  0.90998477  1
  Sm  Sm15  1  0.25390388  0.75161601  0.09001523  1
  Al  Al16  1  0.75232864  0.75294497  0.94249185  1
  Al  Al17  1  0.24767136  0.24705503  0.05750815  1
  Al  Al18  1  0.75232864  0.24705503  0.55750815  1
  Al  Al19  1  0.24767136  0.75294497  0.44249185  1
  Al  Al20  1  0.77415148  0.78031504  0.23386440  1
  Al  Al21  1  0.22584852  0.21968496  0.76613560  1
  Al  Al22  1  0.77415148  0.21968496  0.26613560  1
  Al  Al23  1  0.22584852  0.78031504  0.73386440  1
  O  O24  1  0.21200485  -0.00000000  0.75000000  1
  O  O25  1  0.78799515  -0.00000000  0.25000000  1
  O  O26  1  0.49120667  0.76430220  0.49831241  1
  O  O27  1  0.50879333  0.23569780  0.50168759  1
  O  O28  1  0.49120667  0.23569780  0.00168759  1
  O  O29  1  0.50879333  0.76430220  0.99831241  1
  O  O30  1  0.75942777  0.94089692  0.89186276  1
  O  O31  1  0.24057223  0.05910308  0.10813724  1
  O  O32  1  0.75942777  0.05910308  0.60813724  1
  O  O33  1  0.24057223  0.94089692  0.39186276  1
  O  O34  1  0.00827341  0.76208044  0.50093055  1
  O  O35  1  0.99172659  0.23791956  0.49906945  1
  O  O36  1  0.00827341  0.23791956  0.99906945  1
  O  O37  1  0.99172659  0.76208044  0.00093055  1
  O  O38  1  0.31418129  0.69520051  0.81463917  1
  O  O39  1  0.68581871  0.30479949  0.18536083  1
  O  O40  1  0.31418129  0.30479949  0.68536083  1
  O  O41  1  0.68581871  0.69520051  0.31463917  1
  O  O42  1  0.44238530  0.75139850  0.66796763  1
  O  O43  1  0.55761470  0.24860150  0.33203237  1
  O  O44  1  0.44238530  0.24860150  0.83203237  1
  O  O45  1  0.55761470  0.75139850  0.16796763  1
  O  O46  1  0.96753397  0.73000501  0.69278413  1
  O  O47  1  0.03246603  0.26999499  0.30721587  1
  O  O48  1  0.96753397  0.26999499  0.80721587  1
  O  O49  1  0.03246603  0.73000501  0.19278413  1
  O  O50  1  0.75489473  0.54296491  0.90601631  1
  O  O51  1  0.24510527  0.45703509  0.09398369  1
  O  O52  1  0.75489473  0.45703509  0.59398369  1
  O  O53  1  0.24510527  0.54296491  0.40601631  1
