# generated using pymatgen
data_AgH10Rh(N3O5)2
_symmetry_space_group_name_H-M   'P 1'
_cell_length_a   7.51444968
_cell_length_b   12.37235607
_cell_length_c   12.92874133
_cell_angle_alpha   90.00000000
_cell_angle_beta   94.29339124
_cell_angle_gamma   90.00000000
_symmetry_Int_Tables_number   1
_chemical_formula_structural   AgH10Rh(N3O5)2
_chemical_formula_sum   'Ag4 H40 Rh4 N24 O40'
_cell_volume   1198.63069881
_cell_formula_units_Z   4
loop_
 _symmetry_equiv_pos_site_id
 _symmetry_equiv_pos_as_xyz
  1  'x, y, z'
loop_
 _atom_site_type_symbol
 _atom_site_label
 _atom_site_symmetry_multiplicity
 _atom_site_fract_x
 _atom_site_fract_y
 _atom_site_fract_z
 _atom_site_occupancy
  Ag  Ag0  1  0.28689055  0.59623921  0.26783400  1
  Ag  Ag1  1  0.71310945  0.09623921  0.23216600  1
  Ag  Ag2  1  0.71310945  0.40376079  0.73216600  1
  Ag  Ag3  1  0.28689055  0.90376079  0.76783400  1
  H  H4  1  0.05205149  0.64970946  0.50984442  1
  H  H5  1  0.94794851  0.14970946  0.99015558  1
  H  H6  1  0.94794851  0.35029054  0.49015558  1
  H  H7  1  0.05205149  0.85029054  0.00984442  1
  H  H8  1  0.90384705  0.63484505  0.40714789  1
  H  H9  1  0.09615295  0.13484505  0.09285211  1
  H  H10  1  0.09615295  0.36515495  0.59285211  1
  H  H11  1  0.90384705  0.86515495  0.90714789  1
  H  H12  1  0.02425310  0.74724431  0.41909133  1
  H  H13  1  0.97574690  0.24724431  0.08090867  1
  H  H14  1  0.97574690  0.25275569  0.58090867  1
  H  H15  1  0.02425310  0.75275569  0.91909133  1
  H  H16  1  0.88987000  0.90821431  0.42106136  1
  H  H17  1  0.11013000  0.40821431  0.07893864  1
  H  H18  1  0.11013000  0.09178569  0.57893864  1
  H  H19  1  0.88987000  0.59178569  0.92106136  1
  H  H20  1  0.67415791  0.89391076  0.38709116  1
  H  H21  1  0.32584209  0.39391076  0.11290884  1
  H  H22  1  0.32584209  0.10608924  0.61290884  1
  H  H23  1  0.67415791  0.60608924  0.88709116  1
  H  H24  1  0.73677117  0.95936986  0.49564211  1
  H  H25  1  0.26322883  0.45936986  0.00435789  1
  H  H26  1  0.26322883  0.04063014  0.50435789  1
  H  H27  1  0.73677117  0.54063014  0.99564211  1
  H  H28  1  0.31077106  0.65088866  0.64006134  1
  H  H29  1  0.68922894  0.15088866  0.85993866  1
  H  H30  1  0.68922894  0.34911134  0.35993866  1
  H  H31  1  0.31077106  0.84911134  0.14006134  1
  H  H32  1  0.26741468  0.52983687  0.61619727  1
  H  H33  1  0.73258532  0.02983687  0.88380273  1
  H  H34  1  0.73258532  0.47016313  0.38380273  1
  H  H35  1  0.26741468  0.97016313  0.11619727  1
  H  H36  1  0.14601399  0.90526736  0.27866805  1
  H  H37  1  0.85398601  0.40526736  0.22133195  1
  H  H38  1  0.85398601  0.09473264  0.72133195  1
  H  H39  1  0.14601399  0.59473264  0.77866805  1
  H  H40  1  0.23817444  0.88128961  0.38741939  1
  H  H41  1  0.76182556  0.38128961  0.11258061  1
  H  H42  1  0.76182556  0.11871039  0.61258061  1
  H  H43  1  0.23817444  0.61871039  0.88741939  1
  Rh  Rh44  1  0.75762898  0.75558473  0.54173556  1
  Rh  Rh45  1  0.24237102  0.25558473  0.95826444  1
  Rh  Rh46  1  0.24237102  0.24441527  0.45826444  1
  Rh  Rh47  1  0.75762898  0.74441527  0.04173556  1
  N  N48  1  0.95780800  0.82451688  0.63951816  1
  N  N49  1  0.04219200  0.32451688  0.86048184  1
  N  N50  1  0.04219200  0.17548312  0.36048184  1
  N  N51  1  0.95780800  0.67548312  0.13951816  1
  N  N52  1  0.56312337  0.83000477  0.62121280  1
  N  N53  1  0.43687663  0.33000477  0.87878720  1
  N  N54  1  0.43687663  0.16999523  0.37878720  1
  N  N55  1  0.56312337  0.66999523  0.12121280  1
  N  N56  1  0.56437840  0.69252412  0.43497167  1
  N  N57  1  0.43562160  0.19252412  0.06502833  1
  N  N58  1  0.43562160  0.30747588  0.56502833  1
  N  N59  1  0.56437840  0.80747588  0.93497167  1
  N  N60  1  0.75519053  0.61297463  0.62603197  1
  N  N61  1  0.24480947  0.11297463  0.87396803  1
  N  N62  1  0.24480947  0.38702537  0.37396803  1
  N  N63  1  0.75519053  0.88702537  0.12603197  1
  N  N64  1  0.96040033  0.68903859  0.45941278  1
  N  N65  1  0.03959967  0.18903859  0.04058722  1
  N  N66  1  0.03959967  0.31096141  0.54058722  1
  N  N67  1  0.96040033  0.81096141  0.95941278  1
  N  N68  1  0.76660996  0.89572225  0.44949543  1
  N  N69  1  0.23339004  0.39572225  0.05050457  1
  N  N70  1  0.23339004  0.10427775  0.55050457  1
  N  N71  1  0.76660996  0.60427775  0.94949543  1
  O  O72  1  0.08783447  0.86581219  0.59859214  1
  O  O73  1  0.91216553  0.36581219  0.90140786  1
  O  O74  1  0.91216553  0.13418781  0.40140786  1
  O  O75  1  0.08783447  0.63418781  0.09859214  1
  O  O76  1  0.95315658  0.82475984  0.73552575  1
  O  O77  1  0.04684342  0.32475984  0.76447425  1
  O  O78  1  0.04684342  0.17524016  0.26447425  1
  O  O79  1  0.95315658  0.67524016  0.23552575  1
  O  O80  1  0.55813527  0.93073303  0.62516514  1
  O  O81  1  0.44186473  0.43073303  0.87483486  1
  O  O82  1  0.44186473  0.06926697  0.37483486  1
  O  O83  1  0.55813527  0.56926697  0.12516514  1
  O  O84  1  0.45063972  0.77608388  0.66680857  1
  O  O85  1  0.54936028  0.27608388  0.83319143  1
  O  O86  1  0.54936028  0.22391612  0.33319143  1
  O  O87  1  0.45063972  0.72391612  0.16680857  1
  O  O88  1  0.59337047  0.60879455  0.38410564  1
  O  O89  1  0.40662953  0.10879455  0.11589436  1
  O  O90  1  0.40662953  0.39120545  0.61589436  1
  O  O91  1  0.59337047  0.89120545  0.88410564  1
  O  O92  1  0.41890740  0.74100399  0.41804086  1
  O  O93  1  0.58109260  0.24100399  0.08195914  1
  O  O94  1  0.58109260  0.25899601  0.58195914  1
  O  O95  1  0.41890740  0.75899601  0.91804086  1
  O  O96  1  0.78831344  0.52607732  0.58126649  1
  O  O97  1  0.21168656  0.02607732  0.91873351  1
  O  O98  1  0.21168656  0.47392268  0.41873351  1
  O  O99  1  0.78831344  0.97392268  0.08126649  1
  O  O100  1  0.71872286  0.61080660  0.71858372  1
  O  O101  1  0.28127714  0.11080660  0.78141628  1
  O  O102  1  0.28127714  0.38919340  0.28141628  1
  O  O103  1  0.71872286  0.88919340  0.21858372  1
  O  O104  1  0.21314814  0.59761687  0.63755951  1
  O  O105  1  0.78685186  0.09761687  0.86244049  1
  O  O106  1  0.78685186  0.40238313  0.36244049  1
  O  O107  1  0.21314814  0.90238313  0.13755951  1
  O  O108  1  0.12157072  0.89668330  0.35241371  1
  O  O109  1  0.87842928  0.39668330  0.14758629  1
  O  O110  1  0.87842928  0.10331670  0.64758629  1
  O  O111  1  0.12157072  0.60331670  0.85241371  1
