# generated using pymatgen
data_Ca3Bi(ClO)3
_symmetry_space_group_name_H-M   'P 1'
_cell_length_a   6.39232338
_cell_length_b   11.00247392
_cell_length_c   11.60857837
_cell_angle_alpha   90.00000000
_cell_angle_beta   90.00000000
_cell_angle_gamma   90.00000000
_symmetry_Int_Tables_number   1
_chemical_formula_structural   Ca3Bi(ClO)3
_chemical_formula_sum   'Ca12 Bi4 Cl12 O12'
_cell_volume   816.44723533
_cell_formula_units_Z   4
loop_
 _symmetry_equiv_pos_site_id
 _symmetry_equiv_pos_as_xyz
  1  'x, y, z'
loop_
 _atom_site_type_symbol
 _atom_site_label
 _atom_site_symmetry_multiplicity
 _atom_site_fract_x
 _atom_site_fract_y
 _atom_site_fract_z
 _atom_site_occupancy
  Ca  Ca0  1  0.16328729  0.57239139  0.39398799  1
  Ca  Ca1  1  0.83671271  0.42760861  0.60601201  1
  Ca  Ca2  1  0.33671271  0.42760861  0.89398799  1
  Ca  Ca3  1  0.83671271  0.07239139  0.60601201  1
  Ca  Ca4  1  0.66328729  0.57239139  0.10601201  1
  Ca  Ca5  1  0.16328729  0.92760861  0.39398799  1
  Ca  Ca6  1  0.66328729  0.92760861  0.10601201  1
  Ca  Ca7  1  0.33671271  0.07239139  0.89398799  1
  Ca  Ca8  1  0.33876171  0.25000000  0.53085632  1
  Ca  Ca9  1  0.66123829  0.75000000  0.46914368  1
  Ca  Ca10  1  0.16123829  0.75000000  0.03085632  1
  Ca  Ca11  1  0.83876171  0.25000000  0.96914368  1
  Bi  Bi12  1  0.39305922  0.25000000  0.13208588  1
  Bi  Bi13  1  0.60694078  0.75000000  0.86791412  1
  Bi  Bi14  1  0.10694078  0.75000000  0.63208588  1
  Bi  Bi15  1  0.89305922  0.25000000  0.36791412  1
  Cl  Cl16  1  0.08608716  0.00858503  0.15365201  1
  Cl  Cl17  1  0.91391284  0.99141497  0.84634799  1
  Cl  Cl18  1  0.41391284  0.99141497  0.65365201  1
  Cl  Cl19  1  0.91391284  0.50858503  0.84634799  1
  Cl  Cl20  1  0.58608716  0.00858503  0.34634799  1
  Cl  Cl21  1  0.08608716  0.49141497  0.15365201  1
  Cl  Cl22  1  0.58608716  0.49141497  0.34634799  1
  Cl  Cl23  1  0.41391284  0.50858503  0.65365201  1
  Cl  Cl24  1  0.08469434  0.25000000  0.71934945  1
  Cl  Cl25  1  0.91530566  0.75000000  0.28065055  1
  Cl  Cl26  1  0.41530566  0.75000000  0.21934945  1
  Cl  Cl27  1  0.58469434  0.25000000  0.78065055  1
  O  O28  1  0.08538011  0.11949891  0.45258768  1
  O  O29  1  0.91461989  0.88050109  0.54741232  1
  O  O30  1  0.41461989  0.88050109  0.95258768  1
  O  O31  1  0.91461989  0.61949891  0.54741232  1
  O  O32  1  0.58538011  0.11949891  0.04741232  1
  O  O33  1  0.08538011  0.38050109  0.45258768  1
  O  O34  1  0.58538011  0.38050109  0.04741232  1
  O  O35  1  0.41461989  0.61949891  0.95258768  1
  O  O36  1  0.19511276  0.25000000  0.98546570  1
  O  O37  1  0.80488724  0.75000000  0.01453430  1
  O  O38  1  0.30488724  0.75000000  0.48546570  1
  O  O39  1  0.69511276  0.25000000  0.51453430  1
