# generated using pymatgen
data_Cs3Pr(MoO4)3
_symmetry_space_group_name_H-M   'P 1'
_cell_length_a   6.54947170
_cell_length_b   9.55722884
_cell_length_c   26.50951764
_cell_angle_alpha   90.00000000
_cell_angle_beta   90.00000000
_cell_angle_gamma   90.00000000
_symmetry_Int_Tables_number   1
_chemical_formula_structural   Cs3Pr(MoO4)3
_chemical_formula_sum   'Cs12 Pr4 Mo12 O48'
_cell_volume   1659.35794995
_cell_formula_units_Z   4
loop_
 _symmetry_equiv_pos_site_id
 _symmetry_equiv_pos_as_xyz
  1  'x, y, z'
loop_
 _atom_site_type_symbol
 _atom_site_label
 _atom_site_symmetry_multiplicity
 _atom_site_fract_x
 _atom_site_fract_y
 _atom_site_fract_z
 _atom_site_occupancy
  Cs  Cs0  1  0.75000000  0.97527165  0.40783126  1
  Cs  Cs1  1  0.25000000  0.02472835  0.59216874  1
  Cs  Cs2  1  0.25000000  0.52472835  0.90783126  1
  Cs  Cs3  1  0.75000000  0.47527165  0.09216874  1
  Cs  Cs4  1  0.75000000  0.89609821  0.82005915  1
  Cs  Cs5  1  0.25000000  0.10390179  0.17994085  1
  Cs  Cs6  1  0.25000000  0.60390179  0.32005915  1
  Cs  Cs7  1  0.75000000  0.39609821  0.67994085  1
  Cs  Cs8  1  0.75000000  0.81156600  0.24100412  1
  Cs  Cs9  1  0.25000000  0.18843400  0.75899588  1
  Cs  Cs10  1  0.25000000  0.68843400  0.74100412  1
  Cs  Cs11  1  0.75000000  0.31156600  0.25899588  1
  Pr  Pr12  1  0.75000000  0.68154564  0.54071711  1
  Pr  Pr13  1  0.25000000  0.31845436  0.45928289  1
  Pr  Pr14  1  0.25000000  0.81845436  0.04071711  1
  Pr  Pr15  1  0.75000000  0.18154564  0.95928289  1
  Mo  Mo16  1  0.75000000  0.88497414  0.67447877  1
  Mo  Mo17  1  0.25000000  0.11502586  0.32552123  1
  Mo  Mo18  1  0.25000000  0.61502586  0.17447877  1
  Mo  Mo19  1  0.75000000  0.38497414  0.82552123  1
  Mo  Mo20  1  0.75000000  0.74638168  0.97566679  1
  Mo  Mo21  1  0.25000000  0.25361832  0.02433321  1
  Mo  Mo22  1  0.25000000  0.75361832  0.47566679  1
  Mo  Mo23  1  0.75000000  0.24638168  0.52433321  1
  Mo  Mo24  1  0.75000000  0.51978778  0.40025269  1
  Mo  Mo25  1  0.25000000  0.48021222  0.59974731  1
  Mo  Mo26  1  0.25000000  0.98021222  0.90025269  1
  Mo  Mo27  1  0.75000000  0.01978778  0.09974731  1
  O  O28  1  0.75000000  0.72128830  0.70773014  1
  O  O29  1  0.25000000  0.27871170  0.29226986  1
  O  O30  1  0.25000000  0.77871170  0.20773014  1
  O  O31  1  0.75000000  0.22128830  0.79226986  1
  O  O32  1  0.75000000  0.65819175  0.44598514  1
  O  O33  1  0.25000000  0.34180825  0.55401486  1
  O  O34  1  0.25000000  0.84180825  0.94598514  1
  O  O35  1  0.75000000  0.15819175  0.05401486  1
  O  O36  1  0.75000000  0.85376786  0.60660275  1
  O  O37  1  0.25000000  0.14623214  0.39339725  1
  O  O38  1  0.25000000  0.64623214  0.10660275  1
  O  O39  1  0.75000000  0.35376786  0.89339725  1
  O  O40  1  0.75000000  0.69850253  0.91152223  1
  O  O41  1  0.25000000  0.30149747  0.08847777  1
  O  O42  1  0.25000000  0.80149747  0.41152223  1
  O  O43  1  0.75000000  0.19850253  0.58847777  1
  O  O44  1  0.47247140  0.82277683  0.50758855  1
  O  O45  1  0.52752860  0.17722317  0.49241145  1
  O  O46  1  0.52752860  0.67722317  0.00758855  1
  O  O47  1  0.97247140  0.17722317  0.49241145  1
  O  O48  1  0.47247140  0.32277683  0.99241145  1
  O  O49  1  0.02752860  0.82277683  0.50758855  1
  O  O50  1  0.02752860  0.32277683  0.99241145  1
  O  O51  1  0.97247140  0.67722317  0.00758855  1
  O  O52  1  0.75000000  0.93447969  0.98143023  1
  O  O53  1  0.25000000  0.06552031  0.01856977  1
  O  O54  1  0.25000000  0.56552031  0.48143023  1
  O  O55  1  0.75000000  0.43447969  0.51856977  1
  O  O56  1  0.47774715  0.58534120  0.59443714  1
  O  O57  1  0.52225285  0.41465880  0.40556286  1
  O  O58  1  0.52225285  0.91465880  0.09443714  1
  O  O59  1  0.97774715  0.41465880  0.40556286  1
  O  O60  1  0.47774715  0.08534120  0.90556286  1
  O  O61  1  0.02225285  0.58534120  0.59443714  1
  O  O62  1  0.02225285  0.08534120  0.90556286  1
  O  O63  1  0.97774715  0.91465880  0.09443714  1
  O  O64  1  0.97518141  0.97835464  0.69335116  1
  O  O65  1  0.02481859  0.02164536  0.30664884  1
  O  O66  1  0.02481859  0.52164536  0.19335116  1
  O  O67  1  0.47518141  0.02164536  0.30664884  1
  O  O68  1  0.97518141  0.47835464  0.80664884  1
  O  O69  1  0.52481859  0.97835464  0.69335116  1
  O  O70  1  0.52481859  0.47835464  0.80664884  1
  O  O71  1  0.47518141  0.52164536  0.19335116  1
  O  O72  1  0.75000000  0.59616775  0.33868815  1
  O  O73  1  0.25000000  0.40383225  0.66131185  1
  O  O74  1  0.25000000  0.90383225  0.83868815  1
  O  O75  1  0.75000000  0.09616775  0.16131185  1
