# generated using pymatgen
data_Ca8In3
_symmetry_space_group_name_H-M   'P 1'
_cell_length_a   9.58934451
_cell_length_b   9.69176017
_cell_length_c   9.75618038
_cell_angle_alpha   98.90777686
_cell_angle_beta   101.07144875
_cell_angle_gamma   119.56156991
_symmetry_Int_Tables_number   1
_chemical_formula_structural   Ca8In3
_chemical_formula_sum   'Ca16 In6'
_cell_volume   740.18463541
_cell_formula_units_Z   2
loop_
 _symmetry_equiv_pos_site_id
 _symmetry_equiv_pos_as_xyz
  1  'x, y, z'
loop_
 _atom_site_type_symbol
 _atom_site_label
 _atom_site_symmetry_multiplicity
 _atom_site_fract_x
 _atom_site_fract_y
 _atom_site_fract_z
 _atom_site_occupancy
  Ca  Ca0  1  0.29478304  0.94299281  0.78098584  1
  Ca  Ca1  1  0.86621433  0.58036005  0.76145826  1
  Ca  Ca2  1  0.03721817  0.38078451  0.22269587  1
  Ca  Ca3  1  0.80396171  0.17787374  0.46037387  1
  Ca  Ca4  1  0.66876546  0.75685975  0.21967197  1
  Ca  Ca5  1  0.37940216  0.82145394  0.44124963  1
  Ca  Ca6  1  0.25777507  0.65067117  0.00499634  1
  Ca  Ca7  1  0.21774845  0.28278939  0.75999011  1
  Ca  Ca8  1  0.41385575  0.10813891  0.21992951  1
  Ca  Ca9  1  0.11065147  0.03153648  0.41123757  1
  Ca  Ca10  1  0.87762053  0.58967185  0.40884954  1
  Ca  Ca11  1  0.00064617  0.00071246  0.00045642  1
  Ca  Ca12  1  0.56160681  0.72557515  0.81235833  1
  Ca  Ca13  1  0.79072562  0.16870163  0.81353105  1
  Ca  Ca14  1  0.45769140  0.47905060  0.46390815  1
  Ca  Ca15  1  0.63454045  0.38062269  0.00303754  1
  In  In16  1  0.84025841  0.88049771  0.61291889  1
  In  In17  1  0.66018864  0.04039724  0.08290581  1
  In  In18  1  0.01212605  0.72066167  0.13711716  1
  In  In19  1  0.16407169  0.54338012  0.61152400  1
  In  In20  1  0.33785369  0.38210186  0.11360339  1
  In  In21  1  0.50989490  0.21886627  0.61170078  1
