# generated using pymatgen
data_Ba5Lu2ZrAl2O13
_symmetry_space_group_name_H-M   'P 1'
_cell_length_a   5.97534193
_cell_length_b   5.97534193
_cell_length_c   24.92053104
_cell_angle_alpha   90.00000000
_cell_angle_beta   90.00000000
_cell_angle_gamma   119.99999461
_symmetry_Int_Tables_number   1
_chemical_formula_structural   Ba5Lu2ZrAl2O13
_chemical_formula_sum   'Ba10 Lu4 Zr2 Al4 O26'
_cell_volume   770.57244105
_cell_formula_units_Z   2
loop_
 _symmetry_equiv_pos_site_id
 _symmetry_equiv_pos_as_xyz
  1  'x, y, z'
loop_
 _atom_site_type_symbol
 _atom_site_label
 _atom_site_symmetry_multiplicity
 _atom_site_fract_x
 _atom_site_fract_y
 _atom_site_fract_z
 _atom_site_occupancy
  Ba  Ba0  1  0.66666700  0.33333300  0.45710905  1
  Ba  Ba1  1  0.33333300  0.66666700  0.54289095  1
  Ba  Ba2  1  0.33333300  0.66666700  0.95710905  1
  Ba  Ba3  1  0.66666700  0.33333300  0.04289095  1
  Ba  Ba4  1  0.00000000  -0.00000000  0.86115691  1
  Ba  Ba5  1  0.00000000  -0.00000000  0.13884309  1
  Ba  Ba6  1  0.00000000  -0.00000000  0.36115691  1
  Ba  Ba7  1  0.00000000  -0.00000000  0.63884309  1
  Ba  Ba8  1  0.66666700  0.33333300  0.75000000  1
  Ba  Ba9  1  0.33333300  0.66666700  0.25000000  1
  Lu  Lu10  1  0.66666700  0.33333300  0.89619719  1
  Lu  Lu11  1  0.33333300  0.66666700  0.10380281  1
  Lu  Lu12  1  0.33333300  0.66666700  0.39619719  1
  Lu  Lu13  1  0.66666700  0.33333300  0.60380281  1
  Zr  Zr14  1  0.00000000  -0.00000000  -0.00000000  1
  Zr  Zr15  1  0.00000000  -0.00000000  0.50000000  1
  Al  Al16  1  0.66666700  0.33333300  0.31962149  1
  Al  Al17  1  0.33333300  0.66666700  0.68037851  1
  Al  Al18  1  0.33333300  0.66666700  0.81962149  1
  Al  Al19  1  0.66666700  0.33333300  0.18037851  1
  O  O20  1  0.49624896  0.50375104  0.84220227  1
  O  O21  1  0.50375104  0.49624896  0.15779773  1
  O  O22  1  0.00750207  0.50375104  0.84220227  1
  O  O23  1  0.50375104  0.49624896  0.34220227  1
  O  O24  1  0.99249793  0.49624896  0.15779773  1
  O  O25  1  0.49624896  0.50375104  0.65779773  1
  O  O26  1  0.49624896  0.99249793  0.84220227  1
  O  O27  1  0.99249793  0.49624896  0.34220227  1
  O  O28  1  0.50375104  0.00750207  0.15779773  1
  O  O29  1  0.00750207  0.50375104  0.65779773  1
  O  O30  1  0.50375104  0.00750207  0.34220227  1
  O  O31  1  0.49624896  0.99249793  0.65779773  1
  O  O32  1  0.83625073  0.16374927  0.94864531  1
  O  O33  1  0.16374927  0.83625073  0.05135469  1
  O  O34  1  0.32749855  0.16374927  0.94864531  1
  O  O35  1  0.16374927  0.83625073  0.44864531  1
  O  O36  1  0.67250145  0.83625073  0.05135469  1
  O  O37  1  0.83625073  0.16374927  0.55135469  1
  O  O38  1  0.83625073  0.67250145  0.94864531  1
  O  O39  1  0.67250145  0.83625073  0.44864531  1
  O  O40  1  0.16374927  0.32749855  0.05135469  1
  O  O41  1  0.32749855  0.16374927  0.55135469  1
  O  O42  1  0.16374927  0.32749855  0.44864531  1
  O  O43  1  0.83625073  0.67250145  0.55135469  1
  O  O44  1  0.66666700  0.33333300  0.25000000  1
  O  O45  1  0.33333300  0.66666700  0.75000000  1
