# generated using pymatgen
data_Ba2CaGa2CuF14
_symmetry_space_group_name_H-M   'P 1'
_cell_length_a   5.37121174
_cell_length_b   7.53369420
_cell_length_c   14.95464005
_cell_angle_alpha   91.97039109
_cell_angle_beta   90.00000000
_cell_angle_gamma   110.88413317
_symmetry_Int_Tables_number   1
_chemical_formula_structural   Ba2CaGa2CuF14
_chemical_formula_sum   'Ba4 Ca2 Ga4 Cu2 F28'
_cell_volume   565.00175277
_cell_formula_units_Z   2
loop_
 _symmetry_equiv_pos_site_id
 _symmetry_equiv_pos_as_xyz
  1  'x, y, z'
loop_
 _atom_site_type_symbol
 _atom_site_label
 _atom_site_symmetry_multiplicity
 _atom_site_fract_x
 _atom_site_fract_y
 _atom_site_fract_z
 _atom_site_occupancy
  Ba  Ba0  1  0.63081740  0.37687761  0.61979263  1
  Ba  Ba1  1  0.36918260  0.62312239  0.38020737  1
  Ba  Ba2  1  0.25393980  0.62312239  0.88020737  1
  Ba  Ba3  1  0.74606020  0.37687761  0.11979263  1
  Ca  Ca4  1  0.92849483  0.00000000  0.75000000  1
  Ca  Ca5  1  0.07150517  0.00000000  0.25000000  1
  Ga  Ga6  1  0.60519614  0.24144261  0.87564664  1
  Ga  Ga7  1  0.39480386  0.75855739  0.12435336  1
  Ga  Ga8  1  0.36375353  0.75855739  0.62435336  1
  Ga  Ga9  1  0.63624647  0.24144261  0.37564664  1
  Cu  Cu10  1  0.00000000  0.00000000  -0.00000000  1
  Cu  Cu11  1  0.00000000  0.00000000  0.50000000  1
  F  F12  1  0.88318483  0.88889561  0.38452326  1
  F  F13  1  0.11681517  0.11110439  0.61547674  1
  F  F14  1  0.99428923  0.11110439  0.11547674  1
  F  F15  1  0.00571077  0.88889561  0.88452326  1
  F  F16  1  0.63752970  0.73064662  0.54700855  1
  F  F17  1  0.36247030  0.26935338  0.45299145  1
  F  F18  1  0.90688308  0.26935338  0.95299145  1
  F  F19  1  0.09311692  0.73064662  0.04700855  1
  F  F20  1  0.38207026  0.16660573  0.98079660  1
  F  F21  1  0.61792974  0.83339427  0.01920340  1
  F  F22  1  0.21546454  0.83339427  0.51920340  1
  F  F23  1  0.78453546  0.16660573  0.48079660  1
  F  F24  1  0.33114674  0.24207925  0.79508581  1
  F  F25  1  0.66885326  0.75792075  0.20491419  1
  F  F26  1  0.08906749  0.75792075  0.70491419  1
  F  F27  1  0.91093251  0.24207925  0.29508581  1
  F  F28  1  0.57004869  0.98862982  0.84399508  1
  F  F29  1  0.42995131  0.01137018  0.15600492  1
  F  F30  1  0.58141887  0.01137018  0.65600492  1
  F  F31  1  0.41858113  0.98862982  0.34399508  1
  F  F32  1  0.54233992  0.68044172  0.72239986  1
  F  F33  1  0.45766008  0.31955828  0.27760014  1
  F  F34  1  0.86189820  0.31955828  0.77760014  1
  F  F35  1  0.13810180  0.68044172  0.22239986  1
  F  F36  1  0.67248620  0.49989452  0.90825896  1
  F  F37  1  0.32751380  0.50010548  0.09174104  1
  F  F38  1  0.17259167  0.50010548  0.59174104  1
  F  F39  1  0.82740833  0.49989452  0.40825896  1
