# generated using pymatgen
data_Ba2Yb2CuPtO8
_symmetry_space_group_name_H-M   'P 1'
_cell_length_a   5.66444754
_cell_length_b   13.31861173
_cell_length_c   10.33844455
_cell_angle_alpha   90.00000000
_cell_angle_beta   90.00000000
_cell_angle_gamma   90.00000000
_symmetry_Int_Tables_number   1
_chemical_formula_structural   Ba2Yb2CuPtO8
_chemical_formula_sum   'Ba8 Yb8 Cu4 Pt4 O32'
_cell_volume   779.95890368
_cell_formula_units_Z   4
loop_
 _symmetry_equiv_pos_site_id
 _symmetry_equiv_pos_as_xyz
  1  'x, y, z'
loop_
 _atom_site_type_symbol
 _atom_site_label
 _atom_site_symmetry_multiplicity
 _atom_site_fract_x
 _atom_site_fract_y
 _atom_site_fract_z
 _atom_site_occupancy
  Ba  Ba0  1  0.75000000  0.57708137  0.60097122  1
  Ba  Ba1  1  0.25000000  0.42291863  0.39902878  1
  Ba  Ba2  1  0.25000000  0.92291863  0.10097122  1
  Ba  Ba3  1  0.75000000  0.07708137  0.89902878  1
  Ba  Ba4  1  0.75000000  0.79569719  0.31813796  1
  Ba  Ba5  1  0.25000000  0.20430281  0.68186204  1
  Ba  Ba6  1  0.25000000  0.70430281  0.81813796  1
  Ba  Ba7  1  0.75000000  0.29569719  0.18186204  1
  Yb  Yb8  1  0.75000000  0.58129199  0.98300944  1
  Yb  Yb9  1  0.25000000  0.41870801  0.01699056  1
  Yb  Yb10  1  0.25000000  0.91870801  0.48300944  1
  Yb  Yb11  1  0.75000000  0.08129199  0.51699056  1
  Yb  Yb12  1  0.75000000  0.86015565  0.68515420  1
  Yb  Yb13  1  0.25000000  0.13984435  0.31484580  1
  Yb  Yb14  1  0.25000000  0.63984435  0.18515420  1
  Yb  Yb15  1  0.75000000  0.36015565  0.81484580  1
  Cu  Cu16  1  0.75000000  0.55015164  0.25880788  1
  Cu  Cu17  1  0.25000000  0.44984836  0.74119212  1
  Cu  Cu18  1  0.25000000  0.94984836  0.75880788  1
  Cu  Cu19  1  0.75000000  0.05015164  0.24119212  1
  Pt  Pt20  1  0.75000000  0.80539956  0.96354032  1
  Pt  Pt21  1  0.25000000  0.19460044  0.03645968  1
  Pt  Pt22  1  0.25000000  0.69460044  0.46354032  1
  Pt  Pt23  1  0.75000000  0.30539956  0.53645968  1
  O  O24  1  0.75000000  0.70737404  0.81472572  1
  O  O25  1  0.25000000  0.29262596  0.18527428  1
  O  O26  1  0.25000000  0.79262596  0.31472572  1
  O  O27  1  0.75000000  0.20737404  0.68527428  1
  O  O28  1  0.48960456  0.77825410  0.55297632  1
  O  O29  1  0.51039544  0.22174590  0.44702368  1
  O  O30  1  0.51039544  0.72174590  0.05297632  1
  O  O31  1  0.98960456  0.22174590  0.44702368  1
  O  O32  1  0.48960456  0.27825410  0.94702368  1
  O  O33  1  0.01039544  0.77825410  0.55297632  1
  O  O34  1  0.01039544  0.27825410  0.94702368  1
  O  O35  1  0.98960456  0.72174590  0.05297632  1
  O  O36  1  0.00328104  0.88983263  0.86347323  1
  O  O37  1  0.99671896  0.11016737  0.13652677  1
  O  O38  1  0.99671896  0.61016737  0.36347323  1
  O  O39  1  0.50328104  0.11016737  0.13652677  1
  O  O40  1  0.00328104  0.38983263  0.63652677  1
  O  O41  1  0.49671896  0.88983263  0.86347323  1
  O  O42  1  0.49671896  0.38983263  0.63652677  1
  O  O43  1  0.50328104  0.61016737  0.36347323  1
  O  O44  1  0.48132533  0.99652369  0.64568527  1
  O  O45  1  0.51867467  0.00347631  0.35431473  1
  O  O46  1  0.51867467  0.50347631  0.14568527  1
  O  O47  1  0.98132533  0.00347631  0.35431473  1
  O  O48  1  0.48132533  0.49652369  0.85431473  1
  O  O49  1  0.01867467  0.99652369  0.64568527  1
  O  O50  1  0.01867467  0.49652369  0.85431473  1
  O  O51  1  0.98132533  0.50347631  0.14568527  1
  O  O52  1  0.75000000  0.40792417  0.39786275  1
  O  O53  1  0.25000000  0.59207583  0.60213725  1
  O  O54  1  0.25000000  0.09207583  0.89786275  1
  O  O55  1  0.75000000  0.90792417  0.10213725  1
