# generated using pymatgen
data_Al(Ag3Se2)3
_symmetry_space_group_name_H-M   'P 1'
_cell_length_a   11.32014675
_cell_length_b   11.32014675
_cell_length_c   11.32014675
_cell_angle_alpha   90.00000000
_cell_angle_beta   90.00000000
_cell_angle_gamma   90.00000000
_symmetry_Int_Tables_number   1
_chemical_formula_structural   Al(Ag3Se2)3
_chemical_formula_sum   'Al4 Ag36 Se24'
_cell_volume   1450.62838342
_cell_formula_units_Z   4
loop_
 _symmetry_equiv_pos_site_id
 _symmetry_equiv_pos_as_xyz
  1  'x, y, z'
loop_
 _atom_site_type_symbol
 _atom_site_label
 _atom_site_symmetry_multiplicity
 _atom_site_fract_x
 _atom_site_fract_y
 _atom_site_fract_z
 _atom_site_occupancy
  Al  Al0  1  0.50810273  0.50810273  0.50810273  1
  Al  Al1  1  0.99189727  0.49189727  0.00810273  1
  Al  Al2  1  0.49189727  0.00810273  0.99189727  1
  Al  Al3  1  0.00810273  0.99189727  0.49189727  1
  Ag  Ag4  1  0.14601945  0.33071119  0.46516077  1
  Ag  Ag5  1  0.35398055  0.66928881  0.96516077  1
  Ag  Ag6  1  0.85398055  0.83071119  0.03483923  1
  Ag  Ag7  1  0.46516077  0.14601945  0.33071119  1
  Ag  Ag8  1  0.64601945  0.16928881  0.53483923  1
  Ag  Ag9  1  0.96516077  0.35398055  0.66928881  1
  Ag  Ag10  1  0.03483923  0.85398055  0.83071119  1
  Ag  Ag11  1  0.53483923  0.64601945  0.16928881  1
  Ag  Ag12  1  0.33071119  0.46516077  0.14601945  1
  Ag  Ag13  1  0.83071119  0.03483923  0.85398055  1
  Ag  Ag14  1  0.16928881  0.53483923  0.64601945  1
  Ag  Ag15  1  0.66928881  0.96516077  0.35398055  1
  Ag  Ag16  1  0.17282829  0.56972724  0.36237579  1
  Ag  Ag17  1  0.32717171  0.43027276  0.86237579  1
  Ag  Ag18  1  0.82717171  0.06972724  0.13762421  1
  Ag  Ag19  1  0.36237579  0.17282829  0.56972724  1
  Ag  Ag20  1  0.67282829  0.93027276  0.63762421  1
  Ag  Ag21  1  0.86237579  0.32717171  0.43027276  1
  Ag  Ag22  1  0.13762421  0.82717171  0.06972724  1
  Ag  Ag23  1  0.63762421  0.67282829  0.93027276  1
  Ag  Ag24  1  0.56972724  0.36237579  0.17282829  1
  Ag  Ag25  1  0.06972724  0.13762421  0.82717171  1
  Ag  Ag26  1  0.93027276  0.63762421  0.67282829  1
  Ag  Ag27  1  0.43027276  0.86237579  0.32717171  1
  Ag  Ag28  1  0.03098369  0.22734028  0.23100862  1
  Ag  Ag29  1  0.46901631  0.77265972  0.73100862  1
  Ag  Ag30  1  0.96901631  0.72734028  0.26899138  1
  Ag  Ag31  1  0.23100862  0.03098369  0.22734028  1
  Ag  Ag32  1  0.53098369  0.27265972  0.76899138  1
  Ag  Ag33  1  0.73100862  0.46901631  0.77265972  1
  Ag  Ag34  1  0.26899138  0.96901631  0.72734028  1
  Ag  Ag35  1  0.76899138  0.53098369  0.27265972  1
  Ag  Ag36  1  0.22734028  0.23100862  0.03098369  1
  Ag  Ag37  1  0.72734028  0.26899138  0.96901631  1
  Ag  Ag38  1  0.27265972  0.76899138  0.53098369  1
  Ag  Ag39  1  0.77265972  0.73100862  0.46901631  1
  Se  Se40  1  0.62966199  0.62966199  0.62966199  1
  Se  Se41  1  0.87033801  0.37033801  0.12966199  1
  Se  Se42  1  0.37033801  0.12966199  0.87033801  1
  Se  Se43  1  0.12966199  0.87033801  0.37033801  1
  Se  Se44  1  0.26226741  0.26226741  0.26226741  1
  Se  Se45  1  0.23773259  0.73773259  0.76226741  1
  Se  Se46  1  0.73773259  0.76226741  0.23773259  1
  Se  Se47  1  0.76226741  0.23773259  0.73773259  1
  Se  Se48  1  0.01869807  0.01869807  0.01869807  1
  Se  Se49  1  0.48130193  0.98130193  0.51869807  1
  Se  Se50  1  0.98130193  0.51869807  0.48130193  1
  Se  Se51  1  0.51869807  0.48130193  0.98130193  1
  Se  Se52  1  0.12360772  0.13235988  0.60239887  1
  Se  Se53  1  0.37639228  0.86764012  0.10239887  1
  Se  Se54  1  0.87639228  0.63235988  0.89760113  1
  Se  Se55  1  0.60239887  0.12360772  0.13235988  1
  Se  Se56  1  0.62360772  0.36764012  0.39760113  1
  Se  Se57  1  0.10239887  0.37639228  0.86764012  1
  Se  Se58  1  0.89760113  0.87639228  0.63235988  1
  Se  Se59  1  0.39760113  0.62360772  0.36764012  1
  Se  Se60  1  0.13235988  0.60239887  0.12360772  1
  Se  Se61  1  0.63235988  0.89760113  0.87639228  1
  Se  Se62  1  0.36764012  0.39760113  0.62360772  1
  Se  Se63  1  0.86764012  0.10239887  0.37639228  1
