# generated using pymatgen
data_YbGd3F12
_symmetry_space_group_name_H-M   'P 1'
_cell_length_a   4.43428238
_cell_length_b   6.57608905
_cell_length_c   7.01728024
_cell_angle_alpha   90.00000000
_cell_angle_beta   90.00000000
_cell_angle_gamma   89.99693554
_symmetry_Int_Tables_number   1
_chemical_formula_structural   YbGd3F12
_chemical_formula_sum   'Yb1 Gd3 F12'
_cell_volume   204.62554635
_cell_formula_units_Z   1
loop_
 _symmetry_equiv_pos_site_id
 _symmetry_equiv_pos_as_xyz
  1  'x, y, z'
loop_
 _atom_site_type_symbol
 _atom_site_label
 _atom_site_symmetry_multiplicity
 _atom_site_fract_x
 _atom_site_fract_y
 _atom_site_fract_z
 _atom_site_occupancy
  Yb  Yb0  1  0.06330180  0.86779287  0.25000000  1
  Gd  Gd1  1  0.43488441  0.36813552  0.25000000  1
  Gd  Gd2  1  0.93836772  0.13072792  0.75000000  1
  Gd  Gd3  1  0.56332041  0.63310445  0.75000000  1
  F  F4  1  0.91685436  0.52003242  0.25000000  1
  F  F5  1  0.58453608  0.02229061  0.25000000  1
  F  F6  1  0.08387747  0.47907174  0.75000000  1
  F  F7  1  0.41611245  0.97934334  0.75000000  1
  F  F8  1  0.38324330  0.66452603  0.06338511  1
  F  F9  1  0.11678166  0.16497407  0.43629537  1
  F  F10  1  0.61633302  0.33503763  0.56426974  1
  F  F11  1  0.88301467  0.83521283  0.93588904  1
  F  F12  1  0.61633302  0.33503763  0.93573026  1
  F  F13  1  0.88301467  0.83521283  0.56411096  1
  F  F14  1  0.38324330  0.66452603  0.43661489  1
  F  F15  1  0.11678166  0.16497407  0.06370463  1
