# generated using pymatgen
data_Si2BPH29C9N
_symmetry_space_group_name_H-M   'P 1'
_cell_length_a   9.38810867
_cell_length_b   9.38810867
_cell_length_c   11.59802729
_cell_angle_alpha   90.00000000
_cell_angle_beta   90.00000000
_cell_angle_gamma   109.60100263
_symmetry_Int_Tables_number   1
_chemical_formula_structural   Si2BPH29C9N
_chemical_formula_sum   'Si4 B2 P2 H58 C18 N2'
_cell_volume   962.97502867
_cell_formula_units_Z   2
loop_
 _symmetry_equiv_pos_site_id
 _symmetry_equiv_pos_as_xyz
  1  'x, y, z'
loop_
 _atom_site_type_symbol
 _atom_site_label
 _atom_site_symmetry_multiplicity
 _atom_site_fract_x
 _atom_site_fract_y
 _atom_site_fract_z
 _atom_site_occupancy
  Si  Si0  1  0.97821133  0.21550870  0.83872787  1
  Si  Si1  1  0.21550870  0.97821133  0.83872787  1
  Si  Si2  1  0.02178867  0.78449130  0.33872787  1
  Si  Si3  1  0.78449130  0.02178867  0.33872787  1
  B  B4  1  0.34747777  0.34747777  0.91670429  1
  B  B5  1  0.65252223  0.65252223  0.41670429  1
  P  P6  1  0.16291376  0.16291376  0.93695978  1
  P  P7  1  0.83708624  0.83708624  0.43695978  1
  H  H8  1  0.82776062  0.37958496  0.88451239  1
  H  H9  1  0.37958496  0.82776062  0.88451239  1
  H  H10  1  0.17223938  0.62041504  0.38451239  1
  H  H11  1  0.62041504  0.17223938  0.38451239  1
  H  H12  1  0.87311426  0.30003610  0.01352300  1
  H  H13  1  0.30003610  0.87311426  0.01352300  1
  H  H14  1  0.12688574  0.69996390  0.51352300  1
  H  H15  1  0.69996390  0.12688574  0.51352300  1
  H  H16  1  0.01116137  0.45714968  0.94626531  1
  H  H17  1  0.45714968  0.01116137  0.94626531  1
  H  H18  1  0.98883863  0.54285032  0.44626531  1
  H  H19  1  0.54285032  0.98883863  0.44626531  1
  H  H20  1  0.82421385  0.96833456  0.75050631  1
  H  H21  1  0.96833456  0.82421385  0.75050631  1
  H  H22  1  0.17578615  0.03166544  0.25050631  1
  H  H23  1  0.03166544  0.17578615  0.25050631  1
  H  H24  1  0.76705835  0.97924880  0.89645376  1
  H  H25  1  0.97924880  0.76705835  0.89645376  1
  H  H26  1  0.23294165  0.02075120  0.39645376  1
  H  H27  1  0.02075120  0.23294165  0.39645376  1
  H  H28  1  0.71231192  0.08171569  0.78563366  1
  H  H29  1  0.08171569  0.71231192  0.78563366  1
  H  H30  1  0.28768808  0.91828431  0.28563366  1
  H  H31  1  0.91828431  0.28768808  0.28563366  1
  H  H32  1  0.93618171  0.33306734  0.65405279  1
  H  H33  1  0.33306734  0.93618171  0.65405279  1
  H  H34  1  0.06381829  0.66693266  0.15405279  1
  H  H35  1  0.66693266  0.06381829  0.15405279  1
  H  H36  1  0.12921490  0.40791602  0.69668991  1
  H  H37  1  0.40791602  0.12921490  0.69668991  1
  H  H38  1  0.87078510  0.59208398  0.19668991  1
  H  H39  1  0.59208398  0.87078510  0.19668991  1
  H  H40  1  0.05680391  0.22452706  0.63268043  1
  H  H41  1  0.22452706  0.05680391  0.63268043  1
  H  H42  1  0.94319609  0.77547294  0.13268043  1
  H  H43  1  0.77547294  0.94319609  0.13268043  1
  H  H44  1  0.63993015  0.52311108  0.96582531  1
  H  H45  1  0.52311108  0.63993015  0.96582531  1
  H  H46  1  0.36006985  0.47688892  0.46582531  1
  H  H47  1  0.47688892  0.36006985  0.46582531  1
  H  H48  1  0.60948570  0.60948570  0.09740638  1
  H  H49  1  0.39051430  0.39051430  0.59740638  1
  H  H50  1  0.37922868  0.21656689  0.13217998  1
  H  H51  1  0.21656689  0.37922868  0.13217998  1
  H  H52  1  0.62077132  0.78343311  0.63217998  1
  H  H53  1  0.78343311  0.62077132  0.63217998  1
  H  H54  1  0.55977775  0.28655134  0.06208946  1
  H  H55  1  0.28655134  0.55977775  0.06208946  1
  H  H56  1  0.44022225  0.71344866  0.56208946  1
  H  H57  1  0.71344866  0.44022225  0.56208946  1
  H  H58  1  0.52711318  0.37606069  0.19141857  1
  H  H59  1  0.37606069  0.52711318  0.19141857  1
  H  H60  1  0.47288682  0.62393931  0.69141857  1
  H  H61  1  0.62393931  0.47288682  0.69141857  1
  H  H62  1  0.31661115  0.44943321  0.86926144  1
  H  H63  1  0.44943321  0.31661115  0.86926144  1
  H  H64  1  0.68338885  0.55056679  0.36926144  1
  H  H65  1  0.55056679  0.68338885  0.36926144  1
  C  C66  1  0.91774194  0.35139206  0.93012526  1
  C  C67  1  0.35139206  0.91774194  0.93012526  1
  C  C68  1  0.08225806  0.64860794  0.43012526  1
  C  C69  1  0.64860794  0.08225806  0.43012526  1
  C  C70  1  0.80458097  0.04351046  0.81650868  1
  C  C71  1  0.04351046  0.80458097  0.81650868  1
  C  C72  1  0.19541903  0.95648954  0.31650868  1
  C  C73  1  0.95648954  0.19541903  0.31650868  1
  C  C74  1  0.03075745  0.30395715  0.69166823  1
  C  C75  1  0.30395715  0.03075745  0.69166823  1
  C  C76  1  0.96924255  0.69604285  0.19166823  1
  C  C77  1  0.69604285  0.96924255  0.19166823  1
  C  C78  1  0.55835815  0.55835815  0.01553500  1
  C  C79  1  0.44164185  0.44164185  0.51553500  1
  C  C80  1  0.47574565  0.31780501  0.11151306  1
  C  C81  1  0.31780501  0.47574565  0.11151306  1
  C  C82  1  0.52425435  0.68219499  0.61151306  1
  C  C83  1  0.68219499  0.52425435  0.61151306  1
  N  N84  1  0.42301395  0.42301395  0.04085370  1
  N  N85  1  0.57698605  0.57698605  0.54085370  1
