# generated using pymatgen
data_BaNaGaF6
_symmetry_space_group_name_H-M   'P 1'
_cell_length_a   5.61820405
_cell_length_b   19.35368135
_cell_length_c   10.06318909
_cell_angle_alpha   90.00000000
_cell_angle_beta   90.00000000
_cell_angle_gamma   90.00000000
_symmetry_Int_Tables_number   1
_chemical_formula_structural   BaNaGaF6
_chemical_formula_sum   'Ba8 Na8 Ga8 F48'
_cell_volume   1094.20004439
_cell_formula_units_Z   8
loop_
 _symmetry_equiv_pos_site_id
 _symmetry_equiv_pos_as_xyz
  1  'x, y, z'
loop_
 _atom_site_type_symbol
 _atom_site_label
 _atom_site_symmetry_multiplicity
 _atom_site_fract_x
 _atom_site_fract_y
 _atom_site_fract_z
 _atom_site_occupancy
  Ba  Ba0  1  0.24043159  0.88791667  0.63313320  1
  Ba  Ba1  1  0.75956841  0.11208333  0.13313320  1
  Ba  Ba2  1  0.25956841  0.38791667  0.63313320  1
  Ba  Ba3  1  0.74043159  0.61208333  0.13313320  1
  Ba  Ba4  1  0.74105919  0.86297661  0.99847639  1
  Ba  Ba5  1  0.25894081  0.13702339  0.49847639  1
  Ba  Ba6  1  0.75894081  0.36297661  0.99847639  1
  Ba  Ba7  1  0.24105919  0.63702339  0.49847639  1
  Na  Na8  1  0.74313325  0.93565485  0.36242738  1
  Na  Na9  1  0.25686675  0.06434515  0.86242738  1
  Na  Na10  1  0.75686675  0.43565485  0.36242738  1
  Na  Na11  1  0.24313325  0.56434515  0.86242738  1
  Na  Na12  1  0.73725447  0.68724094  0.77028224  1
  Na  Na13  1  0.26274553  0.31275906  0.27028224  1
  Na  Na14  1  0.76274553  0.18724094  0.77028224  1
  Na  Na15  1  0.23725447  0.81275906  0.27028224  1
  Ga  Ga16  1  0.73634012  0.50708750  0.73797264  1
  Ga  Ga17  1  0.26365988  0.49291250  0.23797264  1
  Ga  Ga18  1  0.76365988  0.00708750  0.73797264  1
  Ga  Ga19  1  0.23634012  0.99291250  0.23797264  1
  Ga  Ga20  1  0.74814246  0.75605031  0.39494017  1
  Ga  Ga21  1  0.25185754  0.24394969  0.89494017  1
  Ga  Ga22  1  0.75185754  0.25605031  0.39494017  1
  Ga  Ga23  1  0.24814246  0.74394969  0.89494017  1
  F  F24  1  0.97215446  0.94149494  0.82615442  1
  F  F25  1  0.02784554  0.05850506  0.32615442  1
  F  F26  1  0.52784554  0.44149494  0.82615442  1
  F  F27  1  0.47215446  0.55850506  0.32615442  1
  F  F28  1  0.66357423  0.57099804  0.88076836  1
  F  F29  1  0.33642577  0.42900196  0.38076836  1
  F  F30  1  0.83642577  0.07099804  0.88076836  1
  F  F31  1  0.16357423  0.92900196  0.38076836  1
  F  F32  1  0.50387551  0.96529921  0.83532051  1
  F  F33  1  0.49612449  0.03470079  0.33532051  1
  F  F34  1  0.99612449  0.46529921  0.83532051  1
  F  F35  1  0.00387551  0.53470079  0.33532051  1
  F  F36  1  0.52408124  0.82170132  0.45917109  1
  F  F37  1  0.47591876  0.17829868  0.95917109  1
  F  F38  1  0.97591876  0.32170132  0.45917109  1
  F  F39  1  0.02408124  0.67829868  0.95917109  1
  F  F40  1  0.46559573  0.80756125  0.80705316  1
  F  F41  1  0.53440427  0.19243875  0.30705316  1
  F  F42  1  0.03440427  0.30756125  0.80705316  1
  F  F43  1  0.96559573  0.69243875  0.30705316  1
  F  F44  1  0.70036958  0.69121485  0.53743236  1
  F  F45  1  0.29963042  0.30878515  0.03743236  1
  F  F46  1  0.79963042  0.19121485  0.53743236  1
  F  F47  1  0.20036958  0.80878515  0.03743236  1
  F  F48  1  0.95059231  0.57575453  0.67452131  1
  F  F49  1  0.04940769  0.42424547  0.17452131  1
  F  F50  1  0.54940769  0.07575453  0.67452131  1
  F  F51  1  0.45059231  0.92424547  0.17452131  1
  F  F52  1  0.99250878  0.78797434  0.79845924  1
  F  F53  1  0.00749122  0.21202566  0.29845924  1
  F  F54  1  0.50749122  0.28797434  0.79845924  1
  F  F55  1  0.49250878  0.71202566  0.29845924  1
  F  F56  1  0.45358874  0.53732764  0.64730468  1
  F  F57  1  0.54641126  0.46267236  0.14730468  1
  F  F58  1  0.04641126  0.03732764  0.64730468  1
  F  F59  1  0.95358874  0.96267236  0.14730468  1
  F  F60  1  0.80984754  0.82031293  0.25091321  1
  F  F61  1  0.19015246  0.17968707  0.75091321  1
  F  F62  1  0.69015246  0.32031293  0.25091321  1
  F  F63  1  0.30984754  0.67968707  0.75091321  1
  F  F64  1  0.70528471  0.94261387  0.59531814  1
  F  F65  1  0.29471529  0.05738613  0.09531814  1
  F  F66  1  0.79471529  0.44261387  0.59531814  1
  F  F67  1  0.20528471  0.55738613  0.09531814  1
  F  F68  1  0.52309627  0.70922165  0.98475148  1
  F  F69  1  0.47690373  0.29077835  0.48475148  1
  F  F70  1  0.97690373  0.20922165  0.98475148  1
  F  F71  1  0.02309627  0.79077835  0.48475148  1
