# generated using pymatgen
data_Zr4Br4O
_symmetry_space_group_name_H-M   'P 1'
_cell_length_a   3.61263329
_cell_length_b   3.61263437
_cell_length_c   19.71743845
_cell_angle_alpha   90.00000002
_cell_angle_beta   95.25624330
_cell_angle_gamma   119.99999941
_symmetry_Int_Tables_number   1
_chemical_formula_structural   Zr4Br4O
_chemical_formula_sum   'Zr4 Br4 O1'
_cell_volume   221.60801678
_cell_formula_units_Z   1
loop_
 _symmetry_equiv_pos_site_id
 _symmetry_equiv_pos_as_xyz
  1  'x, y, z'
loop_
 _atom_site_type_symbol
 _atom_site_label
 _atom_site_symmetry_multiplicity
 _atom_site_fract_x
 _atom_site_fract_y
 _atom_site_fract_z
 _atom_site_occupancy
  Zr  Zr0  1  0.79378688  0.89689344  0.69068032  1
  Zr  Zr1  1  0.79062229  0.39531115  0.18593344  1
  Zr  Zr2  1  0.20652103  0.60326051  0.80978154  1
  Zr  Zr3  1  0.20832358  0.10416179  0.31248537  1
  Br  Br4  1  0.60344726  0.30172363  0.90517090  1
  Br  Br5  1  0.60882175  0.80441088  0.41323263  1
  Br  Br6  1  0.39683757  0.19841878  0.59525635  1
  Br  Br7  1  0.39279736  0.69639868  0.08919603  1
  O  O8  1  0.86384229  0.43192114  0.29576343  1
