# generated using pymatgen
data_Zr10(GaSb)3
_symmetry_space_group_name_H-M   'P 1'
_cell_length_a   5.72131914
_cell_length_b   8.37106181
_cell_length_c   8.37106204
_cell_angle_alpha   60.00713664
_cell_angle_beta   90.00163247
_cell_angle_gamma   89.99836748
_symmetry_Int_Tables_number   1
_chemical_formula_structural   Zr10(GaSb)3
_chemical_formula_sum   'Zr10 Ga3 Sb3'
_cell_volume   347.23151966
_cell_formula_units_Z   1
loop_
 _symmetry_equiv_pos_site_id
 _symmetry_equiv_pos_as_xyz
  1  'x, y, z'
loop_
 _atom_site_type_symbol
 _atom_site_label
 _atom_site_symmetry_multiplicity
 _atom_site_fract_x
 _atom_site_fract_y
 _atom_site_fract_z
 _atom_site_occupancy
  Zr  Zr0  1  0.50623138  0.33333015  0.33332666  1
  Zr  Zr1  1  0.50623138  0.66667334  0.66666985  1
  Zr  Zr2  1  0.99377491  0.66669084  0.66666706  1
  Zr  Zr3  1  0.99377491  0.33333294  0.33330916  1
  Zr  Zr4  1  0.75002375  0.25003140  0.74996860  1
  Zr  Zr5  1  0.75002837  0.74984671  0.00000843  1
  Zr  Zr6  1  0.75002837  0.99999157  0.25015329  1
  Zr  Zr7  1  0.24997077  0.74994076  0.25005924  1
  Zr  Zr8  1  0.24998104  0.25008610  -0.00002061  1
  Zr  Zr9  1  0.24998104  0.00002061  0.74991390  1
  Ga  Ga10  1  0.75000476  0.61230521  0.38769479  1
  Ga  Ga11  1  0.75001372  0.38774754  0.00001930  1
  Ga  Ga12  1  0.75001372  0.99998070  0.61225246  1
  Sb  Sb13  1  0.24998133  0.39186415  0.60813585  1
  Sb  Sb14  1  0.24998027  0.60816783  0.00000984  1
  Sb  Sb15  1  0.24998027  0.99999016  0.39183217  1
