# generated using pymatgen
data_Y2(B2Rh3)3
_symmetry_space_group_name_H-M   'P 1'
_cell_length_a   5.61191773
_cell_length_b   5.61108603
_cell_length_c   8.60074940
_cell_angle_alpha   90.00148941
_cell_angle_beta   90.00297846
_cell_angle_gamma   59.99509322
_symmetry_Int_Tables_number   1
_chemical_formula_structural   Y2(B2Rh3)3
_chemical_formula_sum   'Y2 B6 Rh9'
_cell_volume   234.53284552
_cell_formula_units_Z   1
loop_
 _symmetry_equiv_pos_site_id
 _symmetry_equiv_pos_as_xyz
  1  'x, y, z'
loop_
 _atom_site_type_symbol
 _atom_site_label
 _atom_site_symmetry_multiplicity
 _atom_site_fract_x
 _atom_site_fract_y
 _atom_site_fract_z
 _atom_site_occupancy
  Y  Y0  1  0.99999178  0.00000000  0.29385270  1
  Y  Y1  1  0.00001262  -0.00000000  0.70614549  1
  B  B2  1  0.66665143  0.66667232  0.00000067  1
  B  B3  1  0.33332376  0.33332768  0.00000067  1
  B  B4  1  0.66665376  0.66668329  0.33249472  1
  B  B5  1  0.33333705  0.33331671  0.33249472  1
  B  B6  1  0.33332969  0.33331797  0.66750796  1
  B  B7  1  0.66664766  0.66668203  0.66750796  1
  Rh  Rh8  1  0.49993625  0.00000000  0.16434260  1
  Rh  Rh9  1  0.99996251  0.49998898  0.16433014  1
  Rh  Rh10  1  0.49995149  0.50001102  0.16433014  1
  Rh  Rh11  1  0.50006020  1.00000000  0.83566738  1
  Rh  Rh12  1  0.00001235  0.50001014  0.83566727  1
  Rh  Rh13  1  0.50002249  0.49998986  0.83566727  1
  Rh  Rh14  1  0.50001352  -0.00000000  0.49999568  1
  Rh  Rh15  1  0.99999553  0.50000240  0.49999732  1
  Rh  Rh16  1  0.49999792  0.49999760  0.49999732  1
