# generated using pymatgen
data_Zr3TePb4O13
_symmetry_space_group_name_H-M   'P 1'
_cell_length_a   7.69185259
_cell_length_b   7.68534264
_cell_length_c   7.69185259
_cell_angle_alpha   90.00000000
_cell_angle_beta   59.94401433
_cell_angle_gamma   119.97200716
_symmetry_Int_Tables_number   1
_chemical_formula_structural   Zr3TePb4O13
_chemical_formula_sum   'Zr3 Te1 Pb4 O13'
_cell_volume   321.38533071
_cell_formula_units_Z   1
loop_
 _symmetry_equiv_pos_site_id
 _symmetry_equiv_pos_as_xyz
  1  'x, y, z'
loop_
 _atom_site_type_symbol
 _atom_site_label
 _atom_site_symmetry_multiplicity
 _atom_site_fract_x
 _atom_site_fract_y
 _atom_site_fract_z
 _atom_site_occupancy
  Zr  Zr0  1  0.50031975  0.00109411  0.49922564  1
  Zr  Zr1  1  0.50031975  0.49922564  0.49922564  1
  Zr  Zr2  1  -0.00154872  0.49922564  0.00109411  1
  Te  Te3  1  0.99921585  0.49960792  0.49960792  1
  Pb  Pb4  1  0.49786251  0.49850274  0.99935976  1
  Pb  Pb5  1  0.49786251  0.99935976  0.99935976  1
  Pb  Pb6  1  0.99871953  0.99935976  0.49850274  1
  Pb  Pb7  1  0.00338226  0.00169113  0.00169113  1
  O  O8  1  0.66412013  0.83206007  0.42863524  1
  O  O9  1  0.86716118  0.43358059  0.80107793  1
  O  O10  1  0.26069531  0.83206007  0.83206007  1
  O  O11  1  0.23465852  0.43358059  0.43358059  1
  O  O12  1  0.26069531  0.42863524  0.83206007  1
  O  O13  1  0.23465852  0.80107793  0.43358059  1
  O  O14  1  0.34339196  0.17169598  0.56596705  1
  O  O15  1  0.12871890  0.56435945  0.19953254  1
  O  O16  1  0.73766303  0.17169598  0.17169598  1
  O  O17  1  0.76389199  0.56435945  0.56435945  1
  O  O18  1  0.73766303  0.56596705  0.17169598  1
  O  O19  1  0.76389199  0.19953254  0.56435945  1
  O  O20  1  0.25665673  0.12832836  0.12832836  1
