# generated using pymatgen
data_Yb9Cd4Bi9
_symmetry_space_group_name_H-M   'P 1'
_cell_length_a   4.82850716
_cell_length_b   12.68703889
_cell_length_c   22.52085430
_cell_angle_alpha   90.00000000
_cell_angle_beta   90.00000000
_cell_angle_gamma   90.00000000
_symmetry_Int_Tables_number   1
_chemical_formula_structural   Yb9Cd4Bi9
_chemical_formula_sum   'Yb18 Cd8 Bi18'
_cell_volume   1379.61533081
_cell_formula_units_Z   2
loop_
 _symmetry_equiv_pos_site_id
 _symmetry_equiv_pos_as_xyz
  1  'x, y, z'
loop_
 _atom_site_type_symbol
 _atom_site_label
 _atom_site_symmetry_multiplicity
 _atom_site_fract_x
 _atom_site_fract_y
 _atom_site_fract_z
 _atom_site_occupancy
  Yb  Yb0  1  0.00000000  0.93192048  0.41109368  1
  Yb  Yb1  1  -0.00000000  0.06807952  0.58890632  1
  Yb  Yb2  1  -0.00000000  0.56807952  0.91109368  1
  Yb  Yb3  1  -0.00000000  0.43192048  0.08890632  1
  Yb  Yb4  1  -0.00000000  0.87606043  0.23319074  1
  Yb  Yb5  1  0.00000000  0.12393957  0.76680926  1
  Yb  Yb6  1  0.00000000  0.62393957  0.73319074  1
  Yb  Yb7  1  -0.00000000  0.37606043  0.26680926  1
  Yb  Yb8  1  0.50000000  0.70882987  0.09975974  1
  Yb  Yb9  1  0.50000000  0.29117013  0.90024026  1
  Yb  Yb10  1  0.50000000  0.79117013  0.59975974  1
  Yb  Yb11  1  0.50000000  0.20882987  0.40024026  1
  Yb  Yb12  1  -0.00000000  0.63327118  0.36271673  1
  Yb  Yb13  1  -0.00000000  0.36672882  0.63728327  1
  Yb  Yb14  1  0.00000000  0.86672882  0.86271673  1
  Yb  Yb15  1  0.00000000  0.13327118  0.13728327  1
  Yb  Yb16  1  0.50000000  0.50000000  0.50000000  1
  Yb  Yb17  1  0.50000000  0.00000000  -0.00000000  1
  Cd  Cd18  1  0.50000000  0.61313642  0.25921107  1
  Cd  Cd19  1  0.50000000  0.38686358  0.74078893  1
  Cd  Cd20  1  0.50000000  0.88686358  0.75921107  1
  Cd  Cd21  1  0.50000000  0.11313642  0.24078893  1
  Cd  Cd22  1  0.50000000  0.76731989  0.45226213  1
  Cd  Cd23  1  0.50000000  0.23268011  0.54773787  1
  Cd  Cd24  1  0.50000000  0.73268011  0.95226213  1
  Cd  Cd25  1  0.50000000  0.26731989  0.04773787  1
  Bi  Bi26  1  -0.00000000  0.81778563  0.01246854  1
  Bi  Bi27  1  -0.00000000  0.18221437  0.98753146  1
  Bi  Bi28  1  -0.00000000  0.68221437  0.51246854  1
  Bi  Bi29  1  -0.00000000  0.31778563  0.48753146  1
  Bi  Bi30  1  -0.00000000  0.62140152  0.18556585  1
  Bi  Bi31  1  0.00000000  0.37859848  0.81443415  1
  Bi  Bi32  1  0.00000000  0.87859848  0.68556585  1
  Bi  Bi33  1  -0.00000000  0.12140152  0.31443415  1
  Bi  Bi34  1  0.50000000  0.95445714  0.14335687  1
  Bi  Bi35  1  0.50000000  0.04554286  0.85664313  1
  Bi  Bi36  1  0.50000000  0.54554286  0.64335687  1
  Bi  Bi37  1  0.50000000  0.45445714  0.35664313  1
  Bi  Bi38  1  0.50000000  0.81905679  0.32691588  1
  Bi  Bi39  1  0.50000000  0.18094321  0.67308412  1
  Bi  Bi40  1  0.50000000  0.68094321  0.82691588  1
  Bi  Bi41  1  0.50000000  0.31905679  0.17308412  1
  Bi  Bi42  1  0.50000000  0.00000000  0.50000000  1
  Bi  Bi43  1  0.50000000  0.50000000  -0.00000000  1
