# generated using pymatgen
data_Yb2ZnSb2
_symmetry_space_group_name_H-M   'P 1'
_cell_length_a   4.65519428
_cell_length_b   12.33636022
_cell_length_c   21.66738838
_cell_angle_alpha   89.72899000
_cell_angle_beta   90.00000000
_cell_angle_gamma   90.00000000
_symmetry_Int_Tables_number   1
_chemical_formula_structural   Yb2ZnSb2
_chemical_formula_sum   'Yb18 Zn9 Sb18'
_cell_volume   1244.30418683
_cell_formula_units_Z   9
loop_
 _symmetry_equiv_pos_site_id
 _symmetry_equiv_pos_as_xyz
  1  'x, y, z'
loop_
 _atom_site_type_symbol
 _atom_site_label
 _atom_site_symmetry_multiplicity
 _atom_site_fract_x
 _atom_site_fract_y
 _atom_site_fract_z
 _atom_site_occupancy
  Yb  Yb0  1  0.00000000  0.93075587  0.41191882  1
  Yb  Yb1  1  0.00000000  0.06890462  0.58957022  1
  Yb  Yb2  1  -0.00000000  0.56388521  0.90890426  1
  Yb  Yb3  1  0.00000000  0.43130065  0.08933667  1
  Yb  Yb4  1  -0.00000000  0.87369977  0.24489228  1
  Yb  Yb5  1  -0.00000000  0.12328875  0.76367606  1
  Yb  Yb6  1  0.00000000  0.62160287  0.73606439  1
  Yb  Yb7  1  -0.00000000  0.37917976  0.26483427  1
  Yb  Yb8  1  0.50000000  0.70025320  0.10056136  1
  Yb  Yb9  1  0.50000000  0.28884579  0.89885683  1
  Yb  Yb10  1  0.50000000  0.78883321  0.60014443  1
  Yb  Yb11  1  0.50000000  0.21166804  0.40038760  1
  Yb  Yb12  1  0.50000000  0.50045785  0.49995266  1
  Yb  Yb13  1  0.50000000  0.00468465  0.99676895  1
  Yb  Yb14  1  -0.00000000  0.63222814  0.36179319  1
  Yb  Yb15  1  0.00000000  0.36660601  0.63976299  1
  Yb  Yb16  1  -0.00000000  0.86871472  0.85577983  1
  Yb  Yb17  1  0.00000000  0.14426067  0.14119075  1
  Zn  Zn18  1  0.50000000  0.61722201  0.26176516  1
  Zn  Zn19  1  0.50000000  0.38373735  0.73802296  1
  Zn  Zn20  1  0.50000000  0.88541509  0.76107188  1
  Zn  Zn21  1  0.50000000  0.12363347  0.24036614  1
  Zn  Zn22  1  0.50000000  0.77491465  0.45439960  1
  Zn  Zn23  1  0.50000000  0.22438759  0.54686248  1
  Zn  Zn24  1  0.50000000  0.71754428  0.95405030  1
  Zn  Zn25  1  0.50000000  0.27461450  0.04683759  1
  Zn  Zn26  1  0.00000000  0.89264161  0.10438322  1
  Sb  Sb27  1  -0.00000000  0.62428278  0.19264238  1
  Sb  Sb28  1  -0.00000000  0.37918787  0.80543510  1
  Sb  Sb29  1  -0.00000000  0.87956550  0.69476808  1
  Sb  Sb30  1  -0.00000000  0.11709487  0.30428022  1
  Sb  Sb31  1  0.50000000  0.95661102  0.14781570  1
  Sb  Sb32  1  0.50000000  0.04298407  0.85289490  1
  Sb  Sb33  1  0.50000000  0.54268244  0.64717935  1
  Sb  Sb34  1  0.50000000  0.45841727  0.35201067  1
  Sb  Sb35  1  0.50000000  0.80958467  0.33210691  1
  Sb  Sb36  1  0.50000000  0.18863080  0.66908882  1
  Sb  Sb37  1  0.50000000  0.69038671  0.83223210  1
  Sb  Sb38  1  0.50000000  0.31245463  0.16914255  1
  Sb  Sb39  1  0.00000000  0.80280735  0.99672656  1
  Sb  Sb40  1  0.00000000  0.19453869  0.99512343  1
  Sb  Sb41  1  0.00000000  0.69501867  0.50587512  1
  Sb  Sb42  1  -0.00000000  0.30474937  0.49500474  1
  Sb  Sb43  1  0.50000000  0.00034179  0.49968353  1
  Sb  Sb44  1  0.50000000  0.49958116  0.00013493  1
