# generated using pymatgen
data_YU2O6
_symmetry_space_group_name_H-M   'P 1'
_cell_length_a   3.82104275
_cell_length_b   5.38962879
_cell_length_c   6.56791543
_cell_angle_alpha   65.77633071
_cell_angle_beta   73.08893166
_cell_angle_gamma   90.00000000
_symmetry_Int_Tables_number   1
_chemical_formula_structural   YU2O6
_chemical_formula_sum   'Y1 U2 O6'
_cell_volume   116.90683027
_cell_formula_units_Z   1
loop_
 _symmetry_equiv_pos_site_id
 _symmetry_equiv_pos_as_xyz
  1  'x, y, z'
loop_
 _atom_site_type_symbol
 _atom_site_label
 _atom_site_symmetry_multiplicity
 _atom_site_fract_x
 _atom_site_fract_y
 _atom_site_fract_z
 _atom_site_occupancy
  Y  Y0  1  -0.00000000  0.00000000  0.00000000  1
  U  U1  1  0.33485909  0.33485909  0.33028081  1
  U  U2  1  0.66514091  0.66514091  0.66971919  1
  O  O3  1  0.50000000  0.25883286  0.00000000  1
  O  O4  1  0.82964030  0.57569963  0.34071841  1
  O  O5  1  0.17035970  0.91641904  0.65928159  1
  O  O6  1  0.50000000  0.74116714  0.00000000  1
  O  O7  1  0.82964030  0.08358096  0.34071841  1
  O  O8  1  0.17035970  0.42430037  0.65928159  1
