# generated using pymatgen
data_Y10(SiGe)3
_symmetry_space_group_name_H-M   'P 1'
_cell_length_a   6.41040230
_cell_length_b   8.50351136
_cell_length_c   8.50130281
_cell_angle_alpha   120.00859207
_cell_angle_beta   89.99994999
_cell_angle_gamma   90.00010007
_symmetry_Int_Tables_number   1
_chemical_formula_structural   Y10(SiGe)3
_chemical_formula_sum   'Y10 Si3 Ge3'
_cell_volume   401.29346891
_cell_formula_units_Z   1
loop_
 _symmetry_equiv_pos_site_id
 _symmetry_equiv_pos_as_xyz
  1  'x, y, z'
loop_
 _atom_site_type_symbol
 _atom_site_label
 _atom_site_symmetry_multiplicity
 _atom_site_fract_x
 _atom_site_fract_y
 _atom_site_fract_z
 _atom_site_occupancy
  Y  Y0  1  0.49768458  0.33335297  0.66670641  1
  Y  Y1  1  0.49768458  0.66664656  0.33329359  1
  Y  Y2  1  0.00231294  0.66665725  0.33329517  1
  Y  Y3  1  0.00231294  0.33336208  0.66670483  1
  Y  Y4  1  0.75001054  0.24347653  0.00000000  1
  Y  Y5  1  0.74999270  0.75661756  0.75654078  1
  Y  Y6  1  0.74999270  0.00007678  0.24345922  1
  Y  Y7  1  0.25001484  0.75688162  1.00000000  1
  Y  Y8  1  0.24999336  0.24299272  0.24307852  1
  Y  Y9  1  0.24999336  0.99991420  0.75692148  1
  Si  Si10  1  0.24999317  0.39403640  1.00000000  1
  Si  Si11  1  0.25000366  0.60587319  0.60571578  1
  Si  Si12  1  0.25000366  0.00015741  0.39428422  1
  Ge  Ge13  1  0.74999630  0.60602562  0.00000000  1
  Ge  Ge14  1  0.75000533  0.39402606  0.39412302  1
  Ge  Ge15  1  0.75000533  0.99990304  0.60587698  1
