# generated using pymatgen
data_Y2Ga3Ag
_symmetry_space_group_name_H-M   'P 1'
_cell_length_a   4.51792665
_cell_length_b   4.51499891
_cell_length_c   7.23541963
_cell_angle_alpha   90.00000000
_cell_angle_beta   89.97538460
_cell_angle_gamma   60.02144122
_symmetry_Int_Tables_number   1
_chemical_formula_structural   Y2Ga3Ag
_chemical_formula_sum   'Y2 Ga3 Ag1'
_cell_volume   127.84534487
_cell_formula_units_Z   1
loop_
 _symmetry_equiv_pos_site_id
 _symmetry_equiv_pos_as_xyz
  1  'x, y, z'
loop_
 _atom_site_type_symbol
 _atom_site_label
 _atom_site_symmetry_multiplicity
 _atom_site_fract_x
 _atom_site_fract_y
 _atom_site_fract_z
 _atom_site_occupancy
  Y  Y0  1  -0.00010105  0.00005052  0.75968803  1
  Y  Y1  1  0.99994999  0.00002501  0.24226150  1
  Ga  Ga2  1  0.66688129  0.66655936  0.02972289  1
  Ga  Ga3  1  0.66656255  0.66671872  0.45226639  1
  Ga  Ga4  1  0.33350015  0.33324992  0.54554959  1
  Ag  Ag5  1  0.33320706  0.33339647  0.97051160  1
