# generated using pymatgen
data_U2Co15Ge2
_symmetry_space_group_name_H-M   'P 1'
_cell_length_a   8.29069877
_cell_length_b   8.24274638
_cell_length_c   8.24274638
_cell_angle_alpha   120.22778144
_cell_angle_beta   90.00000000
_cell_angle_gamma   90.00000000
_symmetry_Int_Tables_number   1
_chemical_formula_structural   U2Co15Ge2
_chemical_formula_sum   'U4 Co30 Ge4'
_cell_volume   486.70323568
_cell_formula_units_Z   2
loop_
 _symmetry_equiv_pos_site_id
 _symmetry_equiv_pos_as_xyz
  1  'x, y, z'
loop_
 _atom_site_type_symbol
 _atom_site_label
 _atom_site_symmetry_multiplicity
 _atom_site_fract_x
 _atom_site_fract_y
 _atom_site_fract_z
 _atom_site_occupancy
  U  U0  1  0.75000000  0.00026766  0.99973234  1
  U  U1  1  0.25000000  0.99973234  0.00026766  1
  U  U2  1  0.25000000  0.66655363  0.33344637  1
  U  U3  1  0.75000000  0.33344637  0.66655363  1
  Co  Co4  1  0.50000000  0.50000000  0.00000000  1
  Co  Co5  1  0.50000000  0.50000000  0.50000000  1
  Co  Co6  1  0.50000000  -0.00000000  0.50000000  1
  Co  Co7  1  0.00000000  0.50000000  0.00000000  1
  Co  Co8  1  0.00000000  0.50000000  0.50000000  1
  Co  Co9  1  0.00000000  -0.00000000  0.50000000  1
  Co  Co10  1  0.75000000  0.66803679  0.02049210  1
  Co  Co11  1  0.75000000  0.35265456  0.33094814  1
  Co  Co12  1  0.75000000  0.97745865  0.64708933  1
  Co  Co13  1  0.75000000  0.35291067  0.02254135  1
  Co  Co14  1  0.75000000  0.97950790  0.33196321  1
  Co  Co15  1  0.75000000  0.66905186  0.64734544  1
  Co  Co16  1  0.25000000  0.33196321  0.97950790  1
  Co  Co17  1  0.25000000  0.64734544  0.66905186  1
  Co  Co18  1  0.25000000  0.02254135  0.35291067  1
  Co  Co19  1  0.25000000  0.64708933  0.97745865  1
  Co  Co20  1  0.25000000  0.02049210  0.66803679  1
  Co  Co21  1  0.25000000  0.33094814  0.35265456  1
  Co  Co22  1  0.48738475  0.83735984  0.67506232  1
  Co  Co23  1  0.48722479  0.83730547  0.16269453  1
  Co  Co24  1  0.48738475  0.32493768  0.16264016  1
  Co  Co25  1  0.51261525  0.16264016  0.32493768  1
  Co  Co26  1  0.51277521  0.16269453  0.83730547  1
  Co  Co27  1  0.51261525  0.67506232  0.83735984  1
  Co  Co28  1  0.98738475  0.16264016  0.32493768  1
  Co  Co29  1  0.98722479  0.16269453  0.83730547  1
  Co  Co30  1  0.98738475  0.67506232  0.83735984  1
  Co  Co31  1  0.01261525  0.83735984  0.67506232  1
  Co  Co32  1  0.01277521  0.83730547  0.16269453  1
  Co  Co33  1  0.01261525  0.32493768  0.16264016  1
  Ge  Ge34  1  0.60073048  0.66676511  0.33323489  1
  Ge  Ge35  1  0.39926952  0.33323489  0.66676511  1
  Ge  Ge36  1  0.10073048  0.33323489  0.66676511  1
  Ge  Ge37  1  0.89926952  0.66676511  0.33323489  1
