# generated using pymatgen
data_TiMnCr
_symmetry_space_group_name_H-M   'P 1'
_cell_length_a   4.81223373
_cell_length_b   4.81272860
_cell_length_c   7.82856505
_cell_angle_alpha   90.00000000
_cell_angle_beta   90.00000000
_cell_angle_gamma   59.89730941
_symmetry_Int_Tables_number   1
_chemical_formula_structural   TiMnCr
_chemical_formula_sum   'Ti4 Mn4 Cr4'
_cell_volume   156.85578892
_cell_formula_units_Z   4
loop_
 _symmetry_equiv_pos_site_id
 _symmetry_equiv_pos_as_xyz
  1  'x, y, z'
loop_
 _atom_site_type_symbol
 _atom_site_label
 _atom_site_symmetry_multiplicity
 _atom_site_fract_x
 _atom_site_fract_y
 _atom_site_fract_z
 _atom_site_occupancy
  Ti  Ti0  1  0.33341942  0.33341102  0.56029287  1
  Ti  Ti1  1  0.66663012  0.66665300  0.43589818  1
  Ti  Ti2  1  0.66663012  0.66665300  0.06410182  1
  Ti  Ti3  1  0.33341942  0.33341102  0.93970713  1
  Mn  Mn4  1  0.82995744  0.82995640  0.75000000  1
  Mn  Mn5  1  0.17313694  0.65521513  0.25000000  1
  Mn  Mn6  1  0.65519680  0.17315052  0.25000000  1
  Mn  Mn7  1  0.17226792  0.17227448  0.25000000  1
  Cr  Cr8  1  0.99870782  0.99867686  0.49382910  1
  Cr  Cr9  1  0.99870782  0.99867686  0.00617090  1
  Cr  Cr10  1  0.83118542  0.34073972  0.75000000  1
  Cr  Cr11  1  0.34074076  0.83118199  0.75000000  1
