# generated using pymatgen
data_V9Ga4Fe3
_symmetry_space_group_name_H-M   'P 1'
_cell_length_a   4.66502471
_cell_length_b   4.70032089
_cell_length_c   9.41577152
_cell_angle_alpha   90.29733327
_cell_angle_beta   90.00000000
_cell_angle_gamma   90.00000000
_symmetry_Int_Tables_number   1
_chemical_formula_structural   V9Ga4Fe3
_chemical_formula_sum   'V9 Ga4 Fe3'
_cell_volume   206.45790704
_cell_formula_units_Z   1
loop_
 _symmetry_equiv_pos_site_id
 _symmetry_equiv_pos_as_xyz
  1  'x, y, z'
loop_
 _atom_site_type_symbol
 _atom_site_label
 _atom_site_symmetry_multiplicity
 _atom_site_fract_x
 _atom_site_fract_y
 _atom_site_fract_z
 _atom_site_occupancy
  V  V0  1  0.50000000  0.25023213  0.50062268  1
  V  V1  1  0.75042857  0.99777251  0.24775708  1
  V  V2  1  0.74968726  0.00131598  0.75112748  1
  V  V3  1  -0.00000000  0.50329247  0.12141421  1
  V  V4  1  -0.00000000  0.50278199  0.62564079  1
  V  V5  1  0.50000000  0.74263817  0.00172057  1
  V  V6  1  0.50000000  0.75202458  0.50048101  1
  V  V7  1  0.24957143  0.99777251  0.24775708  1
  V  V8  1  0.25031274  0.00131598  0.75112748  1
  Ga  Ga9  1  0.50000000  0.49844853  0.24907267  1
  Ga  Ga10  1  0.50000000  0.49905235  0.75382881  1
  Ga  Ga11  1  -0.00000000  0.00468432  0.99884958  1
  Ga  Ga12  1  -0.00000000  0.00034810  0.49917205  1
  Fe  Fe13  1  -0.00000000  0.50073913  0.37339440  1
  Fe  Fe14  1  -0.00000000  0.49956367  0.87589168  1
  Fe  Fe15  1  0.50000000  0.24801758  0.00214243  1
