# generated using pymatgen
data_Ba2H14Cl4O15
_symmetry_space_group_name_H-M   'P 1'
_cell_length_a   6.80022517
_cell_length_b   11.66356485
_cell_length_c   11.66356485
_cell_angle_alpha   72.25395674
_cell_angle_beta   75.56646520
_cell_angle_gamma   75.56646520
_symmetry_Int_Tables_number   1
_chemical_formula_structural   Ba2H14Cl4O15
_chemical_formula_sum   'Ba4 H28 Cl8 O30'
_cell_volume   838.07276823
_cell_formula_units_Z   2
loop_
 _symmetry_equiv_pos_site_id
 _symmetry_equiv_pos_as_xyz
  1  'x, y, z'
loop_
 _atom_site_type_symbol
 _atom_site_label
 _atom_site_symmetry_multiplicity
 _atom_site_fract_x
 _atom_site_fract_y
 _atom_site_fract_z
 _atom_site_occupancy
  Ba  Ba0  1  0.25712525  0.61721568  0.86893806  1
  Ba  Ba1  1  0.24287475  0.13106194  0.38278432  1
  Ba  Ba2  1  0.74287475  0.38278432  0.13106194  1
  Ba  Ba3  1  0.75712525  0.86893806  0.61721568  1
  H  H4  1  0.55093750  0.32347571  0.90952880  1
  H  H5  1  0.94906250  0.09047120  0.67652429  1
  H  H6  1  0.44906250  0.67652429  0.09047120  1
  H  H7  1  0.05093750  0.90952880  0.32347571  1
  H  H8  1  0.37065462  0.32066254  0.02589605  1
  H  H9  1  0.12934538  0.97410395  0.67933746  1
  H  H10  1  0.62934538  0.67933746  0.97410395  1
  H  H11  1  0.87065462  0.02589605  0.32066254  1
  H  H12  1  0.34858764  0.38369876  0.72636539  1
  H  H13  1  0.15141236  0.27363461  0.61630124  1
  H  H14  1  0.65141236  0.61630124  0.27363461  1
  H  H15  1  0.84858764  0.72636539  0.38369876  1
  H  H16  1  0.31856407  0.50224940  0.62116169  1
  H  H17  1  0.18143593  0.37883831  0.49775060  1
  H  H18  1  0.68143593  0.49775060  0.37883831  1
  H  H19  1  0.81856407  0.62116169  0.50224940  1
  H  H20  1  0.35454433  0.17046829  0.76158018  1
  H  H21  1  0.14545567  0.23841982  0.82953171  1
  H  H22  1  0.64545567  0.82953171  0.23841982  1
  H  H23  1  0.85454433  0.76158018  0.17046829  1
  H  H24  1  0.63246788  0.45989644  0.59592161  1
  H  H25  1  0.86753212  0.40407839  0.54010356  1
  H  H26  1  0.36753212  0.54010356  0.40407839  1
  H  H27  1  0.13246788  0.59592161  0.45989644  1
  H  H28  1  0.83472474  0.17673273  0.86460357  1
  H  H29  1  0.66527526  0.13539643  0.82326727  1
  H  H30  1  0.16527526  0.82326727  0.13539643  1
  H  H31  1  0.33472474  0.86460357  0.17673273  1
  Cl  Cl32  1  0.83937665  0.51636938  0.77443439  1
  Cl  Cl33  1  0.66062335  0.22556561  0.48363062  1
  Cl  Cl34  1  0.16062335  0.48363062  0.22556561  1
  Cl  Cl35  1  0.33937665  0.77443439  0.51636938  1
  Cl  Cl36  1  0.85866709  0.86950551  0.94136155  1
  Cl  Cl37  1  0.64133291  0.05863845  0.13049449  1
  Cl  Cl38  1  0.14133291  0.13049449  0.05863845  1
  Cl  Cl39  1  0.35866709  0.94136155  0.86950551  1
  O  O40  1  0.92935943  0.49959505  0.89243235  1
  O  O41  1  0.57064057  0.10756765  0.50040495  1
  O  O42  1  0.07064057  0.50040495  0.10756765  1
  O  O43  1  0.42935943  0.89243235  0.49959505  1
  O  O44  1  0.66487856  0.63570526  0.75259517  1
  O  O45  1  0.83512144  0.24740483  0.36429474  1
  O  O46  1  0.33512144  0.36429474  0.24740483  1
  O  O47  1  0.16487856  0.75259517  0.63570526  1
  O  O48  1  0.82492314  0.77554580  0.87772660  1
  O  O49  1  0.67507686  0.12227340  0.22445420  1
  O  O50  1  0.17507686  0.22445420  0.12227340  1
  O  O51  1  0.32492314  0.87772660  0.77554580  1
  O  O52  1  0.01775769  0.79867259  0.03123122  1
  O  O53  1  0.48224231  0.96876878  0.20132741  1
  O  O54  1  0.98224231  0.20132741  0.96876878  1
  O  O55  1  0.51775769  0.03123122  0.79867259  1
  O  O56  1  0.47718515  0.36823698  0.97160452  1
  O  O57  1  0.02281485  0.02839548  0.63176302  1
  O  O58  1  0.52281485  0.63176302  0.02839548  1
  O  O59  1  0.97718515  0.97160452  0.36823698  1
  O  O60  1  0.38425252  0.46695644  0.69488599  1
  O  O61  1  0.11574748  0.30511401  0.53304356  1
  O  O62  1  0.61574748  0.53304356  0.30511401  1
  O  O63  1  0.88425252  0.69488599  0.46695644  1
  O  O64  1  0.25000000  0.24868538  0.75131462  1
  O  O65  1  0.75000000  0.75131462  0.24868538  1
  O  O66  1  0.75000000  0.47421395  0.52578605  1
  O  O67  1  0.25000000  0.52578605  0.47421395  1
  O  O68  1  0.75000000  0.19880854  0.80119146  1
  O  O69  1  0.25000000  0.80119146  0.19880854  1
