# generated using pymatgen
data_Zn6B3HO11
_symmetry_space_group_name_H-M   'P 1'
_cell_length_a   8.29683049
_cell_length_b   10.02175062
_cell_length_c   8.29683050
_cell_angle_alpha   65.54734493
_cell_angle_beta   119.99999946
_cell_angle_gamma   114.45265464
_symmetry_Int_Tables_number   1
_chemical_formula_structural   Zn6B3HO11
_chemical_formula_sum   'Zn12 B6 H2 O22'
_cell_volume   524.77969395
_cell_formula_units_Z   2
loop_
 _symmetry_equiv_pos_site_id
 _symmetry_equiv_pos_as_xyz
  1  'x, y, z'
loop_
 _atom_site_type_symbol
 _atom_site_label
 _atom_site_symmetry_multiplicity
 _atom_site_fract_x
 _atom_site_fract_y
 _atom_site_fract_z
 _atom_site_occupancy
  Zn  Zn0  1  0.13804334  0.91444645  0.80898539  1
  Zn  Zn1  1  0.58538850  0.91444645  0.86195666  1
  Zn  Zn2  1  0.19101461  0.91444645  0.41461150  1
  Zn  Zn3  1  0.85612445  0.08743803  0.19496953  1
  Zn  Zn4  1  0.42628311  0.08743803  0.14387555  1
  Zn  Zn5  1  0.80503047  0.08743803  0.57371689  1
  Zn  Zn6  1  0.08538850  0.41444645  0.30898539  1
  Zn  Zn7  1  0.69101461  0.41444645  0.36195666  1
  Zn  Zn8  1  0.63804334  0.41444645  0.91461150  1
  Zn  Zn9  1  0.92628311  0.58743803  0.69496953  1
  Zn  Zn10  1  0.30503047  0.58743803  0.64387555  1
  Zn  Zn11  1  0.35612445  0.58743803  0.07371689  1
  B  B12  1  0.22827357  0.25038571  0.72857251  1
  B  B13  1  0.75068465  0.25038571  0.77172643  1
  B  B14  1  0.27142749  0.25038571  0.24931535  1
  B  B15  1  0.77142749  0.75038571  0.27172643  1
  B  B16  1  0.25068465  0.75038571  0.22857251  1
  B  B17  1  0.72827357  0.75038571  0.74931535  1
  H  H18  1  0.25866191  0.77598574  0.74133809  1
  H  H19  1  0.75866191  0.27598574  0.24133809  1
  O  O20  1  0.29934493  0.89803479  0.70065507  1
  O  O21  1  0.70494893  0.11484678  0.29505107  1
  O  O22  1  0.79934493  0.39803479  0.20065507  1
  O  O23  1  0.20494893  0.61484678  0.79505107  1
  O  O24  1  0.89540271  0.75002788  0.75016595  1
  O  O25  1  0.60479111  0.75002788  0.10459729  1
  O  O26  1  0.24983405  0.75002788  0.39520889  1
  O  O27  1  0.10479111  0.25002788  0.25016595  1
  O  O28  1  0.39540271  0.25002788  0.89520889  1
  O  O29  1  0.74983405  0.25002788  0.60459729  1
  O  O30  1  0.08946416  0.11537690  0.69870933  1
  O  O31  1  0.72462207  0.11537690  0.91053584  1
  O  O32  1  0.30129067  0.11537690  0.27537793  1
  O  O33  1  0.90933244  0.88636927  0.30010858  1
  O  O34  1  0.27714540  0.88636927  0.09066756  1
  O  O35  1  0.69989142  0.88636927  0.72285460  1
  O  O36  1  0.22462207  0.61537690  0.19870933  1
  O  O37  1  0.80129067  0.61537690  0.41053584  1
  O  O38  1  0.58946416  0.61537690  0.77537793  1
  O  O39  1  0.77714540  0.38636927  0.80010858  1
  O  O40  1  0.19989142  0.38636927  0.59066756  1
  O  O41  1  0.40933244  0.38636927  0.22285460  1
