# generated using pymatgen
data_VFeSbO6
_symmetry_space_group_name_H-M   'P 1'
_cell_length_a   4.64219535
_cell_length_b   4.64219535
_cell_length_c   9.26120059
_cell_angle_alpha   90.00000000
_cell_angle_beta   90.00000000
_cell_angle_gamma   90.00000000
_symmetry_Int_Tables_number   1
_chemical_formula_structural   VFeSbO6
_chemical_formula_sum   'V2 Fe2 Sb2 O12'
_cell_volume   199.57866589
_cell_formula_units_Z   2
loop_
 _symmetry_equiv_pos_site_id
 _symmetry_equiv_pos_as_xyz
  1  'x, y, z'
loop_
 _atom_site_type_symbol
 _atom_site_label
 _atom_site_symmetry_multiplicity
 _atom_site_fract_x
 _atom_site_fract_y
 _atom_site_fract_z
 _atom_site_occupancy
  V  V0  1  0.50000000  0.50000000  0.50057418  1
  V  V1  1  0.00000000  0.00000000  0.00057418  1
  Fe  Fe2  1  0.50000000  0.50000000  0.16912778  1
  Fe  Fe3  1  0.00000000  -0.00000000  0.66912778  1
  Sb  Sb4  1  0.50000000  0.50000000  0.83376804  1
  Sb  Sb5  1  0.00000000  0.00000000  0.33376804  1
  O  O6  1  0.19151727  0.80848273  0.16366243  1
  O  O7  1  0.20229679  0.79770321  0.49777888  1
  O  O8  1  0.19407483  0.80592517  0.83682369  1
  O  O9  1  0.80848273  0.19151727  0.16366243  1
  O  O10  1  0.79770321  0.20229679  0.49777888  1
  O  O11  1  0.80592517  0.19407483  0.83682369  1
  O  O12  1  0.29770321  0.29770321  0.99777888  1
  O  O13  1  0.30592517  0.30592517  0.33682369  1
  O  O14  1  0.30848273  0.30848273  0.66366243  1
  O  O15  1  0.70229679  0.70229679  0.99777888  1
  O  O16  1  0.69407483  0.69407483  0.33682369  1
  O  O17  1  0.69151727  0.69151727  0.66366243  1
