# generated using pymatgen
data_Tl(V3S4)4
_symmetry_space_group_name_H-M   'P 1'
_cell_length_a   6.50792348
_cell_length_b   9.70498511
_cell_length_c   9.15697356
_cell_angle_alpha   118.05224375
_cell_angle_beta   89.99320175
_cell_angle_gamma   70.43249034
_symmetry_Int_Tables_number   1
_chemical_formula_structural   Tl(V3S4)4
_chemical_formula_sum   'Tl1 V12 S16'
_cell_volume   472.20729684
_cell_formula_units_Z   1
loop_
 _symmetry_equiv_pos_site_id
 _symmetry_equiv_pos_as_xyz
  1  'x, y, z'
loop_
 _atom_site_type_symbol
 _atom_site_label
 _atom_site_symmetry_multiplicity
 _atom_site_fract_x
 _atom_site_fract_y
 _atom_site_fract_z
 _atom_site_occupancy
  Tl  Tl0  1  0.80250261  0.99993961  0.99999117  1
  V  V1  1  0.81647730  0.11942996  0.62950003  1
  V  V2  1  0.31565219  0.11903961  0.62893461  1
  V  V3  1  0.61944253  0.51142698  0.88078796  1
  V  V4  1  0.12131250  0.50897726  0.88179449  1
  V  V5  1  0.68972106  0.37275193  0.49106121  1
  V  V6  1  0.19007877  0.36980275  0.48854543  1
  V  V7  1  0.18581381  0.88084318  0.37146583  1
  V  V8  1  0.68386527  0.88085549  0.37138911  1
  V  V9  1  0.37879896  0.49092061  0.11829392  1
  V  V10  1  0.88160345  0.48998345  0.11880648  1
  V  V11  1  0.31226150  0.62854652  0.51010412  1
  V  V12  1  0.81051985  0.62741269  0.50918835  1
  S  S13  1  0.04207037  0.66694241  0.33365251  1
  S  S14  1  0.54244848  0.66620074  0.33296585  1
  S  S15  1  0.95831105  0.33362332  0.66688137  1
  S  S16  1  0.45810109  0.33328308  0.66656424  1
  S  S17  1  0.22808482  0.29520827  0.94927587  1
  S  S18  1  0.72748077  0.29805281  0.94824855  1
  S  S19  1  0.05109126  0.65053732  0.70235868  1
  S  S20  1  0.54884389  0.65382435  0.70498880  1
  S  S21  1  0.34970802  0.05149028  0.34713880  1
  S  S22  1  0.85085974  0.05168335  0.34942541  1
  S  S23  1  0.77243892  0.70403007  0.05123561  1
  S  S24  1  0.27272225  0.70496495  0.05074954  1
  S  S25  1  0.95224255  0.34596200  0.29480185  1
  S  S26  1  0.45107993  0.34693552  0.29575054  1
  S  S27  1  0.64966130  0.94874551  0.65273849  1
  S  S28  1  0.15145576  0.94858597  0.65336118  1
