# generated using pymatgen
data_Y2(AlNi)5
_symmetry_space_group_name_H-M   'P 1'
_cell_length_a   4.06081116
_cell_length_b   8.89455760
_cell_length_c   15.47018817
_cell_angle_alpha   90.04925382
_cell_angle_beta   90.00000000
_cell_angle_gamma   90.00000000
_symmetry_Int_Tables_number   1
_chemical_formula_structural   Y2(AlNi)5
_chemical_formula_sum   'Y6 Al15 Ni15'
_cell_volume   558.76935757
_cell_formula_units_Z   3
loop_
 _symmetry_equiv_pos_site_id
 _symmetry_equiv_pos_as_xyz
  1  'x, y, z'
loop_
 _atom_site_type_symbol
 _atom_site_label
 _atom_site_symmetry_multiplicity
 _atom_site_fract_x
 _atom_site_fract_y
 _atom_site_fract_z
 _atom_site_occupancy
  Y  Y0  1  0.00000000  0.00068385  0.33664403  1
  Y  Y1  1  0.00000000  0.49618660  0.83570077  1
  Y  Y2  1  0.00000000  0.49408659  0.16886650  1
  Y  Y3  1  0.00000000  0.99749605  0.66392605  1
  Y  Y4  1  0.50000000  0.00730795  0.00058465  1
  Y  Y5  1  0.50000000  0.50300841  0.49648686  1
  Al  Al6  1  0.50000000  0.99095374  0.50150397  1
  Al  Al7  1  0.50000000  0.49175529  0.00043541  1
  Al  Al8  1  0.50000000  0.25181346  0.25564716  1
  Al  Al9  1  0.50000000  0.74721560  0.75133561  1
  Al  Al10  1  0.50000000  0.75037487  0.24894765  1
  Al  Al11  1  0.50000000  0.24734701  0.74834108  1
  Al  Al12  1  0.00000000  0.85347244  0.85237477  1
  Al  Al13  1  0.00000000  0.85302336  0.14817744  1
  Al  Al14  1  0.00000000  0.35186167  0.64781913  1
  Al  Al15  1  0.00000000  0.70305405  0.00092829  1
  Al  Al16  1  0.00000000  0.21654159  0.49420828  1
  Al  Al17  1  0.00000000  0.15108787  0.14136754  1
  Al  Al18  1  0.00000000  0.65020422  0.63995173  1
  Al  Al19  1  0.00000000  0.63998050  0.36021622  1
  Al  Al20  1  0.00000000  0.15038873  0.85942745  1
  Ni  Ni21  1  0.50000000  0.00400099  0.18337478  1
  Ni  Ni22  1  0.50000000  0.50010121  0.68092365  1
  Ni  Ni23  1  0.50000000  0.77349933  0.40567292  1
  Ni  Ni24  1  0.50000000  0.27191515  0.90702157  1
  Ni  Ni25  1  0.50000000  0.22161531  0.41089323  1
  Ni  Ni26  1  0.50000000  0.72539634  0.91048519  1
  Ni  Ni27  1  0.50000000  0.50398180  0.31661480  1
  Ni  Ni28  1  0.50000000  0.00008470  0.81764517  1
  Ni  Ni29  1  0.50000000  0.27346572  0.09479119  1
  Ni  Ni30  1  0.50000000  0.77044063  0.59303903  1
  Ni  Ni31  1  0.50000000  0.72527163  0.09043339  1
  Ni  Ni32  1  0.50000000  0.22555902  0.58892519  1
  Ni  Ni33  1  0.00000000  0.30390637  0.00023685  1
  Ni  Ni34  1  0.00000000  0.80395232  0.49925243  1
  Ni  Ni35  1  0.00000000  0.34876562  0.34780001  1
