# generated using pymatgen
data_TlGaF6
_symmetry_space_group_name_H-M   'P 1'
_cell_length_a   5.45451776
_cell_length_b   5.45451777
_cell_length_c   5.70032038
_cell_angle_alpha   90.00000006
_cell_angle_beta   61.41646200
_cell_angle_gamma   120.00000008
_symmetry_Int_Tables_number   1
_chemical_formula_structural   TlGaF6
_chemical_formula_sum   'Tl1 Ga1 F6'
_cell_volume   122.42515884
_cell_formula_units_Z   1
loop_
 _symmetry_equiv_pos_site_id
 _symmetry_equiv_pos_as_xyz
  1  'x, y, z'
loop_
 _atom_site_type_symbol
 _atom_site_label
 _atom_site_symmetry_multiplicity
 _atom_site_fract_x
 _atom_site_fract_y
 _atom_site_fract_z
 _atom_site_occupancy
  Tl  Tl0  1  0.00000000  0.00000000  -0.00000000  1
  Ga  Ga1  1  0.00000000  0.50000000  0.50000000  1
  F  F2  1  0.53636550  0.37599478  0.73148244  1
  F  F3  1  0.10814684  0.73215207  0.73148244  1
  F  F4  1  0.89252279  0.16037072  0.73148244  1
  F  F5  1  0.89185316  0.26784793  0.26851756  1
  F  F6  1  0.10747721  0.83962928  0.26851756  1
  F  F7  1  0.46363450  0.62400522  0.26851756  1
