# generated using pymatgen
data_Y2As7Rh12
_symmetry_space_group_name_H-M   'P 1'
_cell_length_a   3.94096788
_cell_length_b   9.98672440
_cell_length_c   9.98380597
_cell_angle_alpha   120.03701488
_cell_angle_beta   89.97931394
_cell_angle_gamma   90.01607595
_symmetry_Int_Tables_number   1
_chemical_formula_structural   Y2As7Rh12
_chemical_formula_sum   'Y2 As7 Rh12'
_cell_volume   340.16575159
_cell_formula_units_Z   1
loop_
 _symmetry_equiv_pos_site_id
 _symmetry_equiv_pos_as_xyz
  1  'x, y, z'
loop_
 _atom_site_type_symbol
 _atom_site_label
 _atom_site_symmetry_multiplicity
 _atom_site_fract_x
 _atom_site_fract_y
 _atom_site_fract_z
 _atom_site_occupancy
  Y  Y0  1  0.74879601  0.33329218  0.66660500  1
  Y  Y1  1  0.25093949  0.66662805  0.33331068  1
  As  As2  1  0.58459086  0.99990641  -0.00000753  1
  As  As3  1  0.75183667  0.88072295  0.59355504  1
  As  As4  1  0.75190565  0.40669309  0.28699843  1
  As  As5  1  0.75204685  0.71277980  0.11952115  1
  As  As6  1  0.25076258  0.11631001  0.40477295  1
  As  As7  1  0.25069896  0.59510799  0.71162762  1
  As  As8  1  0.25053430  0.28849553  0.88362845  1
  Rh  Rh9  1  0.75075799  0.61861306  0.55172156  1
  Rh  Rh10  1  0.75091790  0.44821541  0.06676495  1
  Rh  Rh11  1  0.75080704  0.93294258  0.38153455  1
  Rh  Rh12  1  0.25105810  0.38154504  0.44893598  1
  Rh  Rh13  1  0.25091860  0.55124200  0.93267329  1
  Rh  Rh14  1  0.25093124  0.06757389  0.61861678  1
  Rh  Rh15  1  0.75047575  0.11591059  0.84790550  1
  Rh  Rh16  1  0.75060982  0.15214916  0.26812378  1
  Rh  Rh17  1  0.75040681  0.73188979  0.88392281  1
  Rh  Rh18  1  0.25172703  0.88596345  0.14458157  1
  Rh  Rh19  1  0.25164125  0.85524262  0.74116052  1
  Rh  Rh20  1  0.25163709  0.25877639  0.11404693  1
