# generated using pymatgen
data_Ba2B5O11
_symmetry_space_group_name_H-M   'P 1'
_cell_length_a   6.79983879
_cell_length_b   8.40067684
_cell_length_c   16.60913273
_cell_angle_alpha   90.00000000
_cell_angle_beta   90.00000000
_cell_angle_gamma   106.27980351
_symmetry_Int_Tables_number   1
_chemical_formula_structural   Ba2B5O11
_chemical_formula_sum   'Ba8 B20 O44'
_cell_volume   910.72598347
_cell_formula_units_Z   4
loop_
 _symmetry_equiv_pos_site_id
 _symmetry_equiv_pos_as_xyz
  1  'x, y, z'
loop_
 _atom_site_type_symbol
 _atom_site_label
 _atom_site_symmetry_multiplicity
 _atom_site_fract_x
 _atom_site_fract_y
 _atom_site_fract_z
 _atom_site_occupancy
  Ba  Ba0  1  0.53172529  0.60004807  0.78399841  1
  Ba  Ba1  1  0.46827471  0.89995193  0.28399841  1
  Ba  Ba2  1  0.46827471  0.39995193  0.21600159  1
  Ba  Ba3  1  0.53172529  0.10004807  0.71600159  1
  Ba  Ba4  1  0.09811533  0.80905592  0.93233886  1
  Ba  Ba5  1  0.90188467  0.69094408  0.43233886  1
  Ba  Ba6  1  0.90188467  0.19094408  0.06766114  1
  Ba  Ba7  1  0.09811533  0.30905592  0.56766114  1
  B  B8  1  0.02379028  0.63465576  0.74207473  1
  B  B9  1  0.97620972  0.86534424  0.24207473  1
  B  B10  1  0.97620972  0.36534424  0.25792527  1
  B  B11  1  0.02379028  0.13465576  0.75792527  1
  B  B12  1  0.36042795  0.70860621  0.08240834  1
  B  B13  1  0.63957205  0.79139379  0.58240834  1
  B  B14  1  0.63957205  0.29139379  0.91759166  1
  B  B15  1  0.36042795  0.20860621  0.41759166  1
  B  B16  1  0.01354415  0.62276476  0.16214384  1
  B  B17  1  0.98645585  0.87723524  0.66214384  1
  B  B18  1  0.98645585  0.37723524  0.83785616  1
  B  B19  1  0.01354415  0.12276476  0.33785616  1
  B  B20  1  0.26784165  0.24371734  0.87135369  1
  B  B21  1  0.73215835  0.25628266  0.37135369  1
  B  B22  1  0.73215835  0.75628266  0.12864631  1
  B  B23  1  0.26784165  0.74371734  0.62864631  1
  B  B24  1  0.64046952  0.78649503  0.98109532  1
  B  B25  1  0.35953048  0.71350497  0.48109532  1
  B  B26  1  0.35953048  0.21350497  0.01890468  1
  B  B27  1  0.64046952  0.28649503  0.51890468  1
  O  O28  1  0.15316587  0.67512176  0.09234714  1
  O  O29  1  0.84683413  0.82487824  0.59234714  1
  O  O30  1  0.84683413  0.32487824  0.90765286  1
  O  O31  1  0.15316587  0.17512176  0.40765286  1
  O  O32  1  0.78073562  0.84064846  0.05016671  1
  O  O33  1  0.21926438  0.65935154  0.55016671  1
  O  O34  1  0.21926438  0.15935154  0.94983329  1
  O  O35  1  0.78073562  0.34064846  0.44983329  1
  O  O36  1  0.19709272  0.39075487  0.86164520  1
  O  O37  1  0.80290728  0.10924513  0.36164520  1
  O  O38  1  0.80290728  0.60924513  0.13835480  1
  O  O39  1  0.19709272  0.89075487  0.63835480  1
  O  O40  1  0.96256758  0.54023583  0.81026916  1
  O  O41  1  0.03743242  0.95976417  0.31026916  1
  O  O42  1  0.03743242  0.45976417  0.18973084  1
  O  O43  1  0.96256758  0.04023583  0.68973084  1
  O  O44  1  0.49921421  0.29402390  0.85719830  1
  O  O45  1  0.50078579  0.20597610  0.35719830  1
  O  O46  1  0.50078579  0.70597610  0.14280170  1
  O  O47  1  0.49921421  0.79402390  0.64280170  1
  O  O48  1  0.17908111  0.61674805  0.69252474  1
  O  O49  1  0.82091889  0.88325195  0.19252474  1
  O  O50  1  0.82091889  0.38325195  0.30747526  1
  O  O51  1  0.17908111  0.11674805  0.80747526  1
  O  O52  1  0.92434736  0.75476887  0.72943973  1
  O  O53  1  0.07565264  0.74523113  0.22943973  1
  O  O54  1  0.07565264  0.24523113  0.27056027  1
  O  O55  1  0.92434736  0.25476887  0.77056027  1
  O  O56  1  0.42702674  0.75460733  0.00489479  1
  O  O57  1  0.57297326  0.74539267  0.50489479  1
  O  O58  1  0.57297326  0.24539267  0.99510521  1
  O  O59  1  0.42702674  0.25460733  0.49510521  1
  O  O60  1  0.70556894  0.90607959  0.91474232  1
  O  O61  1  0.29443106  0.59392041  0.41474232  1
  O  O62  1  0.29443106  0.09392041  0.08525768  1
  O  O63  1  0.70556894  0.40607959  0.58525768  1
  O  O64  1  0.68864043  0.65237771  0.93774509  1
  O  O65  1  0.31135957  0.84762229  0.43774509  1
  O  O66  1  0.31135957  0.34762229  0.06225491  1
  O  O67  1  0.68864043  0.15237771  0.56225491  1
  O  O68  1  0.43423297  0.86627829  0.83408355  1
  O  O69  1  0.56576703  0.63372171  0.33408355  1
  O  O70  1  0.56576703  0.13372171  0.16591645  1
  O  O71  1  0.43423297  0.36627829  0.66591645  1
