# generated using pymatgen
data_Th2Si3Pt
_symmetry_space_group_name_H-M   'P 1'
_cell_length_a   4.24071149
_cell_length_b   4.20514786
_cell_length_c   7.67528296
_cell_angle_alpha   74.10109127
_cell_angle_beta   73.96302326
_cell_angle_gamma   90.00000000
_symmetry_Int_Tables_number   1
_chemical_formula_structural   Th2Si3Pt
_chemical_formula_sum   'Th2 Si3 Pt1'
_cell_volume   126.08855061
_cell_formula_units_Z   1
loop_
 _symmetry_equiv_pos_site_id
 _symmetry_equiv_pos_as_xyz
  1  'x, y, z'
loop_
 _atom_site_type_symbol
 _atom_site_label
 _atom_site_symmetry_multiplicity
 _atom_site_fract_x
 _atom_site_fract_y
 _atom_site_fract_z
 _atom_site_occupancy
  Th  Th0  1  0.74602490  0.24602490  0.50795019  1
  Th  Th1  1  0.00092611  0.00092611  0.99814778  1
  Si  Si2  1  0.41746353  0.41746353  0.16507294  1
  Si  Si3  1  0.16559732  0.66559732  0.66880535  1
  Si  Si4  1  0.58571405  0.58571405  0.82857191  1
  Pt  Pt5  1  0.33427409  0.83427409  0.33145183  1
