# generated using pymatgen
data_Th2AsNO
_symmetry_space_group_name_H-M   'P 1'
_cell_length_a   4.05905802
_cell_length_b   4.05905762
_cell_length_c   7.00858905
_cell_angle_alpha   90.00017301
_cell_angle_beta   90.00017302
_cell_angle_gamma   59.99951124
_symmetry_Int_Tables_number   1
_chemical_formula_structural   Th2AsNO
_chemical_formula_sum   'Th2 As1 N1 O1'
_cell_volume   100.00220214
_cell_formula_units_Z   1
loop_
 _symmetry_equiv_pos_site_id
 _symmetry_equiv_pos_as_xyz
  1  'x, y, z'
loop_
 _atom_site_type_symbol
 _atom_site_label
 _atom_site_symmetry_multiplicity
 _atom_site_fract_x
 _atom_site_fract_y
 _atom_site_fract_z
 _atom_site_occupancy
  Th  Th0  1  0.66666941  0.66666941  0.28350389  1
  Th  Th1  1  0.33333214  0.33333214  0.71839049  1
  As  As2  1  -0.00000035  -0.00000035  0.00770638  1
  N  N3  1  0.66667052  0.66667052  0.61858383  1
  O  O4  1  0.33332827  0.33332827  0.37181541  1
