# generated using pymatgen
data_Ti10FeSb5
_symmetry_space_group_name_H-M   'P 1'
_cell_length_a   5.22171131
_cell_length_b   7.87177474
_cell_length_c   7.87177474
_cell_angle_alpha   96.31571825
_cell_angle_beta   109.37035187
_cell_angle_gamma   70.62964813
_symmetry_Int_Tables_number   1
_chemical_formula_structural   Ti10FeSb5
_chemical_formula_sum   'Ti10 Fe1 Sb5'
_cell_volume   287.96835853
_cell_formula_units_Z   1
loop_
 _symmetry_equiv_pos_site_id
 _symmetry_equiv_pos_as_xyz
  1  'x, y, z'
loop_
 _atom_site_type_symbol
 _atom_site_label
 _atom_site_symmetry_multiplicity
 _atom_site_fract_x
 _atom_site_fract_y
 _atom_site_fract_z
 _atom_site_occupancy
  Ti  Ti0  1  0.43610393  0.85826253  0.70870265  1
  Ti  Ti1  1  0.58566382  0.14173747  0.29129735  1
  Ti  Ti2  1  0.91433618  0.29129735  0.14173747  1
  Ti  Ti3  1  0.06389607  0.70870265  0.85826253  1
  Ti  Ti4  1  0.72740128  0.70870265  0.14173747  1
  Ti  Ti5  1  0.29436646  0.29129735  0.85826253  1
  Ti  Ti6  1  0.77259872  0.14173747  0.70870265  1
  Ti  Ti7  1  0.20563354  0.85826253  0.29129735  1
  Ti  Ti8  1  0.25000000  0.50000000  0.50000000  1
  Ti  Ti9  1  0.75000000  0.50000000  0.50000000  1
  Fe  Fe10  1  0.75000000  -0.00000000  -0.00000000  1
  Sb  Sb11  1  0.33612951  0.50000000  0.17225901  1
  Sb  Sb12  1  0.66387049  0.50000000  0.82774099  1
  Sb  Sb13  1  0.83612951  0.82774099  0.50000000  1
  Sb  Sb14  1  0.16387049  0.17225901  0.50000000  1
  Sb  Sb15  1  0.25000000  -0.00000000  -0.00000000  1
