# generated using pymatgen
data_Th2Si3Ir
_symmetry_space_group_name_H-M   'P 1'
_cell_length_a   4.10165216
_cell_length_b   4.23761069
_cell_length_c   7.72166196
_cell_angle_alpha   74.07388304
_cell_angle_beta   74.59775640
_cell_angle_gamma   90.00000000
_symmetry_Int_Tables_number   1
_chemical_formula_structural   Th2Si3Ir
_chemical_formula_sum   'Th2 Si3 Ir1'
_cell_volume   124.04000476
_cell_formula_units_Z   1
loop_
 _symmetry_equiv_pos_site_id
 _symmetry_equiv_pos_as_xyz
  1  'x, y, z'
loop_
 _atom_site_type_symbol
 _atom_site_label
 _atom_site_symmetry_multiplicity
 _atom_site_fract_x
 _atom_site_fract_y
 _atom_site_fract_z
 _atom_site_occupancy
  Th  Th0  1  0.74804421  0.24804421  0.50391157  1
  Th  Th1  1  0.99970856  0.99970856  0.00058287  1
  Si  Si2  1  0.41603218  0.41603218  0.16793563  1
  Si  Si3  1  0.16848543  0.66848543  0.66302914  1
  Si  Si4  1  0.58280550  0.58280550  0.83438900  1
  Ir  Ir5  1  0.33492411  0.83492411  0.33015177  1
