# generated using pymatgen
data_Ti3V3Ge5
_symmetry_space_group_name_H-M   'P 1'
_cell_length_a   5.08737723
_cell_length_b   7.81825184
_cell_length_c   9.52437396
_cell_angle_alpha   65.68472999
_cell_angle_beta   74.50992578
_cell_angle_gamma   90.00000000
_symmetry_Int_Tables_number   1
_chemical_formula_structural   Ti3V3Ge5
_chemical_formula_sum   'Ti6 V6 Ge10'
_cell_volume   330.06370983
_cell_formula_units_Z   2
loop_
 _symmetry_equiv_pos_site_id
 _symmetry_equiv_pos_as_xyz
  1  'x, y, z'
loop_
 _atom_site_type_symbol
 _atom_site_label
 _atom_site_symmetry_multiplicity
 _atom_site_fract_x
 _atom_site_fract_y
 _atom_site_fract_z
 _atom_site_occupancy
  Ti  Ti0  1  0.35765552  0.74640704  0.28468896  1
  Ti  Ti1  1  0.64234448  0.25359296  0.71531104  1
  Ti  Ti2  1  0.14221581  0.03096992  0.71556837  1
  Ti  Ti3  1  0.85778419  0.96903008  0.28443163  1
  Ti  Ti4  1  0.06416999  0.32150317  0.87166002  1
  Ti  Ti5  1  0.93583001  0.67849683  0.12833998  1
  V  V6  1  0.94230563  0.69087439  0.61672712  1
  V  V7  1  0.55903275  0.30912561  0.38327288  1
  V  V8  1  0.05769437  0.30912561  0.38327288  1
  V  V9  1  0.44096725  0.69087439  0.61672712  1
  V  V10  1  0.43611654  0.19305981  0.12776692  1
  V  V11  1  0.56388346  0.80694019  0.87223308  1
  Ge  Ge12  1  0.43243412  0.52343295  0.13513175  1
  Ge  Ge13  1  0.56756588  0.47656705  0.86486825  1
  Ge  Ge14  1  0.06923873  0.66398540  0.86152255  1
  Ge  Ge15  1  0.93076127  0.33601460  0.13847745  1
  Ge  Ge16  1  0.25394097  1.00000000  0.00000000  1
  Ge  Ge17  1  0.74605903  0.00000000  1.00000000  1
  Ge  Ge18  1  0.21318565  0.41420196  0.57362869  1
  Ge  Ge19  1  0.78681435  0.58579804  0.42637131  1
  Ge  Ge20  1  0.28855096  0.99041963  0.42289808  1
  Ge  Ge21  1  0.71144904  0.00958037  0.57710192  1
