# generated using pymatgen
data_TeAsRh
_symmetry_space_group_name_H-M   'P 1'
_cell_length_a   6.23680318
_cell_length_b   6.23680318
_cell_length_c   6.23680318
_cell_angle_alpha   90.00000000
_cell_angle_beta   90.00000000
_cell_angle_gamma   90.00000000
_symmetry_Int_Tables_number   1
_chemical_formula_structural   TeAsRh
_chemical_formula_sum   'Te4 As4 Rh4'
_cell_volume   242.59738578
_cell_formula_units_Z   4
loop_
 _symmetry_equiv_pos_site_id
 _symmetry_equiv_pos_as_xyz
  1  'x, y, z'
loop_
 _atom_site_type_symbol
 _atom_site_label
 _atom_site_symmetry_multiplicity
 _atom_site_fract_x
 _atom_site_fract_y
 _atom_site_fract_z
 _atom_site_occupancy
  Te  Te0  1  0.12187469  0.62187469  0.87812531  1
  Te  Te1  1  0.62187469  0.87812531  0.12187469  1
  Te  Te2  1  0.87812531  0.12187469  0.62187469  1
  Te  Te3  1  0.37812531  0.37812531  0.37812531  1
  As  As4  1  0.87684165  0.37684165  0.12315835  1
  As  As5  1  0.37684165  0.12315835  0.87684165  1
  As  As6  1  0.12315835  0.87684165  0.37684165  1
  As  As7  1  0.62315835  0.62315835  0.62315835  1
  Rh  Rh8  1  0.48963736  0.98963736  0.51036264  1
  Rh  Rh9  1  0.98963736  0.51036264  0.48963736  1
  Rh  Rh10  1  0.51036264  0.48963736  0.98963736  1
  Rh  Rh11  1  0.01036264  0.01036264  0.01036264  1
