# generated using pymatgen
data_Tb2CrSbO7
_symmetry_space_group_name_H-M   'P 1'
_cell_length_a   7.29295611
_cell_length_b   7.26835246
_cell_length_c   7.36129713
_cell_angle_alpha   90.00000000
_cell_angle_beta   59.68952838
_cell_angle_gamma   119.88846415
_symmetry_Int_Tables_number   1
_chemical_formula_structural   Tb2CrSbO7
_chemical_formula_sum   'Tb4 Cr2 Sb2 O14'
_cell_volume   275.08182446
_cell_formula_units_Z   2
loop_
 _symmetry_equiv_pos_site_id
 _symmetry_equiv_pos_as_xyz
  1  'x, y, z'
loop_
 _atom_site_type_symbol
 _atom_site_label
 _atom_site_symmetry_multiplicity
 _atom_site_fract_x
 _atom_site_fract_y
 _atom_site_fract_z
 _atom_site_occupancy
  Tb  Tb0  1  0.50000000  0.50000000  -0.00000000  1
  Tb  Tb1  1  0.50000000  0.00000000  -0.00000000  1
  Tb  Tb2  1  -0.00000000  0.00000000  0.50000000  1
  Tb  Tb3  1  -0.00000000  0.00000000  -0.00000000  1
  Cr  Cr4  1  0.50000000  0.00000000  0.50000000  1
  Cr  Cr5  1  0.50000000  0.50000000  0.50000000  1
  Sb  Sb6  1  -0.00000000  0.50000000  -0.00000000  1
  Sb  Sb7  1  -0.00000000  0.50000000  0.50000000  1
  O  O8  1  0.25533807  0.12766904  0.12233096  1
  O  O9  1  0.74466193  0.87233096  0.87766904  1
  O  O10  1  0.68020085  0.84010042  0.40989958  1
  O  O11  1  0.83638946  0.41819473  0.83180527  1
  O  O12  1  0.25195659  0.83060796  0.83614478  1
  O  O13  1  0.25195659  0.42134863  0.41189863  1
  O  O14  1  0.25195659  0.42134863  0.83614478  1
  O  O15  1  0.25195659  0.83060796  0.41189863  1
  O  O16  1  0.31979915  0.15989958  0.59010042  1
  O  O17  1  0.16361054  0.58180527  0.16819473  1
  O  O18  1  0.74804341  0.16939204  0.16385522  1
  O  O19  1  0.74804341  0.57865137  0.58810137  1
  O  O20  1  0.74804341  0.57865137  0.16385522  1
  O  O21  1  0.74804341  0.16939204  0.58810137  1
