# generated using pymatgen
data_In2H6C5O11
_symmetry_space_group_name_H-M   'P 1'
_cell_length_a   8.74665060
_cell_length_b   11.13789351
_cell_length_c   12.90343721
_cell_angle_alpha   90.00000000
_cell_angle_beta   104.91150915
_cell_angle_gamma   90.00000000
_symmetry_Int_Tables_number   1
_chemical_formula_structural   In2H6C5O11
_chemical_formula_sum   'In8 H24 C20 O44'
_cell_volume   1214.71166488
_cell_formula_units_Z   4
loop_
 _symmetry_equiv_pos_site_id
 _symmetry_equiv_pos_as_xyz
  1  'x, y, z'
loop_
 _atom_site_type_symbol
 _atom_site_label
 _atom_site_symmetry_multiplicity
 _atom_site_fract_x
 _atom_site_fract_y
 _atom_site_fract_z
 _atom_site_occupancy
  In  In0  1  0.37242935  0.38735515  0.71312900  1
  In  In1  1  0.87242935  0.11264485  0.21312900  1
  In  In2  1  0.62757065  0.61264485  0.28687100  1
  In  In3  1  0.12757065  0.88735515  0.78687100  1
  In  In4  1  0.73997869  0.26638610  0.66817787  1
  In  In5  1  0.23997869  0.23361390  0.16817787  1
  In  In6  1  0.26002131  0.73361390  0.33182213  1
  In  In7  1  0.76002131  0.76638610  0.83182213  1
  H  H8  1  0.64131994  0.49197567  0.69274570  1
  H  H9  1  0.14131994  0.00802433  0.19274570  1
  H  H10  1  0.35868006  0.50802433  0.30725430  1
  H  H11  1  0.85868006  0.99197567  0.80725430  1
  H  H12  1  0.49114120  0.65334119  0.94114155  1
  H  H13  1  0.99114120  0.84665881  0.44114155  1
  H  H14  1  0.50885880  0.34665881  0.05885845  1
  H  H15  1  0.00885880  0.15334119  0.55885845  1
  H  H16  1  0.32646648  0.11615554  0.48191755  1
  H  H17  1  0.82646648  0.38384446  0.98191755  1
  H  H18  1  0.67353352  0.88384446  0.51808245  1
  H  H19  1  0.17353352  0.61615554  0.01808245  1
  H  H20  1  0.57812367  0.10719634  0.91322420  1
  H  H21  1  0.07812367  0.39280366  0.41322420  1
  H  H22  1  0.42187633  0.89280366  0.08677580  1
  H  H23  1  0.92187633  0.60719634  0.58677580  1
  H  H24  1  0.58463564  0.40601318  0.45547265  1
  H  H25  1  0.08463564  0.09398682  0.95547265  1
  H  H26  1  0.41536436  0.59398682  0.54452735  1
  H  H27  1  0.91536436  0.90601318  0.04452735  1
  H  H28  1  0.13422955  0.42271402  0.86800167  1
  H  H29  1  0.63422955  0.07728598  0.36800167  1
  H  H30  1  0.86577045  0.57728598  0.13199833  1
  H  H31  1  0.36577045  0.92271402  0.63199833  1
  C  C32  1  0.49654078  0.59336382  0.87397185  1
  C  C33  1  0.99654078  0.90663618  0.37397185  1
  C  C34  1  0.50345922  0.40663618  0.12602815  1
  C  C35  1  0.00345922  0.09336382  0.62602815  1
  C  C36  1  0.39587373  0.17796653  0.54358941  1
  C  C37  1  0.89587373  0.32203347  0.04358941  1
  C  C38  1  0.60412627  0.82203347  0.45641059  1
  C  C39  1  0.10412627  0.67796653  0.95641059  1
  C  C40  1  0.57830829  0.17364243  0.84959924  1
  C  C41  1  0.07830829  0.32635757  0.34959924  1
  C  C42  1  0.42169171  0.82635757  0.15040076  1
  C  C43  1  0.92169171  0.67364243  0.65040076  1
  C  C44  1  0.71309157  0.41243918  0.46247416  1
  C  C45  1  0.21309157  0.08756082  0.96247416  1
  C  C46  1  0.28690843  0.58756082  0.53752584  1
  C  C47  1  0.78690843  0.91243918  0.03752584  1
  C  C48  1  0.06632829  0.37233343  0.79710179  1
  C  C49  1  0.56632829  0.12766657  0.29710179  1
  C  C50  1  0.93367171  0.62766657  0.20289821  1
  C  C51  1  0.43367171  0.87233343  0.70289821  1
  O  O52  1  0.92138590  0.35455904  0.79324982  1
  O  O53  1  0.42138590  0.14544096  0.29324982  1
  O  O54  1  0.07861410  0.64544096  0.20675018  1
  O  O55  1  0.57861410  0.85455904  0.70675018  1
  O  O56  1  0.31667624  0.24684839  0.58779265  1
  O  O57  1  0.81667624  0.25315161  0.08779265  1
  O  O58  1  0.68332376  0.75315161  0.41220735  1
  O  O59  1  0.18332376  0.74684839  0.91220735  1
  O  O60  1  0.58475567  0.41887388  0.66237008  1
  O  O61  1  0.08475567  0.08112612  0.16237008  1
  O  O62  1  0.41524433  0.58112612  0.33762992  1
  O  O63  1  0.91524433  0.91887388  0.83762992  1
  O  O64  1  0.89572009  0.10915775  0.67473235  1
  O  O65  1  0.39572009  0.39084225  0.17473235  1
  O  O66  1  0.10427991  0.89084225  0.32526765  1
  O  O67  1  0.60427991  0.60915775  0.82526765  1
  O  O68  1  0.39321264  0.51082362  0.85061491  1
  O  O69  1  0.89321264  0.98917638  0.35061491  1
  O  O70  1  0.60678736  0.48917638  0.14938509  1
  O  O71  1  0.10678736  0.01082362  0.64938509  1
  O  O72  1  0.80879134  0.35123390  0.53399868  1
  O  O73  1  0.30879134  0.14876610  0.03399868  1
  O  O74  1  0.19120866  0.64876610  0.46600132  1
  O  O75  1  0.69120866  0.85123390  0.96600132  1
  O  O76  1  0.23831233  0.51888893  0.60073598  1
  O  O77  1  0.73831233  0.98111107  0.10073598  1
  O  O78  1  0.76168767  0.48111107  0.39926402  1
  O  O79  1  0.26168767  0.01888893  0.89926402  1
  O  O80  1  0.13484050  0.33641215  0.72756507  1
  O  O81  1  0.63484050  0.16358785  0.22756507  1
  O  O82  1  0.86515950  0.66358785  0.27243493  1
  O  O83  1  0.36515950  0.83641215  0.77243493  1
  O  O84  1  0.68844452  0.16373309  0.80224659  1
  O  O85  1  0.18844452  0.33626691  0.30224659  1
  O  O86  1  0.31155548  0.83626691  0.19775341  1
  O  O87  1  0.81155548  0.66373309  0.69775341  1
  O  O88  1  0.54509813  0.16940748  0.55955225  1
  O  O89  1  0.04509813  0.33059252  0.05955225  1
  O  O90  1  0.45490187  0.83059252  0.44044775  1
  O  O91  1  0.95490187  0.66940748  0.94044775  1
  O  O92  1  0.46803680  0.25049569  0.83339535  1
  O  O93  1  0.96803680  0.24950431  0.33339535  1
  O  O94  1  0.53196320  0.74950431  0.16660465  1
  O  O95  1  0.03196320  0.75049569  0.66660465  1
