# generated using pymatgen
data_TbBO3
_symmetry_space_group_name_H-M   'P 1'
_cell_length_a   4.00517748
_cell_length_b   4.31337954
_cell_length_c   8.58383778
_cell_angle_alpha   90.00000000
_cell_angle_beta   90.00000000
_cell_angle_gamma   56.25928982
_symmetry_Int_Tables_number   1
_chemical_formula_structural   TbBO3
_chemical_formula_sum   'Tb2 B2 O6'
_cell_volume   123.31456190
_cell_formula_units_Z   2
loop_
 _symmetry_equiv_pos_site_id
 _symmetry_equiv_pos_as_xyz
  1  'x, y, z'
loop_
 _atom_site_type_symbol
 _atom_site_label
 _atom_site_symmetry_multiplicity
 _atom_site_fract_x
 _atom_site_fract_y
 _atom_site_fract_z
 _atom_site_occupancy
  Tb  Tb0  1  0.94741452  0.98568271  0.49970741  1
  Tb  Tb1  1  0.94741452  0.98568271  0.00029259  1
  B  B2  1  0.68096398  0.54940848  0.75000000  1
  B  B3  1  0.21874430  0.28982916  0.25000000  1
  O  O4  1  0.60975951  0.71603988  0.60374806  1
  O  O5  1  0.29663578  0.38023273  0.10450194  1
  O  O6  1  0.29663578  0.38023273  0.39549806  1
  O  O7  1  0.60975951  0.71603988  0.89625194  1
  O  O8  1  0.82930258  0.17455163  0.75000000  1
  O  O9  1  0.05736954  0.08030009  0.25000000  1
