# generated using pymatgen
data_TbTaTiO6
_symmetry_space_group_name_H-M   'P 1'
_cell_length_a   5.25056482
_cell_length_b   7.45332998
_cell_length_c   11.09021585
_cell_angle_alpha   90.00000000
_cell_angle_beta   90.00000000
_cell_angle_gamma   90.00000000
_symmetry_Int_Tables_number   1
_chemical_formula_structural   TbTaTiO6
_chemical_formula_sum   'Tb4 Ta4 Ti4 O24'
_cell_volume   434.00663845
_cell_formula_units_Z   4
loop_
 _symmetry_equiv_pos_site_id
 _symmetry_equiv_pos_as_xyz
  1  'x, y, z'
loop_
 _atom_site_type_symbol
 _atom_site_label
 _atom_site_symmetry_multiplicity
 _atom_site_fract_x
 _atom_site_fract_y
 _atom_site_fract_z
 _atom_site_occupancy
  Tb  Tb0  1  0.54507558  0.24849518  0.04447662  1
  Tb  Tb1  1  0.95492442  0.24849518  0.54447662  1
  Tb  Tb2  1  0.45492442  0.74849518  0.95552338  1
  Tb  Tb3  1  0.04507558  0.74849518  0.45552338  1
  Ta  Ta4  1  0.53951228  0.00709750  0.35635633  1
  Ta  Ta5  1  0.46048772  0.50709750  0.64364367  1
  Ta  Ta6  1  0.03951228  0.50709750  0.14364367  1
  Ta  Ta7  1  0.96048772  0.00709750  0.85635633  1
  Ti  Ti8  1  0.96291416  0.49192265  0.85771271  1
  Ti  Ti9  1  0.03708584  0.99192265  0.14228729  1
  Ti  Ti10  1  0.46291416  0.99192265  0.64228729  1
  Ti  Ti11  1  0.53708584  0.49192265  0.35771271  1
  O  O12  1  0.75944574  0.54224660  0.02747629  1
  O  O13  1  0.73657628  0.95829595  0.52556520  1
  O  O14  1  0.24055426  0.04224660  0.97252371  1
  O  O15  1  0.26342372  0.45829595  0.47443480  1
  O  O16  1  0.23657628  0.45829595  0.97443480  1
  O  O17  1  0.25944574  0.04224660  0.47252371  1
  O  O18  1  0.76342372  0.95829595  0.02556520  1
  O  O19  1  0.74055426  0.54224660  0.52747629  1
  O  O20  1  0.82508391  0.25234558  0.88223161  1
  O  O21  1  0.67491609  0.25234558  0.38223161  1
  O  O22  1  0.17491609  0.75234558  0.11776839  1
  O  O23  1  0.32508391  0.75234558  0.61776839  1
  O  O24  1  0.37903892  0.06651770  0.20766647  1
  O  O25  1  0.11626273  0.43445681  0.71039086  1
  O  O26  1  0.62096108  0.56651770  0.79233353  1
  O  O27  1  0.88373727  0.93445681  0.28960914  1
  O  O28  1  0.61626273  0.93445681  0.78960914  1
  O  O29  1  0.87903892  0.56651770  0.29233353  1
  O  O30  1  0.38373727  0.43445681  0.21039086  1
  O  O31  1  0.12096108  0.06651770  0.70766647  1
  O  O32  1  0.93940445  0.24862202  0.14402761  1
  O  O33  1  0.56059555  0.24862202  0.64402761  1
  O  O34  1  0.06059555  0.74862202  0.85597239  1
  O  O35  1  0.43940445  0.74862202  0.35597239  1
