# generated using pymatgen
data_Tb(AlFe)6
_symmetry_space_group_name_H-M   'P 1'
_cell_length_a   4.99483664
_cell_length_b   6.55741513
_cell_length_c   6.55741513
_cell_angle_alpha   98.98617261
_cell_angle_beta   112.38659649
_cell_angle_gamma   67.61340351
_symmetry_Int_Tables_number   1
_chemical_formula_structural   Tb(AlFe)6
_chemical_formula_sum   'Tb1 Al6 Fe6'
_cell_volume   183.60755031
_cell_formula_units_Z   1
loop_
 _symmetry_equiv_pos_site_id
 _symmetry_equiv_pos_as_xyz
  1  'x, y, z'
loop_
 _atom_site_type_symbol
 _atom_site_label
 _atom_site_symmetry_multiplicity
 _atom_site_fract_x
 _atom_site_fract_y
 _atom_site_fract_z
 _atom_site_occupancy
  Tb  Tb0  1  -0.00000000  -0.00000000  -0.00000000  1
  Al  Al1  1  0.65388380  0.34611620  0.65388380  1
  Al  Al2  1  0.34611620  0.65388380  0.34611620  1
  Al  Al3  1  -0.00000000  0.33679854  0.33679854  1
  Al  Al4  1  0.00000000  0.66320146  0.66320146  1
  Al  Al5  1  0.69376597  0.80623403  0.19376597  1
  Al  Al6  1  0.30623403  0.19376597  0.80623403  1
  Fe  Fe7  1  0.50000000  -0.00000000  0.50000000  1
  Fe  Fe8  1  -0.00000000  -0.00000000  0.50000000  1
  Fe  Fe9  1  0.50000000  0.50000000  -0.00000000  1
  Fe  Fe10  1  -0.00000000  0.50000000  -0.00000000  1
  Fe  Fe11  1  0.50000000  0.75961812  0.75961812  1
  Fe  Fe12  1  0.50000000  0.24038188  0.24038188  1
