# generated using pymatgen
data_SrPrMn2O6
_symmetry_space_group_name_H-M   'P 1'
_cell_length_a   5.53448312
_cell_length_b   5.56530050
_cell_length_c   7.77145578
_cell_angle_alpha   90.00000000
_cell_angle_beta   90.00000000
_cell_angle_gamma   90.00000000
_symmetry_Int_Tables_number   1
_chemical_formula_structural   SrPrMn2O6
_chemical_formula_sum   'Sr2 Pr2 Mn4 O12'
_cell_volume   239.36908878
_cell_formula_units_Z   2
loop_
 _symmetry_equiv_pos_site_id
 _symmetry_equiv_pos_as_xyz
  1  'x, y, z'
loop_
 _atom_site_type_symbol
 _atom_site_label
 _atom_site_symmetry_multiplicity
 _atom_site_fract_x
 _atom_site_fract_y
 _atom_site_fract_z
 _atom_site_occupancy
  Sr  Sr0  1  0.48604639  0.49873645  0.75000000  1
  Sr  Sr1  1  0.01395361  0.99873645  0.25000000  1
  Pr  Pr2  1  0.97141972  0.00922378  0.75000000  1
  Pr  Pr3  1  0.52858028  0.50922378  0.25000000  1
  Mn  Mn4  1  0.49717599  0.00025751  0.00027507  1
  Mn  Mn5  1  0.00282401  0.50025751  0.50027507  1
  Mn  Mn6  1  0.49717599  0.00025751  0.49972493  1
  Mn  Mn7  1  0.00282401  0.50025751  0.99972493  1
  O  O8  1  0.00353173  0.57255905  0.75000000  1
  O  O9  1  0.51345759  0.94783456  0.75000000  1
  O  O10  1  0.98654241  0.44783456  0.25000000  1
  O  O11  1  0.49646827  0.07255905  0.25000000  1
  O  O12  1  0.22234698  0.22219017  0.96484883  1
  O  O13  1  0.73597163  0.26337541  0.53122831  1
  O  O14  1  0.76402837  0.76337541  0.46877169  1
  O  O15  1  0.27765302  0.72219017  0.03515117  1
  O  O16  1  0.76402837  0.76337541  0.03122831  1
  O  O17  1  0.27765302  0.72219017  0.46484883  1
  O  O18  1  0.22234698  0.22219017  0.53515117  1
  O  O19  1  0.73597163  0.26337541  0.96877169  1
