# generated using pymatgen
data_SrLaGa3O7
_symmetry_space_group_name_H-M   'P 1'
_cell_length_a   5.38946317
_cell_length_b   8.12609198
_cell_length_c   8.12609198
_cell_angle_alpha   90.11863366
_cell_angle_beta   90.00000000
_cell_angle_gamma   90.00000000
_symmetry_Int_Tables_number   1
_chemical_formula_structural   SrLaGa3O7
_chemical_formula_sum   'Sr2 La2 Ga6 O14'
_cell_volume   355.88365783
_cell_formula_units_Z   2
loop_
 _symmetry_equiv_pos_site_id
 _symmetry_equiv_pos_as_xyz
  1  'x, y, z'
loop_
 _atom_site_type_symbol
 _atom_site_label
 _atom_site_symmetry_multiplicity
 _atom_site_fract_x
 _atom_site_fract_y
 _atom_site_fract_z
 _atom_site_occupancy
  Sr  Sr0  1  0.50957246  0.33801770  0.16198230  1
  Sr  Sr1  1  0.50957246  0.66198230  0.83801770  1
  La  La2  1  0.49037525  0.16405039  0.66405039  1
  La  La3  1  0.49037525  0.83594961  0.33594961  1
  Ga  Ga4  1  0.00075019  0.50000000  0.50000000  1
  Ga  Ga5  1  0.00075019  -0.00000000  -0.00000000  1
  Ga  Ga6  1  0.96715471  0.14300554  0.35699446  1
  Ga  Ga7  1  0.03293902  0.35651776  0.85651776  1
  Ga  Ga8  1  0.96715471  0.85699446  0.64300554  1
  Ga  Ga9  1  0.03293902  0.64348224  0.14348224  1
  O  O10  1  0.30525960  0.13047905  0.36952095  1
  O  O11  1  0.69567453  0.35147223  0.85147223  1
  O  O12  1  0.30525960  0.86952095  0.63047905  1
  O  O13  1  0.69567453  0.64852777  0.14852777  1
  O  O14  1  0.79771034  0.33503155  0.41769005  1
  O  O15  1  0.20551691  0.16036448  0.90708774  1
  O  O16  1  0.79771034  0.66496845  0.58230995  1
  O  O17  1  0.20551691  0.83963552  0.09291226  1
  O  O18  1  0.20551691  0.59291226  0.33963552  1
  O  O19  1  0.79771034  0.91769005  0.83503155  1
  O  O20  1  0.20551691  0.40708774  0.66036448  1
  O  O21  1  0.79771034  0.08230995  0.16496845  1
  O  O22  1  0.18522627  0.50000000  -0.00000000  1
  O  O23  1  0.79841323  -0.00000000  0.50000000  1
