# generated using pymatgen
data_SrPr(CoO3)2
_symmetry_space_group_name_H-M   'P 1'
_cell_length_a   5.55157854
_cell_length_b   5.48940054
_cell_length_c   7.55460507
_cell_angle_alpha   90.00000000
_cell_angle_beta   90.87977848
_cell_angle_gamma   90.00000000
_symmetry_Int_Tables_number   1
_chemical_formula_structural   SrPr(CoO3)2
_chemical_formula_sum   'Sr2 Pr2 Co4 O12'
_cell_volume   230.19822682
_cell_formula_units_Z   2
loop_
 _symmetry_equiv_pos_site_id
 _symmetry_equiv_pos_as_xyz
  1  'x, y, z'
loop_
 _atom_site_type_symbol
 _atom_site_label
 _atom_site_symmetry_multiplicity
 _atom_site_fract_x
 _atom_site_fract_y
 _atom_site_fract_z
 _atom_site_occupancy
  Sr  Sr0  1  0.49926855  0.51187390  0.25099882  1
  Sr  Sr1  1  0.99926855  0.98812610  0.75099882  1
  Pr  Pr2  1  0.50842711  0.47889369  0.74925139  1
  Pr  Pr3  1  0.00842711  0.02110631  0.24925139  1
  Co  Co4  1  0.00003441  0.50217683  0.00005641  1
  Co  Co5  1  0.50003441  0.99782317  0.50005641  1
  Co  Co6  1  0.00001213  0.50414851  0.50005331  1
  Co  Co7  1  0.50001213  0.99585149  0.00005331  1
  O  O8  1  0.21906099  0.76557341  0.03380399  1
  O  O9  1  0.71906099  0.73442659  0.53380399  1
  O  O10  1  0.76848142  0.24787889  0.96915676  1
  O  O11  1  0.26848142  0.25212111  0.46915676  1
  O  O12  1  0.95244455  0.49364001  0.25420891  1
  O  O13  1  0.45244455  0.00635999  0.75420891  1
  O  O14  1  0.06543422  0.50162651  0.74597922  1
  O  O15  1  0.56543422  0.99837349  0.24597922  1
  O  O16  1  0.23811486  0.77700328  0.46588155  1
  O  O17  1  0.73811486  0.72299672  0.96588155  1
  O  O18  1  0.74872176  0.23515971  0.53060964  1
  O  O19  1  0.24872176  0.26484029  0.03060964  1
