# generated using pymatgen
data_SrPrZnRuO6
_symmetry_space_group_name_H-M   'P 1'
_cell_length_a   5.61606367
_cell_length_b   5.73522814
_cell_length_c   7.94543041
_cell_angle_alpha   90.00000000
_cell_angle_beta   90.06076582
_cell_angle_gamma   90.00000000
_symmetry_Int_Tables_number   1
_chemical_formula_structural   SrPrZnRuO6
_chemical_formula_sum   'Sr2 Pr2 Zn2 Ru2 O12'
_cell_volume   255.91745301
_cell_formula_units_Z   2
loop_
 _symmetry_equiv_pos_site_id
 _symmetry_equiv_pos_as_xyz
  1  'x, y, z'
loop_
 _atom_site_type_symbol
 _atom_site_label
 _atom_site_symmetry_multiplicity
 _atom_site_fract_x
 _atom_site_fract_y
 _atom_site_fract_z
 _atom_site_occupancy
  Sr  Sr0  1  0.50634418  0.96183895  0.74968985  1
  Sr  Sr1  1  0.00634418  0.53816105  0.24968985  1
  Pr  Pr2  1  0.48532128  0.05642455  0.24827247  1
  Pr  Pr3  1  0.98532128  0.44357545  0.74827247  1
  Zn  Zn4  1  0.49868018  0.50998724  0.99829933  1
  Zn  Zn5  1  0.99868018  0.99001276  0.49829933  1
  Ru  Ru6  1  0.49968145  0.50221941  0.50025483  1
  Ru  Ru7  1  -0.00031855  0.99778059  0.00025483  1
  O  O8  1  0.40642612  0.51593814  0.74243821  1
  O  O9  1  0.90642612  0.98406186  0.24243821  1
  O  O10  1  0.56988725  0.47466681  0.25747945  1
  O  O11  1  0.06988725  0.02533319  0.75747945  1
  O  O12  1  0.78869109  0.69500750  0.54611736  1
  O  O13  1  0.28869109  0.80499250  0.04611736  1
  O  O14  1  0.22560957  0.28979497  0.46090131  1
  O  O15  1  0.72560957  0.21020503  0.96090131  1
  O  O16  1  0.31015332  0.78917538  0.45352562  1
  O  O17  1  0.81015332  0.71082462  0.95352562  1
  O  O18  1  0.70920556  0.22697980  0.54302158  1
  O  O19  1  0.20920556  0.27302020  0.04302158  1
