# generated using pymatgen
data_TaCo
_symmetry_space_group_name_H-M   'P 1'
_cell_length_a   4.92455981
_cell_length_b   4.92455967
_cell_length_c   17.70110862
_cell_angle_alpha   82.00404768
_cell_angle_beta   89.99999972
_cell_angle_gamma   119.99999916
_symmetry_Int_Tables_number   1
_chemical_formula_structural   TaCo
_chemical_formula_sum   'Ta13 Co13'
_cell_volume   366.93579434
_cell_formula_units_Z   13
loop_
 _symmetry_equiv_pos_site_id
 _symmetry_equiv_pos_as_xyz
  1  'x, y, z'
loop_
 _atom_site_type_symbol
 _atom_site_label
 _atom_site_symmetry_multiplicity
 _atom_site_fract_x
 _atom_site_fract_y
 _atom_site_fract_z
 _atom_site_occupancy
  Ta  Ta0  1  0.17315451  0.34630903  0.48053646  1
  Ta  Ta1  1  0.67082512  0.34165024  0.98752465  1
  Ta  Ta2  1  0.32917488  0.65834976  0.01247535  1
  Ta  Ta3  1  0.82684549  0.65369097  0.51946354  1
  Ta  Ta4  1  0.22542704  0.45085408  0.32371887  1
  Ta  Ta5  1  0.72359330  0.44718660  0.82922010  1
  Ta  Ta6  1  0.27640670  0.55281340  0.17077990  1
  Ta  Ta7  1  0.77457296  0.54914592  0.67628113  1
  Ta  Ta8  1  0.58310680  0.16621360  0.25067960  1
  Ta  Ta9  1  0.08143001  0.16286003  0.75570996  1
  Ta  Ta10  1  0.91856999  0.83713997  0.24429004  1
  Ta  Ta11  1  0.41689320  0.83378640  0.74932040  1
  Ta  Ta12  1  0.50000000  -0.00000000  0.50000000  1
  Co  Co13  1  0.79730353  0.08900756  0.11368891  1
  Co  Co14  1  0.28934568  0.09046617  0.62018815  1
  Co  Co15  1  0.29170404  0.08900756  0.11368891  1
  Co  Co16  1  0.80112049  0.09046617  0.62018815  1
  Co  Co17  1  0.79730353  0.59460706  0.11368891  1
  Co  Co18  1  0.28934568  0.57869136  0.62018815  1
  Co  Co19  1  0.71065432  0.90953383  0.37981185  1
  Co  Co20  1  0.20269647  0.91099244  0.88631109  1
  Co  Co21  1  0.19887951  0.90953383  0.37981185  1
  Co  Co22  1  0.70829596  0.91099244  0.88631109  1
  Co  Co23  1  0.71065432  0.42130864  0.37981185  1
  Co  Co24  1  0.20269647  0.40539294  0.88631109  1
  Co  Co25  1  -0.00000000  -0.00000000  0.00000000  1
