# generated using pymatgen
data_Ta2Se8Br
_symmetry_space_group_name_H-M   'P 1'
_cell_length_a   13.00017320
_cell_length_b   13.64934300
_cell_length_c   14.56456830
_cell_angle_alpha   90.00000000
_cell_angle_beta   90.00000000
_cell_angle_gamma   103.89564837
_symmetry_Int_Tables_number   1
_chemical_formula_structural   Ta2Se8Br
_chemical_formula_sum   'Ta16 Se64 Br8'
_cell_volume   2508.75971613
_cell_formula_units_Z   8
loop_
 _symmetry_equiv_pos_site_id
 _symmetry_equiv_pos_as_xyz
  1  'x, y, z'
loop_
 _atom_site_type_symbol
 _atom_site_label
 _atom_site_symmetry_multiplicity
 _atom_site_fract_x
 _atom_site_fract_y
 _atom_site_fract_z
 _atom_site_occupancy
  Ta  Ta0  1  0.97628410  0.19594377  0.11733324  1
  Ta  Ta1  1  0.52371590  0.30405623  0.61733324  1
  Ta  Ta2  1  0.02371590  0.80405623  0.88266676  1
  Ta  Ta3  1  0.47628410  0.69594377  0.38266676  1
  Ta  Ta4  1  0.26428184  0.27411471  0.14214378  1
  Ta  Ta5  1  0.23571816  0.22588529  0.64214378  1
  Ta  Ta6  1  0.73571816  0.72588529  0.85785622  1
  Ta  Ta7  1  0.76428184  0.77411471  0.35785622  1
  Ta  Ta8  1  0.73991045  0.22921624  0.11109032  1
  Ta  Ta9  1  0.76008955  0.27078376  0.61109032  1
  Ta  Ta10  1  0.26008955  0.77078376  0.88890968  1
  Ta  Ta11  1  0.23991045  0.72921624  0.38890968  1
  Ta  Ta12  1  0.50639406  0.25406128  0.12087927  1
  Ta  Ta13  1  0.99360594  0.24593872  0.62087927  1
  Ta  Ta14  1  0.49360594  0.74593872  0.87912073  1
  Ta  Ta15  1  0.00639406  0.75406128  0.37912073  1
  Se  Se16  1  0.68402758  0.39610126  0.06934880  1
  Se  Se17  1  0.81597242  0.10389874  0.56934880  1
  Se  Se18  1  0.31597242  0.60389874  0.93065120  1
  Se  Se19  1  0.18402758  0.89610126  0.43065120  1
  Se  Se20  1  0.32434191  0.10516530  0.13675210  1
  Se  Se21  1  0.17565809  0.39483470  0.63675210  1
  Se  Se22  1  0.67565809  0.89483470  0.86324790  1
  Se  Se23  1  0.82434191  0.60516530  0.36324790  1
  Se  Se24  1  0.39550755  0.32165152  0.99502778  1
  Se  Se25  1  0.10449245  0.17834848  0.49502778  1
  Se  Se26  1  0.60449245  0.67834848  0.00497222  1
  Se  Se27  1  0.89550755  0.82165152  0.50497222  1
  Se  Se28  1  0.48879311  0.47857178  0.67989478  1
  Se  Se29  1  0.01120689  0.02142822  0.17989478  1
  Se  Se30  1  0.51120689  0.52142822  0.32010522  1
  Se  Se31  1  0.98879311  0.97857178  0.82010522  1
  Se  Se32  1  0.83307382  0.17864850  0.25720950  1
  Se  Se33  1  0.66692618  0.32135150  0.75720950  1
  Se  Se34  1  0.16692618  0.82135150  0.74279050  1
  Se  Se35  1  0.33307382  0.67864850  0.24279050  1
  Se  Se36  1  0.82016813  0.07954762  0.03351663  1
  Se  Se37  1  0.67983187  0.42045238  0.53351663  1
  Se  Se38  1  0.17983187  0.92045238  0.96648337  1
  Se  Se39  1  0.32016813  0.57954762  0.46648337  1
  Se  Se40  1  0.66007955  0.34780528  0.22597542  1
  Se  Se41  1  0.83992045  0.15219472  0.72597542  1
  Se  Se42  1  0.33992045  0.65219472  0.77402458  1
  Se  Se43  1  0.16007955  0.84780528  0.27402458  1
  Se  Se44  1  0.91824432  0.34200360  0.19914493  1
  Se  Se45  1  0.58175568  0.15799640  0.69914493  1
  Se  Se46  1  0.08175568  0.65799640  0.80085507  1
  Se  Se47  1  0.41824432  0.84200360  0.30085507  1
  Se  Se48  1  0.43183807  0.42550901  0.13259425  1
  Se  Se49  1  0.06816193  0.07449099  0.63259425  1
  Se  Se50  1  0.56816193  0.57449099  0.86740575  1
  Se  Se51  1  0.93183807  0.92550901  0.36740575  1
  Se  Se52  1  0.57767157  0.08640015  0.15709422  1
  Se  Se53  1  0.92232843  0.41359985  0.65709422  1
  Se  Se54  1  0.42232843  0.91359985  0.84290578  1
  Se  Se55  1  0.07767157  0.58640015  0.34290578  1
  Se  Se56  1  0.12505130  0.35359056  0.04874777  1
  Se  Se57  1  0.37494870  0.14640944  0.54874777  1
  Se  Se58  1  0.87494870  0.64640944  0.95125223  1
  Se  Se59  1  0.62505130  0.85359056  0.45125223  1
  Se  Se60  1  0.57591152  0.14370265  0.99986471  1
  Se  Se61  1  0.92408848  0.35629735  0.49986471  1
  Se  Se62  1  0.42408848  0.85629735  0.00013529  1
  Se  Se63  1  0.07591152  0.64370265  0.50013529  1
  Se  Se64  1  0.86659839  0.24478064  0.96567639  1
  Se  Se65  1  0.63340161  0.25521936  0.46567639  1
  Se  Se66  1  0.13340161  0.75521936  0.03432361  1
  Se  Se67  1  0.36659839  0.74478064  0.53432361  1
  Se  Se68  1  0.13299127  0.18594995  0.00335332  1
  Se  Se69  1  0.36700873  0.31405005  0.50335332  1
  Se  Se70  1  0.86700873  0.81405005  0.99664668  1
  Se  Se71  1  0.63299127  0.68594995  0.49664668  1
  Se  Se72  1  0.38575760  0.20314661  0.26779090  1
  Se  Se73  1  0.11424240  0.29685339  0.76779090  1
  Se  Se74  1  0.61424240  0.79685339  0.73220910  1
  Se  Se75  1  0.88575760  0.70314661  0.23220910  1
  Se  Se76  1  0.10560118  0.17461439  0.25154184  1
  Se  Se77  1  0.39439882  0.32538561  0.75154184  1
  Se  Se78  1  0.89439882  0.82538561  0.74845816  1
  Se  Se79  1  0.60560118  0.67461439  0.24845816  1
  Br  Br80  1  0.27577980  0.11421040  0.78158938  1
  Br  Br81  1  0.22422020  0.38578960  0.28158938  1
  Br  Br82  1  0.72422020  0.88578960  0.21841062  1
  Br  Br83  1  0.77577980  0.61421040  0.71841062  1
  Br  Br84  1  0.92654512  0.45528384  0.86763031  1
  Br  Br85  1  0.57345488  0.04471616  0.36763031  1
  Br  Br86  1  0.07345488  0.54471616  0.13236969  1
  Br  Br87  1  0.42654512  0.95528384  0.63236969  1
