# generated using pymatgen
data_H9PtC3Br
_symmetry_space_group_name_H-M   'P 1'
_cell_length_a   10.37800593
_cell_length_b   10.37800593
_cell_length_c   13.42141665
_cell_angle_alpha   93.89024067
_cell_angle_beta   93.89024067
_cell_angle_gamma   91.21580196
_symmetry_Int_Tables_number   1
_chemical_formula_structural   H9PtC3Br
_chemical_formula_sum   'H72 Pt8 C24 Br8'
_cell_volume   1438.38898509
_cell_formula_units_Z   8
loop_
 _symmetry_equiv_pos_site_id
 _symmetry_equiv_pos_as_xyz
  1  'x, y, z'
loop_
 _atom_site_type_symbol
 _atom_site_label
 _atom_site_symmetry_multiplicity
 _atom_site_fract_x
 _atom_site_fract_y
 _atom_site_fract_z
 _atom_site_occupancy
  H  H0  1  0.62315915  0.62315915  0.90763623  1
  H  H1  1  0.37684085  0.37684085  0.09236377  1
  H  H2  1  0.53758599  0.65971588  0.01758649  1
  H  H3  1  0.65971588  0.53758599  0.01758649  1
  H  H4  1  0.46241401  0.34028412  0.98241351  1
  H  H5  1  0.34028412  0.46241401  0.98241351  1
  H  H6  1  0.97368706  0.74778843  0.95040114  1
  H  H7  1  0.74778843  0.97368706  0.95040114  1
  H  H8  1  0.02631294  0.25221157  0.04959886  1
  H  H9  1  0.25221157  0.02631294  0.04959886  1
  H  H10  1  0.83800346  0.69793831  0.86535768  1
  H  H11  1  0.69793831  0.83800346  0.86535768  1
  H  H12  1  0.16199654  0.30206169  0.13464232  1
  H  H13  1  0.30206169  0.16199654  0.13464232  1
  H  H14  1  0.89817364  0.58956600  0.95487953  1
  H  H15  1  0.58956600  0.89817364  0.95487953  1
  H  H16  1  0.10182636  0.41043400  0.04512047  1
  H  H17  1  0.41043400  0.10182636  0.04512047  1
  H  H18  1  0.51951350  0.51951350  0.36242564  1
  H  H19  1  0.48048650  0.48048650  0.63757436  1
  H  H20  1  0.60458211  0.48236886  0.25253168  1
  H  H21  1  0.48236886  0.60458211  0.25253168  1
  H  H22  1  0.39541789  0.51763114  0.74746832  1
  H  H23  1  0.51763114  0.39541789  0.74746832  1
  H  H24  1  0.84234239  0.52112950  0.41044182  1
  H  H25  1  0.52112950  0.84234239  0.41044182  1
  H  H26  1  0.15765761  0.47887050  0.58955818  1
  H  H27  1  0.47887050  0.15765761  0.58955818  1
  H  H28  1  0.69046139  0.51641022  0.46709889  1
  H  H29  1  0.51641022  0.69046139  0.46709889  1
  H  H30  1  0.30953861  0.48358978  0.53290111  1
  H  H31  1  0.48358978  0.30953861  0.53290111  1
  H  H32  1  0.80882266  0.63990391  0.50957441  1
  H  H33  1  0.63990391  0.80882266  0.50957441  1
  H  H34  1  0.19117734  0.36009609  0.49042559  1
  H  H35  1  0.36009609  0.19117734  0.49042559  1
  H  H36  1  0.17143815  0.76746070  0.09358818  1
  H  H37  1  0.76746070  0.17143815  0.09358818  1
  H  H38  1  0.82856185  0.23253930  0.90641182  1
  H  H39  1  0.23253930  0.82856185  0.90641182  1
  H  H40  1  0.16772462  0.61238163  0.14724456  1
  H  H41  1  0.61238163  0.16772462  0.14724456  1
  H  H42  1  0.83227538  0.38761837  0.85275544  1
  H  H43  1  0.38761837  0.83227538  0.85275544  1
  H  H44  1  0.29030965  0.73169730  0.19068162  1
  H  H45  1  0.73169730  0.29030965  0.19068162  1
  H  H46  1  0.70969035  0.26830270  0.80931838  1
  H  H47  1  0.26830270  0.70969035  0.80931838  1
  H  H48  1  0.09483738  0.67876592  0.42888774  1
  H  H49  1  0.67876592  0.09483738  0.42888774  1
  H  H50  1  0.90516262  0.32123408  0.57111226  1
  H  H51  1  0.32123408  0.90516262  0.57111226  1
  H  H52  1  0.24818112  0.68199765  0.37426358  1
  H  H53  1  0.68199765  0.24818112  0.37426358  1
  H  H54  1  0.75181888  0.31800235  0.62573642  1
  H  H55  1  0.31800235  0.75181888  0.62573642  1
  H  H56  1  0.12648102  0.56466635  0.32574974  1
  H  H57  1  0.56466635  0.12648102  0.32574974  1
  H  H58  1  0.87351898  0.43533365  0.67425026  1
  H  H59  1  0.43533365  0.87351898  0.67425026  1
  H  H60  1  0.16683623  0.97800984  0.37635169  1
  H  H61  1  0.97800984  0.16683623  0.37635169  1
  H  H62  1  0.83316377  0.02199016  0.62364831  1
  H  H63  1  0.02199016  0.83316377  0.62364831  1
  H  H64  1  0.22716467  0.98052989  0.25280842  1
  H  H65  1  0.98052989  0.22716467  0.25280842  1
  H  H66  1  0.77283533  0.01947011  0.74719158  1
  H  H67  1  0.01947011  0.77283533  0.74719158  1
  H  H68  1  0.29381387  0.87313195  0.34063567  1
  H  H69  1  0.87313195  0.29381387  0.34063567  1
  H  H70  1  0.70618613  0.12686805  0.65936433  1
  H  H71  1  0.12686805  0.70618613  0.65936433  1
  Pt  Pt72  1  0.76655797  0.76655797  0.04745931  1
  Pt  Pt73  1  0.23344203  0.23344203  0.95254069  1
  Pt  Pt74  1  0.69927536  0.69927536  0.33822186  1
  Pt  Pt75  1  0.30072464  0.30072464  0.66177814  1
  Pt  Pt76  1  0.06307670  0.78787901  0.26195045  1
  Pt  Pt77  1  0.78787901  0.06307670  0.26195045  1
  Pt  Pt78  1  0.93692330  0.21212099  0.73804955  1
  Pt  Pt79  1  0.21212099  0.93692330  0.73804955  1
  C  C80  1  0.63055389  0.63055389  0.98975705  1
  C  C81  1  0.36944611  0.36944611  0.01024295  1
  C  C82  1  0.88242469  0.69125649  0.94157262  1
  C  C83  1  0.69125649  0.88242469  0.94157262  1
  C  C84  1  0.11757531  0.30874351  0.05842738  1
  C  C85  1  0.30874351  0.11757531  0.05842738  1
  C  C86  1  0.55965039  0.55965039  0.29692743  1
  C  C87  1  0.44034961  0.44034961  0.70307257  1
  C  C88  1  0.76756517  0.57956140  0.44410239  1
  C  C89  1  0.57956140  0.76756517  0.44410239  1
  C  C90  1  0.23243483  0.42043860  0.55589761  1
  C  C91  1  0.42043860  0.23243483  0.55589761  1
  C  C92  1  0.18929616  0.71615456  0.16218280  1
  C  C93  1  0.71615456  0.18929616  0.16218280  1
  C  C94  1  0.81070384  0.28384544  0.83781720  1
  C  C95  1  0.28384544  0.81070384  0.83781720  1
  C  C96  1  0.14393363  0.66354414  0.35915835  1
  C  C97  1  0.66354414  0.14393363  0.35915835  1
  C  C98  1  0.85606637  0.33645586  0.64084165  1
  C  C99  1  0.33645586  0.85606637  0.64084165  1
  C  C100  1  0.20550788  0.92012673  0.31410427  1
  C  C101  1  0.92012673  0.20550788  0.31410427  1
  C  C102  1  0.79449212  0.07987327  0.68589573  1
  C  C103  1  0.07987327  0.79449212  0.68589573  1
  Br  Br104  1  0.94460275  0.94460275  0.13355356  1
  Br  Br105  1  0.05539725  0.05539725  0.86644644  1
  Br  Br106  1  0.88373066  0.88373066  0.38610132  1
  Br  Br107  1  0.11626934  0.11626934  0.61389868  1
  Br  Br108  1  0.86360418  0.62155791  0.19566487  1
  Br  Br109  1  0.62155791  0.86360418  0.19566487  1
  Br  Br110  1  0.13639582  0.37844209  0.80433513  1
  Br  Br111  1  0.37844209  0.13639582  0.80433513  1
