# generated using pymatgen
data_Ta3Os2
_symmetry_space_group_name_H-M   'P 1'
_cell_length_a   5.07445731
_cell_length_b   9.93071881
_cell_length_c   9.93071881
_cell_angle_alpha   89.97615941
_cell_angle_beta   90.00000000
_cell_angle_gamma   90.00000000
_symmetry_Int_Tables_number   1
_chemical_formula_structural   Ta3Os2
_chemical_formula_sum   'Ta18 Os12'
_cell_volume   500.43875616
_cell_formula_units_Z   6
loop_
 _symmetry_equiv_pos_site_id
 _symmetry_equiv_pos_as_xyz
  1  'x, y, z'
loop_
 _atom_site_type_symbol
 _atom_site_label
 _atom_site_symmetry_multiplicity
 _atom_site_fract_x
 _atom_site_fract_y
 _atom_site_fract_z
 _atom_site_occupancy
  Ta  Ta0  1  0.50179007  0.10265697  0.89734303  1
  Ta  Ta1  1  0.50179007  0.89734303  0.10265697  1
  Ta  Ta2  1  0.99718347  0.39899808  0.39899808  1
  Ta  Ta3  1  0.99718347  0.60100192  0.60100192  1
  Ta  Ta4  1  0.50070402  0.37060671  0.96264509  1
  Ta  Ta5  1  0.50070402  0.62939329  0.03735491  1
  Ta  Ta6  1  0.00119300  0.12965519  0.46532125  1
  Ta  Ta7  1  0.00119300  0.87034481  0.53467875  1
  Ta  Ta8  1  0.50070402  0.96264509  0.37060671  1
  Ta  Ta9  1  0.50070402  0.03735491  0.62939329  1
  Ta  Ta10  1  0.00119300  0.46532125  0.12965519  1
  Ta  Ta11  1  0.00119300  0.53467875  0.87034481  1
  Ta  Ta12  1  0.74952962  0.18115057  0.18115057  1
  Ta  Ta13  1  0.74952962  0.81884943  0.81884943  1
  Ta  Ta14  1  0.75190292  0.68134492  0.31865508  1
  Ta  Ta15  1  0.75190292  0.31865508  0.68134492  1
  Ta  Ta16  1  0.24999164  0.81837967  0.81837967  1
  Ta  Ta17  1  0.24999164  0.18162033  0.18162033  1
  Os  Os18  1  0.48359332  0.50000000  0.50000000  1
  Os  Os19  1  0.00221188  0.00000000  0.00000000  1
  Os  Os20  1  0.50064347  0.43504398  0.24345203  1
  Os  Os21  1  0.50064347  0.56495602  0.75654797  1
  Os  Os22  1  0.00055275  0.06979651  0.74146600  1
  Os  Os23  1  0.00055275  0.93020349  0.25853400  1
  Os  Os24  1  0.50064347  0.24345203  0.43504398  1
  Os  Os25  1  0.50064347  0.75654797  0.56495602  1
  Os  Os26  1  0.00055275  0.74146600  0.06979651  1
  Os  Os27  1  0.00055275  0.25853400  0.93020349  1
  Os  Os28  1  0.25051319  0.31835286  0.68164714  1
  Os  Os29  1  0.25051319  0.68164714  0.31835286  1
