# generated using pymatgen
data_SrLaCrO4
_symmetry_space_group_name_H-M   'P 1'
_cell_length_a   3.93403464
_cell_length_b   3.93403464
_cell_length_c   6.82313183
_cell_angle_alpha   73.24459633
_cell_angle_beta   73.24459633
_cell_angle_gamma   90.00000000
_symmetry_Int_Tables_number   1
_chemical_formula_structural   SrLaCrO4
_chemical_formula_sum   'Sr1 La1 Cr1 O4'
_cell_volume   96.42425691
_cell_formula_units_Z   1
loop_
 _symmetry_equiv_pos_site_id
 _symmetry_equiv_pos_as_xyz
  1  'x, y, z'
loop_
 _atom_site_type_symbol
 _atom_site_label
 _atom_site_symmetry_multiplicity
 _atom_site_fract_x
 _atom_site_fract_y
 _atom_site_fract_z
 _atom_site_occupancy
  Sr  Sr0  1  0.35824414  0.35824414  0.28351172  1
  La  La1  1  0.64091251  0.64091251  0.71817498  1
  Cr  Cr2  1  0.99650854  0.99650854  0.00698292  1
  O  O3  1  0.00572583  0.50572583  0.98854834  1
  O  O4  1  0.50572583  0.00572583  0.98854834  1
  O  O5  1  0.16361357  0.16361357  0.67277286  1
  O  O6  1  0.82926958  0.82926958  0.34146085  1
