# generated using pymatgen
data_TaBi(P2O7)2
_symmetry_space_group_name_H-M   'P 1'
_cell_length_a   8.54470061
_cell_length_b   8.53506998
_cell_length_c   8.67490913
_cell_angle_alpha   90.66783850
_cell_angle_beta   90.00000000
_cell_angle_gamma   90.00000000
_symmetry_Int_Tables_number   1
_chemical_formula_structural   TaBi(P2O7)2
_chemical_formula_sum   'Ta2 Bi2 P8 O28'
_cell_volume   632.61482928
_cell_formula_units_Z   2
loop_
 _symmetry_equiv_pos_site_id
 _symmetry_equiv_pos_as_xyz
  1  'x, y, z'
loop_
 _atom_site_type_symbol
 _atom_site_label
 _atom_site_symmetry_multiplicity
 _atom_site_fract_x
 _atom_site_fract_y
 _atom_site_fract_z
 _atom_site_occupancy
  Ta  Ta0  1  0.50000000  0.50000000  0.00000000  1
  Ta  Ta1  1  -0.00000000  0.00000000  0.00000000  1
  Bi  Bi2  1  0.50000000  0.00000000  0.50000000  1
  Bi  Bi3  1  -0.00000000  0.50000000  0.50000000  1
  P  P4  1  0.88391735  0.38732019  0.08957060  1
  P  P5  1  0.38391735  0.11267981  0.91042940  1
  P  P6  1  0.09126793  0.90083901  0.37419654  1
  P  P7  1  0.59126793  0.59916099  0.62580346  1
  P  P8  1  0.11608265  0.61267981  0.91042940  1
  P  P9  1  0.61608265  0.88732019  0.08957060  1
  P  P10  1  0.90873207  0.09916099  0.62580346  1
  P  P11  1  0.40873207  0.40083901  0.37419654  1
  O  O12  1  0.71966650  0.42441689  0.02548755  1
  O  O13  1  0.21966650  0.07558311  0.97451245  1
  O  O14  1  0.26405878  0.92177410  0.39903487  1
  O  O15  1  0.76405878  0.57822590  0.60096513  1
  O  O16  1  0.03201643  0.73481644  0.37584831  1
  O  O17  1  0.93042932  0.22007036  0.03715233  1
  O  O18  1  0.43042932  0.27992964  0.96284767  1
  O  O19  1  0.53201643  0.76518356  0.62415169  1
  O  O20  1  0.39481825  0.08712185  0.73967056  1
  O  O21  1  0.03932837  0.97879266  0.21965943  1
  O  O22  1  0.89481825  0.41287815  0.26032944  1
  O  O23  1  0.53932837  0.52120734  0.78034057  1
  O  O24  1  0.28033350  0.57558311  0.97451245  1
  O  O25  1  0.78033350  0.92441689  0.02548755  1
  O  O26  1  0.73594122  0.07822590  0.60096513  1
  O  O27  1  0.23594122  0.42177410  0.39903487  1
  O  O28  1  0.96798357  0.26518356  0.62415169  1
  O  O29  1  0.06957068  0.77992964  0.96284767  1
  O  O30  1  0.56957068  0.72007036  0.03715233  1
  O  O31  1  0.46798357  0.23481644  0.37584831  1
  O  O32  1  0.60518175  0.91287815  0.26032944  1
  O  O33  1  0.96067163  0.02120734  0.78034057  1
  O  O34  1  0.10518175  0.58712185  0.73967056  1
  O  O35  1  0.46067163  0.47879266  0.21965943  1
  O  O36  1  -0.00000000  0.50000000  0.00000000  1
  O  O37  1  0.50000000  0.00000000  0.00000000  1
  O  O38  1  -0.00000000  0.00000000  0.50000000  1
  O  O39  1  0.50000000  0.50000000  0.50000000  1
