# generated using pymatgen
data_Sr4U2O9
_symmetry_space_group_name_H-M   'P 1'
_cell_length_a   6.23810978
_cell_length_b   8.66662721
_cell_length_c   18.16610072
_cell_angle_alpha   90.05694287
_cell_angle_beta   90.00000000
_cell_angle_gamma   90.00000000
_symmetry_Int_Tables_number   1
_chemical_formula_structural   Sr4U2O9
_chemical_formula_sum   'Sr16 U8 O36'
_cell_volume   982.12017488
_cell_formula_units_Z   4
loop_
 _symmetry_equiv_pos_site_id
 _symmetry_equiv_pos_as_xyz
  1  'x, y, z'
loop_
 _atom_site_type_symbol
 _atom_site_label
 _atom_site_symmetry_multiplicity
 _atom_site_fract_x
 _atom_site_fract_y
 _atom_site_fract_z
 _atom_site_occupancy
  Sr  Sr0  1  0.49870310  0.49913802  0.99917531  1
  Sr  Sr1  1  0.50129690  0.50086198  0.33415769  1
  Sr  Sr2  1  0.00129690  0.99913802  0.49917531  1
  Sr  Sr3  1  0.99870310  0.00086198  0.83415769  1
  Sr  Sr4  1  0.04964858  0.25704732  0.33104555  1
  Sr  Sr5  1  0.04426812  0.24607525  0.66268019  1
  Sr  Sr6  1  0.05073376  0.25226074  0.99326145  1
  Sr  Sr7  1  0.45573188  0.74607525  0.16268019  1
  Sr  Sr8  1  0.44926624  0.75226074  0.49326145  1
  Sr  Sr9  1  0.45035142  0.75704732  0.83104555  1
  Sr  Sr10  1  0.95035142  0.74295268  0.00228745  1
  Sr  Sr11  1  0.94926624  0.74773926  0.34007255  1
  Sr  Sr12  1  0.95573188  0.75392475  0.67065281  1
  Sr  Sr13  1  0.54426812  0.25392475  0.17065281  1
  Sr  Sr14  1  0.54964858  0.24295268  0.50228745  1
  Sr  Sr15  1  0.55073376  0.24773926  0.84007255  1
  U  U16  1  0.00000000  0.50000000  0.16666700  1
  U  U17  1  0.99572143  0.50265824  0.50213105  1
  U  U18  1  0.00427857  0.49734176  0.83120195  1
  U  U19  1  0.50427857  0.00265824  0.00213105  1
  U  U20  1  0.49572143  0.99734176  0.33120195  1
  U  U21  1  0.50000000  0.00000000  0.66666700  1
  U  U22  1  0.50000000  0.50000000  0.66666700  1
  U  U23  1  0.00000000  0.00000000  0.16666700  1
  O  O24  1  0.17543680  0.55553513  0.07267447  1
  O  O25  1  0.17932944  0.55334821  0.40747133  1
  O  O26  1  0.20814351  0.55530703  0.72955847  1
  O  O27  1  0.29185649  0.05530703  0.22955847  1
  O  O28  1  0.32456320  0.05553513  0.57267447  1
  O  O29  1  0.32067056  0.05334821  0.90747133  1
  O  O30  1  0.82456320  0.44446487  0.26065853  1
  O  O31  1  0.79185649  0.44469297  0.60377553  1
  O  O32  1  0.82067056  0.44665179  0.92586167  1
  O  O33  1  0.70814351  0.94469297  0.10377553  1
  O  O34  1  0.67932944  0.94665179  0.42586167  1
  O  O35  1  0.67543680  0.94446487  0.76065853  1
  O  O36  1  0.44897879  0.22752260  0.03960312  1
  O  O37  1  0.44845497  0.22526149  0.36799392  1
  O  O38  1  0.45765002  0.26187849  0.70200226  1
  O  O39  1  0.04234998  0.76187849  0.20200226  1
  O  O40  1  0.05102121  0.72752260  0.53960312  1
  O  O41  1  0.05154503  0.72526149  0.86799392  1
  O  O42  1  0.55102121  0.77247740  0.29372988  1
  O  O43  1  0.54234998  0.73812151  0.63133074  1
  O  O44  1  0.55154503  0.77473851  0.96534008  1
  O  O45  1  0.95765002  0.23812151  0.13133074  1
  O  O46  1  0.94845497  0.27473851  0.46534008  1
  O  O47  1  0.94897879  0.27247740  0.79372988  1
  O  O48  1  0.71852917  0.55844101  0.10946336  1
  O  O49  1  0.71660870  0.56947751  0.44326950  1
  O  O50  1  0.69508698  0.56026468  0.76210089  1
  O  O51  1  0.80491302  0.06026468  0.26210089  1
  O  O52  1  0.78147083  0.05844101  0.60946336  1
  O  O53  1  0.78339130  0.06947751  0.94326950  1
  O  O54  1  0.28147083  0.44155899  0.22386964  1
  O  O55  1  0.30491302  0.43973532  0.57123211  1
  O  O56  1  0.28339130  0.43052249  0.89006450  1
  O  O57  1  0.19508698  0.93973532  0.07123211  1
  O  O58  1  0.21660870  0.93052249  0.39006450  1
  O  O59  1  0.21852917  0.94155899  0.72386964  1
