# generated using pymatgen
data_SmZnCuP2
_symmetry_space_group_name_H-M   'P 1'
_cell_length_a   4.03488206
_cell_length_b   4.03489832
_cell_length_c   6.64595587
_cell_angle_alpha   90.00006854
_cell_angle_beta   90.00008352
_cell_angle_gamma   120.00041212
_symmetry_Int_Tables_number   1
_chemical_formula_structural   SmZnCuP2
_chemical_formula_sum   'Sm1 Zn1 Cu1 P2'
_cell_volume   93.70218581
_cell_formula_units_Z   1
loop_
 _symmetry_equiv_pos_site_id
 _symmetry_equiv_pos_as_xyz
  1  'x, y, z'
loop_
 _atom_site_type_symbol
 _atom_site_label
 _atom_site_symmetry_multiplicity
 _atom_site_fract_x
 _atom_site_fract_y
 _atom_site_fract_z
 _atom_site_occupancy
  Sm  Sm0  1  0.99999235  0.99999542  0.01485868  1
  Zn  Zn1  1  0.66665144  0.33332546  0.62493346  1
  Cu  Cu2  1  0.33336750  0.66668575  0.36184582  1
  P  P3  1  0.33332041  0.66665976  0.73897434  1
  P  P4  1  0.66666830  0.33333361  0.25938770  1
