# generated using pymatgen
data_Sr7Y6OF30
_symmetry_space_group_name_H-M   'P 1'
_cell_length_a   9.08182231
_cell_length_b   9.08182237
_cell_length_c   9.08182231
_cell_angle_alpha   107.31272224
_cell_angle_beta   107.31272161
_cell_angle_gamma   107.31272219
_symmetry_Int_Tables_number   1
_chemical_formula_structural   Sr7Y6OF30
_chemical_formula_sum   'Sr7 Y6 O1 F30'
_cell_volume   618.42891930
_cell_formula_units_Z   1
loop_
 _symmetry_equiv_pos_site_id
 _symmetry_equiv_pos_as_xyz
  1  'x, y, z'
loop_
 _atom_site_type_symbol
 _atom_site_label
 _atom_site_symmetry_multiplicity
 _atom_site_fract_x
 _atom_site_fract_y
 _atom_site_fract_z
 _atom_site_occupancy
  Sr  Sr0  1  0.82280360  0.41587413  0.26856309  1
  Sr  Sr1  1  0.41587413  0.26856309  0.82280360  1
  Sr  Sr2  1  0.26856309  0.82280360  0.41587413  1
  Sr  Sr3  1  0.18867098  0.60289494  0.74030436  1
  Sr  Sr4  1  0.60289494  0.74030436  0.18867098  1
  Sr  Sr5  1  0.74030436  0.18867098  0.60289494  1
  Sr  Sr6  1  0.48908485  0.48908485  0.48908485  1
  Y  Y7  1  0.87444568  0.66489109  0.94465665  1
  Y  Y8  1  0.66489109  0.94465665  0.87444568  1
  Y  Y9  1  0.94465665  0.87444568  0.66489109  1
  Y  Y10  1  0.12459493  0.37502715  0.04338494  1
  Y  Y11  1  0.37502715  0.04338494  0.12459493  1
  Y  Y12  1  0.04338494  0.12459493  0.37502715  1
  O  O13  1  0.89693686  0.89693686  0.89693686  1
  F  F14  1  0.63623857  0.40419962  0.71741366  1
  F  F15  1  0.40419962  0.71741366  0.63623857  1
  F  F16  1  0.71741366  0.63623857  0.40419962  1
  F  F17  1  0.36045805  0.59779627  0.27838747  1
  F  F18  1  0.59779627  0.27838747  0.36045805  1
  F  F19  1  0.27838747  0.36045805  0.59779627  1
  F  F20  1  0.10426026  0.32117493  0.26699183  1
  F  F21  1  0.32117493  0.26699183  0.10426026  1
  F  F22  1  0.26699183  0.10426026  0.32117493  1
  F  F23  1  0.89397259  0.62373321  0.69084453  1
  F  F24  1  0.62373321  0.69084453  0.89397259  1
  F  F25  1  0.69084453  0.89397259  0.62373321  1
  F  F26  1  0.16841057  0.78979480  0.05276517  1
  F  F27  1  0.78979480  0.05276517  0.16841057  1
  F  F28  1  0.05276517  0.16841057  0.78979480  1
  F  F29  1  0.84044530  0.21582796  0.94355445  1
  F  F30  1  0.21582796  0.94355445  0.84044530  1
  F  F31  1  0.94355445  0.84044530  0.21582796  1
  F  F32  1  0.95281033  0.32217730  0.49537710  1
  F  F33  1  0.32217730  0.49537710  0.95281033  1
  F  F34  1  0.49537710  0.95281033  0.32217730  1
  F  F35  1  0.05731651  0.68618539  0.50900424  1
  F  F36  1  0.68618539  0.50900424  0.05731651  1
  F  F37  1  0.50900424  0.05731651  0.68618539  1
  F  F38  1  0.02627591  0.56111407  0.16431494  1
  F  F39  1  0.56111407  0.16431494  0.02627591  1
  F  F40  1  0.16431494  0.02627591  0.56111407  1
  F  F41  1  0.98636282  0.45356328  0.84819561  1
  F  F42  1  0.45356328  0.84819561  0.98636282  1
  F  F43  1  0.84819561  0.98636282  0.45356328  1
