# generated using pymatgen
data_Sr4BiP3O13
_symmetry_space_group_name_H-M   'P 1'
_cell_length_a   7.34793339
_cell_length_b   9.76664247
_cell_length_c   9.89837029
_cell_angle_alpha   60.44119418
_cell_angle_beta   90.00000000
_cell_angle_gamma   90.00000000
_symmetry_Int_Tables_number   1
_chemical_formula_structural   Sr4BiP3O13
_chemical_formula_sum   'Sr8 Bi2 P6 O26'
_cell_volume   617.90040941
_cell_formula_units_Z   2
loop_
 _symmetry_equiv_pos_site_id
 _symmetry_equiv_pos_as_xyz
  1  'x, y, z'
loop_
 _atom_site_type_symbol
 _atom_site_label
 _atom_site_symmetry_multiplicity
 _atom_site_fract_x
 _atom_site_fract_y
 _atom_site_fract_z
 _atom_site_occupancy
  Sr  Sr0  1  0.50119160  0.65834376  0.67274975  1
  Sr  Sr1  1  0.00119160  0.34165624  0.32725025  1
  Sr  Sr2  1  0.49880840  0.34165624  0.32725025  1
  Sr  Sr3  1  0.99880840  0.65834376  0.67274975  1
  Sr  Sr4  1  0.75000000  0.99354394  0.23655756  1
  Sr  Sr5  1  0.75000000  0.76232168  0.98916790  1
  Sr  Sr6  1  0.25000000  0.00645606  0.76344244  1
  Sr  Sr7  1  0.25000000  0.23767832  0.01083210  1
  Bi  Bi8  1  0.75000000  0.22456696  0.76834827  1
  Bi  Bi9  1  0.25000000  0.77543304  0.23165173  1
  P  P10  1  0.75000000  0.03194836  0.59860329  1
  P  P11  1  0.75000000  0.37003587  0.03354933  1
  P  P12  1  0.75000000  0.60415768  0.36809444  1
  P  P13  1  0.25000000  0.96805164  0.40139671  1
  P  P14  1  0.25000000  0.62996413  0.96645067  1
  P  P15  1  0.25000000  0.39584232  0.63190556  1
  O  O16  1  0.75000000  0.11887692  0.41877631  1
  O  O17  1  0.75000000  0.46598673  0.12134694  1
  O  O18  1  0.75000000  0.42092900  0.45428727  1
  O  O19  1  0.25000000  0.88112308  0.58122369  1
  O  O20  1  0.25000000  0.53401327  0.87865306  1
  O  O21  1  0.25000000  0.57907100  0.54571273  1
  O  O22  1  0.58126361  0.08794947  0.65691972  1
  O  O23  1  0.57783169  0.26372498  0.08527005  1
  O  O24  1  0.57890181  0.66330490  0.25974965  1
  O  O25  1  0.08126361  0.91205053  0.34308028  1
  O  O26  1  0.07783169  0.73627502  0.91472995  1
  O  O27  1  0.07890181  0.33669510  0.74025035  1
  O  O28  1  0.41873639  0.91205053  0.34308028  1
  O  O29  1  0.42216831  0.73627502  0.91472995  1
  O  O30  1  0.42109819  0.33669510  0.74025035  1
  O  O31  1  0.91873639  0.08794947  0.65691972  1
  O  O32  1  0.92216831  0.26372498  0.08527005  1
  O  O33  1  0.92109819  0.66330490  0.25974965  1
  O  O34  1  0.75000000  0.85149806  0.66928198  1
  O  O35  1  0.75000000  0.48344763  0.85456371  1
  O  O36  1  0.75000000  0.66973686  0.48264333  1
  O  O37  1  0.25000000  0.14850194  0.33071802  1
  O  O38  1  0.25000000  0.51655237  0.14543629  1
  O  O39  1  0.25000000  0.33026314  0.51735667  1
  O  O40  1  0.75000000  0.01833323  0.97806888  1
  O  O41  1  0.25000000  0.98166677  0.02193112  1
