# generated using pymatgen
data_SmAlZn
_symmetry_space_group_name_H-M   'P 1'
_cell_length_a   4.56206799
_cell_length_b   5.73995185
_cell_length_c   5.85032570
_cell_angle_alpha   96.90234734
_cell_angle_beta   112.94818647
_cell_angle_gamma   66.58451417
_symmetry_Int_Tables_number   1
_chemical_formula_structural   SmAlZn
_chemical_formula_sum   'Sm2 Al2 Zn2'
_cell_volume   129.34525886
_cell_formula_units_Z   2
loop_
 _symmetry_equiv_pos_site_id
 _symmetry_equiv_pos_as_xyz
  1  'x, y, z'
loop_
 _atom_site_type_symbol
 _atom_site_label
 _atom_site_symmetry_multiplicity
 _atom_site_fract_x
 _atom_site_fract_y
 _atom_site_fract_z
 _atom_site_occupancy
  Sm  Sm0  1  0.74688031  0.71831662  0.21207724  1
  Sm  Sm1  1  0.25311969  0.28168338  0.78792276  1
  Al  Al2  1  0.55198646  0.28458733  0.38856025  1
  Al  Al3  1  0.44801354  0.71541267  0.61143975  1
  Zn  Zn4  1  0.05220306  0.11102236  0.21542847  1
  Zn  Zn5  1  0.94779694  0.88897764  0.78457153  1
