# generated using pymatgen
data_Sr4FeRuO8
_symmetry_space_group_name_H-M   'P 1'
_cell_length_a   5.59802132
_cell_length_b   5.59753508
_cell_length_c   6.92998523
_cell_angle_alpha   90.00000000
_cell_angle_beta   66.17787294
_cell_angle_gamma   90.00000000
_symmetry_Int_Tables_number   1
_chemical_formula_structural   Sr4FeRuO8
_chemical_formula_sum   'Sr4 Fe1 Ru1 O8'
_cell_volume   198.65139526
_cell_formula_units_Z   1
loop_
 _symmetry_equiv_pos_site_id
 _symmetry_equiv_pos_as_xyz
  1  'x, y, z'
loop_
 _atom_site_type_symbol
 _atom_site_label
 _atom_site_symmetry_multiplicity
 _atom_site_fract_x
 _atom_site_fract_y
 _atom_site_fract_z
 _atom_site_occupancy
  Sr  Sr0  1  0.35428051  0.00000000  0.29143897  1
  Sr  Sr1  1  0.85549453  0.50000000  0.28901095  1
  Sr  Sr2  1  0.14450547  0.50000000  0.71098905  1
  Sr  Sr3  1  0.64571949  0.00000000  0.70856103  1
  Fe  Fe4  1  -0.00000000  0.00000000  -0.00000000  1
  Ru  Ru5  1  0.50000000  0.50000000  -0.00000000  1
  O  O6  1  0.25239570  0.74660340  0.00000000  1
  O  O7  1  0.74760430  0.25339660  1.00000000  1
  O  O8  1  0.74760430  0.74660340  1.00000000  1
  O  O9  1  0.25239570  0.25339660  0.00000000  1
  O  O10  1  0.16133387  0.00000000  0.67733226  1
  O  O11  1  0.66003974  0.50000000  0.67992052  1
  O  O12  1  0.33996026  0.50000000  0.32007948  1
  O  O13  1  0.83866613  0.00000000  0.32266774  1
