# generated using pymatgen
data_V3P6H14(NO8)3
_symmetry_space_group_name_H-M   'P 1'
_cell_length_a   7.36115347
_cell_length_b   8.96202878
_cell_length_c   9.53148891
_cell_angle_alpha   64.73643436
_cell_angle_beta   70.84763163
_cell_angle_gamma   68.68095065
_symmetry_Int_Tables_number   1
_chemical_formula_structural   V3P6H14(NO8)3
_chemical_formula_sum   'V3 P6 H14 N3 O24'
_cell_volume   518.46646317
_cell_formula_units_Z   1
loop_
 _symmetry_equiv_pos_site_id
 _symmetry_equiv_pos_as_xyz
  1  'x, y, z'
loop_
 _atom_site_type_symbol
 _atom_site_label
 _atom_site_symmetry_multiplicity
 _atom_site_fract_x
 _atom_site_fract_y
 _atom_site_fract_z
 _atom_site_occupancy
  V  V0  1  -0.00000000  0.50000000  0.50000000  1
  V  V1  1  0.80051205  0.28214861  0.05220373  1
  V  V2  1  0.19948795  0.71785139  0.94779627  1
  P  P3  1  0.54990093  0.44882206  0.77819270  1
  P  P4  1  0.45009907  0.55117794  0.22180730  1
  P  P5  1  0.08026515  0.12213797  0.76605501  1
  P  P6  1  0.91973485  0.87786203  0.23394499  1
  P  P7  1  0.91022191  0.65554861  0.78068462  1
  P  P8  1  0.08977809  0.34445139  0.21931538  1
  H  H9  1  0.28233911  0.45065109  0.71401024  1
  H  H10  1  0.71766089  0.54934891  0.28598976  1
  H  H11  1  0.91569590  0.96532497  0.76881198  1
  H  H12  1  0.08430410  0.03467503  0.23118802  1
  H  H13  1  0.60371692  0.74816954  0.75140965  1
  H  H14  1  0.39628308  0.25183046  0.24859035  1
  H  H15  1  0.69651113  0.21666638  0.56439646  1
  H  H16  1  0.30348887  0.78333362  0.43560354  1
  H  H17  1  0.64671627  0.19482012  0.41433608  1
  H  H18  1  0.35328373  0.80517988  0.58566392  1
  H  H19  1  0.63780195  0.03874876  0.59874121  1
  H  H20  1  0.36219805  0.96125124  0.40125879  1
  H  H21  1  0.46147185  0.22795066  0.56604216  1
  H  H22  1  0.53852815  0.77204934  0.43395784  1
  N  N23  1  0.50000000  0.00000000  -0.00000000  1
  N  N24  1  0.61111007  0.16879291  0.53541022  1
  N  N25  1  0.38888993  0.83120709  0.46458978  1
  O  O26  1  0.60581709  0.31896186  0.93616944  1
  O  O27  1  0.39418291  0.68103814  0.06383056  1
  O  O28  1  0.41212068  0.37402012  0.74216667  1
  O  O29  1  0.58787932  0.62597988  0.25783333  1
  O  O30  1  0.42829587  0.62916691  0.78942891  1
  O  O31  1  0.57170413  0.37083309  0.21057109  1
  O  O32  1  0.72812696  0.46954662  0.64048930  1
  O  O33  1  0.27187304  0.53045338  0.35951070  1
  O  O34  1  0.00946090  0.18351520  0.90887050  1
  O  O35  1  0.99053910  0.81648480  0.09112950  1
  O  O36  1  0.15583660  0.26092094  0.61584961  1
  O  O37  1  0.84416340  0.73907906  0.38415039  1
  O  O38  1  0.24296977  0.95209069  0.79903444  1
  O  O39  1  0.75703023  0.04790931  0.20096556  1
  O  O40  1  0.89895216  0.09190186  0.73457524  1
  O  O41  1  0.10104784  0.90809814  0.26542476  1
  O  O42  1  0.05445989  0.58394312  0.64976940  1
  O  O43  1  0.94554011  0.41605688  0.35023060  1
  O  O44  1  0.01239312  0.76045375  0.80924402  1
  O  O45  1  0.98760688  0.23954625  0.19075598  1
  O  O46  1  0.83780890  0.51861514  0.92950694  1
  O  O47  1  0.16219110  0.48138486  0.07049306  1
  O  O48  1  0.72035954  0.79718938  0.71354276  1
  O  O49  1  0.27964046  0.20281062  0.28645724  1
