# generated using pymatgen
data_SmMg3Ni8
_symmetry_space_group_name_H-M   'P 1'
_cell_length_a   4.91253291
_cell_length_b   4.91253291
_cell_length_c   8.48400871
_cell_angle_alpha   73.17094626
_cell_angle_beta   90.00000000
_cell_angle_gamma   120.00000000
_symmetry_Int_Tables_number   1
_chemical_formula_structural   SmMg3Ni8
_chemical_formula_sum   'Sm1 Mg3 Ni8'
_cell_volume   167.11205405
_cell_formula_units_Z   1
loop_
 _symmetry_equiv_pos_site_id
 _symmetry_equiv_pos_as_xyz
  1  'x, y, z'
loop_
 _atom_site_type_symbol
 _atom_site_label
 _atom_site_symmetry_multiplicity
 _atom_site_fract_x
 _atom_site_fract_y
 _atom_site_fract_z
 _atom_site_occupancy
  Sm  Sm0  1  0.99965705  0.99931411  0.00102884  1
  Mg  Mg1  1  0.50056763  0.00113525  0.49829712  1
  Mg  Mg2  1  0.87080638  0.74161275  0.38758087  1
  Mg  Mg3  1  0.38033588  0.76067177  0.85899235  1
  Ni  Ni4  1  0.43561242  0.36944872  0.19493886  1
  Ni  Ni5  1  0.93724755  0.38095754  0.68179492  1
  Ni  Ni6  1  0.43561242  0.87122483  0.19493886  1
  Ni  Ni7  1  0.93724755  0.87449509  0.68179492  1
  Ni  Ni8  1  0.18733891  0.37467782  0.43798326  1
  Ni  Ni9  1  0.68802793  0.37605585  0.93591622  1
  Ni  Ni10  1  0.93383631  0.36944872  0.19493886  1
  Ni  Ni11  1  0.44370999  0.38095754  0.68179492  1
