# generated using pymatgen
data_Sr6Al7ClO16
_symmetry_space_group_name_H-M   'P 1'
_cell_length_a   10.80023766
_cell_length_b   10.80023766
_cell_length_c   10.80023766
_cell_angle_alpha   70.49488568
_cell_angle_beta   70.59654549
_cell_angle_gamma   109.50511432
_symmetry_Int_Tables_number   1
_chemical_formula_structural   Sr6Al7ClO16
_chemical_formula_sum   'Sr12 Al14 Cl2 O32'
_cell_volume   969.78975196
_cell_formula_units_Z   2
loop_
 _symmetry_equiv_pos_site_id
 _symmetry_equiv_pos_as_xyz
  1  'x, y, z'
loop_
 _atom_site_type_symbol
 _atom_site_label
 _atom_site_symmetry_multiplicity
 _atom_site_fract_x
 _atom_site_fract_y
 _atom_site_fract_z
 _atom_site_occupancy
  Sr  Sr0  1  0.60458360  0.25000000  0.14541640  1
  Sr  Sr1  1  0.89541640  0.75000000  0.35458360  1
  Sr  Sr2  1  0.35458360  0.75000000  0.89541640  1
  Sr  Sr3  1  0.14541640  0.25000000  0.60458360  1
  Sr  Sr4  1  0.64030820  0.39030820  0.75000000  1
  Sr  Sr5  1  0.85969180  0.10969180  0.25000000  1
  Sr  Sr6  1  0.38677186  0.63677186  0.25000000  1
  Sr  Sr7  1  0.11322814  0.86322814  0.75000000  1
  Sr  Sr8  1  0.75000000  0.36322814  0.38677186  1
  Sr  Sr9  1  0.25000000  0.13677186  0.11322814  1
  Sr  Sr10  1  0.25000000  0.60969180  0.64030820  1
  Sr  Sr11  1  0.75000000  0.89030820  0.85969180  1
  Al  Al12  1  0.87500000  0.25000000  0.87500000  1
  Al  Al13  1  0.62500000  0.75000000  0.62500000  1
  Al  Al14  1  0.37627535  0.12627535  0.75000000  1
  Al  Al15  1  0.12372465  0.37372465  0.25000000  1
  Al  Al16  1  0.75000000  0.62627535  0.12372465  1
  Al  Al17  1  0.25000000  0.87372465  0.37627535  1
  Al  Al18  1  0.96792980  0.46823583  0.03175901  1
  Al  Al19  1  0.50000516  0.03176417  0.00030603  1
  Al  Al20  1  0.53207020  0.50031119  0.49969397  1
  Al  Al21  1  -0.00000516  0.99968881  0.46824099  1
  Al  Al22  1  0.49969397  0.53176417  -0.00000516  1
  Al  Al23  1  0.46824099  0.96823583  0.53207020  1
  Al  Al24  1  0.03175901  0.49968881  0.50000516  1
  Al  Al25  1  0.00030603  0.00031119  0.96792980  1
  Cl  Cl26  1  0.37500000  0.25000000  0.37500000  1
  Cl  Cl27  1  0.12500000  0.75000000  0.12500000  1
  O  O28  1  0.81569487  0.89757784  0.49238520  1
  O  O29  1  0.61003697  0.60242216  0.58188297  1
  O  O30  1  0.68430513  0.19191993  0.91811703  1
  O  O31  1  0.88996303  0.30808007  0.00761480  1
  O  O32  1  0.91811703  0.10242216  0.88996303  1
  O  O33  1  0.00761480  0.39757784  0.68430513  1
  O  O34  1  0.49238520  0.80808007  0.61003697  1
  O  O35  1  0.58188297  0.69191993  0.81569487  1
  O  O36  1  0.07632329  0.18156407  0.30802642  1
  O  O37  1  0.98959049  0.38434971  0.19197358  1
  O  O38  1  0.51040951  0.31843593  0.60524078  1
  O  O39  1  0.42367671  0.11565029  0.89475922  1
  O  O40  1  0.18532087  0.08367050  0.80868901  1
  O  O41  1  0.39235951  0.99400988  0.69131099  1
  O  O42  1  0.31467913  0.50599012  0.10165037  1
  O  O43  1  0.10764049  0.41632950  0.39834963  1
  O  O44  1  0.10165037  0.91632950  0.39235951  1
  O  O45  1  0.39834963  0.00599012  0.18532087  1
  O  O46  1  0.80868901  0.49400988  0.10764049  1
  O  O47  1  0.69131099  0.58367050  0.31467913  1
  O  O48  1  0.89475922  0.81843593  0.98959049  1
  O  O49  1  0.60524078  0.61565029  0.07632329  1
  O  O50  1  0.19197358  0.68156407  0.42367671  1
  O  O51  1  0.30802642  0.88434971  0.51040951  1
  O  O52  1  0.63361421  0.12622995  0.37226722  1
  O  O53  1  0.50150283  0.37377005  0.99261574  1
  O  O54  1  0.86638579  0.49411857  0.50738426  1
  O  O55  1  0.99849717  0.00588143  0.12773278  1
  O  O56  1  0.50738426  0.87377005  0.99849717  1
  O  O57  1  0.12773278  0.62622995  0.86638579  1
  O  O58  1  0.37226722  0.50588143  0.50150283  1
  O  O59  1  0.99261574  0.99411857  0.63361421  1
