# generated using pymatgen
data_H3CSe
_symmetry_space_group_name_H-M   'P 1'
_cell_length_a   5.68439607
_cell_length_b   10.06453121
_cell_length_c   12.44799380
_cell_angle_alpha   86.30308341
_cell_angle_beta   76.80147790
_cell_angle_gamma   73.59665776
_symmetry_Int_Tables_number   1
_chemical_formula_structural   H3CSe
_chemical_formula_sum   'H24 C8 Se8'
_cell_volume   665.12663631
_cell_formula_units_Z   8
loop_
 _symmetry_equiv_pos_site_id
 _symmetry_equiv_pos_as_xyz
  1  'x, y, z'
loop_
 _atom_site_type_symbol
 _atom_site_label
 _atom_site_symmetry_multiplicity
 _atom_site_fract_x
 _atom_site_fract_y
 _atom_site_fract_z
 _atom_site_occupancy
  H  H0  1  0.95756215  0.99557116  0.24065614  1
  H  H1  1  0.19378944  0.00442884  0.75934386  1
  H  H2  1  0.44821829  0.49557116  0.25934386  1
  H  H3  1  0.20313330  0.50442884  0.74065614  1
  H  H4  1  0.66735406  0.11914376  0.22286470  1
  H  H5  1  0.00936252  0.88085624  0.77713530  1
  H  H6  1  0.14021876  0.61914376  0.27713530  1
  H  H7  1  0.03649782  0.38085624  0.72286470  1
  H  H8  1  0.92984299  0.07103917  0.10797180  1
  H  H9  1  0.10885396  0.92896083  0.89202820  1
  H  H10  1  0.28781480  0.57103917  0.39202820  1
  H  H11  1  0.25088216  0.42896083  0.60797180  1
  H  H12  1  0.18194231  0.03850837  0.44698624  1
  H  H13  1  0.66743692  0.96149163  0.55301376  1
  H  H14  1  0.87892855  0.53850837  0.05301376  1
  H  H15  1  0.47045069  0.46149163  0.94698624  1
  H  H16  1  0.35325818  0.16756026  0.43354841  1
  H  H17  1  0.95436685  0.83243974  0.56645159  1
  H  H18  1  0.03680660  0.66756026  0.06645159  1
  H  H19  1  0.77081844  0.33243974  0.93354841  1
  H  H20  1  0.11809857  0.16082667  0.55608242  1
  H  H21  1  0.83500766  0.83917333  0.44391758  1
  H  H22  1  0.92418099  0.66082667  0.94391758  1
  H  H23  1  0.52892524  0.33917333  0.05608242  1
  C  C24  1  0.87241411  0.08905388  0.19759598  1
  C  C25  1  0.15906397  0.91094612  0.80240402  1
  C  C26  1  0.32001009  0.58905388  0.30240402  1
  C  C27  1  0.21146799  0.41094612  0.69759598  1
  C  C28  1  0.17297056  0.14476381  0.46625137  1
  C  C29  1  0.78398573  0.85523619  0.53374863  1
  C  C30  1  0.88922193  0.64476381  0.03374863  1
  C  C31  1  0.56773437  0.35523619  0.96625137  1
  Se  Se32  1  0.01067836  0.24213957  0.21956402  1
  Se  Se33  1  0.47238195  0.75786043  0.78043598  1
  Se  Se34  1  0.48024238  0.74213957  0.28043598  1
  Se  Se35  1  0.50281792  0.25786043  0.71956402  1
  Se  Se36  1  0.90013313  0.27901101  0.41055243  1
  Se  Se37  1  0.58969657  0.72098899  0.58944757  1
  Se  Se38  1  0.56068556  0.77901101  0.08944757  1
  Se  Se39  1  0.42914414  0.22098899  0.91055243  1
