# generated using pymatgen
data_RbNaCd3O4
_symmetry_space_group_name_H-M   'P 1'
_cell_length_a   3.74801645
_cell_length_b   6.85035975
_cell_length_c   6.82606551
_cell_angle_alpha   94.70221543
_cell_angle_beta   105.93443017
_cell_angle_gamma   74.12357506
_symmetry_Int_Tables_number   1
_chemical_formula_structural   RbNaCd3O4
_chemical_formula_sum   'Rb1 Na1 Cd3 O4'
_cell_volume   162.09376286
_cell_formula_units_Z   1
loop_
 _symmetry_equiv_pos_site_id
 _symmetry_equiv_pos_as_xyz
  1  'x, y, z'
loop_
 _atom_site_type_symbol
 _atom_site_label
 _atom_site_symmetry_multiplicity
 _atom_site_fract_x
 _atom_site_fract_y
 _atom_site_fract_z
 _atom_site_occupancy
  Rb  Rb0  1  0.99866442  0.99911643  0.99644527  1
  Na  Na1  1  0.17984499  0.45017422  0.80986420  1
  Cd  Cd2  1  0.80788270  0.55499987  0.17076527  1
  Cd  Cd3  1  0.37714615  0.80583810  0.56013039  1
  Cd  Cd4  1  0.63085825  0.19163521  0.45335170  1
  O  O5  1  0.23842768  0.15191705  0.62877242  1
  O  O6  1  0.76613012  0.83317644  0.36543668  1
  O  O7  1  0.59818839  0.64677784  0.84315461  1
  O  O8  1  0.40285730  0.36636485  0.17207945  1
