# generated using pymatgen
data_Rb5Sb4
_symmetry_space_group_name_H-M   'P 1'
_cell_length_a   5.78554333
_cell_length_b   7.16049675
_cell_length_c   11.40396586
_cell_angle_alpha   86.57575586
_cell_angle_beta   75.30558260
_cell_angle_gamma   113.82787773
_symmetry_Int_Tables_number   1
_chemical_formula_structural   Rb5Sb4
_chemical_formula_sum   'Rb5 Sb4'
_cell_volume   410.94817527
_cell_formula_units_Z   1
loop_
 _symmetry_equiv_pos_site_id
 _symmetry_equiv_pos_as_xyz
  1  'x, y, z'
loop_
 _atom_site_type_symbol
 _atom_site_label
 _atom_site_symmetry_multiplicity
 _atom_site_fract_x
 _atom_site_fract_y
 _atom_site_fract_z
 _atom_site_occupancy
  Rb  Rb0  1  0.58383022  0.83360240  0.66594196  1
  Rb  Rb1  1  0.40783033  0.14777385  0.33211319  1
  Rb  Rb2  1  0.70930811  0.31414913  0.89553291  1
  Rb  Rb3  1  0.29488958  0.69016915  0.10038999  1
  Rb  Rb4  1  0.98837554  0.46029685  0.48354577  1
  Sb  Sb5  1  0.27502759  0.23296560  0.68291042  1
  Sb  Sb6  1  0.72538601  0.76948472  0.31871269  1
  Sb  Sb7  1  0.00926203  0.90894779  0.89042373  1
  Sb  Sb8  1  0.99189058  0.09311050  0.10932933  1
