# generated using pymatgen
data_Sm(GaFe)6
_symmetry_space_group_name_H-M   'P 1'
_cell_length_a   5.04576241
_cell_length_b   6.61647362
_cell_length_c   6.61647362
_cell_angle_alpha   97.79932647
_cell_angle_beta   112.41442070
_cell_angle_gamma   67.58557930
_symmetry_Int_Tables_number   1
_chemical_formula_structural   Sm(GaFe)6
_chemical_formula_sum   'Sm1 Ga6 Fe6'
_cell_volume   188.76392601
_cell_formula_units_Z   1
loop_
 _symmetry_equiv_pos_site_id
 _symmetry_equiv_pos_as_xyz
  1  'x, y, z'
loop_
 _atom_site_type_symbol
 _atom_site_label
 _atom_site_symmetry_multiplicity
 _atom_site_fract_x
 _atom_site_fract_y
 _atom_site_fract_z
 _atom_site_occupancy
  Sm  Sm0  1  -0.00000000  -0.00000000  -0.00000000  1
  Ga  Ga1  1  0.66788224  0.33211776  0.66788224  1
  Ga  Ga2  1  0.33211776  0.66788224  0.33211776  1
  Ga  Ga3  1  -0.00000000  0.34546690  0.34546690  1
  Ga  Ga4  1  -0.00000000  0.65453310  0.65453310  1
  Ga  Ga5  1  0.50000000  0.81168816  0.81168816  1
  Ga  Ga6  1  0.50000000  0.18831184  0.18831184  1
  Fe  Fe7  1  0.50000000  -0.00000000  0.50000000  1
  Fe  Fe8  1  -0.00000000  -0.00000000  0.50000000  1
  Fe  Fe9  1  0.50000000  0.50000000  -0.00000000  1
  Fe  Fe10  1  -0.00000000  0.50000000  -0.00000000  1
  Fe  Fe11  1  0.74320527  0.75679473  0.24320527  1
  Fe  Fe12  1  0.25679473  0.24320527  0.75679473  1
