# generated using pymatgen
data_ScSb3Pb4O13
_symmetry_space_group_name_H-M   'P 1'
_cell_length_a   7.57931188
_cell_length_b   7.57812302
_cell_length_c   7.57931188
_cell_angle_alpha   90.00000000
_cell_angle_beta   60.00000000
_cell_angle_gamma   120.00518974
_symmetry_Int_Tables_number   1
_chemical_formula_structural   ScSb3Pb4O13
_chemical_formula_sum   'Sc1 Sb3 Pb4 O13'
_cell_volume   307.80249659
_cell_formula_units_Z   1
loop_
 _symmetry_equiv_pos_site_id
 _symmetry_equiv_pos_as_xyz
  1  'x, y, z'
loop_
 _atom_site_type_symbol
 _atom_site_label
 _atom_site_symmetry_multiplicity
 _atom_site_fract_x
 _atom_site_fract_y
 _atom_site_fract_z
 _atom_site_occupancy
  Sc  Sc0  1  0.50097489  0.00146234  0.49951255  1
  Sb  Sb1  1  0.50099232  0.50025274  0.49950384  1
  Sb  Sb2  1  0.99975658  0.50025274  0.00073957  1
  Sb  Sb3  1  0.99975658  0.50025274  0.49950384  1
  Pb  Pb4  1  0.50134355  0.50201532  0.99932823  1
  Pb  Pb5  1  0.50101215  0.99865312  0.99949393  1
  Pb  Pb6  1  0.99814705  0.99865312  0.50235902  1
  Pb  Pb7  1  0.99814705  0.99865312  0.99949393  1
  O  O8  1  0.64882960  0.81299044  0.42558520  1
  O  O9  1  0.85637835  0.43194594  0.82181082  1
  O  O10  1  0.23857564  0.81299044  0.83583916  1
  O  O11  1  0.25375676  0.43194594  0.42443241  1
  O  O12  1  0.25375676  0.43194594  0.82181082  1
  O  O13  1  0.23857564  0.81299044  0.42558520  1
  O  O14  1  0.35602230  0.18842122  0.57198885  1
  O  O15  1  0.13955487  0.56561025  0.18022256  1
  O  O16  1  0.76041007  0.18842122  0.16760108  1
  O  O17  1  0.74583282  0.56561025  0.57394462  1
  O  O18  1  0.74583282  0.56561025  0.18022256  1
  O  O19  1  0.76041007  0.18842122  0.57198885  1
  O  O20  1  0.25193413  0.12790120  0.12403293  1
