# generated using pymatgen
data_Sc2CO
_symmetry_space_group_name_H-M   'P 1'
_cell_length_a   3.25132747
_cell_length_b   3.25132747
_cell_length_c   5.62741779
_cell_angle_alpha   73.20892235
_cell_angle_beta   90.00000000
_cell_angle_gamma   120.00000000
_symmetry_Int_Tables_number   1
_chemical_formula_structural   Sc2CO
_chemical_formula_sum   'Sc2 C1 O1'
_cell_volume   48.56751710
_cell_formula_units_Z   1
loop_
 _symmetry_equiv_pos_site_id
 _symmetry_equiv_pos_as_xyz
  1  'x, y, z'
loop_
 _atom_site_type_symbol
 _atom_site_label
 _atom_site_symmetry_multiplicity
 _atom_site_fract_x
 _atom_site_fract_y
 _atom_site_fract_z
 _atom_site_occupancy
  Sc  Sc0  1  0.99633029  0.99266058  0.01100913  1
  Sc  Sc1  1  0.50366971  0.00733942  0.48899087  1
  C  C2  1  0.25000000  0.50000000  0.25000000  1
  O  O3  1  0.75000000  0.50000000  0.75000000  1
