# generated using pymatgen
data_RbSbWO6
_symmetry_space_group_name_H-M   'P 1'
_cell_length_a   7.38701768
_cell_length_b   7.41651285
_cell_length_c   7.30350596
_cell_angle_alpha   90.00000000
_cell_angle_beta   60.37327369
_cell_angle_gamma   120.13217016
_symmetry_Int_Tables_number   1
_chemical_formula_structural   RbSbWO6
_chemical_formula_sum   'Rb2 Sb2 W2 O12'
_cell_volume   283.95653612
_cell_formula_units_Z   2
loop_
 _symmetry_equiv_pos_site_id
 _symmetry_equiv_pos_as_xyz
  1  'x, y, z'
loop_
 _atom_site_type_symbol
 _atom_site_label
 _atom_site_symmetry_multiplicity
 _atom_site_fract_x
 _atom_site_fract_y
 _atom_site_fract_z
 _atom_site_occupancy
  Rb  Rb0  1  0.71576328  0.32281125  0.39211836  1
  Rb  Rb1  1  0.28423672  0.60704797  0.60788164  1
  Sb  Sb2  1  0.00000000  0.99886689  0.50000000  1
  Sb  Sb3  1  -0.00000000  0.99886689  0.00000000  1
  W  W4  1  0.50114497  0.49829896  0.99942752  1
  W  W5  1  0.49885503  0.99715399  0.00057248  1
  O  O6  1  0.85122135  0.92746159  0.32438933  1
  O  O7  1  0.61809323  0.30842717  0.94095338  1
  O  O8  1  0.25571865  0.93545046  0.93235437  1
  O  O9  1  0.25380791  0.31893560  0.31184559  1
  O  O10  1  0.25380791  0.31893560  0.93434650  1
  O  O11  1  0.25571865  0.93545046  0.31192698  1
  O  O12  1  0.14877865  0.07624025  0.67561067  1
  O  O13  1  0.38190677  0.69033394  0.05904662  1
  O  O14  1  0.74619209  0.06512769  0.06565350  1
  O  O15  1  0.74428135  0.67973181  0.68807302  1
  O  O16  1  0.74428135  0.67973181  0.06764563  1
  O  O17  1  0.74619209  0.06512769  0.68815441  1
