# generated using pymatgen
data_ScGaNi
_symmetry_space_group_name_H-M   'P 1'
_cell_length_a   4.12841942
_cell_length_b   5.10865547
_cell_length_c   5.44287775
_cell_angle_alpha   91.32722103
_cell_angle_beta   112.28721936
_cell_angle_gamma   66.16768222
_symmetry_Int_Tables_number   1
_chemical_formula_structural   ScGaNi
_chemical_formula_sum   'Sc2 Ga2 Ni2'
_cell_volume   96.00689503
_cell_formula_units_Z   2
loop_
 _symmetry_equiv_pos_site_id
 _symmetry_equiv_pos_as_xyz
  1  'x, y, z'
loop_
 _atom_site_type_symbol
 _atom_site_label
 _atom_site_symmetry_multiplicity
 _atom_site_fract_x
 _atom_site_fract_y
 _atom_site_fract_z
 _atom_site_occupancy
  Sc  Sc0  1  0.74611453  0.70098782  0.19321688  1
  Sc  Sc1  1  0.25388547  0.29901218  0.80678312  1
  Ga  Ga2  1  0.56621740  0.26026865  0.39270344  1
  Ga  Ga3  1  0.43378260  0.73973135  0.60729656  1
  Ni  Ni4  1  0.03477404  0.12449926  0.19404734  1
  Ni  Ni5  1  0.96522596  0.87550074  0.80595266  1
