# generated using pymatgen
data_RbCoNiF6
_symmetry_space_group_name_H-M   'P 1'
_cell_length_a   7.28835665
_cell_length_b   7.30176001
_cell_length_c   7.37557619
_cell_angle_alpha   90.00000000
_cell_angle_beta   59.60333995
_cell_angle_gamma   120.06085264
_symmetry_Int_Tables_number   1
_chemical_formula_structural   RbCoNiF6
_chemical_formula_sum   'Rb2 Co2 Ni2 F12'
_cell_volume   275.61520349
_cell_formula_units_Z   2
loop_
 _symmetry_equiv_pos_site_id
 _symmetry_equiv_pos_as_xyz
  1  'x, y, z'
loop_
 _atom_site_type_symbol
 _atom_site_label
 _atom_site_symmetry_multiplicity
 _atom_site_fract_x
 _atom_site_fract_y
 _atom_site_fract_z
 _atom_site_occupancy
  Rb  Rb0  1  0.75921033  0.37960517  0.37039483  1
  Rb  Rb1  1  0.24078967  0.62039483  0.62960517  1
  Co  Co2  1  0.00000000  -0.00000000  0.50000000  1
  Co  Co3  1  -0.00000000  -0.00000000  0.00000000  1
  Ni  Ni4  1  0.50000000  0.50000000  0.00000000  1
  Ni  Ni5  1  0.50000000  -0.00000000  0.00000000  1
  F  F6  1  0.86117800  0.93058900  0.31941100  1
  F  F7  1  0.66123283  0.33061642  0.91938358  1
  F  F8  1  0.24414920  0.93150043  0.92427699  1
  F  F9  1  0.24414920  0.31264878  0.33157381  1
  F  F10  1  0.24414920  0.31264878  0.92427699  1
  F  F11  1  0.24414920  0.93150043  0.33157381  1
  F  F12  1  0.13882200  0.06941100  0.68058900  1
  F  F13  1  0.33876717  0.66938358  0.08061642  1
  F  F14  1  0.75585080  0.06849957  0.07572301  1
  F  F15  1  0.75585080  0.68735122  0.66842619  1
  F  F16  1  0.75585080  0.68735122  0.07572301  1
  F  F17  1  0.75585080  0.06849957  0.66842619  1
