# generated using pymatgen
data_Pr6Cd(SiS7)2
_symmetry_space_group_name_H-M   'P 1'
_cell_length_a   5.74502609
_cell_length_b   10.35339473
_cell_length_c   10.35357097
_cell_angle_alpha   120.00162261
_cell_angle_beta   89.99950942
_cell_angle_gamma   90.00040289
_symmetry_Int_Tables_number   1
_chemical_formula_structural   Pr6Cd(SiS7)2
_chemical_formula_sum   'Pr6 Cd1 Si2 S14'
_cell_volume   533.32073932
_cell_formula_units_Z   1
loop_
 _symmetry_equiv_pos_site_id
 _symmetry_equiv_pos_as_xyz
  1  'x, y, z'
loop_
 _atom_site_type_symbol
 _atom_site_label
 _atom_site_symmetry_multiplicity
 _atom_site_fract_x
 _atom_site_fract_y
 _atom_site_fract_z
 _atom_site_occupancy
  Pr  Pr0  1  0.24920964  0.23528352  0.35804634  1
  Pr  Pr1  1  0.24921210  0.64196893  0.87724983  1
  Pr  Pr2  1  0.24920946  0.12275915  0.76471050  1
  Pr  Pr3  1  0.75100190  0.76474098  0.64199459  1
  Pr  Pr4  1  0.75099516  0.35798854  0.12273282  1
  Pr  Pr5  1  0.75100709  0.87725582  0.23526228  1
  Cd  Cd6  1  0.49075507  0.00000049  0.00000015  1
  Si  Si7  1  0.83519574  0.33332530  0.66666347  1
  Si  Si8  1  0.33766202  0.66667619  0.33333705  1
  S  S9  1  0.46782927  0.33336478  0.66668221  1
  S  S10  1  0.96929013  0.66664080  0.33332097  1
  S  S11  1  0.73418209  0.16770676  0.25456171  1
  S  S12  1  0.73418401  0.74544032  0.91315131  1
  S  S13  1  0.73418614  0.08684709  0.83228336  1
  S  S14  1  0.24360027  0.83047232  0.74547521  1
  S  S15  1  0.24360225  0.25452077  0.08499191  1
  S  S16  1  0.24360273  0.91500540  0.16953480  1
  S  S17  1  0.97947550  0.11577867  0.52387939  1
  S  S18  1  0.97951391  0.47615774  0.59188340  1
  S  S19  1  0.97950424  0.40812371  0.88426705  1
  S  S20  1  0.48091081  0.88431692  0.47599947  1
  S  S21  1  0.48093688  0.52396476  0.40833362  1
  S  S22  1  0.48093358  0.59166105  0.11563854  1
