# generated using pymatgen
data_Rb2Ti(WO4)3
_symmetry_space_group_name_H-M   'P 1'
_cell_length_a   7.38689454
_cell_length_b   7.38973370
_cell_length_c   7.32355441
_cell_angle_alpha   90.00000000
_cell_angle_beta   59.70096560
_cell_angle_gamma   120.01271506
_symmetry_Int_Tables_number   1
_chemical_formula_structural   Rb2Ti(WO4)3
_chemical_formula_sum   'Rb2 Ti1 W3 O12'
_cell_volume   281.34261247
_cell_formula_units_Z   1
loop_
 _symmetry_equiv_pos_site_id
 _symmetry_equiv_pos_as_xyz
  1  'x, y, z'
loop_
 _atom_site_type_symbol
 _atom_site_label
 _atom_site_symmetry_multiplicity
 _atom_site_fract_x
 _atom_site_fract_y
 _atom_site_fract_z
 _atom_site_occupancy
  Rb  Rb0  1  0.28420514  0.17777239  0.10631374  1
  Rb  Rb1  1  0.71579486  0.89356725  0.89368626  1
  Ti  Ti2  1  0.00000000  0.50139067  -0.00000000  1
  W  W3  1  0.49948980  0.00155786  0.50059413  1
  W  W4  1  0.50051020  0.50206807  0.49940587  1
  W  W5  1  0.00000000  0.50188764  0.50000000  1
  O  O6  1  0.62539913  0.81311902  0.43552325  1
  O  O7  1  0.87802838  0.43774927  0.80753179  1
  O  O8  1  0.25469639  0.81398832  0.80748711  1
  O  O9  1  0.25153953  0.43926291  0.43554097  1
  O  O10  1  0.25353098  0.43967708  0.80722224  1
  O  O11  1  0.25293231  0.81314483  0.43409073  1
  O  O12  1  0.37460087  0.18771989  0.56447675  1
  O  O13  1  0.12197162  0.55972089  0.19246821  1
  O  O14  1  0.74646902  0.18614610  0.19277776  1
  O  O15  1  0.74706769  0.56021251  0.56590927  1
  O  O16  1  0.74530361  0.55929193  0.19251289  1
  O  O17  1  0.74846047  0.18772337  0.56445903  1
