# generated using pymatgen
data_RbLiMn(BH4)4
_symmetry_space_group_name_H-M   'P 1'
_cell_length_a   7.95245886
_cell_length_b   7.95245886
_cell_length_c   8.18088173
_cell_angle_alpha   90.00000000
_cell_angle_beta   90.00000000
_cell_angle_gamma   103.55429298
_symmetry_Int_Tables_number   1
_chemical_formula_structural   RbLiMn(BH4)4
_chemical_formula_sum   'Rb2 Li2 Mn2 B8 H32'
_cell_volume   502.96236004
_cell_formula_units_Z   2
loop_
 _symmetry_equiv_pos_site_id
 _symmetry_equiv_pos_as_xyz
  1  'x, y, z'
loop_
 _atom_site_type_symbol
 _atom_site_label
 _atom_site_symmetry_multiplicity
 _atom_site_fract_x
 _atom_site_fract_y
 _atom_site_fract_z
 _atom_site_occupancy
  Rb  Rb0  1  0.79792241  0.20207759  0.50000000  1
  Rb  Rb1  1  0.29792241  0.70207759  -0.00000000  1
  Li  Li2  1  0.15742634  0.84257366  0.50000000  1
  Li  Li3  1  0.65742634  0.34257366  -0.00000000  1
  Mn  Mn4  1  0.43810323  0.56189677  0.50000000  1
  Mn  Mn5  1  0.93810323  0.06189677  -0.00000000  1
  B  B6  1  0.63986189  0.03139202  0.90626501  1
  B  B7  1  0.96860798  0.36013811  0.09373499  1
  B  B8  1  0.13986189  0.53139202  0.59373499  1
  B  B9  1  0.46860798  0.86013811  0.40626501  1
  B  B10  1  0.55377770  0.46716145  0.74781848  1
  B  B11  1  0.53283855  0.44622230  0.25218152  1
  B  B12  1  0.05377770  0.96716145  0.75218152  1
  B  B13  1  0.03283855  0.94622230  0.24781848  1
  H  H14  1  0.53838263  0.08540411  0.99267537  1
  H  H15  1  0.91459589  0.46161737  0.00732463  1
  H  H16  1  0.03838263  0.58540411  0.50732463  1
  H  H17  1  0.41459589  0.96161737  0.49267537  1
  H  H18  1  0.75955085  0.15269066  0.86300156  1
  H  H19  1  0.84730934  0.24044915  0.13699844  1
  H  H20  1  0.25955085  0.65269066  0.63699844  1
  H  H21  1  0.34730934  0.74044915  0.36300156  1
  H  H22  1  0.47193358  0.44211689  0.87502500  1
  H  H23  1  0.55788311  0.52806642  0.12497500  1
  H  H24  1  0.97193358  0.94211689  0.62497500  1
  H  H25  1  0.05788311  0.02806642  0.37502500  1
  H  H26  1  0.46849948  0.36635276  0.64550991  1
  H  H27  1  0.63364724  0.53150052  0.35449009  1
  H  H28  1  0.96849948  0.86635276  0.85449009  1
  H  H29  1  0.13364724  0.03150052  0.14550991  1
  H  H30  1  0.69568287  0.92494619  0.99015782  1
  H  H31  1  0.07505381  0.30431713  0.00984218  1
  H  H32  1  0.19568287  0.42494619  0.50984218  1
  H  H33  1  0.57505381  0.80431713  0.49015782  1
  H  H34  1  0.57222208  0.62206001  0.71030855  1
  H  H35  1  0.37793999  0.42777792  0.28969145  1
  H  H36  1  0.07222208  0.12206001  0.78969145  1
  H  H37  1  0.87793999  0.92777792  0.21030855  1
  H  H38  1  0.57307911  0.95809730  0.78365723  1
  H  H39  1  0.04190270  0.42692089  0.21634277  1
  H  H40  1  0.07307911  0.45809730  0.71634277  1
  H  H41  1  0.54190270  0.92692089  0.28365723  1
  H  H42  1  0.69841366  0.44148445  0.75906524  1
  H  H43  1  0.55851555  0.30158634  0.24093476  1
  H  H44  1  0.19841366  0.94148445  0.74093476  1
  H  H45  1  0.05851555  0.80158634  0.25906524  1
