# generated using pymatgen
data_PrAlNi4
_symmetry_space_group_name_H-M   'P 1'
_cell_length_a   4.03167501
_cell_length_b   5.12640144
_cell_length_c   4.96258667
_cell_angle_alpha   121.09810820
_cell_angle_beta   90.00000000
_cell_angle_gamma   90.00000000
_symmetry_Int_Tables_number   1
_chemical_formula_structural   PrAlNi4
_chemical_formula_sum   'Pr1 Al1 Ni4'
_cell_volume   87.82620833
_cell_formula_units_Z   1
loop_
 _symmetry_equiv_pos_site_id
 _symmetry_equiv_pos_as_xyz
  1  'x, y, z'
loop_
 _atom_site_type_symbol
 _atom_site_label
 _atom_site_symmetry_multiplicity
 _atom_site_fract_x
 _atom_site_fract_y
 _atom_site_fract_z
 _atom_site_occupancy
  Pr  Pr0  1  0.00000000  0.99997469  0.00000000  1
  Al  Al1  1  0.50000000  0.49998886  -0.00000000  1
  Ni  Ni2  1  -0.00000000  0.33306745  0.66617608  1
  Ni  Ni3  1  0.00000000  0.66689137  0.33382392  1
  Ni  Ni4  1  0.50000000  0.49998758  0.49999752  1
  Ni  Ni5  1  0.50000000  0.99999006  0.50000248  1
