# generated using pymatgen
data_Cu5(Si2O7)2
_symmetry_space_group_name_H-M   'P 1'
_cell_length_a   5.40216304
_cell_length_b   9.83443594
_cell_length_c   20.08671095
_cell_angle_alpha   90.00000000
_cell_angle_beta   90.00000000
_cell_angle_gamma   90.00000000
_symmetry_Int_Tables_number   1
_chemical_formula_structural   Cu5(Si2O7)2
_chemical_formula_sum   'Cu20 Si16 O56'
_cell_volume   1067.15123935
_cell_formula_units_Z   4
loop_
 _symmetry_equiv_pos_site_id
 _symmetry_equiv_pos_as_xyz
  1  'x, y, z'
loop_
 _atom_site_type_symbol
 _atom_site_label
 _atom_site_symmetry_multiplicity
 _atom_site_fract_x
 _atom_site_fract_y
 _atom_site_fract_z
 _atom_site_occupancy
  Cu  Cu0  1  0.00000000  0.50000000  0.50000000  1
  Cu  Cu1  1  0.50000000  -0.00000000  0.50000000  1
  Cu  Cu2  1  0.50000000  0.50000000  0.00000000  1
  Cu  Cu3  1  0.00000000  -0.00000000  0.00000000  1
  Cu  Cu4  1  0.54968814  0.67179321  0.47587085  1
  Cu  Cu5  1  0.95031186  0.17179321  0.52412915  1
  Cu  Cu6  1  0.04968814  0.32820679  0.02412915  1
  Cu  Cu7  1  0.45031186  0.82820679  0.97587085  1
  Cu  Cu8  1  0.45031186  0.32820679  0.52412915  1
  Cu  Cu9  1  0.04968814  0.82820679  0.47587085  1
  Cu  Cu10  1  0.95031186  0.67179321  0.97587085  1
  Cu  Cu11  1  0.54968814  0.17179321  0.02412915  1
  Cu  Cu12  1  0.47988171  0.75109246  0.22029354  1
  Cu  Cu13  1  0.02011829  0.25109246  0.77970646  1
  Cu  Cu14  1  0.97988171  0.24890754  0.27970646  1
  Cu  Cu15  1  0.52011829  0.74890754  0.72029354  1
  Cu  Cu16  1  0.52011829  0.24890754  0.77970646  1
  Cu  Cu17  1  0.97988171  0.74890754  0.22029354  1
  Cu  Cu18  1  0.02011829  0.75109246  0.72029354  1
  Cu  Cu19  1  0.47988171  0.25109246  0.27970646  1
  Si  Si20  1  0.23583932  0.60074337  0.34440760  1
  Si  Si21  1  0.26416068  0.10074337  0.65559240  1
  Si  Si22  1  0.73583932  0.39925663  0.15559240  1
  Si  Si23  1  0.76416068  0.89925663  0.84440760  1
  Si  Si24  1  0.76416068  0.39925663  0.65559240  1
  Si  Si25  1  0.73583932  0.89925663  0.34440760  1
  Si  Si26  1  0.26416068  0.60074337  0.84440760  1
  Si  Si27  1  0.23583932  0.10074337  0.15559240  1
  Si  Si28  1  0.22550895  0.04899387  0.36577159  1
  Si  Si29  1  0.27449105  0.54899387  0.63422841  1
  Si  Si30  1  0.72550895  0.95100613  0.13422841  1
  Si  Si31  1  0.77449105  0.45100613  0.86577159  1
  Si  Si32  1  0.77449105  0.95100613  0.63422841  1
  Si  Si33  1  0.72550895  0.45100613  0.36577159  1
  Si  Si34  1  0.27449105  0.04899387  0.86577159  1
  Si  Si35  1  0.22550895  0.54899387  0.13422841  1
  O  O36  1  0.97619356  0.99537464  0.32715557  1
  O  O37  1  0.52380644  0.49537464  0.67284443  1
  O  O38  1  0.47619356  0.00462536  0.17284443  1
  O  O39  1  0.02380644  0.50462536  0.82715557  1
  O  O40  1  0.02380644  0.00462536  0.67284443  1
  O  O41  1  0.47619356  0.50462536  0.32715557  1
  O  O42  1  0.52380644  0.99537464  0.82715557  1
  O  O43  1  0.97619356  0.49537464  0.17284443  1
  O  O44  1  0.25880885  0.65469423  0.42038322  1
  O  O45  1  0.24119115  0.15469423  0.57961678  1
  O  O46  1  0.75880885  0.34530577  0.07961678  1
  O  O47  1  0.74119115  0.84530577  0.92038322  1
  O  O48  1  0.74119115  0.34530577  0.57961678  1
  O  O49  1  0.75880885  0.84530577  0.42038322  1
  O  O50  1  0.24119115  0.65469423  0.92038322  1
  O  O51  1  0.25880885  0.15469423  0.07961678  1
  O  O52  1  0.20296443  0.00837099  0.44563811  1
  O  O53  1  0.29703557  0.50837099  0.55436189  1
  O  O54  1  0.70296443  0.99162901  0.05436189  1
  O  O55  1  0.79703557  0.49162901  0.94563811  1
  O  O56  1  0.79703557  0.99162901  0.55436189  1
  O  O57  1  0.70296443  0.49162901  0.44563811  1
  O  O58  1  0.29703557  0.00837099  0.94563811  1
  O  O59  1  0.20296443  0.50837099  0.05436189  1
  O  O60  1  0.22935132  0.71849700  0.28621236  1
  O  O61  1  0.27064868  0.21849700  0.71378764  1
  O  O62  1  0.72935132  0.28150300  0.21378764  1
  O  O63  1  0.77064868  0.78150300  0.78621236  1
  O  O64  1  0.77064868  0.28150300  0.71378764  1
  O  O65  1  0.72935132  0.78150300  0.28621236  1
  O  O66  1  0.27064868  0.71849700  0.78621236  1
  O  O67  1  0.22935132  0.21849700  0.21378764  1
  O  O68  1  0.23291225  0.21147076  0.34643652  1
  O  O69  1  0.26708775  0.71147076  0.65356348  1
  O  O70  1  0.73291225  0.78852924  0.15356348  1
  O  O71  1  0.76708775  0.28852924  0.84643652  1
  O  O72  1  0.76708775  0.78852924  0.65356348  1
  O  O73  1  0.73291225  0.28852924  0.34643652  1
  O  O74  1  0.26708775  0.21147076  0.84643652  1
  O  O75  1  0.23291225  0.71147076  0.15356348  1
  O  O76  1  0.97874307  0.51530279  0.33413850  1
  O  O77  1  0.52125693  0.01530279  0.66586150  1
  O  O78  1  0.47874307  0.48469721  0.16586150  1
  O  O79  1  0.02125693  0.98469721  0.83413850  1
  O  O80  1  0.02125693  0.48469721  0.66586150  1
  O  O81  1  0.47874307  0.98469721  0.33413850  1
  O  O82  1  0.52125693  0.51530279  0.83413850  1
  O  O83  1  0.97874307  0.01530279  0.16586150  1
  O  O84  1  0.12360750  0.82190874  0.01774527  1
  O  O85  1  0.37639250  0.32190874  0.98225473  1
  O  O86  1  0.62360750  0.17809126  0.48225473  1
  O  O87  1  0.87639250  0.67809126  0.51774527  1
  O  O88  1  0.87639250  0.17809126  0.98225473  1
  O  O89  1  0.62360750  0.67809126  0.01774527  1
  O  O90  1  0.37639250  0.82190874  0.51774527  1
  O  O91  1  0.12360750  0.32190874  0.48225473  1
