# generated using pymatgen
data_Rb2V2Si8O21
_symmetry_space_group_name_H-M   'P 1'
_cell_length_a   8.86337518
_cell_length_b   10.43768630
_cell_length_c   11.25094326
_cell_angle_alpha   90.00000000
_cell_angle_beta   90.00000000
_cell_angle_gamma   90.00000000
_symmetry_Int_Tables_number   1
_chemical_formula_structural   Rb2V2Si8O21
_chemical_formula_sum   'Rb4 V4 Si16 O42'
_cell_volume   1040.85997293
_cell_formula_units_Z   2
loop_
 _symmetry_equiv_pos_site_id
 _symmetry_equiv_pos_as_xyz
  1  'x, y, z'
loop_
 _atom_site_type_symbol
 _atom_site_label
 _atom_site_symmetry_multiplicity
 _atom_site_fract_x
 _atom_site_fract_y
 _atom_site_fract_z
 _atom_site_occupancy
  Rb  Rb0  1  0.33792333  0.39480403  0.50000000  1
  Rb  Rb1  1  0.83792333  0.60519597  0.50000000  1
  Rb  Rb2  1  0.06165188  0.88981854  0.00000000  1
  Rb  Rb3  1  0.56165188  0.11018146  0.00000000  1
  V  V4  1  0.04594442  0.54015566  0.00000000  1
  V  V5  1  0.54594442  0.45984434  0.00000000  1
  V  V6  1  0.12448962  0.24110992  0.00000000  1
  V  V7  1  0.62448962  0.75889008  0.00000000  1
  Si  Si8  1  0.17363658  0.63851527  0.73894226  1
  Si  Si9  1  0.17363658  0.63851527  0.26105774  1
  Si  Si10  1  0.67363658  0.36148473  0.26105774  1
  Si  Si11  1  0.67363658  0.36148473  0.73894226  1
  Si  Si12  1  0.21016780  0.13341476  0.74211284  1
  Si  Si13  1  0.21016780  0.13341476  0.25788716  1
  Si  Si14  1  0.71016780  0.86658524  0.25788716  1
  Si  Si15  1  0.71016780  0.86658524  0.74211284  1
  Si  Si16  1  0.03770339  0.89851435  0.63667726  1
  Si  Si17  1  0.03770339  0.89851435  0.36332274  1
  Si  Si18  1  0.53770339  0.10148565  0.36332274  1
  Si  Si19  1  0.53770339  0.10148565  0.63667726  1
  Si  Si20  1  0.03206584  0.37954294  0.74416972  1
  Si  Si21  1  0.03206584  0.37954294  0.25583028  1
  Si  Si22  1  0.53206584  0.62045706  0.25583028  1
  Si  Si23  1  0.53206584  0.62045706  0.74416972  1
  O  O24  1  0.96980044  0.15479166  0.00000000  1
  O  O25  1  0.46980044  0.84520834  0.00000000  1
  O  O26  1  0.35425503  0.62715372  0.70991634  1
  O  O27  1  0.35425503  0.62715372  0.29008366  1
  O  O28  1  0.85425503  0.37284628  0.29008366  1
  O  O29  1  0.85425503  0.37284628  0.70991634  1
  O  O30  1  0.25195565  0.15795065  0.87863638  1
  O  O31  1  0.25195565  0.15795065  0.12136362  1
  O  O32  1  0.75195565  0.84204935  0.12136362  1
  O  O33  1  0.75195565  0.84204935  0.87863638  1
  O  O34  1  0.10723365  0.00297118  0.72813956  1
  O  O35  1  0.10723365  0.00297118  0.27186044  1
  O  O36  1  0.60723365  0.99702882  0.27186044  1
  O  O37  1  0.60723365  0.99702882  0.72813956  1
  O  O38  1  0.11133576  0.75737614  0.65743408  1
  O  O39  1  0.11133576  0.75737614  0.34256592  1
  O  O40  1  0.61133576  0.24262386  0.34256592  1
  O  O41  1  0.61133576  0.24262386  0.65743408  1
  O  O42  1  0.06655613  0.38776447  0.88600588  1
  O  O43  1  0.06655613  0.38776447  0.11399412  1
  O  O44  1  0.56655613  0.61223553  0.11399412  1
  O  O45  1  0.56655613  0.61223553  0.88600588  1
  O  O46  1  0.06960259  0.94220957  0.50000000  1
  O  O47  1  0.56960259  0.05779043  0.50000000  1
  O  O48  1  0.11738501  0.25633731  0.68422228  1
  O  O49  1  0.11738501  0.25633731  0.31577772  1
  O  O50  1  0.61738501  0.74366269  0.31577772  1
  O  O51  1  0.61738501  0.74366269  0.68422228  1
  O  O52  1  0.13211007  0.65171043  0.87633849  1
  O  O53  1  0.13211007  0.65171043  0.12366151  1
  O  O54  1  0.63211007  0.34828957  0.12366151  1
  O  O55  1  0.63211007  0.34828957  0.87633849  1
  O  O56  1  0.86434604  0.57468138  0.00000000  1
  O  O57  1  0.36434604  0.42531862  0.00000000  1
  O  O58  1  0.09746466  0.50870491  0.67648602  1
  O  O59  1  0.09746466  0.50870491  0.32351398  1
  O  O60  1  0.59746466  0.49129509  0.32351398  1
  O  O61  1  0.59746466  0.49129509  0.67648602  1
  O  O62  1  0.35677628  0.11450230  0.65522502  1
  O  O63  1  0.35677628  0.11450230  0.34477498  1
  O  O64  1  0.85677628  0.88549770  0.34477498  1
  O  O65  1  0.85677628  0.88549770  0.65522502  1
