# generated using pymatgen
data_Rb8Nd(AsS4)4
_symmetry_space_group_name_H-M   'P 1'
_cell_length_a   9.28729362
_cell_length_b   10.35142845
_cell_length_c   11.90737258
_cell_angle_alpha   64.23604147
_cell_angle_beta   67.04669195
_cell_angle_gamma   90.00000000
_symmetry_Int_Tables_number   1
_chemical_formula_structural   Rb8Nd(AsS4)4
_chemical_formula_sum   'Rb8 Nd1 As4 S16'
_cell_volume   929.27024811
_cell_formula_units_Z   1
loop_
 _symmetry_equiv_pos_site_id
 _symmetry_equiv_pos_as_xyz
  1  'x, y, z'
loop_
 _atom_site_type_symbol
 _atom_site_label
 _atom_site_symmetry_multiplicity
 _atom_site_fract_x
 _atom_site_fract_y
 _atom_site_fract_z
 _atom_site_occupancy
  Rb  Rb0  1  0.24670966  0.99670966  0.50658068  1
  Rb  Rb1  1  0.75329034  0.50329034  0.49341932  1
  Rb  Rb2  1  0.78729113  0.03729113  0.42541774  1
  Rb  Rb3  1  0.21270887  0.46270887  0.57458226  1
  Rb  Rb4  1  0.55334572  0.93189311  0.16004573  1
  Rb  Rb5  1  0.44665428  0.09193884  0.83995427  1
  Rb  Rb6  1  0.71339145  0.56810689  0.83995427  1
  Rb  Rb7  1  0.28660855  0.40806116  0.16004573  1
  Nd  Nd8  1  -0.00000000  0.75000000  0.00000000  1
  As  As9  1  0.32757660  0.64041701  0.75349640  1
  As  As10  1  0.67242340  0.39391341  0.24650360  1
  As  As11  1  0.08107300  0.85958299  0.24650360  1
  As  As12  1  0.91892700  0.10608659  0.75349640  1
  S  S13  1  0.35282669  0.74608488  0.87041054  1
  S  S14  1  0.64717331  0.61649542  0.12958946  1
  S  S15  1  0.22323724  0.75391512  0.12958946  1
  S  S16  1  0.77676276  0.88350458  0.87041054  1
  S  S17  1  0.62356959  0.25802707  0.16204983  1
  S  S18  1  0.37643041  0.42007690  0.83795017  1
  S  S19  1  0.78561942  0.24197293  0.83795017  1
  S  S20  1  0.21438058  0.07992310  0.16204983  1
  S  S21  1  0.48914508  0.74749613  0.53336374  1
  S  S22  1  0.51085492  0.28085987  0.46663626  1
  S  S23  1  0.02250882  0.75250387  0.46663626  1
  S  S24  1  0.97749118  0.21914013  0.53336374  1
  S  S25  1  0.13425881  0.06593250  0.78839776  1
  S  S26  1  0.86574119  0.85433026  0.21160224  1
  S  S27  1  0.92265657  0.43406750  0.21160224  1
  S  S28  1  0.07734343  0.64566974  0.78839776  1
