# generated using pymatgen
data_NdHCO4
_symmetry_space_group_name_H-M   'P 1'
_cell_length_a   4.99121678
_cell_length_b   7.33697788
_cell_length_c   8.66358816
_cell_angle_alpha   90.00000000
_cell_angle_beta   90.00000000
_cell_angle_gamma   90.00000000
_symmetry_Int_Tables_number   1
_chemical_formula_structural   NdHCO4
_chemical_formula_sum   'Nd4 H4 C4 O16'
_cell_volume   317.26447199
_cell_formula_units_Z   4
loop_
 _symmetry_equiv_pos_site_id
 _symmetry_equiv_pos_as_xyz
  1  'x, y, z'
loop_
 _atom_site_type_symbol
 _atom_site_label
 _atom_site_symmetry_multiplicity
 _atom_site_fract_x
 _atom_site_fract_y
 _atom_site_fract_z
 _atom_site_occupancy
  Nd  Nd0  1  0.75151084  0.14202876  0.33641477  1
  Nd  Nd1  1  0.74848916  0.64202876  0.16358523  1
  Nd  Nd2  1  0.25151084  0.85797124  0.66358523  1
  Nd  Nd3  1  0.24848916  0.35797124  0.83641477  1
  H  H4  1  0.85475846  0.50275495  0.47323874  1
  H  H5  1  0.64524154  0.00275495  0.02676126  1
  H  H6  1  0.35475846  0.49724505  0.52676126  1
  H  H7  1  0.14524154  0.99724505  0.97323874  1
  C  C8  1  0.25117327  0.30376000  0.17616710  1
  C  C9  1  0.24882673  0.80376000  0.32383290  1
  C  C10  1  0.75117327  0.69624000  0.82383290  1
  C  C11  1  0.74882673  0.19624000  0.67616710  1
  O  O12  1  0.74171428  0.46012190  0.38843367  1
  O  O13  1  0.75828572  0.96012190  0.11156633  1
  O  O14  1  0.24171428  0.53987810  0.61156633  1
  O  O15  1  0.25828572  0.03987810  0.88843367  1
  O  O16  1  0.02802926  0.34761010  0.10889215  1
  O  O17  1  0.47197074  0.84761010  0.39110785  1
  O  O18  1  0.52802926  0.65238990  0.89110785  1
  O  O19  1  0.97197074  0.15238990  0.60889215  1
  O  O20  1  0.97782061  0.65159028  0.88739393  1
  O  O21  1  0.52217939  0.15159028  0.61260607  1
  O  O22  1  0.47782061  0.34840972  0.11260607  1
  O  O23  1  0.02217939  0.84840972  0.38739393  1
  O  O24  1  0.24943644  0.20718881  0.30095037  1
  O  O25  1  0.25056356  0.70718881  0.19904963  1
  O  O26  1  0.74943644  0.79281119  0.69904963  1
  O  O27  1  0.75056356  0.29281119  0.80095037  1
