# generated using pymatgen
data_Pr2Si2PbSe8
_symmetry_space_group_name_H-M   'P 1'
_cell_length_a   9.49411903
_cell_length_b   9.44488145
_cell_length_c   10.97137153
_cell_angle_alpha   88.86593385
_cell_angle_beta   115.63756946
_cell_angle_gamma   59.82740577
_symmetry_Int_Tables_number   1
_chemical_formula_structural   Pr2Si2PbSe8
_chemical_formula_sum   'Pr4 Si4 Pb2 Se16'
_cell_volume   730.39507519
_cell_formula_units_Z   2
loop_
 _symmetry_equiv_pos_site_id
 _symmetry_equiv_pos_as_xyz
  1  'x, y, z'
loop_
 _atom_site_type_symbol
 _atom_site_label
 _atom_site_symmetry_multiplicity
 _atom_site_fract_x
 _atom_site_fract_y
 _atom_site_fract_z
 _atom_site_occupancy
  Pr  Pr0  1  0.80752365  0.43918034  0.74755122  1
  Pr  Pr1  1  0.19749585  0.74732861  0.75530927  1
  Pr  Pr2  1  0.50084723  0.93918034  0.24755122  1
  Pr  Pr3  1  0.81048481  0.24732861  0.25530927  1
  Si  Si4  1  0.67214419  0.65689164  0.02104952  1
  Si  Si5  1  0.69201370  0.15689164  0.52104952  1
  Si  Si6  1  0.30927234  0.34268601  0.97789178  1
  Si  Si7  1  0.32593343  0.84268601  0.47789178  1
  Pb  Pb8  1  0.49978741  0.07454473  0.74982501  1
  Pb  Pb9  1  0.17549287  0.57454473  0.24982501  1
  Se  Se10  1  0.83237325  0.57302886  0.26433817  1
  Se  Se11  1  0.85893607  0.07302886  0.76433817  1
  Se  Se12  1  0.13762926  0.44748458  0.73528100  1
  Se  Se13  1  0.15016716  0.94748458  0.23528100  1
  Se  Se14  1  0.81441277  0.71365161  0.92306506  1
  Se  Se15  1  0.65368001  0.43869923  0.94286299  1
  Se  Se16  1  0.37724559  0.89592969  0.94862823  1
  Se  Se17  1  0.85048376  0.93869923  0.44286299  1
  Se  Se18  1  0.39500068  0.21365161  0.42306506  1
  Se  Se19  1  0.67545296  0.39592969  0.44862823  1
  Se  Se20  1  0.14854060  0.27612272  0.04641655  1
  Se  Se21  1  0.34696872  0.54557423  0.06854060  1
  Se  Se22  1  0.61021883  0.09887777  0.06924060  1
  Se  Se23  1  0.17599766  0.04557423  0.56854060  1
  Se  Se24  1  0.62175323  0.77612272  0.54641655  1
  Se  Se25  1  0.36014399  0.59887777  0.56924060  1
