# generated using pymatgen
data_Pr2FeSbO7
_symmetry_space_group_name_H-M   'P 1'
_cell_length_a   7.49050061
_cell_length_b   7.45967415
_cell_length_c   7.54604179
_cell_angle_alpha   90.00000000
_cell_angle_beta   59.75441303
_cell_angle_gamma   119.86395658
_symmetry_Int_Tables_number   1
_chemical_formula_structural   Pr2FeSbO7
_chemical_formula_sum   'Pr4 Fe2 Sb2 O14'
_cell_volume   297.65242012
_cell_formula_units_Z   2
loop_
 _symmetry_equiv_pos_site_id
 _symmetry_equiv_pos_as_xyz
  1  'x, y, z'
loop_
 _atom_site_type_symbol
 _atom_site_label
 _atom_site_symmetry_multiplicity
 _atom_site_fract_x
 _atom_site_fract_y
 _atom_site_fract_z
 _atom_site_occupancy
  Pr  Pr0  1  0.50000000  0.50000000  -0.00000000  1
  Pr  Pr1  1  0.50000000  0.00000000  -0.00000000  1
  Pr  Pr2  1  0.00000000  0.00000000  0.50000000  1
  Pr  Pr3  1  0.00000000  0.00000000  -0.00000000  1
  Fe  Fe4  1  0.50000000  0.00000000  0.50000000  1
  Fe  Fe5  1  0.50000000  0.50000000  0.50000000  1
  Sb  Sb6  1  0.00000000  0.50000000  -0.00000000  1
  Sb  Sb7  1  0.00000000  0.50000000  0.50000000  1
  O  O8  1  0.66595441  0.83297721  0.41702279  1
  O  O9  1  0.84883845  0.42441923  0.82558077  1
  O  O10  1  0.24941333  0.82327366  0.83477756  1
  O  O11  1  0.24941333  0.42613966  0.41580912  1
  O  O12  1  0.24941333  0.42613966  0.83477756  1
  O  O13  1  0.24941333  0.82327366  0.41580912  1
  O  O14  1  0.33404559  0.16702279  0.58297721  1
  O  O15  1  0.15116155  0.57558077  0.17441923  1
  O  O16  1  0.75058667  0.17672634  0.16522244  1
  O  O17  1  0.75058667  0.57386034  0.58419088  1
  O  O18  1  0.75058667  0.57386034  0.16522244  1
  O  O19  1  0.75058667  0.17672634  0.58419088  1
  O  O20  1  0.25236388  0.12618194  0.12381806  1
  O  O21  1  0.74763612  0.87381806  0.87618194  1
