# generated using pymatgen
data_Nd6Cd(SiS7)2
_symmetry_space_group_name_H-M   'P 1'
_cell_length_a   5.72019711
_cell_length_b   10.28211392
_cell_length_c   10.28211873
_cell_angle_alpha   120.00030701
_cell_angle_beta   90.00014210
_cell_angle_gamma   90.00024771
_symmetry_Int_Tables_number   1
_chemical_formula_structural   Nd6Cd(SiS7)2
_chemical_formula_sum   'Nd6 Cd1 Si2 S14'
_cell_volume   523.72741497
_cell_formula_units_Z   1
loop_
 _symmetry_equiv_pos_site_id
 _symmetry_equiv_pos_as_xyz
  1  'x, y, z'
loop_
 _atom_site_type_symbol
 _atom_site_label
 _atom_site_symmetry_multiplicity
 _atom_site_fract_x
 _atom_site_fract_y
 _atom_site_fract_z
 _atom_site_occupancy
  Nd  Nd0  1  0.22776467  0.23517133  0.35729086  1
  Nd  Nd1  1  0.22776620  0.64270619  0.87787936  1
  Nd  Nd2  1  0.22776305  0.12212086  0.76482752  1
  Nd  Nd3  1  0.73204857  0.76378448  0.64148796  1
  Nd  Nd4  1  0.73205288  0.35851974  0.12230395  1
  Nd  Nd5  1  0.73205301  0.87770178  0.23621474  1
  Cd  Cd6  1  0.48296634  0.00000108  0.99999839  1
  Si  Si7  1  0.81326784  0.33333644  0.66666795  1
  Si  Si8  1  0.31895752  0.66666250  0.33332950  1
  S  S9  1  0.71355267  0.16943172  0.25742495  1
  S  S10  1  0.71354964  0.74257591  0.91200951  1
  S  S11  1  0.71355215  0.08799653  0.83056824  1
  S  S12  1  0.22369026  0.83026174  0.74512512  1
  S  S13  1  0.22368495  0.25487289  0.08513799  1
  S  S14  1  0.22368816  0.91486112  0.16973673  1
  S  S15  1  0.44548012  0.33333471  0.66666595  1
  S  S16  1  0.95032379  0.66666401  0.33333322  1
  S  S17  1  0.95981355  0.11475572  0.52330708  1
  S  S18  1  0.95981866  0.47669362  0.59144860  1
  S  S19  1  0.95981378  0.40855360  0.88524641  1
  S  S20  1  0.46346349  0.88537684  0.47716074  1
  S  S21  1  0.46346402  0.52283550  0.40821727  1
  S  S22  1  0.46346469  0.59178169  0.11461798  1
