# generated using pymatgen
data_Pr2CuSn4
_symmetry_space_group_name_H-M   'P 1'
_cell_length_a   4.52293950
_cell_length_b   4.58713184
_cell_length_c   9.20585593
_cell_angle_alpha   75.57325041
_cell_angle_beta   90.00000000
_cell_angle_gamma   90.00000000
_symmetry_Int_Tables_number   1
_chemical_formula_structural   Pr2CuSn4
_chemical_formula_sum   'Pr2 Cu1 Sn4'
_cell_volume   184.97412423
_cell_formula_units_Z   1
loop_
 _symmetry_equiv_pos_site_id
 _symmetry_equiv_pos_as_xyz
  1  'x, y, z'
loop_
 _atom_site_type_symbol
 _atom_site_label
 _atom_site_symmetry_multiplicity
 _atom_site_fract_x
 _atom_site_fract_y
 _atom_site_fract_z
 _atom_site_occupancy
  Pr  Pr0  1  0.25000000  0.89745242  0.20509516  1
  Pr  Pr1  1  0.75000000  0.10281147  0.79437706  1
  Cu  Cu2  1  0.25000000  0.68102572  0.63794856  1
  Sn  Sn3  1  0.25000000  0.25968264  0.48063472  1
  Sn  Sn4  1  0.75000000  0.75921742  0.48156516  1
  Sn  Sn5  1  0.25000000  0.53938643  0.92122714  1
  Sn  Sn6  1  0.75000000  0.43342390  0.13315219  1
