# generated using pymatgen
data_Nb3SnH
_symmetry_space_group_name_H-M   'P 1'
_cell_length_a   5.40355602
_cell_length_b   5.39021605
_cell_length_c   5.40355602
_cell_angle_alpha   90.00000000
_cell_angle_beta   90.22370680
_cell_angle_gamma   90.00000000
_symmetry_Int_Tables_number   1
_chemical_formula_structural   Nb3SnH
_chemical_formula_sum   'Nb6 Sn2 H2'
_cell_volume   157.38457969
_cell_formula_units_Z   2
loop_
 _symmetry_equiv_pos_site_id
 _symmetry_equiv_pos_as_xyz
  1  'x, y, z'
loop_
 _atom_site_type_symbol
 _atom_site_label
 _atom_site_symmetry_multiplicity
 _atom_site_fract_x
 _atom_site_fract_y
 _atom_site_fract_z
 _atom_site_occupancy
  Nb  Nb0  1  0.99451530  0.50000000  0.74626049  1
  Nb  Nb1  1  0.50768019  0.75000000  0.00768019  1
  Nb  Nb2  1  0.24626049  -0.00000000  0.49451530  1
  Nb  Nb3  1  0.99034015  0.50000000  0.25420967  1
  Nb  Nb4  1  0.50768019  0.25000000  0.00768019  1
  Nb  Nb5  1  0.75420967  -0.00000000  0.49034015  1
  Sn  Sn6  1  0.50013580  0.50000000  0.50028835  1
  Sn  Sn7  1  0.00028835  -0.00000000  0.00013580  1
  H  H8  1  0.24828205  0.50000000  0.00060781  1
  H  H9  1  0.50060781  -0.00000000  0.74828205  1
