# generated using pymatgen
data_Tm2Fe15Si2
_symmetry_space_group_name_H-M   'P 1'
_cell_length_a   8.33395986
_cell_length_b   8.29651867
_cell_length_c   8.29651867
_cell_angle_alpha   120.00492183
_cell_angle_beta   90.00000000
_cell_angle_gamma   90.00000000
_symmetry_Int_Tables_number   1
_chemical_formula_structural   Tm2Fe15Si2
_chemical_formula_sum   'Tm4 Fe30 Si4'
_cell_volume   496.76648157
_cell_formula_units_Z   2
loop_
 _symmetry_equiv_pos_site_id
 _symmetry_equiv_pos_as_xyz
  1  'x, y, z'
loop_
 _atom_site_type_symbol
 _atom_site_label
 _atom_site_symmetry_multiplicity
 _atom_site_fract_x
 _atom_site_fract_y
 _atom_site_fract_z
 _atom_site_occupancy
  Tm  Tm0  1  0.75000000  0.99997416  0.00002584  1
  Tm  Tm1  1  0.25000000  0.00002584  0.99997416  1
  Tm  Tm2  1  0.25000000  0.66664834  0.33335166  1
  Tm  Tm3  1  0.75000000  0.33335166  0.66664834  1
  Fe  Fe4  1  0.50000000  0.50000000  -0.00000000  1
  Fe  Fe5  1  0.50000000  0.50000000  0.50000000  1
  Fe  Fe6  1  0.50000000  -0.00000000  0.50000000  1
  Fe  Fe7  1  0.00000000  0.50000000  -0.00000000  1
  Fe  Fe8  1  0.00000000  0.50000000  0.50000000  1
  Fe  Fe9  1  0.00000000  -0.00000000  0.50000000  1
  Fe  Fe10  1  0.75000000  0.66935094  0.02936977  1
  Fe  Fe11  1  0.75000000  0.35988903  0.33053838  1
  Fe  Fe12  1  0.75000000  0.97080126  0.64021194  1
  Fe  Fe13  1  0.75000000  0.35978806  0.02919874  1
  Fe  Fe14  1  0.75000000  0.97063023  0.33064906  1
  Fe  Fe15  1  0.75000000  0.66946162  0.64011097  1
  Fe  Fe16  1  0.25000000  0.33064906  0.97063023  1
  Fe  Fe17  1  0.25000000  0.64011097  0.66946162  1
  Fe  Fe18  1  0.25000000  0.02919874  0.35978806  1
  Fe  Fe19  1  0.25000000  0.64021194  0.97080126  1
  Fe  Fe20  1  0.25000000  0.02936977  0.66935094  1
  Fe  Fe21  1  0.25000000  0.33053838  0.35988903  1
  Fe  Fe22  1  0.48946956  0.83340905  0.66672519  1
  Fe  Fe23  1  0.48943614  0.83333377  0.16666623  1
  Fe  Fe24  1  0.48946956  0.33327481  0.16659095  1
  Fe  Fe25  1  0.51053044  0.16659095  0.33327481  1
  Fe  Fe26  1  0.51056386  0.16666623  0.83333377  1
  Fe  Fe27  1  0.51053044  0.66672519  0.83340905  1
  Fe  Fe28  1  0.98946956  0.16659095  0.33327481  1
  Fe  Fe29  1  0.98943614  0.16666623  0.83333377  1
  Fe  Fe30  1  0.98946956  0.66672519  0.83340905  1
  Fe  Fe31  1  0.01053044  0.83340905  0.66672519  1
  Fe  Fe32  1  0.01056386  0.83333377  0.16666623  1
  Fe  Fe33  1  0.01053044  0.33327481  0.16659095  1
  Si  Si34  1  0.60245708  0.66668292  0.33331708  1
  Si  Si35  1  0.39754292  0.33331708  0.66668292  1
  Si  Si36  1  0.10245708  0.33331708  0.66668292  1
  Si  Si37  1  0.89754292  0.66668292  0.33331708  1
