# generated using pymatgen
data_Nd4Rh
_symmetry_space_group_name_H-M   'P 1'
_cell_length_a   6.48629261
_cell_length_b   7.29104796
_cell_length_c   10.02622151
_cell_angle_alpha   90.00000000
_cell_angle_beta   90.00000000
_cell_angle_gamma   89.53017143
_symmetry_Int_Tables_number   1
_chemical_formula_structural   Nd4Rh
_chemical_formula_sum   'Nd12 Rh3'
_cell_volume   474.14282841
_cell_formula_units_Z   3
loop_
 _symmetry_equiv_pos_site_id
 _symmetry_equiv_pos_as_xyz
  1  'x, y, z'
loop_
 _atom_site_type_symbol
 _atom_site_label
 _atom_site_symmetry_multiplicity
 _atom_site_fract_x
 _atom_site_fract_y
 _atom_site_fract_z
 _atom_site_occupancy
  Nd  Nd0  1  0.84415954  0.52484574  0.25000000  1
  Nd  Nd1  1  0.64801269  0.03929237  0.25000000  1
  Nd  Nd2  1  0.13951130  0.46485023  0.75000000  1
  Nd  Nd3  1  0.34806825  0.96652075  0.75000000  1
  Nd  Nd4  1  0.33302098  0.68123969  0.06704747  1
  Nd  Nd5  1  0.15909758  0.17827947  0.43067814  1
  Nd  Nd6  1  0.66224922  0.32224105  0.56381522  1
  Nd  Nd7  1  0.82488304  0.82093277  0.93033327  1
  Nd  Nd8  1  0.66224922  0.32224105  0.93618478  1
  Nd  Nd9  1  0.82488304  0.82093277  0.56966673  1
  Nd  Nd10  1  0.33302098  0.68123969  0.43295253  1
  Nd  Nd11  1  0.15909758  0.17827947  0.06932186  1
  Rh  Rh12  1  0.42007737  0.38377183  0.25000000  1
  Rh  Rh13  1  0.92369225  0.11980180  0.75000000  1
  Rh  Rh14  1  0.55997697  0.61753132  0.75000000  1
