# generated using pymatgen
data_K3UF6
_symmetry_space_group_name_H-M   'P 1'
_cell_length_a   7.35272145
_cell_length_b   7.35272145
_cell_length_c   7.00438103
_cell_angle_alpha   121.65922034
_cell_angle_beta   121.65922034
_cell_angle_gamma   90.00000000
_symmetry_Int_Tables_number   1
_chemical_formula_structural   K3UF6
_chemical_formula_sum   'K3 U1 F6'
_cell_volume   253.74901584
_cell_formula_units_Z   1
loop_
 _symmetry_equiv_pos_site_id
 _symmetry_equiv_pos_as_xyz
  1  'x, y, z'
loop_
 _atom_site_type_symbol
 _atom_site_label
 _atom_site_symmetry_multiplicity
 _atom_site_fract_x
 _atom_site_fract_y
 _atom_site_fract_z
 _atom_site_occupancy
  K  K0  1  0.25000000  0.75000000  0.50000000  1
  K  K1  1  0.75000000  0.25000000  0.50000000  1
  K  K2  1  0.50000000  0.50000000  -0.00000000  1
  U  U3  1  -0.00000000  0.00000000  -0.00000000  1
  F  F4  1  0.30706590  1.00000000  1.00000000  1
  F  F5  1  0.69293410  0.00000000  0.00000000  1
  F  F6  1  1.00000000  0.30706590  1.00000000  1
  F  F7  1  0.00000000  0.69293410  0.00000000  1
  F  F8  1  0.23903266  0.23903266  0.47806531  1
  F  F9  1  0.76096734  0.76096734  0.52193469  1
