# generated using pymatgen
data_NaMnCuSe2
_symmetry_space_group_name_H-M   'P 1'
_cell_length_a   4.13551509
_cell_length_b   4.13553970
_cell_length_c   7.19320414
_cell_angle_alpha   89.99999999
_cell_angle_beta   89.99709619
_cell_angle_gamma   120.00020864
_symmetry_Int_Tables_number   1
_chemical_formula_structural   NaMnCuSe2
_chemical_formula_sum   'Na1 Mn1 Cu1 Se2'
_cell_volume   106.54029805
_cell_formula_units_Z   1
loop_
 _symmetry_equiv_pos_site_id
 _symmetry_equiv_pos_as_xyz
  1  'x, y, z'
loop_
 _atom_site_type_symbol
 _atom_site_label
 _atom_site_symmetry_multiplicity
 _atom_site_fract_x
 _atom_site_fract_y
 _atom_site_fract_z
 _atom_site_occupancy
  Na  Na0  1  0.99999731  0.99999865  0.98791500  1
  Mn  Mn1  1  0.66664637  0.33332318  0.39253051  1
  Cu  Cu2  1  0.33336881  0.66668441  0.62600610  1
  Se  Se3  1  0.33332934  0.66666467  0.25789053  1
  Se  Se4  1  0.66665818  0.33332909  0.73565785  1
