# generated using pymatgen
data_DyH9C5(NO4)2
_symmetry_space_group_name_H-M   'P 1'
_cell_length_a   6.78906365
_cell_length_b   8.68721672
_cell_length_c   9.83412886
_cell_angle_alpha   90.00000000
_cell_angle_beta   110.19270355
_cell_angle_gamma   90.00000000
_symmetry_Int_Tables_number   1
_chemical_formula_structural   DyH9C5(NO4)2
_chemical_formula_sum   'Dy2 H18 C10 N4 O16'
_cell_volume   544.34949429
_cell_formula_units_Z   2
loop_
 _symmetry_equiv_pos_site_id
 _symmetry_equiv_pos_as_xyz
  1  'x, y, z'
loop_
 _atom_site_type_symbol
 _atom_site_label
 _atom_site_symmetry_multiplicity
 _atom_site_fract_x
 _atom_site_fract_y
 _atom_site_fract_z
 _atom_site_occupancy
  Dy  Dy0  1  0.14270773  0.75000000  0.28541547  1
  Dy  Dy1  1  0.85729227  0.25000000  0.71458453  1
  H  H2  1  0.65435302  0.25000000  0.30870604  1
  H  H3  1  0.34564698  0.75000000  0.69129396  1
  H  H4  1  0.66187983  0.17248690  0.01385494  1
  H  H5  1  0.64802489  0.82751310  0.98614506  1
  H  H6  1  0.33812017  0.67248690  0.98614506  1
  H  H7  1  0.35197511  0.32751310  0.01385494  1
  H  H8  1  0.82305413  0.10281264  0.18709032  1
  H  H9  1  0.63596381  0.89718736  0.81290968  1
  H  H10  1  0.17694587  0.60281264  0.81290968  1
  H  H11  1  0.36403619  0.39718736  0.18709032  1
  H  H12  1  0.68557955  0.75000000  0.37115911  1
  H  H13  1  0.31442045  0.25000000  0.62884089  1
  H  H14  1  0.23525322  -0.00000000  0.00000000  1
  H  H15  1  0.76474678  0.50000000  1.00000000  1
  H  H16  1  0.91794353  0.44543111  0.41990262  1
  H  H17  1  0.49804091  0.55456889  0.58009738  1
  H  H18  1  0.08205647  0.94543111  0.58009738  1
  H  H19  1  0.50195909  0.05456889  0.41990262  1
  C  C20  1  0.62568373  0.75000000  0.25136746  1
  C  C21  1  0.37431627  0.25000000  0.74863254  1
  C  C22  1  0.07190668  -0.00000000  0.00000000  1
  C  C23  1  0.92809332  0.50000000  1.00000000  1
  C  C24  1  0.99129456  0.52532660  0.51135072  1
  C  C25  1  0.47994384  0.47467340  0.48864928  1
  C  C26  1  0.00870544  0.02532660  0.48864928  1
  C  C27  1  0.52005616  0.97467340  0.51135072  1
  C  C28  1  0.59500213  0.25000000  0.19000427  1
  C  C29  1  0.40499787  0.75000000  0.80999573  1
  N  N30  1  0.69839735  0.16771634  0.12445590  1
  N  N31  1  0.57394144  0.83228366  0.87554410  1
  N  N32  1  0.30160265  0.66771634  0.87554410  1
  N  N33  1  0.42605856  0.33228366  0.12445590  1
  O  O34  1  0.42906481  0.76535345  0.18747555  1
  O  O35  1  0.24158925  0.23464655  0.81252445  1
  O  O36  1  0.57093519  0.26535345  0.81252445  1
  O  O37  1  0.75841075  0.73464655  0.18747555  1
  O  O38  1  0.03305404  0.92614348  0.09861738  1
  O  O39  1  0.93443666  0.07385652  0.90138262  1
  O  O40  1  0.96694596  0.42614348  0.90138262  1
  O  O41  1  0.06556334  0.57385652  0.09861738  1
  O  O42  1  0.06580670  0.65097773  0.48375750  1
  O  O43  1  0.58204919  0.34902227  0.51624250  1
  O  O44  1  0.93419330  0.15097773  0.51624250  1
  O  O45  1  0.41795081  0.84902227  0.48375750  1
  O  O46  1  0.00426050  0.98402077  0.36408724  1
  O  O47  1  0.64017326  0.01597923  0.63591276  1
  O  O48  1  0.99573950  0.48402077  0.63591276  1
  O  O49  1  0.35982674  0.51597923  0.36408724  1
