# generated using pymatgen
data_NaNbFe(PO4)3
_symmetry_space_group_name_H-M   'P 1'
_cell_length_a   8.72632819
_cell_length_b   8.72634192
_cell_length_c   9.02347906
_cell_angle_alpha   89.99992731
_cell_angle_beta   118.91648135
_cell_angle_gamma   59.99994249
_symmetry_Int_Tables_number   1
_chemical_formula_structural   NaNbFe(PO4)3
_chemical_formula_sum   'Na2 Nb2 Fe2 P6 O24'
_cell_volume   493.67816945
_cell_formula_units_Z   2
loop_
 _symmetry_equiv_pos_site_id
 _symmetry_equiv_pos_as_xyz
  1  'x, y, z'
loop_
 _atom_site_type_symbol
 _atom_site_label
 _atom_site_symmetry_multiplicity
 _atom_site_fract_x
 _atom_site_fract_y
 _atom_site_fract_z
 _atom_site_occupancy
  Na  Na0  1  0.24310068  0.37844708  0.86465451  1
  Na  Na1  1  0.24310323  0.87844866  0.36465723  1
  Nb  Nb2  1  0.94622443  0.02688690  0.91933399  1
  Nb  Nb3  1  0.94621910  0.52689099  0.41933104  1
  Fe  Fe4  1  0.52556453  0.23721561  0.28834549  1
  Fe  Fe5  1  0.52556247  0.73722172  0.78834428  1
  P  P6  1  0.72462583  0.92382850  0.09609268  1
  P  P7  1  0.01992074  0.35154669  0.09609340  1
  P  P8  1  0.44763796  0.62853369  0.09609213  1
  P  P9  1  0.72462594  0.85154594  0.59609347  1
  P  P10  1  0.44763842  0.42382851  0.59609325  1
  P  P11  1  0.01992184  0.12853213  0.59609462  1
  O  O12  1  0.59517019  0.89075128  0.93030310  1
  O  O13  1  0.82105261  0.51408028  0.93030287  1
  O  O14  1  0.44438361  0.66486806  0.93030353  1
  O  O15  1  0.59517051  0.01407925  0.43030400  1
  O  O16  1  0.44438347  0.39074978  0.43030241  1
  O  O17  1  0.82105245  0.16486680  0.43030283  1
  O  O18  1  0.58000824  0.10188401  0.11703314  1
  O  O19  1  0.21891480  0.31810872  0.11703118  1
  O  O20  1  0.43513989  0.46297390  0.11703061  1
  O  O21  1  0.58000411  0.81810935  0.61703132  1
  O  O22  1  0.43513979  0.60188512  0.61703153  1
  O  O23  1  0.21891483  0.96297733  0.61703122  1
  O  O24  1  0.88971530  0.94149578  0.08307347  1
  O  O25  1  0.02456702  0.16879181  0.08307486  1
  O  O26  1  0.25186149  0.80664285  0.08307215  1
  O  O27  1  0.88971554  0.66878989  0.58307436  1
  O  O28  1  0.25186750  0.44149306  0.58307337  1
  O  O29  1  0.02456712  0.30664137  0.58307564  1
  O  O30  1  0.86989071  0.75063926  0.26738828  1
  O  O31  1  0.01802713  0.37946773  0.26738608  1
  O  O32  1  0.64685589  0.60250228  0.26738813  1
  O  O33  1  0.86989080  0.87946943  0.76738767  1
  O  O34  1  0.64685428  0.25064175  0.76738611  1
  O  O35  1  0.01802757  0.10250449  0.76738604  1
