# generated using pymatgen
data_NaV2Bi3O10
_symmetry_space_group_name_H-M   'P 1'
_cell_length_a   5.64395814
_cell_length_b   7.22026405
_cell_length_c   7.24272706
_cell_angle_alpha   107.07594228
_cell_angle_beta   112.69542242
_cell_angle_gamma   96.33186600
_symmetry_Int_Tables_number   1
_chemical_formula_structural   NaV2Bi3O10
_chemical_formula_sum   'Na1 V2 Bi3 O10'
_cell_volume   251.78622205
_cell_formula_units_Z   1
loop_
 _symmetry_equiv_pos_site_id
 _symmetry_equiv_pos_as_xyz
  1  'x, y, z'
loop_
 _atom_site_type_symbol
 _atom_site_label
 _atom_site_symmetry_multiplicity
 _atom_site_fract_x
 _atom_site_fract_y
 _atom_site_fract_z
 _atom_site_occupancy
  Na  Na0  1  0.69682135  0.62383285  0.80882064  1
  V  V1  1  0.65095833  0.15685541  0.85383748  1
  V  V2  1  0.34536616  0.84288794  0.13989989  1
  Bi  Bi3  1  0.91342546  0.24681815  0.47976696  1
  Bi  Bi4  1  0.09073862  0.75617983  0.53378256  1
  Bi  Bi5  1  0.30662720  0.38412737  0.21251777  1
  O  O6  1  0.74246177  0.49811538  0.45634068  1
  O  O7  1  0.24918196  0.49025198  0.51888752  1
  O  O8  1  0.84200893  0.30741171  0.78338214  1
  O  O9  1  0.16597576  0.68749735  0.21875243  1
  O  O10  1  0.43416952  0.10475606  0.29856684  1
  O  O11  1  0.55068706  0.90278036  0.69296227  1
  O  O12  1  0.86998334  0.19597661  0.12443556  1
  O  O13  1  0.14435019  0.79942501  0.87272826  1
  O  O14  1  0.62829492  0.76990207  0.16891763  1
  O  O15  1  0.36894942  0.23318191  0.83640137  1
