# generated using pymatgen
data_Nd9Al5Se21
_symmetry_space_group_name_H-M   'P 1'
_cell_length_a   12.24093777
_cell_length_b   12.24094108
_cell_length_c   12.24087776
_cell_angle_alpha   95.27891438
_cell_angle_beta   84.72072767
_cell_angle_gamma   84.72074349
_symmetry_Int_Tables_number   1
_chemical_formula_structural   Nd9Al5Se21
_chemical_formula_sum   'Nd18 Al10 Se42'
_cell_volume   1809.29204446
_cell_formula_units_Z   2
loop_
 _symmetry_equiv_pos_site_id
 _symmetry_equiv_pos_as_xyz
  1  'x, y, z'
loop_
 _atom_site_type_symbol
 _atom_site_label
 _atom_site_symmetry_multiplicity
 _atom_site_fract_x
 _atom_site_fract_y
 _atom_site_fract_z
 _atom_site_occupancy
  Nd  Nd0  1  0.25728533  0.11316462  0.88177564  1
  Nd  Nd1  1  0.92245045  0.45595701  0.22649314  1
  Nd  Nd2  1  0.59890658  0.77273861  0.55493475  1
  Nd  Nd3  1  0.44505934  0.40108309  0.77273995  1
  Nd  Nd4  1  0.11823157  0.74268322  0.11316375  1
  Nd  Nd5  1  0.77352195  0.07754932  0.45596134  1
  Nd  Nd6  1  0.54404408  0.22648307  0.07755443  1
  Nd  Nd7  1  0.22725818  0.55494239  0.40109849  1
  Nd  Nd8  1  0.88683382  0.88175960  0.74269909  1
  Nd  Nd9  1  0.41648972  0.21150361  0.43850483  1
  Nd  Nd10  1  0.07094038  0.54989993  0.77925961  1
  Nd  Nd11  1  0.75157247  0.87708862  0.10469726  1
  Nd  Nd12  1  0.22074134  0.92905750  0.54989418  1
  Nd  Nd13  1  0.89529946  0.24843677  0.87708127  1
  Nd  Nd14  1  0.56150009  0.58352106  0.21149218  1
  Nd  Nd15  1  0.12291339  0.10468459  0.24842709  1
  Nd  Nd16  1  0.78848885  0.43851231  0.58350806  1
  Nd  Nd17  1  0.45009635  0.77926781  0.92905612  1
  Al  Al18  1  0.94962021  0.72174054  0.38892313  1
  Al  Al19  1  0.61107640  0.05038294  0.72174390  1
  Al  Al20  1  0.27825945  0.38890906  0.05038389  1
  Al  Al21  1  0.44987032  0.88498021  0.22454852  1
  Al  Al22  1  0.11502434  0.22455764  0.55012833  1
  Al  Al23  1  0.77545072  0.55013700  0.88497031  1
  Al  Al24  1  0.14934558  0.85065185  0.85065409  1
  Al  Al25  1  0.83496678  0.16503430  0.16503298  1
  Al  Al26  1  0.33616063  0.66383351  0.66384939  1
  Al  Al27  1  0.64793841  0.35206107  0.35206089  1
  Se  Se28  1  0.82430100  0.84380096  0.51232703  1
  Se  Se29  1  0.48766670  0.17569609  0.84380824  1
  Se  Se30  1  0.15619506  0.51231931  0.17570337  1
  Se  Se31  1  0.65669670  0.67615259  0.01159362  1
  Se  Se32  1  0.32386258  0.01160861  0.34330543  1
  Se  Se33  1  0.98839128  0.34331415  0.67613018  1
  Se  Se34  1  0.98650682  0.54277846  0.45059147  1
  Se  Se35  1  0.64407196  0.87248185  0.78429370  1
  Se  Se36  1  0.30461534  0.20677502  0.10770645  1
  Se  Se37  1  0.89230477  0.69538660  0.20679698  1
  Se  Se38  1  0.54943443  0.01349453  0.54276111  1
  Se  Se39  1  0.21569687  0.35592238  0.87248774  1
  Se  Se40  1  0.12751437  0.78430679  0.35591894  1
  Se  Se41  1  0.79320573  0.10769329  0.69539527  1
  Se  Se42  1  0.45722523  0.45057664  0.01349673  1
  Se  Se43  1  0.52068999  0.96727633  0.06664652  1
  Se  Se44  1  0.18527759  0.30050869  0.38835253  1
  Se  Se45  1  0.83976353  0.63228480  0.72307632  1
  Se  Se46  1  0.61164395  0.81472912  0.30050552  1
  Se  Se47  1  0.27691626  0.16023882  0.63227813  1
  Se  Se48  1  0.93335264  0.47932056  0.96726969  1
  Se  Se49  1  0.36772289  0.72308718  0.16023670  1
  Se  Se50  1  0.03273053  0.06665057  0.47932142  1
  Se  Se51  1  0.69948894  0.38836713  0.81471897  1
  Se  Se52  1  0.69375349  0.55226827  0.40136644  1
  Se  Se53  1  0.34136101  0.88721701  0.75036454  1
  Se  Se54  1  0.00702611  0.23445556  0.09072183  1
  Se  Se55  1  0.90927781  0.99297629  0.23445658  1
  Se  Se56  1  0.59862886  0.30624696  0.55226530  1
  Se  Se57  1  0.24964516  0.65862679  0.88719830  1
  Se  Se58  1  0.11279972  0.75035890  0.65863138  1
  Se  Se59  1  0.76554898  0.09071638  0.99297517  1
  Se  Se60  1  0.44774820  0.40137202  0.30624353  1
  Se  Se61  1  0.62797944  0.14529872  0.28179280  1
  Se  Se62  1  0.28019149  0.47820065  0.61719210  1
  Se  Se63  1  0.96875246  0.78496434  0.93785998  1
  Se  Se64  1  0.38280298  0.71980088  0.47821568  1
  Se  Se65  1  0.06213387  0.03124870  0.78497275  1
  Se  Se66  1  0.71821385  0.37202549  0.14529640  1
  Se  Se67  1  0.21501919  0.93784925  0.03124985  1
  Se  Se68  1  0.85470040  0.28179177  0.37202609  1
  Se  Se69  1  0.52179564  0.61719028  0.71981259  1
