# generated using pymatgen
data_NaP4(RuO7)2
_symmetry_space_group_name_H-M   'P 1'
_cell_length_a   4.85765144
_cell_length_b   7.08310279
_cell_length_c   8.04118840
_cell_angle_alpha   91.12335921
_cell_angle_beta   92.64089630
_cell_angle_gamma   106.99081533
_symmetry_Int_Tables_number   1
_chemical_formula_structural   NaP4(RuO7)2
_chemical_formula_sum   'Na1 P4 Ru2 O14'
_cell_volume   264.15928713
_cell_formula_units_Z   1
loop_
 _symmetry_equiv_pos_site_id
 _symmetry_equiv_pos_as_xyz
  1  'x, y, z'
loop_
 _atom_site_type_symbol
 _atom_site_label
 _atom_site_symmetry_multiplicity
 _atom_site_fract_x
 _atom_site_fract_y
 _atom_site_fract_z
 _atom_site_occupancy
  Na  Na0  1  0.43781668  0.98828245  0.01940910  1
  P  P1  1  0.46636515  0.36896439  0.23973153  1
  P  P2  1  0.53324735  0.63346395  0.76062197  1
  P  P3  1  0.88019753  0.76137236  0.30514757  1
  P  P4  1  0.11972350  0.23994349  0.69663671  1
  Ru  Ru5  1  0.99905797  0.49957339  0.00003280  1
  Ru  Ru6  1  0.50019671  0.00092305  0.50087260  1
  O  O7  1  0.61313426  0.33326068  0.07989886  1
  O  O8  1  0.38428135  0.66850681  0.91983707  1
  O  O9  1  0.31156259  0.45854092  0.65046628  1
  O  O10  1  0.68879916  0.54238998  0.35034110  1
  O  O11  1  0.68664785  0.89982792  0.30559986  1
  O  O12  1  0.31116098  0.10000306  0.69489364  1
  O  O13  1  0.61941386  0.81456094  0.65717867  1
  O  O14  1  0.38102508  0.18453762  0.33981359  1
  O  O15  1  0.19483867  0.43310030  0.20235067  1
  O  O16  1  0.80449654  0.56907555  0.79922844  1
  O  O17  1  0.02087905  0.24788238  0.87618992  1
  O  O18  1  0.98361889  0.75402132  0.12623127  1
  O  O19  1  0.87790787  0.20073605  0.56018483  1
  O  O20  1  0.12162897  0.80103337  0.44133351  1
