# generated using pymatgen
data_NaAs3(PbO3)4
_symmetry_space_group_name_H-M   'P 1'
_cell_length_a   7.44354905
_cell_length_b   10.22688037
_cell_length_c   10.22706728
_cell_angle_alpha   59.99891531
_cell_angle_beta   90.00000000
_cell_angle_gamma   90.00000000
_symmetry_Int_Tables_number   1
_chemical_formula_structural   NaAs3(PbO3)4
_chemical_formula_sum   'Na2 As6 Pb8 O24'
_cell_volume   674.21782166
_cell_formula_units_Z   2
loop_
 _symmetry_equiv_pos_site_id
 _symmetry_equiv_pos_as_xyz
  1  'x, y, z'
loop_
 _atom_site_type_symbol
 _atom_site_label
 _atom_site_symmetry_multiplicity
 _atom_site_fract_x
 _atom_site_fract_y
 _atom_site_fract_z
 _atom_site_occupancy
  Na  Na0  1  0.99228307  0.33337251  0.33331187  1
  Na  Na1  1  0.49228307  0.66662749  0.66668813  1
  As  As2  1  0.24780089  0.01657812  0.37732573  1
  As  As3  1  0.24780367  0.60609476  0.01658187  1
  As  As4  1  0.24780522  0.37732497  0.60609474  1
  As  As5  1  0.74780089  0.98342188  0.62267427  1
  As  As6  1  0.74780367  0.39390524  0.98341813  1
  As  As7  1  0.74780522  0.62267503  0.39390526  1
  Pb  Pb8  1  0.75132124  0.25768251  0.74409645  1
  Pb  Pb9  1  0.75131629  0.99821478  0.25769177  1
  Pb  Pb10  1  0.75132280  0.74412527  0.99818312  1
  Pb  Pb11  1  0.25132124  0.74231749  0.25590355  1
  Pb  Pb12  1  0.25131629  0.00178522  0.74230823  1
  Pb  Pb13  1  0.25132280  0.25587473  0.00181688  1
  Pb  Pb14  1  0.01385736  0.66667247  0.66666421  1
  Pb  Pb15  1  0.51385736  0.33332753  0.33333579  1
  O  O16  1  0.56785169  0.33987356  0.91543768  1
  O  O17  1  0.56785531  0.74469019  0.33987075  1
  O  O18  1  0.56785870  0.91544008  0.74469285  1
  O  O19  1  0.06785169  0.66012644  0.08456232  1
  O  O20  1  0.06785531  0.25530981  0.66012925  1
  O  O21  1  0.06785870  0.08455992  0.25530715  1
  O  O22  1  0.43192952  0.65330707  0.08736615  1
  O  O23  1  0.43192942  0.25932066  0.65331082  1
  O  O24  1  0.43192192  0.08736133  0.25932004  1
  O  O25  1  0.93192952  0.34669293  0.91263385  1
  O  O26  1  0.93192942  0.74067934  0.34668918  1
  O  O27  1  0.93192192  0.91263867  0.74067996  1
  O  O28  1  0.24756687  0.10316750  0.48664217  1
  O  O29  1  0.24756332  0.41018418  0.10317132  1
  O  O30  1  0.24756033  0.48664929  0.41018613  1
  O  O31  1  0.74756687  0.89683250  0.51335783  1
  O  O32  1  0.74756332  0.58981582  0.89682868  1
  O  O33  1  0.74756033  0.51335071  0.58981387  1
  O  O34  1  0.25148187  0.69185248  0.82266473  1
  O  O35  1  0.25148873  0.48547734  0.69185443  1
  O  O36  1  0.25148177  0.82265900  0.48548164  1
  O  O37  1  0.75148187  0.30814752  0.17733527  1
  O  O38  1  0.75148873  0.51452266  0.30814557  1
  O  O39  1  0.75148177  0.17734100  0.51451836  1
