# generated using pymatgen
data_Nb2Ni5Te6
_symmetry_space_group_name_H-M   'P 1'
_cell_length_a   7.57483511
_cell_length_b   10.75210394
_cell_length_c   8.42798340
_cell_angle_alpha   113.27790676
_cell_angle_beta   116.60027588
_cell_angle_gamma   69.50321894
_symmetry_Int_Tables_number   1
_chemical_formula_structural   Nb2Ni5Te6
_chemical_formula_sum   'Nb4 Ni10 Te12'
_cell_volume   551.12552467
_cell_formula_units_Z   2
loop_
 _symmetry_equiv_pos_site_id
 _symmetry_equiv_pos_as_xyz
  1  'x, y, z'
loop_
 _atom_site_type_symbol
 _atom_site_label
 _atom_site_symmetry_multiplicity
 _atom_site_fract_x
 _atom_site_fract_y
 _atom_site_fract_z
 _atom_site_occupancy
  Nb  Nb0  1  0.87398376  0.79803958  0.29673553  1
  Nb  Nb1  1  0.37410864  0.79036802  0.28905906  1
  Nb  Nb2  1  0.62601624  0.20196042  0.70326447  1
  Nb  Nb3  1  0.12589136  0.20963198  0.71094094  1
  Ni  Ni4  1  0.36690446  0.41260137  0.90153887  1
  Ni  Ni5  1  0.87103265  0.41079812  0.89783602  1
  Ni  Ni6  1  0.13309554  0.58739863  0.09846113  1
  Ni  Ni7  1  0.62896735  0.58920188  0.10216398  1
  Ni  Ni8  1  0.31740054  0.06925751  0.45646111  1
  Ni  Ni9  1  0.81951865  0.07081969  0.45579835  1
  Ni  Ni10  1  0.18259946  0.93074249  0.54353889  1
  Ni  Ni11  1  0.68048135  0.92918031  0.54420165  1
  Ni  Ni12  1  0.51564369  0.49751253  0.27767420  1
  Ni  Ni13  1  0.98435631  0.50248747  0.72232580  1
  Te  Te14  1  0.25490500  0.67049033  0.91637120  1
  Te  Te15  1  0.74897782  0.66845230  0.92648134  1
  Te  Te16  1  0.24509500  0.32950967  0.08362880  1
  Te  Te17  1  0.75102218  0.33154770  0.07351866  1
  Te  Te18  1  0.22952174  0.33830316  0.53919252  1
  Te  Te19  1  0.71884589  0.33937025  0.53268985  1
  Te  Te20  1  0.27047826  0.66169684  0.46080748  1
  Te  Te21  1  0.78115411  0.66062975  0.46731015  1
  Te  Te22  1  0.50958323  0.00693253  0.77995629  1
  Te  Te23  1  0.01144634  0.00417195  0.77594666  1
  Te  Te24  1  0.99041677  0.99306747  0.22004371  1
  Te  Te25  1  0.48855366  0.99582805  0.22405334  1
