# generated using pymatgen
data_NaPrF4
_symmetry_space_group_name_H-M   'P 1'
_cell_length_a   6.20646379
_cell_length_b   7.26608003
_cell_length_c   7.25658668
_cell_angle_alpha   62.76538506
_cell_angle_beta   64.74049581
_cell_angle_gamma   64.75892629
_symmetry_Int_Tables_number   1
_chemical_formula_structural   NaPrF4
_chemical_formula_sum   'Na3 Pr3 F12'
_cell_volume   252.04190097
_cell_formula_units_Z   3
loop_
 _symmetry_equiv_pos_site_id
 _symmetry_equiv_pos_as_xyz
  1  'x, y, z'
loop_
 _atom_site_type_symbol
 _atom_site_label
 _atom_site_symmetry_multiplicity
 _atom_site_fract_x
 _atom_site_fract_y
 _atom_site_fract_z
 _atom_site_occupancy
  Na  Na0  1  0.33001019  0.81340163  0.53643629  1
  Na  Na1  1  0.33892446  0.29405402  0.02144940  1
  Na  Na2  1  0.66732974  0.08683286  0.57779416  1
  Pr  Pr3  1  0.99847898  0.99817720  0.00451690  1
  Pr  Pr4  1  0.00166792  0.49247188  0.50526205  1
  Pr  Pr5  1  0.66635493  0.58684076  0.08103592  1
  F  F6  1  0.73986209  0.86488198  0.37491779  1
  F  F7  1  0.71862852  0.37094765  0.87562878  1
  F  F8  1  0.02550688  0.11230231  0.62233613  1
  F  F9  1  0.02989485  0.60865875  0.11280518  1
  F  F10  1  0.24713093  0.76436698  0.26934604  1
  F  F11  1  0.24077359  0.25698254  0.76666570  1
  F  F12  1  0.63916754  0.96267155  0.99086917  1
  F  F13  1  0.63974842  0.49435219  0.45774858  1
  F  F14  1  0.40768612  0.34008853  0.29852900  1
  F  F15  1  0.40569349  0.80415354  0.83717248  1
  F  F16  1  0.94965570  0.22320043  0.18681327  1
  F  F17  1  0.95348564  0.68761520  0.71867314  1
