# generated using pymatgen
data_NaB4Ir3
_symmetry_space_group_name_H-M   'P 1'
_cell_length_a   7.59917640
_cell_length_b   7.59917640
_cell_length_c   8.31573133
_cell_angle_alpha   90.00000000
_cell_angle_beta   90.00000000
_cell_angle_gamma   97.59953378
_symmetry_Int_Tables_number   1
_chemical_formula_structural   NaB4Ir3
_chemical_formula_sum   'Na4 B16 Ir12'
_cell_volume   475.99465337
_cell_formula_units_Z   4
loop_
 _symmetry_equiv_pos_site_id
 _symmetry_equiv_pos_as_xyz
  1  'x, y, z'
loop_
 _atom_site_type_symbol
 _atom_site_label
 _atom_site_symmetry_multiplicity
 _atom_site_fract_x
 _atom_site_fract_y
 _atom_site_fract_z
 _atom_site_occupancy
  Na  Na0  1  0.00151717  0.99848283  0.50000000  1
  Na  Na1  1  0.50151717  0.49848283  0.50000000  1
  Na  Na2  1  0.15964795  0.34035205  0.82355999  1
  Na  Na3  1  0.65964795  0.84035205  0.17644001  1
  B  B4  1  0.15721753  0.15533257  0.18473887  1
  B  B5  1  0.84466743  0.84278247  0.81526113  1
  B  B6  1  0.65721753  0.65533257  0.81526113  1
  B  B7  1  0.34466743  0.34278247  0.18473887  1
  B  B8  1  0.91145198  0.40969658  0.49999310  1
  B  B9  1  0.59030342  0.08854802  0.50000690  1
  B  B10  1  0.09030342  0.58854802  0.49999310  1
  B  B11  1  0.41145198  0.90969658  0.50000690  1
  B  B12  1  0.21414237  0.94378647  0.16288925  1
  B  B13  1  0.05621353  0.78585763  0.83711075  1
  B  B14  1  0.44581654  0.71381380  0.83725140  1
  B  B15  1  0.28618620  0.55418346  0.16274860  1
  B  B16  1  0.78618620  0.05418346  0.83725140  1
  B  B17  1  0.94581654  0.21381380  0.16274860  1
  B  B18  1  0.55621353  0.28585763  0.16288925  1
  B  B19  1  0.71414237  0.44378647  0.83711075  1
  Ir  Ir20  1  0.10990265  0.39009735  0.31305336  1
  Ir  Ir21  1  0.60990265  0.89009735  0.68694664  1
  Ir  Ir22  1  0.89218204  0.60781796  0.68782254  1
  Ir  Ir23  1  0.39218204  0.10781796  0.31217746  1
  Ir  Ir24  1  0.75095251  0.24904749  -0.00000000  1
  Ir  Ir25  1  0.25095251  0.74904749  0.00000000  1
  Ir  Ir26  1  0.00095280  0.99904720  -0.00000000  1
  Ir  Ir27  1  0.50095280  0.49904720  -0.00000000  1
  Ir  Ir28  1  0.75103008  0.24918421  0.66528097  1
  Ir  Ir29  1  0.75081579  0.24896992  0.33471903  1
  Ir  Ir30  1  0.25103008  0.74918421  0.33471903  1
  Ir  Ir31  1  0.25081579  0.74896992  0.66528097  1
