# generated using pymatgen
data_MnCd4Te5
_symmetry_space_group_name_H-M   'P 1'
_cell_length_a   6.56678873
_cell_length_b   8.04078013
_cell_length_c   8.04078013
_cell_angle_alpha   80.40144903
_cell_angle_beta   65.89922792
_cell_angle_gamma   65.89922792
_symmetry_Int_Tables_number   1
_chemical_formula_structural   MnCd4Te5
_chemical_formula_sum   'Mn1 Cd4 Te5'
_cell_volume   353.77567329
_cell_formula_units_Z   1
loop_
 _symmetry_equiv_pos_site_id
 _symmetry_equiv_pos_as_xyz
  1  'x, y, z'
loop_
 _atom_site_type_symbol
 _atom_site_label
 _atom_site_symmetry_multiplicity
 _atom_site_fract_x
 _atom_site_fract_y
 _atom_site_fract_z
 _atom_site_occupancy
  Mn  Mn0  1  0.80000000  0.80000000  0.60000000  1
  Cd  Cd1  1  0.99992530  0.99839891  0.99944520  1
  Cd  Cd2  1  0.20062950  0.19944520  0.40160109  1
  Cd  Cd3  1  0.40167579  0.40055480  0.79839891  1
  Cd  Cd4  1  0.59776940  0.60160109  0.20055480  1
  Te  Te5  1  0.46325529  0.70324060  0.88919267  1
  Te  Te6  1  0.65568856  0.89675940  0.31080733  1
  Te  Te7  1  0.84755204  0.08919267  0.69675940  1
  Te  Te8  1  0.05000000  0.30000000  0.10000000  1
  Te  Te9  1  0.23350411  0.51080733  0.50324060  1
