# generated using pymatgen
data_NaCr12Si8ClO28
_symmetry_space_group_name_H-M   'P 1'
_cell_length_a   9.91012755
_cell_length_b   9.91012755
_cell_length_c   9.91012755
_cell_angle_alpha   63.64806594
_cell_angle_beta   63.64806594
_cell_angle_gamma   96.44404251
_symmetry_Int_Tables_number   1
_chemical_formula_structural   NaCr12Si8ClO28
_chemical_formula_sum   'Na1 Cr12 Si8 Cl1 O28'
_cell_volume   721.22036252
_cell_formula_units_Z   1
loop_
 _symmetry_equiv_pos_site_id
 _symmetry_equiv_pos_as_xyz
  1  'x, y, z'
loop_
 _atom_site_type_symbol
 _atom_site_label
 _atom_site_symmetry_multiplicity
 _atom_site_fract_x
 _atom_site_fract_y
 _atom_site_fract_z
 _atom_site_occupancy
  Na  Na0  1  0.04068589  0.04068589  -0.00000000  1
  Cr  Cr1  1  0.51313000  0.28538959  0.77225960  1
  Cr  Cr2  1  0.05764919  0.28538959  0.22774040  1
  Cr  Cr3  1  0.28538959  0.05764919  0.22774040  1
  Cr  Cr4  1  0.28538959  0.51313000  0.77225960  1
  Cr  Cr5  1  0.48568065  0.71775683  0.23207618  1
  Cr  Cr6  1  0.94983301  0.71775683  0.76792382  1
  Cr  Cr7  1  0.71775683  0.94983301  0.76792382  1
  Cr  Cr8  1  0.71775683  0.48568065  0.23207618  1
  Cr  Cr9  1  0.82335483  0.49944071  0.67608588  1
  Cr  Cr10  1  0.17552659  0.49944071  0.32391412  1
  Cr  Cr11  1  0.49944071  0.17552659  0.32391412  1
  Cr  Cr12  1  0.49944071  0.82335483  0.67608588  1
  Si  Si13  1  0.33002144  0.33002144  0.56244217  1
  Si  Si14  1  0.89246361  0.89246361  0.43755783  1
  Si  Si15  1  0.33002144  0.89246361  0.00000000  1
  Si  Si16  1  0.89246361  0.33002144  -0.00000000  1
  Si  Si17  1  0.67153671  0.67153671  0.43496130  1
  Si  Si18  1  0.10649801  0.10649801  0.56503870  1
  Si  Si19  1  0.67153671  0.10649801  -0.00000000  1
  Si  Si20  1  0.10649801  0.67153671  0.00000000  1
  Cl  Cl21  1  0.43729650  0.43729650  0.00000000  1
  O  O22  1  0.69691095  0.51141820  0.55741155  1
  O  O23  1  0.06882975  0.25432250  0.44258845  1
  O  O24  1  0.69691095  0.25432250  0.81450725  1
  O  O25  1  0.06882975  0.51141820  0.18549275  1
  O  O26  1  0.51141820  0.06882975  0.18549275  1
  O  O27  1  0.25432250  0.69691095  0.81450725  1
  O  O28  1  0.51141820  0.69691095  0.55741155  1
  O  O29  1  0.25432250  0.06882975  0.44258845  1
  O  O30  1  0.30550166  0.48980621  0.43852568  1
  O  O31  1  0.92833189  0.74402734  0.56147432  1
  O  O32  1  0.30550166  0.74402734  0.18430455  1
  O  O33  1  0.92833189  0.48980621  0.81569545  1
  O  O34  1  0.48980621  0.92833189  0.81569545  1
  O  O35  1  0.74402734  0.30550166  0.18430455  1
  O  O36  1  0.48980621  0.30550166  0.43852568  1
  O  O37  1  0.74402734  0.92833189  0.56147432  1
  O  O38  1  0.34276117  0.34276117  0.71560430  1
  O  O39  1  0.05836547  0.05836547  0.28439570  1
  O  O40  1  0.34276117  0.05836547  0.00000000  1
  O  O41  1  0.05836547  0.34276117  -0.00000000  1
  O  O42  1  0.65381773  0.65381773  0.28672043  1
  O  O43  1  0.94053815  0.94053815  0.71327957  1
  O  O44  1  0.65381773  0.94053815  0.00000000  1
  O  O45  1  0.94053815  0.65381773  -0.00000000  1
  O  O46  1  0.16509661  0.16509661  0.67079053  1
  O  O47  1  0.83588714  0.83588714  0.32920947  1
  O  O48  1  0.16509661  0.83588714  0.00000000  1
  O  O49  1  0.83588714  0.16509661  -0.00000000  1
