# generated using pymatgen
data_NaCa2Nb8(BiO4)9
_symmetry_space_group_name_H-M   'P 1'
_cell_length_a   5.54585113
_cell_length_b   5.60304000
_cell_length_c   25.29438793
_cell_angle_alpha   90.00000000
_cell_angle_beta   90.00000000
_cell_angle_gamma   90.45020577
_symmetry_Int_Tables_number   1
_chemical_formula_structural   NaCa2Nb8(BiO4)9
_chemical_formula_sum   'Na1 Ca2 Nb8 Bi9 O36'
_cell_volume   785.96407958
_cell_formula_units_Z   1
loop_
 _symmetry_equiv_pos_site_id
 _symmetry_equiv_pos_as_xyz
  1  'x, y, z'
loop_
 _atom_site_type_symbol
 _atom_site_label
 _atom_site_symmetry_multiplicity
 _atom_site_fract_x
 _atom_site_fract_y
 _atom_site_fract_z
 _atom_site_occupancy
  Na  Na0  1  0.26510356  0.74351407  0.50000000  1
  Ca  Ca1  1  0.75636669  0.73344896  0.00000000  1
  Ca  Ca2  1  0.24549084  0.23519465  -0.00000000  1
  Nb  Nb3  1  0.75821672  0.76494928  0.41611547  1
  Nb  Nb4  1  0.25762478  0.76603566  0.91896731  1
  Nb  Nb5  1  0.25762478  0.76603566  0.08103269  1
  Nb  Nb6  1  0.75821672  0.76494928  0.58388453  1
  Nb  Nb7  1  0.74648741  0.26510658  0.08077295  1
  Nb  Nb8  1  0.25688730  0.26937119  0.58315141  1
  Nb  Nb9  1  0.25688730  0.26937119  0.41684859  1
  Nb  Nb10  1  0.74648741  0.26510658  0.91922705  1
  Bi  Bi11  1  0.28241601  0.71241803  0.29928233  1
  Bi  Bi12  1  0.78432242  0.70876349  0.80188427  1
  Bi  Bi13  1  0.78432242  0.70876349  0.19811573  1
  Bi  Bi14  1  0.28241601  0.71241803  0.70071767  1
  Bi  Bi15  1  0.21665445  0.21195822  0.19865981  1
  Bi  Bi16  1  0.71497743  0.20915813  0.70021507  1
  Bi  Bi17  1  0.71497743  0.20915813  0.29978493  1
  Bi  Bi18  1  0.21665445  0.21195822  0.80134019  1
  Bi  Bi19  1  0.77286620  0.22207319  0.50000000  1
  O  O20  1  0.82071019  0.82124799  0.50000000  1
  O  O21  1  0.33490134  0.82265037  -0.00000000  1
  O  O22  1  0.66357090  0.32252285  0.00000000  1
  O  O23  1  0.16720244  0.32194722  0.50000000  1
  O  O24  1  0.94258316  0.09883156  0.41535898  1
  O  O25  1  0.44443796  0.09815559  0.91315307  1
  O  O26  1  0.44443796  0.09815559  0.08684693  1
  O  O27  1  0.94258316  0.09883156  0.58464102  1
  O  O28  1  0.55354588  0.59737129  0.08706696  1
  O  O29  1  0.04365312  0.58885158  0.59120904  1
  O  O30  1  0.04365312  0.58885158  0.40879096  1
  O  O31  1  0.55354588  0.59737129  0.91293304  1
  O  O32  1  0.45593499  0.01030086  0.43603895  1
  O  O33  1  0.95278718  0.00701411  0.93997382  1
  O  O34  1  0.95278718  0.00701411  0.06002618  1
  O  O35  1  0.45593499  0.01030086  0.56396105  1
  O  O36  1  0.04437526  0.50765217  0.05970347  1
  O  O37  1  0.54120714  0.50481194  0.56528778  1
  O  O38  1  0.54120714  0.50481194  0.43471222  1
  O  O39  1  0.04437526  0.50765217  0.94029653  1
  O  O40  1  0.98528879  0.98687492  0.24972710  1
  O  O41  1  0.48475902  0.98706781  0.75188872  1
  O  O42  1  0.48475902  0.98706781  0.24811128  1
  O  O43  1  0.98528879  0.98687492  0.75027290  1
  O  O44  1  0.51310848  0.48697498  0.24878269  1
  O  O45  1  0.01419843  0.48750017  0.75069261  1
  O  O46  1  0.01419843  0.48750017  0.24930739  1
  O  O47  1  0.51310848  0.48697498  0.75121731  1
  O  O48  1  0.66704999  0.80827686  0.34432766  1
  O  O49  1  0.16125724  0.80155804  0.84723825  1
  O  O50  1  0.16125724  0.80155804  0.15276175  1
  O  O51  1  0.66704999  0.80827686  0.65567234  1
  O  O52  1  0.83725120  0.30364183  0.15280155  1
  O  O53  1  0.32786955  0.29125607  0.65625756  1
  O  O54  1  0.32786955  0.29125607  0.34374244  1
  O  O55  1  0.83725120  0.30364183  0.84719845  1
