# generated using pymatgen
data_SiO2
_symmetry_space_group_name_H-M   'P 1'
_cell_length_a   8.19486779
_cell_length_b   8.19486779
_cell_length_c   14.16873641
_cell_angle_alpha   90.00000000
_cell_angle_beta   90.00000000
_cell_angle_gamma   101.97162516
_symmetry_Int_Tables_number   1
_chemical_formula_structural   SiO2
_chemical_formula_sum   'Si16 O32'
_cell_volume   930.81865357
_cell_formula_units_Z   16
loop_
 _symmetry_equiv_pos_site_id
 _symmetry_equiv_pos_as_xyz
  1  'x, y, z'
loop_
 _atom_site_type_symbol
 _atom_site_label
 _atom_site_symmetry_multiplicity
 _atom_site_fract_x
 _atom_site_fract_y
 _atom_site_fract_z
 _atom_site_occupancy
  Si  Si0  1  0.58863325  0.18675774  0.68271305  1
  Si  Si1  1  0.18675774  0.58863325  0.31728695  1
  Si  Si2  1  0.41136675  0.81324226  0.68271305  1
  Si  Si3  1  0.81324226  0.41136675  0.31728695  1
  Si  Si4  1  0.90929932  0.31325271  0.81541123  1
  Si  Si5  1  0.31325271  0.90929932  0.18458877  1
  Si  Si6  1  0.09070068  0.68674729  0.81541123  1
  Si  Si7  1  0.68674729  0.09070068  0.18458877  1
  Si  Si8  1  0.66255864  0.33744136  0.50000000  1
  Si  Si9  1  0.33744136  0.66255864  0.50000000  1
  Si  Si10  1  0.50000000  0.50000000  0.63554953  1
  Si  Si11  1  0.50000000  0.50000000  0.36445047  1
  Si  Si12  1  0.00000000  0.00000000  0.86108937  1
  Si  Si13  1  -0.00000000  -0.00000000  0.13891063  1
  Si  Si14  1  0.83929507  0.16070493  0.00000000  1
  Si  Si15  1  0.16070493  0.83929507  0.00000000  1
  O  O16  1  0.50000000  -0.00000000  0.71566163  1
  O  O17  1  -0.00000000  0.50000000  0.28433837  1
  O  O18  1  0.74797625  0.25304009  0.74950400  1
  O  O19  1  0.25304009  0.74797625  0.25049600  1
  O  O20  1  0.25202375  0.74695991  0.74950400  1
  O  O21  1  0.74695991  0.25202375  0.25049600  1
  O  O22  1  0.64262241  0.17703170  0.57061230  1
  O  O23  1  0.17703170  0.64262241  0.42938770  1
  O  O24  1  0.35737759  0.82296830  0.57061230  1
  O  O25  1  0.82296830  0.35737759  0.42938770  1
  O  O26  1  0.46706167  0.32349120  0.69427735  1
  O  O27  1  0.32349120  0.46706167  0.30572265  1
  O  O28  1  0.53293833  0.67650880  0.69427735  1
  O  O29  1  0.67650880  0.53293833  0.30572265  1
  O  O30  1  0.85862683  0.32040201  0.92843368  1
  O  O31  1  0.32040201  0.85862683  0.07156632  1
  O  O32  1  0.14137317  0.67959799  0.92843368  1
  O  O33  1  0.67959799  0.14137317  0.07156632  1
  O  O34  1  0.02831858  0.17465700  0.80073393  1
  O  O35  1  0.17465700  0.02831858  0.19926607  1
  O  O36  1  0.97168142  0.82534300  0.80073393  1
  O  O37  1  0.82534300  0.97168142  0.19926607  1
  O  O38  1  0.66772627  0.49929281  0.57053944  1
  O  O39  1  0.49929281  0.66772627  0.42946056  1
  O  O40  1  0.33227373  0.50070719  0.57053944  1
  O  O41  1  0.50070719  0.33227373  0.42946056  1
  O  O42  1  -0.00000000  0.50000000  0.78324248  1
  O  O43  1  0.50000000  -0.00000000  0.21675752  1
  O  O44  1  0.16564272  0.99952973  0.92802793  1
  O  O45  1  0.99952973  0.16564272  0.07197207  1
  O  O46  1  0.83435728  0.00047027  0.92802793  1
  O  O47  1  0.00047027  0.83435728  0.07197207  1
