# generated using pymatgen
data_NaCaBO3
_symmetry_space_group_name_H-M   'P 1'
_cell_length_a   3.53596736
_cell_length_b   10.28442298
_cell_length_c   16.25734782
_cell_angle_alpha   90.06729509
_cell_angle_beta   90.00000000
_cell_angle_gamma   90.00000000
_symmetry_Int_Tables_number   1
_chemical_formula_structural   NaCaBO3
_chemical_formula_sum   'Na8 Ca8 B8 O24'
_cell_volume   591.20428789
_cell_formula_units_Z   8
loop_
 _symmetry_equiv_pos_site_id
 _symmetry_equiv_pos_as_xyz
  1  'x, y, z'
loop_
 _atom_site_type_symbol
 _atom_site_label
 _atom_site_symmetry_multiplicity
 _atom_site_fract_x
 _atom_site_fract_y
 _atom_site_fract_z
 _atom_site_occupancy
  Na  Na0  1  0.21332304  0.24749179  0.08130006  1
  Na  Na1  1  0.20390971  0.25988867  0.41680808  1
  Na  Na2  1  0.79609029  0.75988867  0.91680808  1
  Na  Na3  1  0.78667696  0.74749179  0.58130006  1
  Na  Na4  1  0.37795009  0.75513522  0.75142764  1
  Na  Na5  1  0.62204991  0.25513522  0.25142764  1
  Na  Na6  1  0.23668571  0.03195107  0.90048065  1
  Na  Na7  1  0.76331429  0.53195107  0.40048065  1
  Ca  Ca8  1  0.53024495  0.24386377  0.75270451  1
  Ca  Ca9  1  0.46975505  0.74386377  0.25270451  1
  Ca  Ca10  1  0.23431627  0.03252302  0.60024645  1
  Ca  Ca11  1  0.23454563  0.46550719  0.90137040  1
  Ca  Ca12  1  0.24093780  0.46762035  0.59480424  1
  Ca  Ca13  1  0.75906220  0.96762035  0.09480424  1
  Ca  Ca14  1  0.76545437  0.96550719  0.40137040  1
  Ca  Ca15  1  0.76568373  0.53252302  0.10024645  1
  B  B16  1  0.31922306  0.74843871  0.04255127  1
  B  B17  1  0.32001071  0.75243312  0.46164100  1
  B  B18  1  0.67998929  0.25243312  0.96164100  1
  B  B19  1  0.68077694  0.24843871  0.54255127  1
  B  B20  1  0.83946392  0.97305458  0.74688328  1
  B  B21  1  0.83544394  0.52236786  0.75021987  1
  B  B22  1  0.16455606  0.02236786  0.25021987  1
  B  B23  1  0.16053608  0.47305458  0.24688328  1
  O  O24  1  0.03390079  0.09167229  0.74316561  1
  O  O25  1  0.04460274  0.40722479  0.75054799  1
  O  O26  1  0.95539726  0.90722479  0.25054799  1
  O  O27  1  0.96609921  0.59167229  0.24316561  1
  O  O28  1  0.48145632  0.25408525  0.88912721  1
  O  O29  1  0.46377249  0.24686849  0.61323565  1
  O  O30  1  0.53622751  0.74686849  0.11323565  1
  O  O31  1  0.51854368  0.75408525  0.38912721  1
  O  O32  1  0.76248751  0.91046428  0.81907787  1
  O  O33  1  0.73477374  0.91870508  0.66989916  1
  O  O34  1  0.73850172  0.57900071  0.82584964  1
  O  O35  1  0.73872771  0.57916381  0.67529522  1
  O  O36  1  0.26127229  0.07916381  0.17529522  1
  O  O37  1  0.26149828  0.07900071  0.32584964  1
  O  O38  1  0.26522626  0.41870508  0.16989916  1
  O  O39  1  0.23751249  0.41046428  0.31907787  1
  O  O40  1  0.22574153  0.86722095  0.00813891  1
  O  O41  1  0.22627964  0.87502302  0.49576864  1
  O  O42  1  0.23332154  0.63033542  0.00413918  1
  O  O43  1  0.24987226  0.63996057  0.50531747  1
  O  O44  1  0.75012774  0.13996057  0.00531747  1
  O  O45  1  0.76667846  0.13033542  0.50413918  1
  O  O46  1  0.77372036  0.37502302  0.99576864  1
  O  O47  1  0.77425847  0.36722095  0.50813891  1
