# generated using pymatgen
data_NaBiTeO5
_symmetry_space_group_name_H-M   'P 1'
_cell_length_a   6.35747459
_cell_length_b   7.39825456
_cell_length_c   9.91294612
_cell_angle_alpha   90.00000000
_cell_angle_beta   90.00000000
_cell_angle_gamma   107.29132349
_symmetry_Int_Tables_number   1
_chemical_formula_structural   NaBiTeO5
_chemical_formula_sum   'Na4 Bi4 Te4 O20'
_cell_volume   445.17596368
_cell_formula_units_Z   4
loop_
 _symmetry_equiv_pos_site_id
 _symmetry_equiv_pos_as_xyz
  1  'x, y, z'
loop_
 _atom_site_type_symbol
 _atom_site_label
 _atom_site_symmetry_multiplicity
 _atom_site_fract_x
 _atom_site_fract_y
 _atom_site_fract_z
 _atom_site_occupancy
  Na  Na0  1  0.59837011  0.23230975  0.78238680  1
  Na  Na1  1  0.90162989  0.76769025  0.28238680  1
  Na  Na2  1  0.40162989  0.76769025  0.21761320  1
  Na  Na3  1  0.09837011  0.23230975  0.71761320  1
  Bi  Bi4  1  0.54421227  0.70984695  0.86903615  1
  Bi  Bi5  1  0.95578773  0.29015305  0.36903615  1
  Bi  Bi6  1  0.45578773  0.29015305  0.13096385  1
  Bi  Bi7  1  0.04421227  0.70984695  0.63096385  1
  Te  Te8  1  -0.00000000  -0.00000000  0.00000000  1
  Te  Te9  1  0.50000000  0.00000000  0.50000000  1
  Te  Te10  1  -0.00000000  0.50000000  -0.00000000  1
  Te  Te11  1  0.50000000  0.50000000  0.50000000  1
  O  O12  1  0.69978018  0.49189711  0.94927345  1
  O  O13  1  0.80021982  0.50810289  0.44927345  1
  O  O14  1  0.30021982  0.50810289  0.05072655  1
  O  O15  1  0.19978018  0.49189711  0.55072655  1
  O  O16  1  0.11104368  0.77706786  0.04453055  1
  O  O17  1  0.38895632  0.22293214  0.54453055  1
  O  O18  1  0.88895632  0.22293214  0.95546945  1
  O  O19  1  0.61104368  0.77706786  0.45546945  1
  O  O20  1  0.89439456  0.46001872  0.18356324  1
  O  O21  1  0.60560544  0.53998128  0.68356324  1
  O  O22  1  0.10560544  0.53998128  0.81643676  1
  O  O23  1  0.39439456  0.46001872  0.31643676  1
  O  O24  1  0.10184945  0.09740855  0.17922836  1
  O  O25  1  0.39815055  0.90259145  0.67922836  1
  O  O26  1  0.89815055  0.90259145  0.82077164  1
  O  O27  1  0.60184945  0.09740855  0.32077164  1
  O  O28  1  0.28614173  0.13442572  0.93104309  1
  O  O29  1  0.21385827  0.86557428  0.43104309  1
  O  O30  1  0.71385827  0.86557428  0.06895691  1
  O  O31  1  0.78614173  0.13442572  0.56895691  1
