# generated using pymatgen
data_Na4Eu2SiAs4
_symmetry_space_group_name_H-M   'P 1'
_cell_length_a   7.29899081
_cell_length_b   9.54882970
_cell_length_c   9.61004240
_cell_angle_alpha   120.21700436
_cell_angle_beta   90.93286369
_cell_angle_gamma   89.54179036
_symmetry_Int_Tables_number   1
_chemical_formula_structural   Na4Eu2SiAs4
_chemical_formula_sum   'Na8 Eu4 Si2 As8'
_cell_volume   578.70535482
_cell_formula_units_Z   2
loop_
 _symmetry_equiv_pos_site_id
 _symmetry_equiv_pos_as_xyz
  1  'x, y, z'
loop_
 _atom_site_type_symbol
 _atom_site_label
 _atom_site_symmetry_multiplicity
 _atom_site_fract_x
 _atom_site_fract_y
 _atom_site_fract_z
 _atom_site_occupancy
  Na  Na0  1  0.38150483  0.52484231  0.04896567  1
  Na  Na1  1  0.88152773  0.47515488  0.52416421  1
  Na  Na2  1  0.19133352  0.14310872  0.28239647  1
  Na  Na3  1  0.20168885  0.14804273  0.86274213  1
  Na  Na4  1  0.19835552  0.71336906  0.86019517  1
  Na  Na5  1  0.70171981  0.85201267  0.71479970  1
  Na  Na6  1  0.69135572  0.85684571  0.13926362  1
  Na  Na7  1  0.69836942  0.28663405  0.14681967  1
  Eu  Eu8  1  0.37977256  0.52102628  0.47416983  1
  Eu  Eu9  1  0.38008410  0.95154947  0.47219180  1
  Eu  Eu10  1  0.87975089  0.47898821  0.95320363  1
  Eu  Eu11  1  0.88006105  0.04842618  0.52062301  1
  Si  Si12  1  0.50044654  0.33513537  0.67026293  1
  Si  Si13  1  0.00044847  0.66487114  0.33512477  1
  As  As14  1  0.16475624  0.32720133  0.66371686  1
  As  As15  1  0.66474606  0.67279440  0.33646334  1
  As  As16  1  0.10599459  0.80968971  0.61342674  1
  As  As17  1  0.09533155  0.80644531  0.19451169  1
  As  As18  1  0.09970639  0.38779272  0.19147569  1
  As  As19  1  0.59531926  0.19351863  0.38803789  1
  As  As20  1  0.60595548  0.19034505  0.80372584  1
  As  As21  1  0.59977142  0.61220607  0.80371932  1
