# generated using pymatgen
data_Na10NbGaAs6
_symmetry_space_group_name_H-M   'P 1'
_cell_length_a   7.55507620
_cell_length_b   8.39626446
_cell_length_c   13.69957624
_cell_angle_alpha   90.99525060
_cell_angle_beta   90.00000000
_cell_angle_gamma   90.00000000
_symmetry_Int_Tables_number   1
_chemical_formula_structural   Na10NbGaAs6
_chemical_formula_sum   'Na20 Nb2 Ga2 As12'
_cell_volume   868.89354047
_cell_formula_units_Z   2
loop_
 _symmetry_equiv_pos_site_id
 _symmetry_equiv_pos_as_xyz
  1  'x, y, z'
loop_
 _atom_site_type_symbol
 _atom_site_label
 _atom_site_symmetry_multiplicity
 _atom_site_fract_x
 _atom_site_fract_y
 _atom_site_fract_z
 _atom_site_occupancy
  Na  Na0  1  0.51395934  0.81256847  0.75528686  1
  Na  Na1  1  0.98604066  0.31256847  0.25528686  1
  Na  Na2  1  0.48032612  0.18554095  0.24166821  1
  Na  Na3  1  0.01967388  0.68554095  0.74166821  1
  Na  Na4  1  0.97891233  0.33425744  0.58091102  1
  Na  Na5  1  0.52108767  0.83425744  0.08091102  1
  Na  Na6  1  0.02727520  0.66739699  0.42067641  1
  Na  Na7  1  0.47272480  0.16739699  0.92067641  1
  Na  Na8  1  0.16038291  0.07143958  0.41755880  1
  Na  Na9  1  0.33961709  0.57143958  0.91755880  1
  Na  Na10  1  0.84237743  0.92556808  0.58171201  1
  Na  Na11  1  0.65762257  0.42556808  0.08171201  1
  Na  Na12  1  0.65367245  0.42267360  0.75762253  1
  Na  Na13  1  0.84632755  0.92267360  0.25762253  1
  Na  Na14  1  0.34274582  0.57654798  0.24040873  1
  Na  Na15  1  0.15725418  0.07654798  0.74040873  1
  Na  Na16  1  0.48239724  0.17078240  0.59101658  1
  Na  Na17  1  0.01760276  0.67078240  0.09101658  1
  Na  Na18  1  0.51196794  0.82970328  0.41083638  1
  Na  Na19  1  0.98803206  0.32970328  0.91083638  1
  Nb  Nb20  1  0.63303697  0.43270030  0.42098058  1
  Nb  Nb21  1  0.86696303  0.93270030  0.92098058  1
  Ga  Ga22  1  0.36032301  0.57145227  0.58355483  1
  Ga  Ga23  1  0.13967699  0.07145227  0.08355483  1
  As  As24  1  0.26763581  0.41135629  0.72780341  1
  As  As25  1  0.23236419  0.91135629  0.22780341  1
  As  As26  1  0.73059503  0.58340535  0.27398169  1
  As  As27  1  0.76940497  0.08340535  0.77398169  1
  As  As28  1  0.30266363  0.40611793  0.42501037  1
  As  As29  1  0.19733637  0.90611793  0.92501037  1
  As  As30  1  0.70666286  0.59241269  0.57246211  1
  As  As31  1  0.79333714  0.09241269  0.07246211  1
  As  As32  1  0.24499403  0.85221560  0.57772321  1
  As  As33  1  0.25500597  0.35221560  0.07772321  1
  As  As34  1  0.75735088  0.15386080  0.42078626  1
  As  As35  1  0.74264912  0.65386080  0.92078626  1
