# generated using pymatgen
data_Na2Sr3As4
_symmetry_space_group_name_H-M   'P 1'
_cell_length_a   7.56756191
_cell_length_b   8.30795054
_cell_length_c   15.73798857
_cell_angle_alpha   90.04595466
_cell_angle_beta   90.00000000
_cell_angle_gamma   90.00000000
_symmetry_Int_Tables_number   1
_chemical_formula_structural   Na2Sr3As4
_chemical_formula_sum   'Na8 Sr12 As16'
_cell_volume   989.46166104
_cell_formula_units_Z   4
loop_
 _symmetry_equiv_pos_site_id
 _symmetry_equiv_pos_as_xyz
  1  'x, y, z'
loop_
 _atom_site_type_symbol
 _atom_site_label
 _atom_site_symmetry_multiplicity
 _atom_site_fract_x
 _atom_site_fract_y
 _atom_site_fract_z
 _atom_site_occupancy
  Na  Na0  1  0.14322880  0.49031250  0.74951336  1
  Na  Na1  1  0.64322880  0.00968750  0.75048664  1
  Na  Na2  1  0.85677120  0.50968750  0.25048664  1
  Na  Na3  1  0.35677120  0.99031250  0.24951336  1
  Na  Na4  1  0.32136621  0.82273831  0.87427240  1
  Na  Na5  1  0.82136621  0.67726169  0.62572760  1
  Na  Na6  1  0.67863379  0.17726169  0.12572760  1
  Na  Na7  1  0.17863379  0.32273831  0.37427240  1
  Sr  Sr8  1  0.47740652  0.30637060  0.90061118  1
  Sr  Sr9  1  0.97740652  0.19362940  0.59938882  1
  Sr  Sr10  1  0.52309621  0.68972256  0.40018166  1
  Sr  Sr11  1  0.02309621  0.81027744  0.09981834  1
  Sr  Sr12  1  0.52259348  0.69362940  0.09938882  1
  Sr  Sr13  1  0.02259348  0.80637060  0.40061118  1
  Sr  Sr14  1  0.47690379  0.31027744  0.59981834  1
  Sr  Sr15  1  0.97690379  0.18972256  0.90018166  1
  Sr  Sr16  1  0.67886038  0.18083318  0.37222910  1
  Sr  Sr17  1  0.17886038  0.31916682  0.12777090  1
  Sr  Sr18  1  0.32113962  0.81916682  0.62777090  1
  Sr  Sr19  1  0.82113962  0.68083318  0.87222910  1
  As  As20  1  0.15026126  0.53245231  0.96329042  1
  As  As21  1  0.65026126  0.96754769  0.53670958  1
  As  As22  1  0.85197054  0.46849265  0.46383896  1
  As  As23  1  0.35197054  0.03150735  0.03616104  1
  As  As24  1  0.84973874  0.46754769  0.03670958  1
  As  As25  1  0.34973874  0.03245231  0.46329042  1
  As  As26  1  0.14802946  0.53150735  0.53616104  1
  As  As27  1  0.64802946  0.96849265  0.96383896  1
  As  As28  1  0.26069561  0.12869296  0.74938440  1
  As  As29  1  0.76069561  0.37130704  0.75061560  1
  As  As30  1  0.73930439  0.87130704  0.25061560  1
  As  As31  1  0.23930439  0.62869296  0.24938440  1
  As  As32  1  0.01990609  0.91592576  0.75018853  1
  As  As33  1  0.51990609  0.58407424  0.74981147  1
  As  As34  1  0.98009391  0.08407424  0.24981147  1
  As  As35  1  0.48009391  0.41592576  0.25018853  1
