# generated using pymatgen
data_Mg4B3Ir2
_symmetry_space_group_name_H-M   'P 1'
_cell_length_a   4.83847991
_cell_length_b   4.93113752
_cell_length_c   6.84847954
_cell_angle_alpha   89.71718036
_cell_angle_beta   69.31364080
_cell_angle_gamma   119.38034407
_symmetry_Int_Tables_number   1
_chemical_formula_structural   Mg4B3Ir2
_chemical_formula_sum   'Mg4 B3 Ir2'
_cell_volume   129.98048255
_cell_formula_units_Z   1
loop_
 _symmetry_equiv_pos_site_id
 _symmetry_equiv_pos_as_xyz
  1  'x, y, z'
loop_
 _atom_site_type_symbol
 _atom_site_label
 _atom_site_symmetry_multiplicity
 _atom_site_fract_x
 _atom_site_fract_y
 _atom_site_fract_z
 _atom_site_occupancy
  Mg  Mg0  1  0.84507235  0.54529275  0.84256939  1
  Mg  Mg1  1  0.14234900  0.45470725  0.15743061  1
  Mg  Mg2  1  0.33669741  0.04277757  0.35665645  1
  Mg  Mg3  1  0.65057629  0.95722243  0.64334355  1
  B  B4  1  0.65953809  -0.00000000  0.00000000  1
  B  B5  1  0.31104012  -0.00000000  0.00000000  1
  B  B6  1  0.42564603  0.50000000  0.50000000  1
  Ir  Ir7  1  0.18609091  0.19475012  0.78164901  1
  Ir  Ir8  1  0.77298979  0.80524988  0.21835099  1
