# generated using pymatgen
data_LuSc(BO3)2
_symmetry_space_group_name_H-M   'P 1'
_cell_length_a   4.85627240
_cell_length_b   4.85627240
_cell_length_c   5.97278187
_cell_angle_alpha   90.00000098
_cell_angle_beta   113.98726227
_cell_angle_gamma   59.99999785
_symmetry_Int_Tables_number   1
_chemical_formula_structural   LuSc(BO3)2
_chemical_formula_sum   'Lu1 Sc1 B2 O6'
_cell_volume   107.71113206
_cell_formula_units_Z   1
loop_
 _symmetry_equiv_pos_site_id
 _symmetry_equiv_pos_as_xyz
  1  'x, y, z'
loop_
 _atom_site_type_symbol
 _atom_site_label
 _atom_site_symmetry_multiplicity
 _atom_site_fract_x
 _atom_site_fract_y
 _atom_site_fract_z
 _atom_site_occupancy
  Lu  Lu0  1  0.00000000  0.50000000  0.50000000  1
  Sc  Sc1  1  0.00000000  0.00000000  0.00000000  1
  B  B2  1  0.50657305  0.74671348  0.75985957  1
  B  B3  1  0.49342695  0.25328652  0.24014043  1
  O  O4  1  0.78372019  0.45682225  0.75596800  1
  O  O5  1  0.21279025  0.75945756  0.75596800  1
  O  O6  1  0.51542557  0.02775219  0.75596800  1
  O  O7  1  0.78720975  0.24054244  0.24403200  1
  O  O8  1  0.48457443  0.97224781  0.24403200  1
  O  O9  1  0.21627981  0.54317775  0.24403200  1
