# generated using pymatgen
data_Mn2GaCo4Ge
_symmetry_space_group_name_H-M   'P 1'
_cell_length_a   4.05051529
_cell_length_b   4.05051529
_cell_length_c   7.01678949
_cell_angle_alpha   73.22403166
_cell_angle_beta   90.00000000
_cell_angle_gamma   120.00000000
_symmetry_Int_Tables_number   1
_chemical_formula_structural   Mn2GaCo4Ge
_chemical_formula_sum   'Mn2 Ga1 Co4 Ge1'
_cell_volume   93.99869229
_cell_formula_units_Z   1
loop_
 _symmetry_equiv_pos_site_id
 _symmetry_equiv_pos_as_xyz
  1  'x, y, z'
loop_
 _atom_site_type_symbol
 _atom_site_label
 _atom_site_symmetry_multiplicity
 _atom_site_fract_x
 _atom_site_fract_y
 _atom_site_fract_z
 _atom_site_occupancy
  Mn  Mn0  1  0.87604517  0.75209033  0.37186450  1
  Mn  Mn1  1  0.37395483  0.74790967  0.87813550  1
  Ga  Ga2  1  0.62500000  0.25000000  0.12500000  1
  Co  Co3  1  0.00089946  0.00179892  0.99730163  1
  Co  Co4  1  0.49916446  0.99832891  0.50250663  1
  Co  Co5  1  0.24910054  0.49820108  0.25269837  1
  Co  Co6  1  0.75083554  0.50167109  0.74749337  1
  Ge  Ge7  1  0.12500000  0.25000000  0.62500000  1
