# generated using pymatgen
data_Lu2Si9B36C
_symmetry_space_group_name_H-M   'P 1'
_cell_length_a   8.02394360
_cell_length_b   8.02397063
_cell_length_c   7.98620237
_cell_angle_alpha   78.07657167
_cell_angle_beta   78.07639589
_cell_angle_gamma   78.05696707
_symmetry_Int_Tables_number   1
_chemical_formula_structural   Lu2Si9B36C
_chemical_formula_sum   'Lu2 Si9 B36 C1'
_cell_volume   484.93488994
_cell_formula_units_Z   1
loop_
 _symmetry_equiv_pos_site_id
 _symmetry_equiv_pos_as_xyz
  1  'x, y, z'
loop_
 _atom_site_type_symbol
 _atom_site_label
 _atom_site_symmetry_multiplicity
 _atom_site_fract_x
 _atom_site_fract_y
 _atom_site_fract_z
 _atom_site_occupancy
  Lu  Lu0  1  0.50037040  0.00026403  0.50040519  1
  Lu  Lu1  1  0.00028115  0.50035572  0.50039622  1
  Si  Si2  1  0.42818449  0.42818773  0.42672082  1
  Si  Si3  1  0.57021713  0.57020768  0.57211524  1
  Si  Si4  1  0.65545569  0.26605234  0.25481443  1
  Si  Si5  1  0.26257263  0.26257211  0.66088338  1
  Si  Si6  1  0.26605102  0.65546373  0.25481121  1
  Si  Si7  1  0.34583943  0.73393057  0.74491856  1
  Si  Si8  1  0.73699895  0.73699974  0.34091141  1
  Si  Si9  1  0.73394213  0.34582934  0.74492268  1
  Si  Si10  1  0.04468796  0.04469921  0.04268905  1
  B  B11  1  0.10716283  0.42095702  0.82315729  1
  B  B12  1  0.41984821  0.82009565  0.10664014  1
  B  B13  1  0.81907278  0.10892459  0.41885466  1
  B  B14  1  0.10892199  0.81907565  0.41885300  1
  B  B15  1  0.82009050  0.41985245  0.10664277  1
  B  B16  1  0.42095589  0.10716548  0.82315748  1
  B  B17  1  0.89168529  0.58751989  0.17223939  1
  B  B18  1  0.58856238  0.17521338  0.89226216  1
  B  B19  1  0.17661708  0.88988794  0.58935521  1
  B  B20  1  0.88989351  0.17661221  0.58935944  1
  B  B21  1  0.17521956  0.58856144  0.89226168  1
  B  B22  1  0.58751725  0.89168366  0.17224426  1
  B  B23  1  0.87393845  0.44561793  0.87409820  1
  B  B24  1  0.44561609  0.87393951  0.87409843  1
  B  B25  1  0.87421250  0.87421672  0.44480932  1
  B  B26  1  0.12220849  0.56287677  0.12213890  1
  B  B27  1  0.56287657  0.12220142  0.12214600  1
  B  B28  1  0.12181902  0.12181625  0.56389637  1
  B  B29  1  0.20143299  0.37421981  0.01902040  1
  B  B30  1  0.37483419  0.01874689  0.19726193  1
  B  B31  1  0.01773230  0.19812617  0.37427830  1
  B  B32  1  0.19812309  0.01774006  0.37427570  1
  B  B33  1  0.01874266  0.37483995  0.19725977  1
  B  B34  1  0.37421679  0.20143232  0.01902273  1
  B  B35  1  0.79563681  0.62814817  0.97766477  1
  B  B36  1  0.62783894  0.97813119  0.79926857  1
  B  B37  1  0.97914419  0.79853289  0.62816451  1
  B  B38  1  0.79853331  0.97913954  0.62816641  1
  B  B39  1  0.97813366  0.62784412  0.79925965  1
  B  B40  1  0.62814110  0.79564072  0.97766667  1
  B  B41  1  0.00600861  0.29652464  0.00576584  1
  B  B42  1  0.29651692  0.00601645  0.00576259  1
  B  B43  1  0.00555268  0.00555818  0.29504031  1
  B  B44  1  0.98200398  0.72313041  0.98233339  1
  B  B45  1  0.72312214  0.98200372  0.98233642  1
  B  B46  1  0.98226702  0.98226373  0.72510569  1
  C  C47  1  0.93220922  0.93220386  0.93357646  1
