# generated using pymatgen
data_Mg3(SiO3)4
_symmetry_space_group_name_H-M   'P 1'
_cell_length_a   5.35925278
_cell_length_b   5.35925278
_cell_length_c   28.86776399
_cell_angle_alpha   91.51024950
_cell_angle_beta   91.51024950
_cell_angle_gamma   119.67406122
_symmetry_Int_Tables_number   1
_chemical_formula_structural   Mg3(SiO3)4
_chemical_formula_sum   'Mg6 Si8 O24'
_cell_volume   719.40098304
_cell_formula_units_Z   2
loop_
 _symmetry_equiv_pos_site_id
 _symmetry_equiv_pos_as_xyz
  1  'x, y, z'
loop_
 _atom_site_type_symbol
 _atom_site_label
 _atom_site_symmetry_multiplicity
 _atom_site_fract_x
 _atom_site_fract_y
 _atom_site_fract_z
 _atom_site_occupancy
  Mg  Mg0  1  0.98945393  0.97973134  0.49993017  1
  Mg  Mg1  1  0.97973134  0.98945393  0.99993017  1
  Mg  Mg2  1  0.34355232  0.68672263  0.50014249  1
  Mg  Mg3  1  0.68672263  0.34355232  0.00014249  1
  Mg  Mg4  1  0.66807452  0.33337282  0.50001856  1
  Mg  Mg5  1  0.33337282  0.66807452  0.00001856  1
  Si  Si6  1  0.63634739  0.97078828  0.40347954  1
  Si  Si7  1  0.97078828  0.63634739  0.90347954  1
  Si  Si8  1  0.69650662  0.69571633  0.59647523  1
  Si  Si9  1  0.69571633  0.69650662  0.09647523  1
  Si  Si10  1  0.97052392  0.63705369  0.40348981  1
  Si  Si11  1  0.63705369  0.97052392  0.90348981  1
  Si  Si12  1  0.36249859  0.02983849  0.59645784  1
  Si  Si13  1  0.02983849  0.36249859  0.09645784  1
  O  O14  1  0.30882302  0.32404149  0.47069552  1
  O  O15  1  0.32404149  0.30882302  0.97069552  1
  O  O16  1  0.02546286  0.34251024  0.52990786  1
  O  O17  1  0.34251024  0.02546286  0.02990786  1
  O  O18  1  0.64990396  0.98709232  0.46066988  1
  O  O19  1  0.98709232  0.64990396  0.96066988  1
  O  O20  1  0.68352001  0.67908842  0.53920733  1
  O  O21  1  0.67908842  0.68352001  0.03920733  1
  O  O22  1  0.98451695  0.65494626  0.46069133  1
  O  O23  1  0.65494626  0.98451695  0.96069133  1
  O  O24  1  0.34927373  0.01188460  0.53918033  1
  O  O25  1  0.01188460  0.34927373  0.03918033  1
  O  O26  1  0.79762292  0.29868824  0.38492951  1
  O  O27  1  0.29868824  0.79762292  0.88492951  1
  O  O28  1  0.53514261  0.36802815  0.61504425  1
  O  O29  1  0.36802815  0.53514261  0.11504425  1
  O  O30  1  0.29807501  0.79681386  0.38478422  1
  O  O31  1  0.79681386  0.29807501  0.88478422  1
  O  O32  1  0.03483921  0.86986221  0.61505697  1
  O  O33  1  0.86986221  0.03483921  0.11505697  1
  O  O34  1  0.79930478  0.79983837  0.38467828  1
  O  O35  1  0.79983837  0.79930478  0.88467828  1
  O  O36  1  0.53367243  0.86686747  0.61516088  1
  O  O37  1  0.86686747  0.53367243  0.11516088  1
