# generated using pymatgen
data_LiVZnO4
_symmetry_space_group_name_H-M   'P 1'
_cell_length_a   8.90811026
_cell_length_b   8.90811041
_cell_length_c   8.90811026
_cell_angle_alpha   107.82562615
_cell_angle_beta   107.82562445
_cell_angle_gamma   107.82562615
_symmetry_Int_Tables_number   1
_chemical_formula_structural   LiVZnO4
_chemical_formula_sum   'Li6 V6 Zn6 O24'
_cell_volume   574.93727192
_cell_formula_units_Z   6
loop_
 _symmetry_equiv_pos_site_id
 _symmetry_equiv_pos_as_xyz
  1  'x, y, z'
loop_
 _atom_site_type_symbol
 _atom_site_label
 _atom_site_symmetry_multiplicity
 _atom_site_fract_x
 _atom_site_fract_y
 _atom_site_fract_z
 _atom_site_occupancy
  Li  Li0  1  0.38930990  0.79644238  0.56121677  1
  Li  Li1  1  0.79644238  0.56121677  0.38930990  1
  Li  Li2  1  0.56121677  0.38930990  0.79644238  1
  Li  Li3  1  0.87352296  0.10446791  0.27568378  1
  Li  Li4  1  0.10446791  0.27568378  0.87352296  1
  Li  Li5  1  0.27568378  0.87352296  0.10446791  1
  V  V6  1  0.05500891  0.46214396  0.23348947  1
  V  V7  1  0.46214396  0.23348947  0.05500891  1
  V  V8  1  0.23348947  0.05500891  0.46214396  1
  V  V9  1  0.94563288  0.53830321  0.76714670  1
  V  V10  1  0.53830321  0.76714670  0.94563288  1
  V  V11  1  0.76714670  0.94563288  0.53830321  1
  Zn  Zn12  1  0.61089030  0.20399057  0.43812693  1
  Zn  Zn13  1  0.20399057  0.43812693  0.61089030  1
  Zn  Zn14  1  0.43812693  0.61089030  0.20399057  1
  Zn  Zn15  1  0.12708542  0.89545476  0.72467604  1
  Zn  Zn16  1  0.89545476  0.72467604  0.12708542  1
  Zn  Zn17  1  0.72467604  0.12708542  0.89545476  1
  O  O18  1  0.27479365  0.60975979  0.31332356  1
  O  O19  1  0.60975979  0.31332356  0.27479365  1
  O  O20  1  0.31332356  0.27479365  0.60975979  1
  O  O21  1  0.72482758  0.38843619  0.68373257  1
  O  O22  1  0.38843619  0.68373257  0.72482758  1
  O  O23  1  0.68373257  0.72482758  0.38843619  1
  O  O24  1  0.97189600  0.30495315  0.01648551  1
  O  O25  1  0.30495315  0.01648551  0.97189600  1
  O  O26  1  0.01648551  0.97189600  0.30495315  1
  O  O27  1  0.02619276  0.69380625  0.98298209  1
  O  O28  1  0.69380625  0.98298209  0.02619276  1
  O  O29  1  0.98298209  0.02619276  0.69380625  1
  O  O30  1  0.92648225  0.57506818  0.24566874  1
  O  O31  1  0.57506818  0.24566874  0.92648225  1
  O  O32  1  0.24566874  0.92648225  0.57506818  1
  O  O33  1  0.07373741  0.42501152  0.75448099  1
  O  O34  1  0.42501152  0.75448099  0.07373741  1
  O  O35  1  0.75448099  0.07373741  0.42501152  1
  O  O36  1  0.03801807  0.35326722  0.36525867  1
  O  O37  1  0.35326722  0.36525867  0.03801807  1
  O  O38  1  0.36525867  0.03801807  0.35326722  1
  O  O39  1  0.96360390  0.64891244  0.63670867  1
  O  O40  1  0.64891244  0.63670867  0.96360390  1
  O  O41  1  0.63670867  0.96360390  0.64891244  1
