# generated using pymatgen
data_Na20Zn8Sn11
_symmetry_space_group_name_H-M   'P 1'
_cell_length_a   9.34485398
_cell_length_b   9.38951863
_cell_length_c   27.59896096
_cell_angle_alpha   91.40472572
_cell_angle_beta   80.25304032
_cell_angle_gamma   119.84276860
_symmetry_Int_Tables_number   1
_chemical_formula_structural   Na20Zn8Sn11
_chemical_formula_sum   'Na40 Zn16 Sn22'
_cell_volume   2065.13140800
_cell_formula_units_Z   2
loop_
 _symmetry_equiv_pos_site_id
 _symmetry_equiv_pos_as_xyz
  1  'x, y, z'
loop_
 _atom_site_type_symbol
 _atom_site_label
 _atom_site_symmetry_multiplicity
 _atom_site_fract_x
 _atom_site_fract_y
 _atom_site_fract_z
 _atom_site_occupancy
  Na  Na0  1  0.54427507  0.72590966  0.68715486  1
  Na  Na1  1  0.00552027  0.77409034  0.81284514  1
  Na  Na2  1  0.46188210  0.27576318  0.31057951  1
  Na  Na3  1  0.99669843  0.22423682  0.18942049  1
  Na  Na4  1  0.91823284  0.71982755  0.68799355  1
  Na  Na5  1  0.38639884  0.78017245  0.81200645  1
  Na  Na6  1  0.07707409  0.27411415  0.31001894  1
  Na  Na7  1  0.61297888  0.22588585  0.18998106  1
  Na  Na8  1  0.54422142  0.34159890  0.68670964  1
  Na  Na9  1  0.38933216  0.15840110  0.81329036  1
  Na  Na10  1  0.46422085  0.65997034  0.31060703  1
  Na  Na11  1  0.61485754  0.84002966  0.18939297  1
  Na  Na12  1  0.18546297  0.18253904  0.00007149  1
  Na  Na13  1  0.50299542  0.31746096  0.49992851  1
  Na  Na14  1  0.81487412  0.81694910  0.00019016  1
  Na  Na15  1  0.49811518  0.68305090  0.49980984  1
  Na  Na16  1  0.85849814  0.19182332  0.93920958  1
  Na  Na17  1  0.10588439  0.30817668  0.56079042  1
  Na  Na18  1  0.14111336  0.80731608  0.06191421  1
  Na  Na19  1  0.89571148  0.69268392  0.43808579  1
  Na  Na20  1  0.03628961  0.63151910  0.93984751  1
  Na  Na21  1  0.84461802  0.86848090  0.56015249  1
  Na  Na22  1  0.96402611  0.36929627  0.06068909  1
  Na  Na23  1  0.15541893  0.13070373  0.43931091  1
  Na  Na24  1  0.28878520  0.41992115  0.89411183  1
  Na  Na25  1  0.26297588  0.08007885  0.60588817  1
  Na  Na26  1  0.71062248  0.57957120  0.10739279  1
  Na  Na27  1  0.73844407  0.92042880  0.39260721  1
  Na  Na28  1  0.66351393  0.41904324  0.89462111  1
  Na  Na29  1  0.63909180  0.08095676  0.60537889  1
  Na  Na30  1  0.33343843  0.58036441  0.10718849  1
  Na  Na31  1  0.36026250  0.91963559  0.39281151  1
  Na  Na32  1  0.66900693  0.79959892  0.89422022  1
  Na  Na33  1  0.26362823  0.70040108  0.60577978  1
  Na  Na34  1  0.33005836  0.19945707  0.10716781  1
  Na  Na35  1  0.73776910  0.30054293  0.39283219  1
  Na  Na36  1  0.42013761  0.01258780  0.93905877  1
  Na  Na37  1  0.84660858  0.48741220  0.56094123  1
  Na  Na38  1  0.57937427  0.98683802  0.06133413  1
  Na  Na39  1  0.15387038  0.51316198  0.43866587  1
  Zn  Zn40  1  0.78219199  0.91813631  0.76991010  1
  Zn  Zn41  1  0.13396578  0.58186369  0.73008990  1
  Zn  Zn42  1  0.20885054  0.08232496  0.23154098  1
  Zn  Zn43  1  0.85806657  0.41767504  0.26845902  1
  Zn  Zn44  1  0.49967946  0.50010321  0.00017797  1
  Zn  Zn45  1  0.49975422  0.99989679  0.49982203  1
  Zn  Zn46  1  0.79187030  0.40320849  0.76740326  1
  Zn  Zn47  1  0.65606508  0.09679151  0.73259674  1
  Zn  Zn48  1  0.21218054  0.59229411  0.23144159  1
  Zn  Zn49  1  0.35132803  0.90770589  0.26855841  1
  Zn  Zn50  1  0.00499749  0.11462982  0.83266812  1
  Zn  Zn51  1  0.22303579  0.38537018  0.66733188  1
  Zn  Zn52  1  0.98019597  0.87279807  0.17232746  1
  Zn  Zn53  1  0.77972535  0.62720193  0.32767254  1
  Zn  Zn54  1  0.71836218  0.59702624  0.23413349  1
  Zn  Zn55  1  0.85546943  0.90297376  0.26586651  1
  Sn  Sn56  1  0.34695379  0.66084850  0.98951693  1
  Sn  Sn57  1  0.17562223  0.83915150  0.51048307  1
  Sn  Sn58  1  0.65348598  0.34002007  0.01062782  1
  Sn  Sn59  1  0.82409373  0.15997993  0.48937218  1
  Sn  Sn60  1  0.70189107  0.11974142  0.83208888  1
  Sn  Sn61  1  0.91423853  0.38025858  0.66791112  1
  Sn  Sn62  1  0.29890241  0.87999473  0.16924157  1
  Sn  Sn63  1  0.08814926  0.62000527  0.33075843  1
  Sn  Sn64  1  0.61999623  0.57845803  0.79563254  1
  Sn  Sn65  1  0.33717073  0.92154197  0.70436746  1
  Sn  Sn66  1  0.39578960  0.42610627  0.20711722  1
  Sn  Sn67  1  0.67680055  0.07389373  0.29288278  1
  Sn  Sn68  1  0.01230731  0.44249216  0.83474031  1
  Sn  Sn69  1  0.90455546  0.05750784  0.66525969  1
  Sn  Sn70  1  0.97538041  0.56068772  0.17075800  1
  Sn  Sn71  1  0.08545070  0.93931228  0.32924200  1
  Sn  Sn72  1  0.08422011  0.99770846  0.90434288  1
  Sn  Sn73  1  0.49085453  0.50229154  0.59565712  1
  Sn  Sn74  1  0.91759164  0.00041360  0.09735337  1
  Sn  Sn75  1  0.51453142  0.49958640  0.40264663  1
  Sn  Sn76  1  0.28197356  0.42015572  0.76619621  1
  Sn  Sn77  1  0.12801405  0.07984428  0.73380379  1
