# generated using pymatgen
data_NaEuTi8(PO4)12
_symmetry_space_group_name_H-M   'P 1'
_cell_length_a   8.52750064
_cell_length_b   12.28270867
_cell_length_c   8.83764563
_cell_angle_alpha   87.20494482
_cell_angle_beta   89.95098704
_cell_angle_gamma   90.01265637
_symmetry_Int_Tables_number   1
_chemical_formula_structural   NaEuTi8(PO4)12
_chemical_formula_sum   'Na1 Eu1 Ti8 P12 O48'
_cell_volume   924.56054245
_cell_formula_units_Z   1
loop_
 _symmetry_equiv_pos_site_id
 _symmetry_equiv_pos_as_xyz
  1  'x, y, z'
loop_
 _atom_site_type_symbol
 _atom_site_label
 _atom_site_symmetry_multiplicity
 _atom_site_fract_x
 _atom_site_fract_y
 _atom_site_fract_z
 _atom_site_occupancy
  Na  Na0  1  0.99967805  0.99978172  0.00010585  1
  Eu  Eu1  1  0.50017386  0.50003797  0.49997875  1
  Ti  Ti2  1  0.00060175  0.36141259  0.72430983  1
  Ti  Ti3  1  0.49961760  0.86284257  0.22517170  1
  Ti  Ti4  1  0.99951119  0.63848887  0.27575863  1
  Ti  Ti5  1  0.50034590  0.13719780  0.77492522  1
  Ti  Ti6  1  0.49921419  0.34914668  0.19967268  1
  Ti  Ti7  1  0.00078608  0.85579136  0.70973344  1
  Ti  Ti8  1  0.50072064  0.65088430  0.80031869  1
  Ti  Ti9  1  0.99928135  0.14420608  0.28997408  1
  P  P10  1  0.21405745  0.24347474  0.99676253  1
  P  P11  1  0.71688974  0.74436827  0.49863780  1
  P  P12  1  0.63860826  0.39108733  0.84891572  1
  P  P13  1  0.13608667  0.89135077  0.35215555  1
  P  P14  1  0.14662600  0.60715542  0.63555709  1
  P  P15  1  0.64809680  0.10592711  0.13385699  1
  P  P16  1  0.78586705  0.75659132  0.00335164  1
  P  P17  1  0.28300172  0.25568729  0.50138618  1
  P  P18  1  0.36162795  0.60894879  0.15114872  1
  P  P19  1  0.86384118  0.10865843  0.64754508  1
  P  P20  1  0.85339363  0.39274090  0.36442509  1
  P  P21  1  0.35183646  0.89408985  0.86625195  1
  O  O22  1  0.95397370  0.48469865  0.28927086  1
  O  O23  1  0.45494650  0.98428958  0.79002209  1
  O  O24  1  0.86289859  0.66699574  0.10698868  1
  O  O25  1  0.36240725  0.16763401  0.60528224  1
  O  O26  1  0.18229555  0.62114435  0.15122206  1
  O  O27  1  0.68330337  0.12235948  0.65217407  1
  O  O28  1  0.04608879  0.51528080  0.71081015  1
  O  O29  1  0.54517246  0.01570915  0.21010538  1
  O  O30  1  0.13713701  0.33300213  0.89312391  1
  O  O31  1  0.63759148  0.83242562  0.39486330  1
  O  O32  1  0.81786878  0.37889832  0.84882989  1
  O  O33  1  0.31648576  0.87768223  0.34787487  1
  O  O34  1  0.91313331  0.82275659  0.91720472  1
  O  O35  1  0.41504086  0.32413371  0.41819901  1
  O  O36  1  0.40606926  0.50157477  0.24178987  1
  O  O37  1  0.90809763  0.00219909  0.73690574  1
  O  O38  1  0.67743957  0.41736952  0.32533018  1
  O  O39  1  0.17908217  0.91494225  0.82570158  1
  O  O40  1  0.08690973  0.17729187  0.08285202  1
  O  O41  1  0.58488499  0.67591907  0.58188583  1
  O  O42  1  0.59405610  0.49841583  0.75825491  1
  O  O43  1  0.09171730  0.99774608  0.26284715  1
  O  O44  1  0.32260862  0.58265742  0.67459873  1
  O  O45  1  0.82089099  0.08513059  0.17408566  1
  O  O46  1  0.31420681  0.30395938  0.11401406  1
  O  O47  1  0.81561068  0.80028368  0.61747133  1
  O  O48  1  0.58683583  0.40107945  0.01556318  1
  O  O49  1  0.08699523  0.90002628  0.51952021  1
  O  O50  1  0.10077261  0.71561044  0.70254508  1
  O  O51  1  0.59680316  0.21497205  0.20228775  1
  O  O52  1  0.68571265  0.69606947  0.88606333  1
  O  O53  1  0.18433656  0.19967064  0.38268270  1
  O  O54  1  0.41328962  0.59892852  0.98448493  1
  O  O55  1  0.91275719  0.09997427  0.48020413  1
  O  O56  1  0.89930911  0.28438906  0.29724015  1
  O  O57  1  0.40315065  0.78503873  0.79783187  1
  O  O58  1  0.63004450  0.11504294  0.96139889  1
  O  O59  1  0.13563109  0.61099761  0.46190634  1
  O  O60  1  0.31827399  0.16702641  0.90916080  1
  O  O61  1  0.81322796  0.66247394  0.41096784  1
  O  O62  1  0.55190101  0.29904535  0.77361363  1
  O  O63  1  0.05149982  0.79520525  0.28268775  1
  O  O64  1  0.36985974  0.88497682  0.03855665  1
  O  O65  1  0.86433938  0.38883455  0.53806353  1
  O  O66  1  0.68186277  0.83311955  0.09086623  1
  O  O67  1  0.18674247  0.33755922  0.58907476  1
  O  O68  1  0.44832398  0.70091236  0.22641940  1
  O  O69  1  0.94854990  0.20467705  0.71720932  1
