# generated using pymatgen
data_VH10SeNO9
_symmetry_space_group_name_H-M   'P 1'
_cell_length_a   6.45324582
_cell_length_b   6.96197421
_cell_length_c   10.19234334
_cell_angle_alpha   90.00000000
_cell_angle_beta   90.00000000
_cell_angle_gamma   108.79373852
_symmetry_Int_Tables_number   1
_chemical_formula_structural   VH10SeNO9
_chemical_formula_sum   'V2 H20 Se2 N2 O18'
_cell_volume   433.50081491
_cell_formula_units_Z   2
loop_
 _symmetry_equiv_pos_site_id
 _symmetry_equiv_pos_as_xyz
  1  'x, y, z'
loop_
 _atom_site_type_symbol
 _atom_site_label
 _atom_site_symmetry_multiplicity
 _atom_site_fract_x
 _atom_site_fract_y
 _atom_site_fract_z
 _atom_site_occupancy
  V  V0  1  0.61507894  0.39694473  0.49965396  1
  V  V1  1  0.38492106  0.60305527  -0.00034604  1
  H  H2  1  0.76989438  0.68971509  0.71129208  1
  H  H3  1  0.23010562  0.31028491  0.21129208  1
  H  H4  1  0.12219790  0.92002006  0.34931382  1
  H  H5  1  0.87780210  0.07997994  0.84931382  1
  H  H6  1  0.97214620  0.69573257  0.36309544  1
  H  H7  1  0.02785380  0.30426743  0.86309544  1
  H  H8  1  0.68041309  0.26527311  0.76473291  1
  H  H9  1  0.31958691  0.73472689  0.26473291  1
  H  H10  1  0.79612864  0.81589997  0.58263337  1
  H  H11  1  0.20387136  0.18410003  0.08263337  1
  H  H12  1  0.53456503  0.66508700  0.26658435  1
  H  H13  1  0.46543497  0.33491300  0.76658435  1
  H  H14  1  0.18842540  0.78350023  0.71632119  1
  H  H15  1  0.81157460  0.21649977  0.21632119  1
  H  H16  1  0.23343179  0.80267537  0.55114367  1
  H  H17  1  0.76656821  0.19732463  0.05114367  1
  H  H18  1  0.39415303  0.97658160  0.65543488  1
  H  H19  1  0.60584697  0.02341840  0.15543488  1
  H  H20  1  0.40930130  0.73763684  0.65063522  1
  H  H21  1  0.59069870  0.26236316  0.15063522  1
  Se  Se22  1  0.06790621  0.26962500  0.50004337  1
  Se  Se23  1  0.93209379  0.73037500  0.00004337  1
  N  N24  1  0.30624545  0.82428365  0.64348961  1
  N  N25  1  0.69375455  0.17571635  0.14348961  1
  O  O26  1  0.46463754  0.83576026  0.94135866  1
  O  O27  1  0.53536246  0.16423974  0.44135866  1
  O  O28  1  0.31775257  0.44939876  0.86748351  1
  O  O29  1  0.68224743  0.55060124  0.36748351  1
  O  O30  1  0.44500693  0.72525270  0.21007998  1
  O  O31  1  0.55499307  0.27474730  0.71007998  1
  O  O32  1  0.29730359  0.31192746  0.12345246  1
  O  O33  1  0.70269641  0.68807254  0.62345246  1
  O  O34  1  0.92065771  0.41920744  0.55132595  1
  O  O35  1  0.07934229  0.58079256  0.05132595  1
  O  O36  1  0.32322417  0.42778355  0.53591194  1
  O  O37  1  0.67677583  0.57221645  0.03591194  1
  O  O38  1  0.00744236  0.06037068  0.58738022  1
  O  O39  1  0.99255764  0.93962932  0.08738022  1
  O  O40  1  0.95538448  0.77231269  0.83927222  1
  O  O41  1  0.04461552  0.22768731  0.33927222  1
  O  O42  1  0.12742238  0.78428792  0.36936117  1
  O  O43  1  0.87257762  0.21571208  0.86936117  1
