# generated using pymatgen
data_KRb(InAu2)4
_symmetry_space_group_name_H-M   'P 1'
_cell_length_a   7.66537527
_cell_length_b   7.66537527
_cell_length_c   7.66537527
_cell_angle_alpha   65.38402590
_cell_angle_beta   73.03827141
_cell_angle_gamma   106.96172859
_symmetry_Int_Tables_number   1
_chemical_formula_structural   KRb(InAu2)4
_chemical_formula_sum   'K1 Rb1 In4 Au8'
_cell_volume   344.60377258
_cell_formula_units_Z   1
loop_
 _symmetry_equiv_pos_site_id
 _symmetry_equiv_pos_as_xyz
  1  'x, y, z'
loop_
 _atom_site_type_symbol
 _atom_site_label
 _atom_site_symmetry_multiplicity
 _atom_site_fract_x
 _atom_site_fract_y
 _atom_site_fract_z
 _atom_site_occupancy
  K  K0  1  -0.00000000  0.25000000  0.75000000  1
  Rb  Rb1  1  -0.00000000  0.75000000  0.25000000  1
  In  In2  1  0.50000000  0.35879681  0.85879681  1
  In  In3  1  0.50000000  0.64120319  0.14120319  1
  In  In4  1  0.21759362  0.85879681  0.64120319  1
  In  In5  1  0.78240638  0.14120319  0.35879681  1
  Au  Au6  1  0.50241782  0.01432247  0.18023649  1
  Au  Au7  1  0.49758218  0.31734568  0.48809535  1
  Au  Au8  1  0.19455897  0.51190465  0.98567753  1
  Au  Au9  1  0.80544103  0.81976351  0.68265432  1
  Au  Au10  1  0.50241782  0.98809535  0.81734568  1
  Au  Au11  1  0.49758218  0.68023649  0.51432247  1
  Au  Au12  1  0.80544103  0.48567753  0.01190465  1
  Au  Au13  1  0.19455897  0.18265432  0.31976351  1
