# generated using pymatgen
data_La4As2(S2O)3
_symmetry_space_group_name_H-M   'P 1'
_cell_length_a   5.90701625
_cell_length_b   11.74071406
_cell_length_c   11.74071406
_cell_angle_alpha   70.26945472
_cell_angle_beta   104.56991521
_cell_angle_gamma   75.43008479
_symmetry_Int_Tables_number   1
_chemical_formula_structural   La4As2(S2O)3
_chemical_formula_sum   'La8 As4 S12 O6'
_cell_volume   689.34419108
_cell_formula_units_Z   2
loop_
 _symmetry_equiv_pos_site_id
 _symmetry_equiv_pos_as_xyz
  1  'x, y, z'
loop_
 _atom_site_type_symbol
 _atom_site_label
 _atom_site_symmetry_multiplicity
 _atom_site_fract_x
 _atom_site_fract_y
 _atom_site_fract_z
 _atom_site_occupancy
  La  La0  1  0.39018437  0.82933960  0.61365158  1
  La  La1  1  0.60587240  0.17066040  0.38634842  1
  La  La2  1  0.89018437  0.38634842  0.17066040  1
  La  La3  1  0.10587240  0.61365158  0.82933960  1
  La  La4  1  0.39678284  0.52650507  0.32457135  1
  La  La5  1  0.59871656  0.47349493  0.67542865  1
  La  La6  1  0.89678284  0.67542865  0.47349493  1
  La  La7  1  0.09871656  0.32457135  0.52650507  1
  As  As8  1  0.49211850  0.22905824  0.98061531  1
  As  As9  1  0.74056143  0.77094176  0.01938469  1
  As  As10  1  0.24056143  0.98061531  0.22905824  1
  As  As11  1  0.99211850  0.01938469  0.77094176  1
  S  S12  1  0.37195524  0.35287486  0.08898428  1
  S  S13  1  0.63584582  0.64712514  0.91101572  1
  S  S14  1  0.87195524  0.91101572  0.64712514  1
  S  S15  1  0.13584582  0.08898428  0.35287486  1
  S  S16  1  0.32801296  0.03544721  0.71825079  1
  S  S17  1  0.64520938  0.96455279  0.28174921  1
  S  S18  1  0.82801296  0.28174921  0.96455279  1
  S  S19  1  0.14520938  0.71825079  0.03544721  1
  S  S20  1  0.29968872  0.77775868  0.37360426  1
  S  S21  1  0.70384315  0.22224132  0.62639574  1
  S  S22  1  0.79968872  0.62639574  0.22224132  1
  S  S23  1  0.20384315  0.37360426  0.77775868  1
  O  O24  1  0.75331321  0.65634817  0.65626727  1
  O  O25  1  0.75339411  0.34365183  0.34373273  1
  O  O26  1  0.25331321  0.34373273  0.34365183  1
  O  O27  1  0.25339411  0.65626727  0.65634817  1
  O  O28  1  0.75450130  0.50000000  0.50000000  1
  O  O29  1  0.25450130  0.50000000  0.50000000  1
