# generated using pymatgen
data_Li5Mn5(SeO3)8
_symmetry_space_group_name_H-M   'P 1'
_cell_length_a   7.66721325
_cell_length_b   8.52171631
_cell_length_c   10.64435229
_cell_angle_alpha   73.78127543
_cell_angle_beta   88.42396078
_cell_angle_gamma   64.28016347
_symmetry_Int_Tables_number   1
_chemical_formula_structural   Li5Mn5(SeO3)8
_chemical_formula_sum   'Li5 Mn5 Se8 O24'
_cell_volume   598.09913594
_cell_formula_units_Z   1
loop_
 _symmetry_equiv_pos_site_id
 _symmetry_equiv_pos_as_xyz
  1  'x, y, z'
loop_
 _atom_site_type_symbol
 _atom_site_label
 _atom_site_symmetry_multiplicity
 _atom_site_fract_x
 _atom_site_fract_y
 _atom_site_fract_z
 _atom_site_occupancy
  Li  Li0  1  0.74820778  0.45748562  0.92838326  1
  Li  Li1  1  0.24764185  0.54617951  0.07631940  1
  Li  Li2  1  0.34760969  0.54711098  0.58069804  1
  Li  Li3  1  0.64648012  0.45749885  0.41471779  1
  Li  Li4  1  0.05778041  0.62153615  0.33178757  1
  Mn  Mn5  1  0.93870192  0.71673406  0.77975396  1
  Mn  Mn6  1  0.05901495  0.28759932  0.22221276  1
  Mn  Mn7  1  0.00169118  0.99863620  0.49788580  1
  Mn  Mn8  1  0.00037996  0.99932759  0.00235071  1
  Mn  Mn9  1  0.94142632  0.37856936  0.66482947  1
  Se  Se10  1  0.71312699  0.78806283  0.47424126  1
  Se  Se11  1  0.28969790  0.21319113  0.52027899  1
  Se  Se12  1  0.67568171  0.25818904  0.20382813  1
  Se  Se13  1  0.32490501  0.74098421  0.79604177  1
  Se  Se14  1  0.73950754  0.75337514  0.06857008  1
  Se  Se15  1  0.26434415  0.24350051  0.93330341  1
  Se  Se16  1  0.31591251  0.82098047  0.26434790  1
  Se  Se17  1  0.68189030  0.17715149  0.73691777  1
  O  O18  1  0.14288598  0.75259962  0.90488514  1
  O  O19  1  0.85792063  0.24700887  0.09491910  1
  O  O20  1  0.78437897  0.66334766  0.64188432  1
  O  O21  1  0.21525812  0.33942549  0.35868616  1
  O  O22  1  0.80761662  0.26014383  0.33743574  1
  O  O23  1  0.19131470  0.74034526  0.66269788  1
  O  O24  1  0.23045353  0.04589954  0.97716077  1
  O  O25  1  0.77049828  0.95423687  0.02059279  1
  O  O26  1  0.64944986  0.36837533  0.61130659  1
  O  O27  1  0.35573828  0.63084725  0.39034858  1
  O  O28  1  0.19916521  0.99417628  0.33705133  1
  O  O29  1  0.79869560  0.00723388  0.66350078  1
  O  O30  1  0.22685240  0.37954583  0.59884295  1
  O  O31  1  0.77539145  0.61259087  0.40787173  1
  O  O32  1  0.12235490  0.82284247  0.17544813  1
  O  O33  1  0.87770256  0.17665508  0.82448328  1
  O  O34  1  0.73390839  0.70986210  0.92061115  1
  O  O35  1  0.26430202  0.29142013  0.07876726  1
  O  O36  1  0.96311346  0.58747998  0.14819531  1
  O  O37  1  0.03769523  0.41062377  0.84998185  1
  O  O38  1  0.09752762  0.15997213  0.57263059  1
  O  O39  1  0.90250772  0.84026148  0.42725872  1
  O  O40  1  0.48714029  0.51886500  0.84938223  1
  O  O41  1  0.51412792  0.48012883  0.14958958  1
