# generated using pymatgen
data_Li14MgSi4
_symmetry_space_group_name_H-M   'P 1'
_cell_length_a   9.22014182
_cell_length_b   9.22014182
_cell_length_c   9.22014182
_cell_angle_alpha   70.58629178
_cell_angle_beta   70.41369320
_cell_angle_gamma   109.41370822
_symmetry_Int_Tables_number   1
_chemical_formula_structural   Li14MgSi4
_chemical_formula_sum   'Li28 Mg2 Si8'
_cell_volume   603.37817672
_cell_formula_units_Z   2
loop_
 _symmetry_equiv_pos_site_id
 _symmetry_equiv_pos_as_xyz
  1  'x, y, z'
loop_
 _atom_site_type_symbol
 _atom_site_label
 _atom_site_symmetry_multiplicity
 _atom_site_fract_x
 _atom_site_fract_y
 _atom_site_fract_z
 _atom_site_occupancy
  Li  Li0  1  0.81088963  0.97495738  0.41300580  1
  Li  Li1  1  0.61203681  0.52504262  0.66406775  1
  Li  Li2  1  0.68911037  0.27610456  0.83593225  1
  Li  Li3  1  0.88796319  0.22389544  0.08699420  1
  Li  Li4  1  0.83593225  0.02504262  0.88796319  1
  Li  Li5  1  0.08699420  0.47495738  0.68911037  1
  Li  Li6  1  0.41300580  0.72389544  0.61203681  1
  Li  Li7  1  0.66406775  0.77610456  0.81088963  1
  Li  Li8  1  0.15836916  0.18771236  0.22142312  1
  Li  Li9  1  0.90913548  0.37979228  0.27857688  1
  Li  Li10  1  0.59086452  0.31228764  0.52934320  1
  Li  Li11  1  0.34163084  0.12020772  0.97065680  1
  Li  Li12  1  0.18470746  0.16130053  0.73208559  1
  Li  Li13  1  0.39338611  0.91679305  0.76791441  1
  Li  Li14  1  0.31529254  0.58320695  0.02340694  1
  Li  Li15  1  0.10661389  0.33869947  0.47659306  1
  Li  Li16  1  0.02340694  0.83869947  0.39338611  1
  Li  Li17  1  0.47659306  0.08320695  0.18470746  1
  Li  Li18  1  0.73208559  0.41679305  0.10661389  1
  Li  Li19  1  0.76791441  0.66130053  0.31529254  1
  Li  Li20  1  0.97065680  0.81228764  0.90913548  1
  Li  Li21  1  0.52934320  0.62020772  0.15836916  1
  Li  Li22  1  0.27857688  0.68771236  0.34163084  1
  Li  Li23  1  0.22142312  0.87979228  0.59086452  1
  Li  Li24  1  0.87531373  0.62531373  0.75000000  1
  Li  Li25  1  0.62468627  0.87468627  0.25000000  1
  Li  Li26  1  0.75000000  0.12531373  0.62468627  1
  Li  Li27  1  0.25000000  0.37468627  0.87531373  1
  Mg  Mg28  1  0.37500000  0.25000000  0.37500000  1
  Mg  Mg29  1  0.12500000  0.75000000  0.12500000  1
  Si  Si30  1  0.58610000  0.08912135  0.41011277  1
  Si  Si31  1  0.50076588  0.41087865  0.00302135  1
  Si  Si32  1  0.91390000  0.50378723  0.49697865  1
  Si  Si33  1  0.99923412  0.99621277  0.08988723  1
  Si  Si34  1  0.49697865  0.91087865  0.99923412  1
  Si  Si35  1  0.08988723  0.58912135  0.91390000  1
  Si  Si36  1  0.41011277  0.49621277  0.50076588  1
  Si  Si37  1  0.00302135  0.00378723  0.58610000  1
