# generated using pymatgen
data_LaNi4Rh
_symmetry_space_group_name_H-M   'P 1'
_cell_length_a   3.98519117
_cell_length_b   4.94677716
_cell_length_c   5.15890299
_cell_angle_alpha   118.64889055
_cell_angle_beta   90.00000000
_cell_angle_gamma   90.00000000
_symmetry_Int_Tables_number   1
_chemical_formula_structural   LaNi4Rh
_chemical_formula_sum   'La1 Ni4 Rh1'
_cell_volume   89.25092138
_cell_formula_units_Z   1
loop_
 _symmetry_equiv_pos_site_id
 _symmetry_equiv_pos_as_xyz
  1  'x, y, z'
loop_
 _atom_site_type_symbol
 _atom_site_label
 _atom_site_symmetry_multiplicity
 _atom_site_fract_x
 _atom_site_fract_y
 _atom_site_fract_z
 _atom_site_occupancy
  La  La0  1  -0.00000000  0.99998462  0.00000000  1
  Ni  Ni1  1  0.00000000  0.32425776  0.64856142  1
  Ni  Ni2  1  0.00000000  0.67569634  0.35143858  1
  Ni  Ni3  1  0.50000000  0.49998719  0.50000004  1
  Ni  Ni4  1  0.50000000  0.99998716  0.49999996  1
  Rh  Rh5  1  0.50000000  0.49998694  0.00000000  1
