# generated using pymatgen
data_KPr5(CCl5)2
_symmetry_space_group_name_H-M   'P 1'
_cell_length_a   8.61577895
_cell_length_b   8.61572857
_cell_length_c   15.21123279
_cell_angle_alpha   90.00000000
_cell_angle_beta   90.00000000
_cell_angle_gamma   119.99942308
_symmetry_Int_Tables_number   1
_chemical_formula_structural   KPr5(CCl5)2
_chemical_formula_sum   'K2 Pr10 C4 Cl20'
_cell_volume   977.87676153
_cell_formula_units_Z   2
loop_
 _symmetry_equiv_pos_site_id
 _symmetry_equiv_pos_as_xyz
  1  'x, y, z'
loop_
 _atom_site_type_symbol
 _atom_site_label
 _atom_site_symmetry_multiplicity
 _atom_site_fract_x
 _atom_site_fract_y
 _atom_site_fract_z
 _atom_site_occupancy
  K  K0  1  0.00000486  0.00000445  0.04910074  1
  K  K1  1  -0.00000486  -0.00000445  0.54910074  1
  Pr  Pr2  1  0.66665696  0.33332930  0.44988235  1
  Pr  Pr3  1  0.33334304  0.66667070  0.94988235  1
  Pr  Pr4  1  0.33333150  0.66666692  0.54944082  1
  Pr  Pr5  1  0.66666850  0.33333308  0.04944082  1
  Pr  Pr6  1  0.38265695  0.96493863  0.74883838  1
  Pr  Pr7  1  0.03507845  0.41772034  0.74883579  1
  Pr  Pr8  1  0.58230485  0.61737098  0.74883793  1
  Pr  Pr9  1  0.61734305  0.03506137  0.24883838  1
  Pr  Pr10  1  0.96492155  0.58227966  0.24883579  1
  Pr  Pr11  1  0.41769515  0.38262902  0.24883793  1
  C  C12  1  0.33334483  0.66667235  0.70262575  1
  C  C13  1  0.66665517  0.33332765  0.20262575  1
  C  C14  1  0.66666315  0.33332855  0.29755654  1
  C  C15  1  0.33333685  0.66667145  0.79755654  1
  Cl  Cl16  1  0.00553889  0.65289594  0.06320428  1
  Cl  Cl17  1  0.34708866  0.35263751  0.06319618  1
  Cl  Cl18  1  0.64737129  0.99446245  0.06319890  1
  Cl  Cl19  1  0.99446111  0.34710406  0.56320428  1
  Cl  Cl20  1  0.65291134  0.64736249  0.56319618  1
  Cl  Cl21  1  0.35262871  0.00553755  0.56319890  1
  Cl  Cl22  1  0.98473166  0.34333991  0.93319762  1
  Cl  Cl23  1  0.65668020  0.64139637  0.93319992  1
  Cl  Cl24  1  0.35859826  0.01527228  0.93320162  1
  Cl  Cl25  1  0.01526834  0.65666009  0.43319762  1
  Cl  Cl26  1  0.34331980  0.35860363  0.43319992  1
  Cl  Cl27  1  0.64140174  0.98472772  0.43320162  1
  Cl  Cl28  1  0.99125667  0.74791915  0.74923279  1
  Cl  Cl29  1  0.25208858  0.24332778  0.74923434  1
  Cl  Cl30  1  0.75668837  0.00876350  0.74923274  1
  Cl  Cl31  1  0.00874333  0.25208085  0.24923279  1
  Cl  Cl32  1  0.74791142  0.75667222  0.24923434  1
  Cl  Cl33  1  0.24331163  0.99123650  0.24923274  1
  Cl  Cl34  1  0.66667520  0.33333716  0.70518332  1
  Cl  Cl35  1  0.33332480  0.66666284  0.20518332  1
