# generated using pymatgen
data_KNaP6(PbO3)8
_symmetry_space_group_name_H-M   'P 1'
_cell_length_a   7.35091418
_cell_length_b   9.95257730
_cell_length_c   9.95268542
_cell_angle_alpha   120.00158334
_cell_angle_beta   90.00033380
_cell_angle_gamma   89.99969266
_symmetry_Int_Tables_number   1
_chemical_formula_structural   KNaP6(PbO3)8
_chemical_formula_sum   'K1 Na1 P6 Pb8 O24'
_cell_volume   630.58101538
_cell_formula_units_Z   1
loop_
 _symmetry_equiv_pos_site_id
 _symmetry_equiv_pos_as_xyz
  1  'x, y, z'
loop_
 _atom_site_type_symbol
 _atom_site_label
 _atom_site_symmetry_multiplicity
 _atom_site_fract_x
 _atom_site_fract_y
 _atom_site_fract_z
 _atom_site_occupancy
  K  K0  1  0.49047272  0.66673234  0.33336422  1
  Na  Na1  1  0.00603641  0.33335920  0.66668677  1
  P  P2  1  0.24888190  0.98270619  0.60655198  1
  P  P3  1  0.24887366  0.39344451  0.37615365  1
  P  P4  1  0.24887883  0.62384150  0.01728816  1
  P  P5  1  0.75547652  0.02315151  0.39595740  1
  P  P6  1  0.75547589  0.60404142  0.62719501  1
  P  P7  1  0.75548054  0.37280380  0.97684779  1
  Pb  Pb8  1  0.75023992  0.00138075  0.74006035  1
  Pb  Pb9  1  0.75023871  0.25990447  0.26130560  1
  Pb  Pb10  1  0.75025151  0.73868184  0.99862810  1
  Pb  Pb11  1  0.24717387  0.00130091  0.26001679  1
  Pb  Pb12  1  0.24717003  0.73998628  0.74128141  1
  Pb  Pb13  1  0.24716894  0.25871672  0.99870128  1
  Pb  Pb14  1  0.98730636  0.66667933  0.33334184  1
  Pb  Pb15  1  0.48781047  0.33331285  0.66665066  1
  O  O16  1  0.24649851  0.16140030  0.68194128  1
  O  O17  1  0.24649328  0.31805410  0.47945359  1
  O  O18  1  0.24649693  0.52054228  0.83859657  1
  O  O19  1  0.75956173  0.84466876  0.31983085  1
  O  O20  1  0.75956684  0.68017066  0.52484443  1
  O  O21  1  0.75957136  0.47515977  0.15532973  1
  O  O22  1  0.24610214  0.90571930  0.42493969  1
  O  O23  1  0.24609574  0.57506178  0.48078307  1
  O  O24  1  0.24609466  0.51921436  0.09427225  1
  O  O25  1  0.75565367  0.10185010  0.57773314  1
  O  O26  1  0.75565800  0.42225951  0.52410799  1
  O  O27  1  0.75566308  0.47588478  0.89815390  1
  O  O28  1  0.07942418  0.91897237  0.65221167  1
  O  O29  1  0.07941761  0.34777945  0.26675740  1
  O  O30  1  0.07942396  0.73324394  0.08102952  1
  O  O31  1  0.58193929  0.08184933  0.34983183  1
  O  O32  1  0.58194218  0.65016802  0.73201959  1
  O  O33  1  0.58194552  0.26797761  0.91814159  1
  O  O34  1  0.92090874  0.08446079  0.34436814  1
  O  O35  1  0.92090769  0.65563037  0.74009684  1
  O  O36  1  0.92090883  0.25989577  0.91552392  1
  O  O37  1  0.41760134  0.92438358  0.65713128  1
  O  O38  1  0.41759359  0.34286135  0.26725343  1
  O  O39  1  0.41759483  0.73274808  0.07561727  1
