# generated using pymatgen
data_La3InGe
_symmetry_space_group_name_H-M   'P 1'
_cell_length_a   11.95005015
_cell_length_b   11.95001365
_cell_length_c   11.95930846
_cell_angle_alpha   62.20943602
_cell_angle_beta   62.20933819
_cell_angle_gamma   93.82924240
_symmetry_Int_Tables_number   1
_chemical_formula_structural   La3InGe
_chemical_formula_sum   'La24 In8 Ge8'
_cell_volume   1245.35995384
_cell_formula_units_Z   8
loop_
 _symmetry_equiv_pos_site_id
 _symmetry_equiv_pos_as_xyz
  1  'x, y, z'
loop_
 _atom_site_type_symbol
 _atom_site_label
 _atom_site_symmetry_multiplicity
 _atom_site_fract_x
 _atom_site_fract_y
 _atom_site_fract_z
 _atom_site_occupancy
  La  La0  1  0.14200538  0.64199907  0.49999600  1
  La  La1  1  0.64001475  0.14001873  0.50002199  1
  La  La2  1  0.85440231  0.35440750  0.49999256  1
  La  La3  1  0.35927106  0.85927297  0.49999031  1
  La  La4  1  0.83184937  0.70045592  0.73620779  1
  La  La5  1  0.43668075  0.56810208  0.26377460  1
  La  La6  1  0.33821932  0.06947556  0.86797395  1
  La  La7  1  0.93743072  0.20620327  0.13200115  1
  La  La8  1  0.56946951  0.83821736  0.86797261  1
  La  La9  1  0.70620657  0.43742969  0.13199843  1
  La  La10  1  0.20045869  0.33185811  0.73620927  1
  La  La11  1  0.06810059  0.93667871  0.26377630  1
  La  La12  1  0.16432837  0.30055802  0.26324794  1
  La  La13  1  0.56380771  0.42755612  0.73676551  1
  La  La14  1  0.66764683  0.93523967  0.12655707  1
  La  La15  1  0.06179449  0.79419153  0.87348167  1
  La  La16  1  0.43523776  0.16764205  0.12656509  1
  La  La17  1  0.29419345  0.56179611  0.87348240  1
  La  La18  1  0.80055708  0.66432665  0.26325400  1
  La  La19  1  0.92755093  0.06380689  0.73676484  1
  La  La20  1  0.16439879  0.66440133  0.16458847  1
  La  La21  1  0.82895369  0.32895774  0.83544271  1
  La  La22  1  0.66751110  0.83276152  0.50000195  1
  La  La23  1  0.33276527  0.16751162  0.49999676  1
  In  In24  1  0.49996558  0.49995052  0.99999774  1
  In  In25  1  0.99995134  0.99996504  0.99999632  1
  In  In26  1  0.47281724  0.62271965  0.49998835  1
  In  In27  1  0.12271920  0.97281812  0.49998926  1
  In  In28  1  0.02718076  0.52717994  0.85077013  1
  In  In29  1  0.37794556  0.87794470  0.14923098  1
  In  In30  1  0.52858882  0.37769728  0.50000370  1
  In  In31  1  0.87769679  0.02858720  0.50000253  1
  Ge  Ge32  1  0.62038196  0.12037926  0.25954961  1
  Ge  Ge33  1  0.37992908  0.87992791  0.74044644  1
  Ge  Ge34  1  0.11924420  0.37968912  0.50000272  1
  Ge  Ge35  1  0.87969408  0.61924055  0.50000226  1
  Ge  Ge36  1  0.75016686  0.75016496  0.99999795  1
  Ge  Ge37  1  0.25016601  0.25017000  0.99999906  1
  Ge  Ge38  1  0.97627890  0.47627869  0.14810685  1
  Ge  Ge39  1  0.62441915  0.12441888  0.85185273  1
