# generated using pymatgen
data_KSnAuSe3
_symmetry_space_group_name_H-M   'P 1'
_cell_length_a   8.55751158
_cell_length_b   8.55751158
_cell_length_c   20.29680588
_cell_angle_alpha   90.00000000
_cell_angle_beta   90.00000000
_cell_angle_gamma   90.00000000
_symmetry_Int_Tables_number   1
_chemical_formula_structural   KSnAuSe3
_chemical_formula_sum   'K8 Sn8 Au8 Se24'
_cell_volume   1486.35548155
_cell_formula_units_Z   8
loop_
 _symmetry_equiv_pos_site_id
 _symmetry_equiv_pos_as_xyz
  1  'x, y, z'
loop_
 _atom_site_type_symbol
 _atom_site_label
 _atom_site_symmetry_multiplicity
 _atom_site_fract_x
 _atom_site_fract_y
 _atom_site_fract_z
 _atom_site_occupancy
  K  K0  1  0.50000000  0.50000000  0.24558279  1
  K  K1  1  0.50000000  0.50000000  0.74558279  1
  K  K2  1  0.00000000  0.00000000  0.39942315  1
  K  K3  1  0.00000000  0.00000000  0.89942315  1
  K  K4  1  0.00000000  0.00000000  0.60105128  1
  K  K5  1  0.00000000  0.00000000  0.10105128  1
  K  K6  1  0.50000000  0.50000000  0.44922960  1
  K  K7  1  0.50000000  0.50000000  0.94922960  1
  Sn  Sn8  1  0.00000000  0.50000000  0.08893539  1
  Sn  Sn9  1  0.50000000  0.00000000  0.08893539  1
  Sn  Sn10  1  0.00000000  0.50000000  0.58893539  1
  Sn  Sn11  1  0.50000000  0.00000000  0.58893539  1
  Sn  Sn12  1  0.00000000  0.50000000  0.91187498  1
  Sn  Sn13  1  0.50000000  0.00000000  0.91187498  1
  Sn  Sn14  1  0.00000000  0.50000000  0.41187498  1
  Sn  Sn15  1  0.50000000  0.00000000  0.41187498  1
  Au  Au16  1  -0.00152905  0.68296294  0.24966495  1
  Au  Au17  1  0.00152905  0.31703706  0.24966495  1
  Au  Au18  1  0.31703706  -0.00152905  0.24966495  1
  Au  Au19  1  0.68296294  0.00152905  0.24966495  1
  Au  Au20  1  0.00152905  0.68296294  0.74966495  1
  Au  Au21  1  -0.00152905  0.31703706  0.74966495  1
  Au  Au22  1  0.68296294  -0.00152905  0.74966495  1
  Au  Au23  1  0.31703706  0.00152905  0.74966495  1
  Se  Se24  1  0.33338524  0.15285980  0.49987620  1
  Se  Se25  1  0.66661476  0.84714020  0.49987620  1
  Se  Se26  1  0.84714020  0.33338524  0.49987620  1
  Se  Se27  1  0.15285980  0.66661476  0.49987620  1
  Se  Se28  1  0.66661476  0.15285980  0.99987620  1
  Se  Se29  1  0.33338524  0.84714020  0.99987620  1
  Se  Se30  1  0.15285980  0.33338524  0.99987620  1
  Se  Se31  1  0.84714020  0.66661476  0.99987620  1
  Se  Se32  1  0.32335411  0.81637106  0.34422374  1
  Se  Se33  1  0.67664589  0.18362894  0.34422374  1
  Se  Se34  1  0.18362894  0.32335411  0.34422374  1
  Se  Se35  1  0.81637106  0.67664589  0.34422374  1
  Se  Se36  1  0.67664589  0.81637106  0.84422374  1
  Se  Se37  1  0.32335411  0.18362894  0.84422374  1
  Se  Se38  1  0.81637106  0.32335411  0.84422374  1
  Se  Se39  1  0.18362894  0.67664589  0.84422374  1
  Se  Se40  1  0.67772467  0.18239351  0.65623321  1
  Se  Se41  1  0.32227533  0.81760649  0.65623321  1
  Se  Se42  1  0.81760649  0.67772467  0.65623321  1
  Se  Se43  1  0.18239351  0.32227533  0.65623321  1
  Se  Se44  1  0.32227533  0.18239351  0.15623321  1
  Se  Se45  1  0.67772467  0.81760649  0.15623321  1
  Se  Se46  1  0.18239351  0.67772467  0.15623321  1
  Se  Se47  1  0.81760649  0.32227533  0.15623321  1
