# generated using pymatgen
data_KMgP2H5O9
_symmetry_space_group_name_H-M   'P 1'
_cell_length_a   6.67929874
_cell_length_b   7.79860906
_cell_length_c   15.68835925
_cell_angle_alpha   90.00000000
_cell_angle_beta   90.00000000
_cell_angle_gamma   90.00000000
_symmetry_Int_Tables_number   1
_chemical_formula_structural   KMgP2H5O9
_chemical_formula_sum   'K4 Mg4 P8 H20 O36'
_cell_volume   817.19470497
_cell_formula_units_Z   4
loop_
 _symmetry_equiv_pos_site_id
 _symmetry_equiv_pos_as_xyz
  1  'x, y, z'
loop_
 _atom_site_type_symbol
 _atom_site_label
 _atom_site_symmetry_multiplicity
 _atom_site_fract_x
 _atom_site_fract_y
 _atom_site_fract_z
 _atom_site_occupancy
  K  K0  1  0.12491188  0.24550576  0.96453392  1
  K  K1  1  0.37508812  0.24550576  0.46453392  1
  K  K2  1  0.87508812  0.74550576  0.03546608  1
  K  K3  1  0.62491188  0.74550576  0.53546608  1
  Mg  Mg4  1  0.06357861  0.25062119  0.19715899  1
  Mg  Mg5  1  0.43642139  0.25062119  0.69715899  1
  Mg  Mg6  1  0.93642139  0.75062119  0.80284101  1
  Mg  Mg7  1  0.56357861  0.75062119  0.30284101  1
  P  P8  1  0.85953751  0.43798731  0.36237329  1
  P  P9  1  0.63195290  0.05632466  0.86473646  1
  P  P10  1  0.14046249  0.93798731  0.63762671  1
  P  P11  1  0.36804710  0.55632466  0.13526354  1
  P  P12  1  0.13195290  0.55632466  0.63526354  1
  P  P13  1  0.35953751  0.93798731  0.13762671  1
  P  P14  1  0.86804710  0.05632466  0.36473646  1
  P  P15  1  0.64046249  0.43798731  0.86237329  1
  H  H16  1  0.39524492  0.14666903  0.26887620  1
  H  H17  1  0.10533395  0.35677062  0.76767993  1
  H  H18  1  0.60475508  0.64666903  0.73112380  1
  H  H19  1  0.89466605  0.85677062  0.23232007  1
  H  H20  1  0.60533395  0.85677062  0.73232007  1
  H  H21  1  0.89524492  0.64666903  0.23112380  1
  H  H22  1  0.39466605  0.35677062  0.26767993  1
  H  H23  1  0.10475508  0.14666903  0.76887620  1
  H  H24  1  0.73009185  0.15100377  0.10909844  1
  H  H25  1  0.77199834  0.35251958  0.60638086  1
  H  H26  1  0.26990815  0.65100377  0.89090156  1
  H  H27  1  0.22800166  0.85251958  0.39361914  1
  H  H28  1  0.27199834  0.85251958  0.89361914  1
  H  H29  1  0.23009185  0.65100377  0.39090156  1
  H  H30  1  0.72800166  0.35251958  0.10638086  1
  H  H31  1  0.76990815  0.15100377  0.60909844  1
  H  H32  1  0.00444827  0.49644718  0.48897017  1
  H  H33  1  0.99555173  0.99644718  0.51102983  1
  H  H34  1  0.50444827  0.99644718  0.01102983  1
  H  H35  1  0.49555173  0.49644718  0.98897017  1
  O  O36  1  0.93347711  0.43768022  0.27136254  1
  O  O37  1  0.56374416  0.06085559  0.77210658  1
  O  O38  1  0.06652289  0.93768022  0.72863746  1
  O  O39  1  0.43625584  0.56085559  0.22789342  1
  O  O40  1  0.06374416  0.56085559  0.72789342  1
  O  O41  1  0.43347711  0.93768022  0.22863746  1
  O  O42  1  0.93625584  0.06085559  0.27210658  1
  O  O43  1  0.56652289  0.43768022  0.77136254  1
  O  O44  1  0.77854805  0.24881650  0.38766047  1
  O  O45  1  0.72145195  0.24881650  0.88766047  1
  O  O46  1  0.22145195  0.74881650  0.61233953  1
  O  O47  1  0.27854805  0.74881650  0.11233953  1
  O  O48  1  0.04534535  0.47389542  0.42286724  1
  O  O49  1  0.45457619  0.02542160  0.92636823  1
  O  O50  1  0.95465465  0.97389542  0.57713276  1
  O  O51  1  0.54542381  0.52542160  0.07363177  1
  O  O52  1  0.95457619  0.52542160  0.57363177  1
  O  O53  1  0.54534535  0.97389542  0.07713276  1
  O  O54  1  0.04542381  0.02542160  0.42636823  1
  O  O55  1  0.45465465  0.47389542  0.92286724  1
  O  O56  1  0.68690855  0.55746962  0.38268989  1
  O  O57  1  0.80950598  0.93922846  0.88230407  1
  O  O58  1  0.31309145  0.05746962  0.61731011  1
  O  O59  1  0.19049402  0.43922846  0.11769593  1
  O  O60  1  0.30950598  0.43922846  0.61769593  1
  O  O61  1  0.18690855  0.05746962  0.11731011  1
  O  O62  1  0.69049402  0.93922846  0.38230407  1
  O  O63  1  0.81309145  0.55746962  0.88268989  1
  O  O64  1  0.81855453  0.25219276  0.11025072  1
  O  O65  1  0.68144547  0.25219276  0.61025072  1
  O  O66  1  0.18144547  0.75219276  0.88974928  1
  O  O67  1  0.31855453  0.75219276  0.38974928  1
  O  O68  1  0.31712870  0.25159072  0.28238816  1
  O  O69  1  0.18287130  0.25159072  0.78238816  1
  O  O70  1  0.68287130  0.75159072  0.71761184  1
  O  O71  1  0.81712870  0.75159072  0.21761184  1
