# generated using pymatgen
data_Ho3Er3MnBi2
_symmetry_space_group_name_H-M   'P 1'
_cell_length_a   4.26512430
_cell_length_b   8.24005450
_cell_length_c   8.24032330
_cell_angle_alpha   119.99892413
_cell_angle_beta   90.00000000
_cell_angle_gamma   90.00000000
_symmetry_Int_Tables_number   1
_chemical_formula_structural   Ho3Er3MnBi2
_chemical_formula_sum   'Ho3 Er3 Mn1 Bi2'
_cell_volume   250.80798985
_cell_formula_units_Z   1
loop_
 _symmetry_equiv_pos_site_id
 _symmetry_equiv_pos_as_xyz
  1  'x, y, z'
loop_
 _atom_site_type_symbol
 _atom_site_label
 _atom_site_symmetry_multiplicity
 _atom_site_fract_x
 _atom_site_fract_y
 _atom_site_fract_z
 _atom_site_occupancy
  Ho  Ho0  1  0.50000000  0.60525584  1.00000000  1
  Ho  Ho1  1  0.50000000  0.39462965  0.39467505  1
  Ho  Ho2  1  0.50000000  0.99995460  0.60532495  1
  Er  Er3  1  -0.00000000  0.23185684  0.00000000  1
  Er  Er4  1  -0.00000000  0.76814222  0.76807866  1
  Er  Er5  1  -0.00000000  0.00006356  0.23192134  1
  Mn  Mn6  1  0.50000000  0.00009292  1.00000000  1
  Bi  Bi7  1  0.00000000  0.33326678  0.66662917  1
  Bi  Bi8  1  0.00000000  0.66663760  0.33337083  1
