# generated using pymatgen
data_K2La2Sb2S9
_symmetry_space_group_name_H-M   'P 1'
_cell_length_a   4.13578118
_cell_length_b   11.32786221
_cell_length_c   17.07950923
_cell_angle_alpha   90.00000000
_cell_angle_beta   90.00000000
_cell_angle_gamma   90.00000000
_symmetry_Int_Tables_number   1
_chemical_formula_structural   K2La2Sb2S9
_chemical_formula_sum   'K4 La4 Sb4 S18'
_cell_volume   800.16748113
_cell_formula_units_Z   2
loop_
 _symmetry_equiv_pos_site_id
 _symmetry_equiv_pos_as_xyz
  1  'x, y, z'
loop_
 _atom_site_type_symbol
 _atom_site_label
 _atom_site_symmetry_multiplicity
 _atom_site_fract_x
 _atom_site_fract_y
 _atom_site_fract_z
 _atom_site_occupancy
  K  K0  1  0.50000000  0.71832143  0.05744979  1
  K  K1  1  0.50000000  0.28167857  0.94255021  1
  K  K2  1  0.50000000  0.21832143  0.44255021  1
  K  K3  1  0.50000000  0.78167857  0.55744979  1
  La  La4  1  0.50000000  0.88353600  0.29470417  1
  La  La5  1  0.50000000  0.11646400  0.70529583  1
  La  La6  1  0.50000000  0.38353600  0.20529583  1
  La  La7  1  0.50000000  0.61646400  0.79470417  1
  Sb  Sb8  1  0.00000000  0.55248954  0.38377457  1
  Sb  Sb9  1  -0.00000000  0.44751046  0.61622543  1
  Sb  Sb10  1  0.00000000  0.05248954  0.11622543  1
  Sb  Sb11  1  -0.00000000  0.94751046  0.88377457  1
  S  S12  1  -0.00000000  0.85047701  0.17248285  1
  S  S13  1  -0.00000000  0.14952299  0.82751715  1
  S  S14  1  0.00000000  0.35047701  0.32751715  1
  S  S15  1  -0.00000000  0.64952299  0.67248285  1
  S  S16  1  0.00000000  0.82883731  0.41185977  1
  S  S17  1  -0.00000000  0.17116269  0.58814023  1
  S  S18  1  -0.00000000  0.32883731  0.08814023  1
  S  S19  1  0.00000000  0.67116269  0.91185977  1
  S  S20  1  0.50000000  0.50000000  0.50000000  1
  S  S21  1  0.50000000  -0.00000000  -0.00000000  1
  S  S22  1  0.00000000  0.50847693  0.12082300  1
  S  S23  1  0.00000000  0.49152307  0.87917700  1
  S  S24  1  -0.00000000  0.00847693  0.37917700  1
  S  S25  1  -0.00000000  0.99152307  0.62082300  1
  S  S26  1  0.50000000  0.61407514  0.28819879  1
  S  S27  1  0.50000000  0.38592486  0.71180121  1
  S  S28  1  0.50000000  0.11407514  0.21180121  1
  S  S29  1  0.50000000  0.88592486  0.78819879  1
