# generated using pymatgen
data_RbSi2O5
_symmetry_space_group_name_H-M   'P 1'
_cell_length_a   4.90505968
_cell_length_b   8.36219923
_cell_length_c   12.07167940
_cell_angle_alpha   90.00000000
_cell_angle_beta   90.00000000
_cell_angle_gamma   90.00000000
_symmetry_Int_Tables_number   1
_chemical_formula_structural   RbSi2O5
_chemical_formula_sum   'Rb4 Si8 O20'
_cell_volume   495.14511548
_cell_formula_units_Z   4
loop_
 _symmetry_equiv_pos_site_id
 _symmetry_equiv_pos_as_xyz
  1  'x, y, z'
loop_
 _atom_site_type_symbol
 _atom_site_label
 _atom_site_symmetry_multiplicity
 _atom_site_fract_x
 _atom_site_fract_y
 _atom_site_fract_z
 _atom_site_occupancy
  Rb  Rb0  1  0.96526269  0.75000000  0.96970573  1
  Rb  Rb1  1  0.53473731  0.75000000  0.46970573  1
  Rb  Rb2  1  0.03473731  0.25000000  0.03029427  1
  Rb  Rb3  1  0.46526269  0.25000000  0.53029427  1
  Si  Si4  1  0.99685412  0.56133786  0.68426114  1
  Si  Si5  1  0.50314588  0.93866214  0.18426114  1
  Si  Si6  1  0.00314588  0.06133786  0.31573886  1
  Si  Si7  1  0.49685412  0.43866214  0.81573886  1
  Si  Si8  1  0.00314588  0.43866214  0.31573886  1
  Si  Si9  1  0.49685412  0.06133786  0.81573886  1
  Si  Si10  1  0.99685412  0.93866214  0.68426114  1
  Si  Si11  1  0.50314588  0.56133786  0.18426114  1
  O  O12  1  0.26970262  0.45609913  0.71510478  1
  O  O13  1  0.23029738  0.04390087  0.21510478  1
  O  O14  1  0.73029738  0.95609913  0.28489522  1
  O  O15  1  0.76970262  0.54390087  0.78489522  1
  O  O16  1  0.73029738  0.54390087  0.28489522  1
  O  O17  1  0.76970262  0.95609913  0.78489522  1
  O  O18  1  0.26970262  0.04390087  0.71510478  1
  O  O19  1  0.23029738  0.45609913  0.21510478  1
  O  O20  1  0.84999926  0.50068903  0.57139855  1
  O  O21  1  0.65000074  0.99931097  0.07139855  1
  O  O22  1  0.15000074  0.00068903  0.42860145  1
  O  O23  1  0.34999926  0.49931097  0.92860145  1
  O  O24  1  0.15000074  0.49931097  0.42860145  1
  O  O25  1  0.34999926  0.00068903  0.92860145  1
  O  O26  1  0.84999926  0.99931097  0.57139855  1
  O  O27  1  0.65000074  0.50068903  0.07139855  1
  O  O28  1  0.09440272  0.75000000  0.68368462  1
  O  O29  1  0.40559728  0.75000000  0.18368462  1
  O  O30  1  0.90559728  0.25000000  0.31631538  1
  O  O31  1  0.59440272  0.25000000  0.81631538  1
