# generated using pymatgen
data_K2(TaS2)3
_symmetry_space_group_name_H-M   'P 1'
_cell_length_a   5.89019664
_cell_length_b   5.88893751
_cell_length_c   16.23967498
_cell_angle_alpha   79.52176729
_cell_angle_beta   89.99999993
_cell_angle_gamma   120.00706849
_symmetry_Int_Tables_number   1
_chemical_formula_structural   K2(TaS2)3
_chemical_formula_sum   'K4 Ta6 S12'
_cell_volume   476.92373998
_cell_formula_units_Z   2
loop_
 _symmetry_equiv_pos_site_id
 _symmetry_equiv_pos_as_xyz
  1  'x, y, z'
loop_
 _atom_site_type_symbol
 _atom_site_label
 _atom_site_symmetry_multiplicity
 _atom_site_fract_x
 _atom_site_fract_y
 _atom_site_fract_z
 _atom_site_occupancy
  K  K0  1  0.58302797  0.49949833  0.25090187  1
  K  K1  1  0.24968384  0.83279792  0.25094265  1
  K  K2  1  0.08355193  0.50053508  0.74905735  1
  K  K3  1  0.75019664  0.83383467  0.74909813  1
  Ta  Ta4  1  0.66672254  0.66666700  0.00000000  1
  Ta  Ta5  1  -0.00008578  0.33315856  0.00030581  1
  Ta  Ta6  1  0.33342166  0.00017444  -0.00030581  1
  Ta  Ta7  1  0.83381588  0.33393824  0.49999524  1
  Ta  Ta8  1  0.49917804  0.66666700  0.50000000  1
  Ta  Ta9  1  0.16654364  0.99939476  0.50000476  1
  S  S10  1  0.19759814  0.39595790  0.40302580  1
  S  S11  1  0.53433906  0.06511072  0.40304489  1
  S  S12  1  0.86526643  0.73275120  0.40302571  1
  S  S13  1  0.13589434  0.26822228  0.59695511  1
  S  S14  1  0.46830724  0.93737610  0.59697420  1
  S  S15  1  0.79918223  0.60058180  0.59697429  1
  S  S16  1  0.29926100  0.59972143  0.09710793  1
  S  S17  1  0.63648687  0.26908506  0.09710605  1
  S  S18  1  0.96711931  0.93703767  0.09710958  1
  S  S19  1  0.03406881  0.06424794  0.90289395  1
  S  S20  1  0.36620557  0.73361157  0.90289207  1
  S  S21  1  0.69674863  0.39629633  0.90289042  1
