# generated using pymatgen
data_Hf4GeSb7
_symmetry_space_group_name_H-M   'P 1'
_cell_length_a   3.97644986
_cell_length_b   7.37766263
_cell_length_c   9.56251709
_cell_angle_alpha   90.48542796
_cell_angle_beta   90.00000000
_cell_angle_gamma   90.00000000
_symmetry_Int_Tables_number   1
_chemical_formula_structural   Hf4GeSb7
_chemical_formula_sum   'Hf4 Ge1 Sb7'
_cell_volume   280.52459234
_cell_formula_units_Z   1
loop_
 _symmetry_equiv_pos_site_id
 _symmetry_equiv_pos_as_xyz
  1  'x, y, z'
loop_
 _atom_site_type_symbol
 _atom_site_label
 _atom_site_symmetry_multiplicity
 _atom_site_fract_x
 _atom_site_fract_y
 _atom_site_fract_z
 _atom_site_occupancy
  Hf  Hf0  1  0.75000000  0.24194250  0.65945243  1
  Hf  Hf1  1  0.75000000  0.73558387  0.83185974  1
  Hf  Hf2  1  0.25000000  0.75847800  0.34284804  1
  Hf  Hf3  1  0.25000000  0.26033250  0.16466044  1
  Ge  Ge4  1  0.75000000  0.63191873  0.54642804  1
  Sb  Sb5  1  0.75000000  0.56544111  0.15034321  1
  Sb  Sb6  1  0.75000000  0.06751362  0.35397574  1
  Sb  Sb7  1  0.25000000  0.43288864  0.84896857  1
  Sb  Sb8  1  0.25000000  0.92299566  0.64242362  1
  Sb  Sb9  1  0.75000000  0.13063178  0.95241113  1
  Sb  Sb10  1  0.25000000  0.38643151  0.45990556  1
  Sb  Sb11  1  0.25000000  0.86584207  0.04672349  1
