# generated using pymatgen
data_K4Ba2SnSb4
_symmetry_space_group_name_H-M   'P 1'
_cell_length_a   8.38390930
_cell_length_b   11.25624622
_cell_length_c   11.25632715
_cell_angle_alpha   60.55539203
_cell_angle_beta   89.36677013
_cell_angle_gamma   90.62979698
_symmetry_Int_Tables_number   1
_chemical_formula_structural   K4Ba2SnSb4
_chemical_formula_sum   'K8 Ba4 Sn2 Sb8'
_cell_volume   924.84110676
_cell_formula_units_Z   2
loop_
 _symmetry_equiv_pos_site_id
 _symmetry_equiv_pos_as_xyz
  1  'x, y, z'
loop_
 _atom_site_type_symbol
 _atom_site_label
 _atom_site_symmetry_multiplicity
 _atom_site_fract_x
 _atom_site_fract_y
 _atom_site_fract_z
 _atom_site_occupancy
  K  K0  1  0.37758286  0.52073424  0.95730175  1
  K  K1  1  0.87757616  0.04268797  0.47926305  1
  K  K2  1  0.18078256  0.14223346  0.71239367  1
  K  K3  1  0.19264943  0.71019074  0.14039612  1
  K  K4  1  0.18680610  0.14855330  0.14279162  1
  K  K5  1  0.69263883  0.85961236  0.28978054  1
  K  K6  1  0.68080027  0.28762165  0.85776105  1
  K  K7  1  0.68683086  0.85720795  0.85146297  1
  Ba  Ba8  1  0.37649535  0.95620164  0.52302026  1
  Ba  Ba9  1  0.37599144  0.51972303  0.52420735  1
  Ba  Ba10  1  0.87650555  0.47697557  0.04380606  1
  Ba  Ba11  1  0.87599289  0.47578953  0.48027940  1
  Sn  Sn12  1  0.49833455  0.33534191  0.33044445  1
  Sn  Sn13  1  0.99833740  0.66958903  0.66464921  1
  Sb  Sb14  1  0.11385546  0.80175173  0.38702587  1
  Sb  Sb15  1  0.09560458  0.38893484  0.80235946  1
  Sb  Sb16  1  0.10351835  0.80451258  0.80811672  1
  Sb  Sb17  1  0.59562353  0.19763408  0.61107200  1
  Sb  Sb18  1  0.61384574  0.61296591  0.19824614  1
  Sb  Sb19  1  0.60352169  0.19188601  0.19548273  1
  Sb  Sb20  1  0.15274571  0.33668178  0.33687327  1
  Sb  Sb21  1  0.65276069  0.66317067  0.66326632  1
