# generated using pymatgen
data_KNa3Al12H24(SO7)8
_symmetry_space_group_name_H-M   'P 1'
_cell_length_a   7.04535069
_cell_length_b   12.42529182
_cell_length_c   12.20267946
_cell_angle_alpha   109.11061023
_cell_angle_beta   90.00000159
_cell_angle_gamma   89.99999894
_symmetry_Int_Tables_number   1
_chemical_formula_structural   KNa3Al12H24(SO7)8
_chemical_formula_sum   'K1 Na3 Al12 H24 S8 O56'
_cell_volume   1009.35720597
_cell_formula_units_Z   1
loop_
 _symmetry_equiv_pos_site_id
 _symmetry_equiv_pos_as_xyz
  1  'x, y, z'
loop_
 _atom_site_type_symbol
 _atom_site_label
 _atom_site_symmetry_multiplicity
 _atom_site_fract_x
 _atom_site_fract_y
 _atom_site_fract_z
 _atom_site_occupancy
  K  K0  1  0.50000000  -0.00000000  0.50000000  1
  Na  Na1  1  -0.00000000  -0.00000000  -0.00000000  1
  Na  Na2  1  0.50000000  0.50000000  -0.00000000  1
  Na  Na3  1  -0.00000000  0.50000000  0.50000000  1
  Al  Al4  1  0.75025347  0.25097750  0.50016890  1
  Al  Al5  1  0.24974653  0.74902250  0.49983110  1
  Al  Al6  1  0.75004068  0.74992880  0.99988807  1
  Al  Al7  1  0.24995932  0.25007120  0.00011193  1
  Al  Al8  1  0.00000000  0.25013324  0.24989323  1
  Al  Al9  1  0.50000000  0.74908135  0.24939767  1
  Al  Al10  1  1.00000000  0.74986676  0.75010677  1
  Al  Al11  1  0.50000000  0.25091865  0.75060233  1
  Al  Al12  1  0.75025347  0.74902250  0.49983110  1
  Al  Al13  1  0.24974653  0.25097750  0.50016890  1
  Al  Al14  1  0.75004068  0.25007120  0.00011193  1
  Al  Al15  1  0.24995932  0.74992880  0.99988807  1
  H  H16  1  0.70829064  0.83344767  0.84724525  1
  H  H17  1  0.20832295  0.83273067  0.34701098  1
  H  H18  1  0.70819634  0.33344715  0.34712259  1
  H  H19  1  0.20809619  0.33346650  0.84727565  1
  H  H20  1  0.29170936  0.83344767  0.84724525  1
  H  H21  1  0.79167705  0.83273067  0.34701098  1
  H  H22  1  0.29180366  0.33344715  0.34712259  1
  H  H23  1  0.79190381  0.33346650  0.84727565  1
  H  H24  1  0.50000000  0.83272081  0.63867549  1
  H  H25  1  1.00000000  0.83343574  0.13896102  1
  H  H26  1  0.50000000  0.33344831  0.13900022  1
  H  H27  1  1.00000000  0.33344529  0.63909570  1
  H  H28  1  0.29180366  0.66655285  0.65287741  1
  H  H29  1  0.79190381  0.66653350  0.15272435  1
  H  H30  1  0.29170936  0.16655233  0.15275475  1
  H  H31  1  0.79167705  0.16726933  0.65298902  1
  H  H32  1  0.70819634  0.66655285  0.65287741  1
  H  H33  1  0.20809619  0.66653350  0.15272435  1
  H  H34  1  0.70829064  0.16655233  0.15275475  1
  H  H35  1  0.20832295  0.16726933  0.65298902  1
  H  H36  1  0.50000000  0.66655169  0.86099978  1
  H  H37  1  0.00000000  0.66655471  0.36090430  1
  H  H38  1  0.50000000  0.16727919  0.36132451  1
  H  H39  1  0.00000000  0.16656426  0.86103898  1
  S  S40  1  0.50000000  0.45214745  0.65073382  1
  S  S41  1  0.00000000  0.45178542  0.15058804  1
  S  S42  1  0.50000000  0.95148485  0.15012175  1
  S  S43  1  0.00000000  0.95120416  0.65078646  1
  S  S44  1  0.50000000  0.04851515  0.84987825  1
  S  S45  1  1.00000000  0.04879584  0.34921354  1
  S  S46  1  0.50000000  0.54785255  0.34926618  1
  S  S47  1  1.00000000  0.54821458  0.84941196  1
  O  O48  1  0.81162532  0.79062780  0.86741864  1
  O  O49  1  0.31057403  0.78868340  0.36641731  1
  O  O50  1  0.81188997  0.29094133  0.36739277  1
  O  O51  1  0.31158440  0.29094404  0.86773426  1
  O  O52  1  0.18837468  0.79062780  0.86741864  1
  O  O53  1  0.68942597  0.78868340  0.36641731  1
  O  O54  1  0.18811003  0.29094133  0.36739277  1
  O  O55  1  0.68841560  0.29094404  0.86773426  1
  O  O56  1  0.50000000  0.78862919  0.55581945  1
  O  O57  1  0.00000000  0.79068425  0.05578584  1
  O  O58  1  0.50000000  0.29066748  0.05581750  1
  O  O59  1  0.00000000  0.29120289  0.55579929  1
  O  O60  1  0.18811003  0.70905867  0.63260723  1
  O  O61  1  0.68841560  0.70905596  0.13226574  1
  O  O62  1  0.18837468  0.20937220  0.13258136  1
  O  O63  1  0.68942597  0.21131660  0.63358269  1
  O  O64  1  0.81188997  0.70905867  0.63260723  1
  O  O65  1  0.31158440  0.70905596  0.13226574  1
  O  O66  1  0.81162532  0.20937220  0.13258136  1
  O  O67  1  0.31057403  0.21131660  0.63358269  1
  O  O68  1  0.50000000  0.70933252  0.94418250  1
  O  O69  1  1.00000000  0.70879711  0.44420071  1
  O  O70  1  0.50000000  0.21137081  0.44418055  1
  O  O71  1  1.00000000  0.20931575  0.94421416  1
  O  O72  1  0.67335715  0.09183093  0.92208343  1
  O  O73  1  0.17278998  0.09281508  0.42148215  1
  O  O74  1  0.67324128  0.59133933  0.42151856  1
  O  O75  1  0.17322651  0.59183492  0.92167193  1
  O  O76  1  0.32664285  0.09183093  0.92208343  1
  O  O77  1  0.82721002  0.09281508  0.42148215  1
  O  O78  1  0.32675872  0.59133933  0.42151856  1
  O  O79  1  0.82677349  0.59183492  0.92167193  1
  O  O80  1  0.50000000  0.09285229  0.74953953  1
  O  O81  1  1.00000000  0.09178933  0.24790908  1
  O  O82  1  0.50000000  0.59136542  0.24826138  1
  O  O83  1  1.00000000  0.59180228  0.74847650  1
  O  O84  1  0.32675872  0.40866067  0.57848144  1
  O  O85  1  0.82677349  0.40816508  0.07832807  1
  O  O86  1  0.32664285  0.90816907  0.07791657  1
  O  O87  1  0.82721002  0.90718492  0.57851785  1
  O  O88  1  0.67324128  0.40866067  0.57848144  1
  O  O89  1  0.17322651  0.40816508  0.07832807  1
  O  O90  1  0.67335715  0.90816907  0.07791657  1
  O  O91  1  0.17278998  0.90718492  0.57851785  1
  O  O92  1  0.50000000  0.40863458  0.75173862  1
  O  O93  1  0.00000000  0.40819772  0.25152350  1
  O  O94  1  0.50000000  0.90714771  0.25046047  1
  O  O95  1  0.00000000  0.90821067  0.75209092  1
  O  O96  1  0.50000000  0.57663939  0.69224480  1
  O  O97  1  1.00000000  0.57630171  0.19206682  1
  O  O98  1  0.50000000  0.07600822  0.19217586  1
  O  O99  1  1.00000000  0.07576832  0.69174612  1
  O  O100  1  0.50000000  0.92399178  0.80782414  1
  O  O101  1  0.00000000  0.92423168  0.30825388  1
  O  O102  1  0.50000000  0.42336061  0.30775520  1
  O  O103  1  0.00000000  0.42369829  0.80793318  1
