# generated using pymatgen
data_HfNbC2
_symmetry_space_group_name_H-M   'P 1'
_cell_length_a   3.22837245
_cell_length_b   3.22837244
_cell_length_c   5.61495691
_cell_angle_alpha   73.29286092
_cell_angle_beta   90.00000000
_cell_angle_gamma   119.99999993
_symmetry_Int_Tables_number   1
_chemical_formula_structural   HfNbC2
_chemical_formula_sum   'Hf1 Nb1 C2'
_cell_volume   47.80708432
_cell_formula_units_Z   1
loop_
 _symmetry_equiv_pos_site_id
 _symmetry_equiv_pos_as_xyz
  1  'x, y, z'
loop_
 _atom_site_type_symbol
 _atom_site_label
 _atom_site_symmetry_multiplicity
 _atom_site_fract_x
 _atom_site_fract_y
 _atom_site_fract_z
 _atom_site_occupancy
  Hf  Hf0  1  0.25000000  0.50000000  0.25000000  1
  Nb  Nb1  1  0.75000000  0.50000000  0.75000000  1
  C  C2  1  0.00188018  0.00376036  0.99435946  1
  C  C3  1  0.49811982  0.99623964  0.50564054  1
