# generated using pymatgen
data_CaH8C2N4O5
_symmetry_space_group_name_H-M   'P 1'
_cell_length_a   6.43743752
_cell_length_b   7.81937051
_cell_length_c   7.99011576
_cell_angle_alpha   79.55377357
_cell_angle_beta   83.67334951
_cell_angle_gamma   73.86036690
_symmetry_Int_Tables_number   1
_chemical_formula_structural   CaH8C2N4O5
_chemical_formula_sum   'Ca2 H16 C4 N8 O10'
_cell_volume   379.17904598
_cell_formula_units_Z   2
loop_
 _symmetry_equiv_pos_site_id
 _symmetry_equiv_pos_as_xyz
  1  'x, y, z'
loop_
 _atom_site_type_symbol
 _atom_site_label
 _atom_site_symmetry_multiplicity
 _atom_site_fract_x
 _atom_site_fract_y
 _atom_site_fract_z
 _atom_site_occupancy
  Ca  Ca0  1  0.80524119  0.88201587  0.94794259  1
  Ca  Ca1  1  0.19475881  0.11798413  0.05205741  1
  H  H2  1  0.52255393  0.51398865  0.75641213  1
  H  H3  1  0.47744607  0.48601135  0.24358787  1
  H  H4  1  0.84581579  0.63234423  0.67468230  1
  H  H5  1  0.15418421  0.36765577  0.32531770  1
  H  H6  1  0.84185788  0.51033019  0.86996506  1
  H  H7  1  0.15814212  0.48966981  0.13003494  1
  H  H8  1  0.80547256  0.21926760  0.44420306  1
  H  H9  1  0.19452744  0.78073240  0.55579694  1
  H  H10  1  0.51909562  0.11466677  0.64800559  1
  H  H11  1  0.48090438  0.88533323  0.35199441  1
  H  H12  1  0.70936917  0.95088089  0.56746135  1
  H  H13  1  0.29063083  0.04911911  0.43253865  1
  H  H14  1  0.80218325  0.66062892  0.28055405  1
  H  H15  1  0.19781675  0.33937108  0.71944595  1
  H  H16  1  0.78061671  0.50907984  0.17054175  1
  H  H17  1  0.21938329  0.49092016  0.82945825  1
  C  C18  1  0.38140443  0.74482381  0.85898326  1
  C  C19  1  0.61859557  0.25517619  0.14101674  1
  C  C20  1  0.97211968  0.18105671  0.65954988  1
  C  C21  1  0.02788032  0.81894329  0.34045012  1
  N  N22  1  0.55090633  0.62964711  0.77923777  1
  N  N23  1  0.44909367  0.37035289  0.22076223  1
  N  N24  1  0.76777820  0.62765178  0.79450812  1
  N  N25  1  0.23222180  0.37234822  0.20549188  1
  N  N26  1  0.80169616  0.17445070  0.57232841  1
  N  N27  1  0.19830384  0.82554930  0.42767159  1
  N  N28  1  0.68085755  0.05072849  0.64143155  1
  N  N29  1  0.31914245  0.94927151  0.35856845  1
  O  O30  1  0.42077016  0.87201128  0.91923079  1
  O  O31  1  0.57922984  0.12798872  0.08076921  1
  O  O32  1  0.19401377  0.71483864  0.85868345  1
  O  O33  1  0.80598623  0.28516136  0.14131655  1
  O  O34  1  0.98163654  0.11087966  0.81663659  1
  O  O35  1  0.01836346  0.88912034  0.18336341  1
  O  O36  1  0.10748825  0.26291923  0.57480148  1
  O  O37  1  0.89251175  0.73708077  0.42519852  1
  O  O38  1  0.74849387  0.64052131  0.17351913  1
  O  O39  1  0.25150613  0.35947869  0.82648087  1
