# generated using pymatgen
data_Ho2CrSbO7
_symmetry_space_group_name_H-M   'P 1'
_cell_length_a   7.27079899
_cell_length_b   7.24399397
_cell_length_c   7.31870594
_cell_angle_alpha   90.00000000
_cell_angle_beta   59.78179878
_cell_angle_gamma   119.87812078
_symmetry_Int_Tables_number   1
_chemical_formula_structural   Ho2CrSbO7
_chemical_formula_sum   'Ho4 Cr2 Sb2 O14'
_cell_volume   272.17120202
_cell_formula_units_Z   2
loop_
 _symmetry_equiv_pos_site_id
 _symmetry_equiv_pos_as_xyz
  1  'x, y, z'
loop_
 _atom_site_type_symbol
 _atom_site_label
 _atom_site_symmetry_multiplicity
 _atom_site_fract_x
 _atom_site_fract_y
 _atom_site_fract_z
 _atom_site_occupancy
  Ho  Ho0  1  0.50000000  0.50000000  -0.00000000  1
  Ho  Ho1  1  0.50000000  -0.00000000  -0.00000000  1
  Ho  Ho2  1  -0.00000000  -0.00000000  0.50000000  1
  Ho  Ho3  1  -0.00000000  -0.00000000  -0.00000000  1
  Cr  Cr4  1  0.50000000  -0.00000000  0.50000000  1
  Cr  Cr5  1  0.50000000  0.50000000  0.50000000  1
  Sb  Sb6  1  -0.00000000  0.50000000  -0.00000000  1
  Sb  Sb7  1  -0.00000000  0.50000000  0.50000000  1
  O  O8  1  0.25614712  0.12807356  0.12192644  1
  O  O9  1  0.74385288  0.87192644  0.87807356  1
  O  O10  1  0.68249188  0.84124594  0.40875406  1
  O  O11  1  0.83223943  0.41611971  0.83388029  1
  O  O12  1  0.25077253  0.83192418  0.83702244  1
  O  O13  1  0.25077253  0.41884835  0.41220503  1
  O  O14  1  0.25077253  0.41884835  0.83702244  1
  O  O15  1  0.25077253  0.83192418  0.41220503  1
  O  O16  1  0.31750812  0.15875406  0.59124594  1
  O  O17  1  0.16776057  0.58388029  0.16611971  1
  O  O18  1  0.74922747  0.16807582  0.16297756  1
  O  O19  1  0.74922747  0.58115165  0.58779497  1
  O  O20  1  0.74922747  0.58115165  0.16297756  1
  O  O21  1  0.74922747  0.16807582  0.58779497  1
