# generated using pymatgen
data_Ho2FeGe4
_symmetry_space_group_name_H-M   'P 1'
_cell_length_a   4.14113033
_cell_length_b   4.17650954
_cell_length_c   8.04532229
_cell_angle_alpha   74.95596124
_cell_angle_beta   90.00000000
_cell_angle_gamma   90.00000000
_symmetry_Int_Tables_number   1
_chemical_formula_structural   Ho2FeGe4
_chemical_formula_sum   'Ho2 Fe1 Ge4'
_cell_volume   134.37857141
_cell_formula_units_Z   1
loop_
 _symmetry_equiv_pos_site_id
 _symmetry_equiv_pos_as_xyz
  1  'x, y, z'
loop_
 _atom_site_type_symbol
 _atom_site_label
 _atom_site_symmetry_multiplicity
 _atom_site_fract_x
 _atom_site_fract_y
 _atom_site_fract_z
 _atom_site_occupancy
  Ho  Ho0  1  0.25000000  0.89732066  0.20535868  1
  Ho  Ho1  1  0.75000000  0.10249821  0.79500359  1
  Fe  Fe2  1  0.25000000  0.69435241  0.61129518  1
  Ge  Ge3  1  0.25000000  0.54707794  0.90584411  1
  Ge  Ge4  1  0.75000000  0.43708400  0.12583201  1
  Ge  Ge5  1  0.25000000  0.26061531  0.47876938  1
  Ge  Ge6  1  0.75000000  0.75805147  0.48389705  1
