# generated using pymatgen
data_Hf(AlFe)6
_symmetry_space_group_name_H-M   'P 1'
_cell_length_a   4.95189530
_cell_length_b   6.48248297
_cell_length_c   6.48248297
_cell_angle_alpha   99.10092850
_cell_angle_beta   112.45417625
_cell_angle_gamma   67.54582375
_symmetry_Int_Tables_number   1
_chemical_formula_structural   Hf(AlFe)6
_chemical_formula_sum   'Hf1 Al6 Fe6'
_cell_volume   177.71633612
_cell_formula_units_Z   1
loop_
 _symmetry_equiv_pos_site_id
 _symmetry_equiv_pos_as_xyz
  1  'x, y, z'
loop_
 _atom_site_type_symbol
 _atom_site_label
 _atom_site_symmetry_multiplicity
 _atom_site_fract_x
 _atom_site_fract_y
 _atom_site_fract_z
 _atom_site_occupancy
  Hf  Hf0  1  0.00000000  -0.00000000  -0.00000000  1
  Al  Al1  1  0.65626934  0.34373066  0.65626934  1
  Al  Al2  1  0.34373066  0.65626934  0.34373066  1
  Al  Al3  1  -0.00000000  0.33498861  0.33498861  1
  Al  Al4  1  0.00000000  0.66501139  0.66501139  1
  Al  Al5  1  0.68399365  0.81600635  0.18399365  1
  Al  Al6  1  0.31600635  0.18399365  0.81600635  1
  Fe  Fe7  1  0.50000000  -0.00000000  0.50000000  1
  Fe  Fe8  1  0.00000000  -0.00000000  0.50000000  1
  Fe  Fe9  1  0.50000000  0.50000000  -0.00000000  1
  Fe  Fe10  1  0.00000000  0.50000000  -0.00000000  1
  Fe  Fe11  1  0.50000000  0.76125040  0.76125040  1
  Fe  Fe12  1  0.50000000  0.23874960  0.23874960  1
