# generated using pymatgen
data_K10Mn4Sn4S17
_symmetry_space_group_name_H-M   'P 1'
_cell_length_a   10.17541117
_cell_length_b   10.17541117
_cell_length_c   10.17541117
_cell_angle_alpha   90.48689907
_cell_angle_beta   89.51310093
_cell_angle_gamma   90.48689907
_symmetry_Int_Tables_number   1
_chemical_formula_structural   K10Mn4Sn4S17
_chemical_formula_sum   'K10 Mn4 Sn4 S17'
_cell_volume   1053.43834023
_cell_formula_units_Z   1
loop_
 _symmetry_equiv_pos_site_id
 _symmetry_equiv_pos_as_xyz
  1  'x, y, z'
loop_
 _atom_site_type_symbol
 _atom_site_label
 _atom_site_symmetry_multiplicity
 _atom_site_fract_x
 _atom_site_fract_y
 _atom_site_fract_z
 _atom_site_occupancy
  K  K0  1  0.50077267  0.00048691  0.99951309  1
  K  K1  1  0.99951309  0.00048691  0.50077267  1
  K  K2  1  0.99951309  0.49922733  0.99951309  1
  K  K3  1  0.50166376  0.95569938  0.50166376  1
  K  K4  1  0.04430062  0.49833624  0.50166376  1
  K  K5  1  0.50166376  0.49833624  0.04430062  1
  K  K6  1  0.67001666  0.32998334  0.34385901  1
  K  K7  1  0.67001666  0.65614099  0.67001666  1
  K  K8  1  0.34385901  0.32998334  0.67001666  1
  K  K9  1  0.32932703  0.67067297  0.32932703  1
  Mn  Mn10  1  0.86351980  0.13648020  0.13613546  1
  Mn  Mn11  1  0.86351980  0.86386454  0.86351980  1
  Mn  Mn12  1  0.13613546  0.13648020  0.86351980  1
  Mn  Mn13  1  0.13589580  0.86410420  0.13589580  1
  Sn  Sn14  1  0.77577323  0.22422677  0.77577323  1
  Sn  Sn15  1  0.22482097  0.77517903  0.77526389  1
  Sn  Sn16  1  0.77526389  0.77517903  0.22482097  1
  Sn  Sn17  1  0.22482097  0.22473611  0.22482097  1
  S  S18  1  0.00079263  0.99920737  0.00079263  1
  S  S19  1  0.64287140  0.35712860  0.64287140  1
  S  S20  1  0.35623351  0.64376649  0.63275738  1
  S  S21  1  0.63275738  0.64376649  0.35623351  1
  S  S22  1  0.35623351  0.36724262  0.35623351  1
  S  S23  1  0.72595471  0.99346469  0.72595471  1
  S  S24  1  0.00653531  0.27404529  0.72595471  1
  S  S25  1  0.72595471  0.27404529  0.00653531  1
  S  S26  1  0.27614389  0.00471397  0.72568695  1
  S  S27  1  0.99528603  0.72385611  0.72568695  1
  S  S28  1  0.27519211  0.72480789  0.00385262  1
  S  S29  1  0.72568695  0.00471397  0.27614389  1
  S  S30  1  0.00385262  0.72480789  0.27519211  1
  S  S31  1  0.72568695  0.72385611  0.99528603  1
  S  S32  1  0.27519211  0.99614738  0.27519211  1
  S  S33  1  0.99528603  0.27431305  0.27614389  1
  S  S34  1  0.27614389  0.27431305  0.99528603  1
