# generated using pymatgen
data_Hf3TePb4O13
_symmetry_space_group_name_H-M   'P 1'
_cell_length_a   7.62706341
_cell_length_b   7.63814290
_cell_length_c   7.62706341
_cell_angle_alpha   90.00000000
_cell_angle_beta   60.09613016
_cell_angle_gamma   120.04806508
_symmetry_Int_Tables_number   1
_chemical_formula_structural   Hf3TePb4O13
_chemical_formula_sum   'Hf3 Te1 Pb4 O13'
_cell_volume   314.41410356
_cell_formula_units_Z   1
loop_
 _symmetry_equiv_pos_site_id
 _symmetry_equiv_pos_as_xyz
  1  'x, y, z'
loop_
 _atom_site_type_symbol
 _atom_site_label
 _atom_site_symmetry_multiplicity
 _atom_site_fract_x
 _atom_site_fract_y
 _atom_site_fract_z
 _atom_site_occupancy
  Hf  Hf0  1  0.50042453  0.00104484  0.49937969  1
  Hf  Hf1  1  0.50042453  0.49937969  0.49937969  1
  Hf  Hf2  1  0.99875937  0.49937969  0.00104484  1
  Te  Te3  1  0.99929969  0.49964984  0.49964984  1
  Pb  Pb4  1  0.49906948  0.49982170  0.99924778  1
  Pb  Pb5  1  0.49906948  0.99924778  0.99924778  1
  Pb  Pb6  1  0.99849556  0.99924778  0.49982170  1
  Pb  Pb7  1  0.00113780  0.00056890  0.00056890  1
  O  O8  1  0.65629108  0.82814554  0.43110172  1
  O  O9  1  0.86751720  0.43375860  0.80325232  1
  O  O10  1  0.25924726  0.82814554  0.82814554  1
  O  O11  1  0.23701092  0.43375860  0.43375860  1
  O  O12  1  0.25924726  0.43110172  0.82814554  1
  O  O13  1  0.23701092  0.80325232  0.43375860  1
  O  O14  1  0.35074218  0.17537109  0.56371583  1
  O  O15  1  0.12846899  0.56423449  0.19758688  1
  O  O16  1  0.73908692  0.17537109  0.17537109  1
  O  O17  1  0.76182137  0.56423449  0.56423449  1
  O  O18  1  0.73908692  0.56371583  0.17537109  1
  O  O19  1  0.76182137  0.19758688  0.56423449  1
  O  O20  1  0.25596717  0.12798358  0.12798358  1
