# generated using pymatgen
data_ScH15C3(SO4)3
_symmetry_space_group_name_H-M   'P 1'
_cell_length_a   12.06225405
_cell_length_b   12.06225405
_cell_length_c   12.06225410
_cell_angle_alpha   72.77391948
_cell_angle_beta   72.77391948
_cell_angle_gamma   72.77391892
_symmetry_Int_Tables_number   1
_chemical_formula_structural   ScH15C3(SO4)3
_chemical_formula_sum   'Sc4 H60 C12 S12 O48'
_cell_volume   1558.76425220
_cell_formula_units_Z   4
loop_
 _symmetry_equiv_pos_site_id
 _symmetry_equiv_pos_as_xyz
  1  'x, y, z'
loop_
 _atom_site_type_symbol
 _atom_site_label
 _atom_site_symmetry_multiplicity
 _atom_site_fract_x
 _atom_site_fract_y
 _atom_site_fract_z
 _atom_site_occupancy
  Sc  Sc0  1  -0.00000000  0.00000000  -0.00000000  1
  Sc  Sc1  1  0.50000000  0.50000000  0.50000000  1
  Sc  Sc2  1  0.76563572  0.76563572  0.76563572  1
  Sc  Sc3  1  0.23436428  0.23436428  0.23436428  1
  H  H4  1  0.91466189  0.95494983  0.25026409  1
  H  H5  1  0.95494983  0.25026409  0.91466189  1
  H  H6  1  0.25026409  0.91466189  0.95494983  1
  H  H7  1  0.08533811  0.04505017  0.74973591  1
  H  H8  1  0.04505017  0.74973591  0.08533811  1
  H  H9  1  0.74973591  0.08533811  0.04505017  1
  H  H10  1  0.91540474  0.09547549  0.20501032  1
  H  H11  1  0.09547549  0.20501032  0.91540474  1
  H  H12  1  0.20501032  0.91540474  0.09547549  1
  H  H13  1  0.08459526  0.90452451  0.79498968  1
  H  H14  1  0.90452451  0.79498968  0.08459526  1
  H  H15  1  0.79498968  0.08459526  0.90452451  1
  H  H16  1  0.58616641  0.44263152  0.70995930  1
  H  H17  1  0.44263152  0.70995930  0.58616641  1
  H  H18  1  0.70995930  0.58616641  0.44263152  1
  H  H19  1  0.41383359  0.55736848  0.29004070  1
  H  H20  1  0.55736848  0.29004070  0.41383359  1
  H  H21  1  0.29004070  0.41383359  0.55736848  1
  H  H22  1  0.45679020  0.40999831  0.74820575  1
  H  H23  1  0.40999831  0.74820575  0.45679020  1
  H  H24  1  0.74820575  0.45679020  0.40999831  1
  H  H25  1  0.54320980  0.59000169  0.25179425  1
  H  H26  1  0.59000169  0.25179425  0.54320980  1
  H  H27  1  0.25179425  0.54320980  0.59000169  1
  H  H28  1  0.52629561  0.85669940  0.01875428  1
  H  H29  1  0.85669940  0.01875428  0.52629561  1
  H  H30  1  0.01875428  0.52629561  0.85669940  1
  H  H31  1  0.47370439  0.14330060  0.98124572  1
  H  H32  1  0.14330060  0.98124572  0.47370439  1
  H  H33  1  0.98124572  0.47370439  0.14330060  1
  H  H34  1  0.53685445  0.86492094  0.16240011  1
  H  H35  1  0.86492094  0.16240011  0.53685445  1
  H  H36  1  0.16240011  0.53685445  0.86492094  1
  H  H37  1  0.46314555  0.13507906  0.83759989  1
  H  H38  1  0.13507906  0.83759989  0.46314555  1
  H  H39  1  0.83759989  0.46314555  0.13507906  1
  H  H40  1  0.62451957  0.93971655  0.02765681  1
  H  H41  1  0.93971655  0.02765681  0.62451957  1
  H  H42  1  0.02765681  0.62451957  0.93971655  1
  H  H43  1  0.37548043  0.06028345  0.97234319  1
  H  H44  1  0.06028345  0.97234319  0.37548043  1
  H  H45  1  0.97234319  0.37548043  0.06028345  1
  H  H46  1  0.87244906  0.48595289  0.57463918  1
  H  H47  1  0.48595289  0.57463918  0.87244906  1
  H  H48  1  0.57463918  0.87244906  0.48595289  1
  H  H49  1  0.12755094  0.51404711  0.42536082  1
  H  H50  1  0.51404711  0.42536082  0.12755094  1
  H  H51  1  0.42536082  0.12755094  0.51404711  1
  H  H52  1  0.99258548  0.42001102  0.65128734  1
  H  H53  1  0.42001102  0.65128734  0.99258548  1
  H  H54  1  0.65128734  0.99258548  0.42001102  1
  H  H55  1  0.00741452  0.57998898  0.34871266  1
  H  H56  1  0.57998898  0.34871266  0.00741452  1
  H  H57  1  0.34871266  0.00741452  0.57998898  1
  H  H58  1  0.89565450  0.33071660  0.65412849  1
  H  H59  1  0.33071660  0.65412849  0.89565450  1
  H  H60  1  0.65412849  0.89565450  0.33071660  1
  H  H61  1  0.10434550  0.66928340  0.34587151  1
  H  H62  1  0.66928340  0.34587151  0.10434550  1
  H  H63  1  0.34587151  0.10434550  0.66928340  1
  C  C64  1  0.58474819  0.86245343  0.07014307  1
  C  C65  1  0.86245343  0.07014307  0.58474819  1
  C  C66  1  0.07014307  0.58474819  0.86245343  1
  C  C67  1  0.41525181  0.13754657  0.92985693  1
  C  C68  1  0.13754657  0.92985693  0.41525181  1
  C  C69  1  0.92985693  0.41525181  0.13754657  1
  C  C70  1  0.90166424  0.42033291  0.65125578  1
  C  C71  1  0.42033291  0.65125578  0.90166424  1
  C  C72  1  0.65125578  0.90166424  0.42033291  1
  C  C73  1  0.09833576  0.57966709  0.34874422  1
  C  C74  1  0.57966709  0.34874422  0.09833576  1
  C  C75  1  0.34874422  0.09833576  0.57966709  1
  S  S76  1  0.70120049  0.73255162  0.07467831  1
  S  S77  1  0.73255162  0.07467831  0.70120049  1
  S  S78  1  0.07467831  0.70120049  0.73255162  1
  S  S79  1  0.29879951  0.26744838  0.92532169  1
  S  S80  1  0.26744838  0.92532169  0.29879951  1
  S  S81  1  0.92532169  0.29879951  0.26744838  1
  S  S82  1  0.80478044  0.46133076  0.78160803  1
  S  S83  1  0.46133076  0.78160803  0.80478044  1
  S  S84  1  0.78160803  0.80478044  0.46133076  1
  S  S85  1  0.19521956  0.53866924  0.21839197  1
  S  S86  1  0.53866924  0.21839197  0.19521956  1
  S  S87  1  0.21839197  0.19521956  0.53866924  1
  O  O88  1  0.93885972  0.01794323  0.17905338  1
  O  O89  1  0.01794323  0.17905338  0.93885972  1
  O  O90  1  0.17905338  0.93885972  0.01794323  1
  O  O91  1  0.06114028  0.98205677  0.82094662  1
  O  O92  1  0.98205677  0.82094662  0.06114028  1
  O  O93  1  0.82094662  0.06114028  0.98205677  1
  O  O94  1  0.51881653  0.44138197  0.67894199  1
  O  O95  1  0.44138197  0.67894199  0.51881653  1
  O  O96  1  0.67894199  0.51881653  0.44138197  1
  O  O97  1  0.48118347  0.55861803  0.32105801  1
  O  O98  1  0.55861803  0.32105801  0.48118347  1
  O  O99  1  0.32105801  0.48118347  0.55861803  1
  O  O100  1  0.76224303  0.72830904  0.94835877  1
  O  O101  1  0.72830904  0.94835877  0.76224303  1
  O  O102  1  0.94835877  0.76224303  0.72830904  1
  O  O103  1  0.23775697  0.27169096  0.05164123  1
  O  O104  1  0.27169096  0.05164123  0.23775697  1
  O  O105  1  0.05164123  0.23775697  0.27169096  1
  O  O106  1  0.64732093  0.62979137  0.13446863  1
  O  O107  1  0.62979137  0.13446863  0.64732093  1
  O  O108  1  0.13446863  0.64732093  0.62979137  1
  O  O109  1  0.35267907  0.37020863  0.86553137  1
  O  O110  1  0.37020863  0.86553137  0.35267907  1
  O  O111  1  0.86553137  0.35267907  0.37020863  1
  O  O112  1  0.78336340  0.74523374  0.13647114  1
  O  O113  1  0.74523374  0.13647114  0.78336340  1
  O  O114  1  0.13647114  0.78336340  0.74523374  1
  O  O115  1  0.21663660  0.25476626  0.86352886  1
  O  O116  1  0.25476626  0.86352886  0.21663660  1
  O  O117  1  0.86352886  0.21663660  0.25476626  1
  O  O118  1  0.81501974  0.58524366  0.76972643  1
  O  O119  1  0.58524366  0.76972643  0.81501974  1
  O  O120  1  0.76972643  0.81501974  0.58524366  1
  O  O121  1  0.18498026  0.41475634  0.23027357  1
  O  O122  1  0.41475634  0.23027357  0.18498026  1
  O  O123  1  0.23027357  0.18498026  0.41475634  1
  O  O124  1  0.85049224  0.38046000  0.88409809  1
  O  O125  1  0.38046000  0.88409809  0.85049224  1
  O  O126  1  0.88409809  0.85049224  0.38046000  1
  O  O127  1  0.14950776  0.61954000  0.11590191  1
  O  O128  1  0.61954000  0.11590191  0.14950776  1
  O  O129  1  0.11590191  0.14950776  0.61954000  1
  O  O130  1  0.68360527  0.45956506  0.78289117  1
  O  O131  1  0.45956506  0.78289117  0.68360527  1
  O  O132  1  0.78289117  0.68360527  0.45956506  1
  O  O133  1  0.31639473  0.54043494  0.21710883  1
  O  O134  1  0.54043494  0.21710883  0.31639473  1
  O  O135  1  0.21710883  0.31639473  0.54043494  1
