# generated using pymatgen
data_GdBO3
_symmetry_space_group_name_H-M   'P 1'
_cell_length_a   4.01577685
_cell_length_b   4.01600726
_cell_length_c   8.67866637
_cell_angle_alpha   90.00000000
_cell_angle_beta   90.00000000
_cell_angle_gamma   65.12729604
_symmetry_Int_Tables_number   1
_chemical_formula_structural   GdBO3
_chemical_formula_sum   'Gd2 B2 O6'
_cell_volume   126.98177572
_cell_formula_units_Z   2
loop_
 _symmetry_equiv_pos_site_id
 _symmetry_equiv_pos_as_xyz
  1  'x, y, z'
loop_
 _atom_site_type_symbol
 _atom_site_label
 _atom_site_symmetry_multiplicity
 _atom_site_fract_x
 _atom_site_fract_y
 _atom_site_fract_z
 _atom_site_occupancy
  Gd  Gd0  1  0.93960402  0.06040521  0.49999861  1
  Gd  Gd1  1  0.93960402  0.06040521  0.00000139  1
  B  B2  1  0.23694790  0.49394191  0.75000000  1
  B  B3  1  0.50605949  0.76305561  0.25000000  1
  O  O4  1  0.32725283  0.32739792  0.60562804  1
  O  O5  1  0.67259796  0.67273270  0.39436949  1
  O  O6  1  0.67259796  0.67273270  0.10563051  1
  O  O7  1  0.32725283  0.32739792  0.89437196  1
  O  O8  1  0.02787554  0.86679702  0.75000000  1
  O  O9  1  0.13320745  0.97213380  0.25000000  1
