# generated using pymatgen
data_HfTl2Fe2(MoO4)6
_symmetry_space_group_name_H-M   'P 1'
_cell_length_a   8.67114764
_cell_length_b   8.67376174
_cell_length_c   8.67381090
_cell_angle_alpha   100.19649842
_cell_angle_beta   100.42596318
_cell_angle_gamma   99.96505141
_symmetry_Int_Tables_number   1
_chemical_formula_structural   HfTl2Fe2(MoO4)6
_chemical_formula_sum   'Hf1 Tl2 Fe2 Mo6 O24'
_cell_volume   617.13013692
_cell_formula_units_Z   1
loop_
 _symmetry_equiv_pos_site_id
 _symmetry_equiv_pos_as_xyz
  1  'x, y, z'
loop_
 _atom_site_type_symbol
 _atom_site_label
 _atom_site_symmetry_multiplicity
 _atom_site_fract_x
 _atom_site_fract_y
 _atom_site_fract_z
 _atom_site_occupancy
  Hf  Hf0  1  0.50000174  0.00000381  0.49999715  1
  Tl  Tl1  1  0.16057799  0.16238212  0.16089407  1
  Tl  Tl2  1  0.83941784  0.83761875  0.83910006  1
  Fe  Fe3  1  0.00001374  0.49999169  0.50001490  1
  Fe  Fe4  1  0.49999973  0.50000320  0.00000731  1
  Mo  Mo5  1  0.21004438  0.20179550  0.64878968  1
  Mo  Mo6  1  0.19583013  0.64119150  0.20940025  1
  Mo  Mo7  1  0.64861657  0.21585695  0.19582589  1
  Mo  Mo8  1  0.78996578  0.79820024  0.35121575  1
  Mo  Mo9  1  0.80416819  0.35881253  0.79060540  1
  Mo  Mo10  1  0.35138885  0.78415379  0.80417974  1
  O  O11  1  0.32044882  0.13279005  0.49543028  1
  O  O12  1  0.12907714  0.49539795  0.32340092  1
  O  O13  1  0.49758744  0.32551705  0.12841563  1
  O  O14  1  0.67955153  0.86721638  0.50456576  1
  O  O15  1  0.87092739  0.50460362  0.67660385  1
  O  O16  1  0.50240893  0.67448388  0.87158829  1
  O  O17  1  0.35414920  0.33357460  0.81481375  1
  O  O18  1  0.33049759  0.81110349  0.35269272  1
  O  O19  1  0.81500172  0.35482875  0.33304737  1
  O  O20  1  0.64585096  0.66642879  0.18518975  1
  O  O21  1  0.66950277  0.18890608  0.64730718  1
  O  O22  1  0.18500670  0.64517268  0.66695634  1
  O  O23  1  0.06834028  0.30451931  0.55375306  1
  O  O24  1  0.30269194  0.55203650  0.06949118  1
  O  O25  1  0.55308497  0.07076782  0.29839273  1
  O  O26  1  0.93165746  0.69546527  0.44624596  1
  O  O27  1  0.69730247  0.44796735  0.93051077  1
  O  O28  1  0.44691505  0.92923983  0.70160260  1
  O  O29  1  0.11076254  0.03562188  0.70674709  1
  O  O30  1  0.03231953  0.70468880  0.10949778  1
  O  O31  1  0.70782189  0.11285422  0.03276694  1
  O  O32  1  0.88923883  0.96437720  0.29325433  1
  O  O33  1  0.96768143  0.29531372  0.89050182  1
  O  O34  1  0.29218147  0.88714772  0.96722669  1
