# generated using pymatgen
data_Hf5Zr5Ga6
_symmetry_space_group_name_H-M   'P 1'
_cell_length_a   5.73282561
_cell_length_b   8.08816660
_cell_length_c   8.05874858
_cell_angle_alpha   120.12082689
_cell_angle_beta   89.99861282
_cell_angle_gamma   90.00276435
_symmetry_Int_Tables_number   1
_chemical_formula_structural   Hf5Zr5Ga6
_chemical_formula_sum   'Hf5 Zr5 Ga6'
_cell_volume   323.21164650
_cell_formula_units_Z   1
loop_
 _symmetry_equiv_pos_site_id
 _symmetry_equiv_pos_as_xyz
  1  'x, y, z'
loop_
 _atom_site_type_symbol
 _atom_site_label
 _atom_site_symmetry_multiplicity
 _atom_site_fract_x
 _atom_site_fract_y
 _atom_site_fract_z
 _atom_site_occupancy
  Hf  Hf0  1  0.50005811  0.33308469  0.66652292  1
  Hf  Hf1  1  0.50005811  0.66656178  0.33347708  1
  Hf  Hf2  1  0.99994755  0.66659098  0.33351430  1
  Hf  Hf3  1  0.99994755  0.33307668  0.66648570  1
  Hf  Hf4  1  0.75007375  0.24595888  0.00000000  1
  Zr  Zr5  1  0.74995612  0.75735198  0.75781449  1
  Zr  Zr6  1  0.74995612  0.99953749  0.24218551  1
  Zr  Zr7  1  0.24993745  0.75469521  1.00000000  1
  Zr  Zr8  1  0.25003657  0.24288951  0.24200518  1
  Zr  Zr9  1  0.25003657  0.00088434  0.75799482  1
  Ga  Ga10  1  0.75003089  0.60660239  0.00000000  1
  Ga  Ga11  1  0.74997797  0.39199512  0.39108285  1
  Ga  Ga12  1  0.74997797  0.00091226  0.60891715  1
  Ga  Ga13  1  0.24992757  0.39261039  0.00000000  1
  Ga  Ga14  1  0.25003884  0.60751166  0.60777502  1
  Ga  Ga15  1  0.25003884  0.99973664  0.39222498  1
