# generated using pymatgen
data_GaSb3Pb4O13
_symmetry_space_group_name_H-M   'P 1'
_cell_length_a   7.53813353
_cell_length_b   7.47088111
_cell_length_c   7.53813353
_cell_angle_alpha   90.00000000
_cell_angle_beta   60.00000000
_cell_angle_gamma   120.29823123
_symmetry_Int_Tables_number   1
_chemical_formula_structural   GaSb3Pb4O13
_chemical_formula_sum   'Ga1 Sb3 Pb4 O13'
_cell_volume   298.82161215
_cell_formula_units_Z   1
loop_
 _symmetry_equiv_pos_site_id
 _symmetry_equiv_pos_as_xyz
  1  'x, y, z'
loop_
 _atom_site_type_symbol
 _atom_site_label
 _atom_site_symmetry_multiplicity
 _atom_site_fract_x
 _atom_site_fract_y
 _atom_site_fract_z
 _atom_site_occupancy
  Ga  Ga0  1  0.50114447  0.00171671  0.49942776  1
  Sb  Sb1  1  0.50047872  0.49952146  0.49976064  1
  Sb  Sb2  1  0.99928210  0.49952146  0.00095726  1
  Sb  Sb3  1  0.99928210  0.49952146  0.49976064  1
  Pb  Pb4  1  0.50314977  0.50472466  0.99842511  1
  Pb  Pb5  1  0.50329213  0.99806141  0.99835394  1
  Pb  Pb6  1  0.99641535  0.99806141  0.50523071  1
  Pb  Pb7  1  0.99641535  0.99806141  0.99835394  1
  O  O8  1  0.64570385  0.81963225  0.42714807  1
  O  O9  1  0.85338003  0.42767372  0.82330999  1
  O  O10  1  0.24678032  0.81963225  0.82607160  1
  O  O11  1  0.25098370  0.42767372  0.42570631  1
  O  O12  1  0.25098370  0.42767372  0.82330999  1
  O  O13  1  0.24678032  0.81963225  0.42714807  1
  O  O14  1  0.35859805  0.18210318  0.57070098  1
  O  O15  1  0.14240444  0.57014687  0.17879778  1
  O  O16  1  0.75280416  0.18210318  0.17649486  1
  O  O17  1  0.74894465  0.57014687  0.57225757  1
  O  O18  1  0.74894465  0.57014687  0.17879778  1
  O  O19  1  0.75280416  0.18210318  0.57070098  1
  O  O20  1  0.25142796  0.12714194  0.12428602  1
