# generated using pymatgen
data_HoGa2Ni3
_symmetry_space_group_name_H-M   'P 1'
_cell_length_a   4.09274010
_cell_length_b   8.73269763
_cell_length_c   8.74724493
_cell_angle_alpha   119.94500359
_cell_angle_beta   90.00000000
_cell_angle_gamma   90.00000000
_symmetry_Int_Tables_number   1
_chemical_formula_structural   HoGa2Ni3
_chemical_formula_sum   'Ho3 Ga6 Ni9'
_cell_volume   270.89745146
_cell_formula_units_Z   3
loop_
 _symmetry_equiv_pos_site_id
 _symmetry_equiv_pos_as_xyz
  1  'x, y, z'
loop_
 _atom_site_type_symbol
 _atom_site_label
 _atom_site_symmetry_multiplicity
 _atom_site_fract_x
 _atom_site_fract_y
 _atom_site_fract_z
 _atom_site_occupancy
  Ho  Ho0  1  0.50000000  0.33286935  0.66632884  1
  Ho  Ho1  1  0.50000000  0.66654051  0.33367116  1
  Ho  Ho2  1  0.00000000  -0.00014668  1.00000000  1
  Ga  Ga3  1  -0.00000000  0.51469177  0.00000000  1
  Ga  Ga4  1  0.00000000  0.48541985  0.48538196  1
  Ga  Ga5  1  0.00000000  0.00003789  0.51461804  1
  Ga  Ga6  1  0.50000000  0.27107964  1.00000000  1
  Ga  Ga7  1  0.50000000  0.72777870  0.72794727  1
  Ga  Ga8  1  0.50000000  -0.00016857  0.27205273  1
  Ni  Ni9  1  0.00000000  0.17680335  0.37084757  1
  Ni  Ni10  1  0.00000000  0.19473301  0.82328333  1
  Ni  Ni11  1  -0.00000000  0.62850317  0.80535395  1
  Ni  Ni12  1  0.00000000  0.80595578  0.62915243  1
  Ni  Ni13  1  -0.00000000  0.37144967  0.17671667  1
  Ni  Ni14  1  -0.00000000  0.82314922  0.19464605  1
  Ni  Ni15  1  0.50000000  0.70493319  1.00000000  1
  Ni  Ni16  1  0.50000000  0.29592973  0.29558930  1
  Ni  Ni17  1  0.50000000  0.00034043  0.70441070  1
