# generated using pymatgen
data_EuGaAg4
_symmetry_space_group_name_H-M   'P 1'
_cell_length_a   4.58532780
_cell_length_b   5.91132173
_cell_length_c   5.63302353
_cell_angle_alpha   121.64821614
_cell_angle_beta   90.00000000
_cell_angle_gamma   90.00000000
_symmetry_Int_Tables_number   1
_chemical_formula_structural   EuGaAg4
_chemical_formula_sum   'Eu1 Ga1 Ag4'
_cell_volume   129.97860755
_cell_formula_units_Z   1
loop_
 _symmetry_equiv_pos_site_id
 _symmetry_equiv_pos_as_xyz
  1  'x, y, z'
loop_
 _atom_site_type_symbol
 _atom_site_label
 _atom_site_symmetry_multiplicity
 _atom_site_fract_x
 _atom_site_fract_y
 _atom_site_fract_z
 _atom_site_occupancy
  Eu  Eu0  1  -0.00000000  0.99997953  0.00000000  1
  Ga  Ga1  1  0.50000000  0.50001009  0.00000000  1
  Ag  Ag2  1  -0.00000000  0.33910993  0.67828593  1
  Ag  Ag3  1  -0.00000000  0.66082401  0.32171407  1
  Ag  Ag4  1  0.50000000  0.49999396  0.50001149  1
  Ag  Ag5  1  0.50000000  0.99998247  0.49998851  1
