# generated using pymatgen
data_DyThFe6
_symmetry_space_group_name_H-M   'P 1'
_cell_length_a   5.14569326
_cell_length_b   5.14569326
_cell_length_c   16.83989321
_cell_angle_alpha   98.78823120
_cell_angle_beta   98.78823120
_cell_angle_gamma   60.00000263
_symmetry_Int_Tables_number   1
_chemical_formula_structural   DyThFe6
_chemical_formula_sum   'Dy3 Th3 Fe18'
_cell_volume   380.09484747
_cell_formula_units_Z   3
loop_
 _symmetry_equiv_pos_site_id
 _symmetry_equiv_pos_as_xyz
  1  'x, y, z'
loop_
 _atom_site_type_symbol
 _atom_site_label
 _atom_site_symmetry_multiplicity
 _atom_site_fract_x
 _atom_site_fract_y
 _atom_site_fract_z
 _atom_site_occupancy
  Dy  Dy0  1  0.42883416  0.42883416  0.28650249  1
  Dy  Dy1  1  0.92947720  0.92947720  0.78843160  1
  Dy  Dy2  1  0.07111640  0.07111640  0.21334921  1
  Th  Th3  1  0.57081884  0.57081884  0.71245652  1
  Th  Th4  1  0.00005063  0.00005063  0.00015189  1
  Th  Th5  1  0.49930704  0.49930704  0.49792112  1
  Fe  Fe6  1  0.45946384  0.95848850  0.37644084  1
  Fe  Fe7  1  0.95938856  0.45888435  0.87715725  1
  Fe  Fe8  1  0.95848850  0.95848850  0.37644084  1
  Fe  Fe9  1  0.45888435  0.45888435  0.87715725  1
  Fe  Fe10  1  0.95848850  0.45946384  0.37644084  1
  Fe  Fe11  1  0.45888435  0.95938856  0.87715725  1
  Fe  Fe12  1  0.04047637  0.54149694  0.12347025  1
  Fe  Fe13  1  0.54133937  0.04088146  0.62310229  1
  Fe  Fe14  1  0.54149694  0.54149694  0.12347025  1
  Fe  Fe15  1  0.04088146  0.04088146  0.62310229  1
  Fe  Fe16  1  0.54149694  0.04047637  0.12347025  1
  Fe  Fe17  1  0.04088146  0.54133937  0.62310229  1
  Fe  Fe18  1  0.33340238  0.33340238  0.00020715  1
  Fe  Fe19  1  0.83366605  0.83366605  0.50099816  1
  Fe  Fe20  1  0.16646934  0.16646934  0.49940801  1
  Fe  Fe21  1  0.66633380  0.66633380  0.99900139  1
  Fe  Fe22  1  0.75001959  0.75001959  0.25005878  1
  Fe  Fe23  1  0.25033392  0.25033392  0.75100177  1
