# generated using pymatgen
data_Na2U2CoH8(C3O7)4
_symmetry_space_group_name_H-M   'P 1'
_cell_length_a   6.52819449
_cell_length_b   7.91652796
_cell_length_c   13.00557867
_cell_angle_alpha   75.70216690
_cell_angle_beta   84.65154961
_cell_angle_gamma   67.67039674
_symmetry_Int_Tables_number   1
_chemical_formula_structural   Na2U2CoH8(C3O7)4
_chemical_formula_sum   'Na2 U2 Co1 H8 C12 O28'
_cell_volume   602.47706042
_cell_formula_units_Z   1
loop_
 _symmetry_equiv_pos_site_id
 _symmetry_equiv_pos_as_xyz
  1  'x, y, z'
loop_
 _atom_site_type_symbol
 _atom_site_label
 _atom_site_symmetry_multiplicity
 _atom_site_fract_x
 _atom_site_fract_y
 _atom_site_fract_z
 _atom_site_occupancy
  Na  Na0  1  0.74718471  0.83843682  0.79106386  1
  Na  Na1  1  0.25281529  0.16156318  0.20893614  1
  U  U2  1  0.76322315  0.33747255  0.80345025  1
  U  U3  1  0.23677685  0.66252745  0.19654975  1
  Co  Co4  1  0.50000000  -0.00000000  0.50000000  1
  H  H5  1  0.91609988  0.85221923  0.57554579  1
  H  H6  1  0.08390012  0.14778077  0.42445421  1
  H  H7  1  0.80624226  0.06058350  0.59369194  1
  H  H8  1  0.19375774  0.93941650  0.40630806  1
  H  H9  1  0.75103257  0.97847093  0.31907954  1
  H  H10  1  0.24896743  0.02152907  0.68092046  1
  H  H11  1  0.64787324  0.19332388  0.32558181  1
  H  H12  1  0.35212676  0.80667612  0.67441819  1
  C  C13  1  0.30921704  0.24993454  0.77394722  1
  C  C14  1  0.69078296  0.75006546  0.22605278  1
  C  C15  1  0.21525231  0.45508453  0.78075864  1
  C  C16  1  0.78474769  0.54491547  0.21924136  1
  C  C17  1  0.80338869  0.38697062  0.54357937  1
  C  C18  1  0.19661131  0.61302938  0.45642063  1
  C  C19  1  0.69663035  0.59028777  0.56061282  1
  C  C20  1  0.30336965  0.40971223  0.43938718  1
  C  C21  1  0.52436680  0.58982384  0.97880650  1
  C  C22  1  0.47563320  0.41017616  0.02119350  1
  C  C23  1  0.97351774  0.93215102  0.97515711  1
  C  C24  1  0.02648226  0.06784898  0.02484289  1
  O  O25  1  0.16938358  0.17678905  0.76667006  1
  O  O26  1  0.83061642  0.82321095  0.23332994  1
  O  O27  1  0.00728784  0.52842634  0.78987097  1
  O  O28  1  0.99271216  0.47157366  0.21012903  1
  O  O29  1  0.35349223  0.53370473  0.77605117  1
  O  O30  1  0.64650777  0.46629527  0.22394883  1
  O  O31  1  0.51748539  0.16915996  0.77472424  1
  O  O32  1  0.48251461  0.83084004  0.22527576  1
  O  O33  1  0.82197571  0.26164077  0.63196868  1
  O  O34  1  0.17802429  0.73835923  0.36803132  1
  O  O35  1  0.68070341  0.59870280  0.65824359  1
  O  O36  1  0.31929659  0.40129720  0.34175641  1
  O  O37  1  0.63314096  0.72868362  0.48290705  1
  O  O38  1  0.36685904  0.27131638  0.51709295  1
  O  O39  1  0.86108383  0.35549133  0.45480532  1
  O  O40  1  0.13891617  0.64450867  0.54519468  1
  O  O41  1  0.63115229  0.59962382  0.89205772  1
  O  O42  1  0.36884771  0.40037618  0.10794228  1
  O  O43  1  0.45652485  0.71300408  0.03255102  1
  O  O44  1  0.54347515  0.28699592  0.96744898  1
  O  O45  1  0.88911502  0.99932055  0.88236279  1
  O  O46  1  0.11088498  0.00067945  0.11763721  1
  O  O47  1  0.01592418  0.76727146  0.02906954  1
  O  O48  1  0.98407582  0.23272854  0.97093046  1
  O  O49  1  0.77808167  0.94451781  0.59814139  1
  O  O50  1  0.22191833  0.05548219  0.40185861  1
  O  O51  1  0.69259460  0.06424137  0.36805848  1
  O  O52  1  0.30740540  0.93575863  0.63194152  1
