# generated using pymatgen
data_Dy2Mn(GeO3)4
_symmetry_space_group_name_H-M   'P 1'
_cell_length_a   5.03363571
_cell_length_b   10.03003736
_cell_length_c   10.03003736
_cell_angle_alpha   90.65823199
_cell_angle_beta   90.00000000
_cell_angle_gamma   90.00000000
_symmetry_Int_Tables_number   1
_chemical_formula_structural   Dy2Mn(GeO3)4
_chemical_formula_sum   'Dy4 Mn2 Ge8 O24'
_cell_volume   506.35863851
_cell_formula_units_Z   2
loop_
 _symmetry_equiv_pos_site_id
 _symmetry_equiv_pos_as_xyz
  1  'x, y, z'
loop_
 _atom_site_type_symbol
 _atom_site_label
 _atom_site_symmetry_multiplicity
 _atom_site_fract_x
 _atom_site_fract_y
 _atom_site_fract_z
 _atom_site_occupancy
  Dy  Dy0  1  0.50000000  -0.00000000  0.50000000  1
  Dy  Dy1  1  0.50000000  0.50000000  -0.00000000  1
  Dy  Dy2  1  0.50000000  0.75000000  0.75000000  1
  Dy  Dy3  1  0.50000000  0.25000000  0.25000000  1
  Mn  Mn4  1  0.50000000  0.50000000  0.50000000  1
  Mn  Mn5  1  0.50000000  -0.00000000  -0.00000000  1
  Ge  Ge6  1  0.99561268  0.74664665  0.47856124  1
  Ge  Ge7  1  0.00438732  0.25335335  0.52143876  1
  Ge  Ge8  1  0.00438732  0.24664665  0.97856124  1
  Ge  Ge9  1  0.99561268  0.75335335  0.02143876  1
  Ge  Ge10  1  0.00438732  0.47856124  0.74664665  1
  Ge  Ge11  1  0.99561268  0.52143876  0.25335335  1
  Ge  Ge12  1  0.99561268  0.97856124  0.24664665  1
  Ge  Ge13  1  0.00438732  0.02143876  0.75335335  1
  O  O14  1  0.83324321  0.36939823  0.63060177  1
  O  O15  1  0.83202609  0.87299918  0.37299918  1
  O  O16  1  0.83202609  0.62700082  0.12700082  1
  O  O17  1  0.83324321  0.13060177  0.86939823  1
  O  O18  1  0.16675679  0.63060177  0.36939823  1
  O  O19  1  0.16797391  0.12700082  0.62700082  1
  O  O20  1  0.16797391  0.37299918  0.87299918  1
  O  O21  1  0.16675679  0.86939823  0.13060177  1
  O  O22  1  0.26113498  0.56345167  0.66849373  1
  O  O23  1  0.25188800  0.06306903  0.32937527  1
  O  O24  1  0.25188800  0.43693097  0.17062473  1
  O  O25  1  0.26113498  0.93654833  0.83150627  1
  O  O26  1  0.73886502  0.43654833  0.33150627  1
  O  O27  1  0.74811200  0.93693097  0.67062473  1
  O  O28  1  0.74811200  0.56306903  0.82937527  1
  O  O29  1  0.73886502  0.06345167  0.16849373  1
  O  O30  1  0.73886502  0.66849373  0.56345167  1
  O  O31  1  0.74811200  0.32937527  0.06306903  1
  O  O32  1  0.74811200  0.17062473  0.43693097  1
  O  O33  1  0.73886502  0.83150627  0.93654833  1
  O  O34  1  0.26113498  0.33150627  0.43654833  1
  O  O35  1  0.25188800  0.67062473  0.93693097  1
  O  O36  1  0.25188800  0.82937527  0.56306903  1
  O  O37  1  0.26113498  0.16849373  0.06345167  1
