# generated using pymatgen
data_Dy2Si9B36C
_symmetry_space_group_name_H-M   'P 1'
_cell_length_a   8.04070533
_cell_length_b   8.04075208
_cell_length_c   8.00993965
_cell_angle_alpha   78.04939686
_cell_angle_beta   78.04964207
_cell_angle_gamma   77.94753442
_symmetry_Int_Tables_number   1
_chemical_formula_structural   Dy2Si9B36C
_chemical_formula_sum   'Dy2 Si9 B36 C1'
_cell_volume   488.15934473
_cell_formula_units_Z   1
loop_
 _symmetry_equiv_pos_site_id
 _symmetry_equiv_pos_as_xyz
  1  'x, y, z'
loop_
 _atom_site_type_symbol
 _atom_site_label
 _atom_site_symmetry_multiplicity
 _atom_site_fract_x
 _atom_site_fract_y
 _atom_site_fract_z
 _atom_site_occupancy
  Dy  Dy0  1  0.50008237  0.00036657  0.50017776  1
  Dy  Dy1  1  0.00036273  0.50009147  0.50017026  1
  Si  Si2  1  0.65594283  0.26719375  0.25404007  1
  Si  Si3  1  0.26296526  0.26296713  0.66279885  1
  Si  Si4  1  0.26718512  0.65595356  0.25404009  1
  Si  Si5  1  0.34605288  0.73323309  0.74622406  1
  Si  Si6  1  0.73707416  0.73707600  0.33982630  1
  Si  Si7  1  0.73324369  0.34604336  0.74622421  1
  Si  Si8  1  0.42840901  0.42842159  0.42706725  1
  Si  Si9  1  0.56996925  0.56996223  0.57180691  1
  Si  Si10  1  0.04481395  0.04481384  0.04300081  1
  B  B11  1  0.87405042  0.44712024  0.87404574  1
  B  B12  1  0.44711906  0.87404893  0.87404792  1
  B  B13  1  0.87440378  0.87441178  0.44583795  1
  B  B14  1  0.12231902  0.56248254  0.12247592  1
  B  B15  1  0.56248244  0.12232091  0.12247608  1
  B  B16  1  0.12186962  0.12186248  0.56404968  1
  B  B17  1  0.20093036  0.37414855  0.01906311  1
  B  B18  1  0.37453305  0.01839806  0.19647727  1
  B  B19  1  0.01724645  0.19750424  0.37416070  1
  B  B20  1  0.19750234  0.01724686  0.37415775  1
  B  B21  1  0.01839563  0.37453296  0.19647660  1
  B  B22  1  0.37414910  0.20093018  0.01906140  1
  B  B23  1  0.79683689  0.62889839  0.97774000  1
  B  B24  1  0.62895459  0.97863188  0.80037742  1
  B  B25  1  0.97978906  0.79954824  0.62903106  1
  B  B26  1  0.79954829  0.97978943  0.62903433  1
  B  B27  1  0.97863380  0.62895494  0.80037511  1
  B  B28  1  0.62889762  0.79683708  0.97774262  1
  B  B29  1  0.00579025  0.29715729  0.00556817  1
  B  B30  1  0.29715448  0.00579112  0.00557060  1
  B  B31  1  0.00545683  0.00546823  0.29557978  1
  B  B32  1  0.98233897  0.72378435  0.98268455  1
  B  B33  1  0.72378743  0.98233616  0.98268691  1
  B  B34  1  0.98254653  0.98254077  0.72573865  1
  B  B35  1  0.10728937  0.42172628  0.82396385  1
  B  B36  1  0.42094030  0.81994719  0.10595701  1
  B  B37  1  0.81940736  0.10935369  0.41932617  1
  B  B38  1  0.10934312  0.81941356  0.41932081  1
  B  B39  1  0.81994443  0.42094132  0.10595261  1
  B  B40  1  0.42172399  0.10728884  0.82396390  1
  B  B41  1  0.89189860  0.58792610  0.17168095  1
  B  B42  1  0.58865106  0.17549879  0.89329021  1
  B  B43  1  0.17648122  0.88991707  0.59012717  1
  B  B44  1  0.88992634  0.17647696  0.59013168  1
  B  B45  1  0.17550257  0.58864913  0.89329154  1
  B  B46  1  0.58792644  0.89190058  0.17168310  1
  C  C47  1  0.93272795  0.93272529  0.93410813  1
