# generated using pymatgen
data_ErGaAu
_symmetry_space_group_name_H-M   'P 1'
_cell_length_a   4.51252159
_cell_length_b   5.76658595
_cell_length_c   5.68628959
_cell_angle_alpha   94.17582340
_cell_angle_beta   113.37764096
_cell_angle_gamma   66.96678713
_symmetry_Int_Tables_number   1
_chemical_formula_structural   ErGaAu
_chemical_formula_sum   'Er2 Ga2 Au2'
_cell_volume   124.39654727
_cell_formula_units_Z   2
loop_
 _symmetry_equiv_pos_site_id
 _symmetry_equiv_pos_as_xyz
  1  'x, y, z'
loop_
 _atom_site_type_symbol
 _atom_site_label
 _atom_site_symmetry_multiplicity
 _atom_site_fract_x
 _atom_site_fract_y
 _atom_site_fract_z
 _atom_site_occupancy
  Er  Er0  1  0.75853166  0.70431592  0.22137925  1
  Er  Er1  1  0.24146834  0.29568408  0.77862075  1
  Ga  Ga2  1  0.04970191  0.10893846  0.20834227  1
  Ga  Ga3  1  0.95029809  0.89106154  0.79165773  1
  Au  Au4  1  0.54082042  0.28199427  0.36363511  1
  Au  Au5  1  0.45917958  0.71800573  0.63636489  1
