# generated using pymatgen
data_HoCd6
_symmetry_space_group_name_H-M   'P 1'
_cell_length_a   13.66948463
_cell_length_b   13.66948463
_cell_length_c   13.66948463
_cell_angle_alpha   71.35398161
_cell_angle_beta   70.34894629
_cell_angle_gamma   110.12007512
_symmetry_Int_Tables_number   1
_chemical_formula_structural   HoCd6
_chemical_formula_sum   'Ho12 Cd72'
_cell_volume   1965.89215979
_cell_formula_units_Z   12
loop_
 _symmetry_equiv_pos_site_id
 _symmetry_equiv_pos_as_xyz
  1  'x, y, z'
loop_
 _atom_site_type_symbol
 _atom_site_label
 _atom_site_symmetry_multiplicity
 _atom_site_fract_x
 _atom_site_fract_y
 _atom_site_fract_z
 _atom_site_occupancy
  Ho  Ho0  1  0.70409166  0.50852682  0.19556484  1
  Ho  Ho1  1  0.29590834  0.49147318  0.80443516  1
  Ho  Ho2  1  0.70409166  0.89965651  0.80443516  1
  Ho  Ho3  1  0.29590834  0.10034349  0.19556484  1
  Ho  Ho4  1  0.80602984  0.30130696  0.89266320  1
  Ho  Ho5  1  0.19397016  0.69869304  0.10733680  1
  Ho  Ho6  1  0.19397016  0.30130696  0.50472288  1
  Ho  Ho7  1  0.80602984  0.69869304  0.49527712  1
  Ho  Ho8  1  0.49245329  0.19271624  0.70026295  1
  Ho  Ho9  1  0.50754671  0.80728376  0.29973705  1
  Ho  Ho10  1  0.10702080  0.80728376  0.70026295  1
  Ho  Ho11  1  0.89297920  0.19271624  0.29973705  1
  Cd  Cd12  1  -0.00000000  0.59282272  0.40717728  1
  Cd  Cd13  1  -0.00000000  0.40717728  0.59282272  1
  Cd  Cd14  1  0.59708991  0.00000000  0.40291009  1
  Cd  Cd15  1  0.40291009  -0.00000000  0.59708991  1
  Cd  Cd16  1  0.40371695  0.40371695  0.00000000  1
  Cd  Cd17  1  0.59628305  0.59628305  0.00000000  1
  Cd  Cd18  1  0.65128771  0.24887433  0.40241338  1
  Cd  Cd19  1  0.34871229  0.75112567  0.59758662  1
  Cd  Cd20  1  0.65128771  0.05370108  0.59758662  1
  Cd  Cd21  1  0.34871229  0.94629892  0.40241338  1
  Cd  Cd22  1  0.59565727  0.34848034  0.05586239  1
  Cd  Cd23  1  0.40434273  0.65151966  0.94413761  1
  Cd  Cd24  1  0.40434273  0.34848034  0.24717693  1
  Cd  Cd25  1  0.59565727  0.65151966  0.75282307  1
  Cd  Cd26  1  0.75013970  0.40355096  0.65341126  1
  Cd  Cd27  1  0.24986030  0.59644904  0.34658874  1
  Cd  Cd28  1  0.94303779  0.59644904  0.65341126  1
  Cd  Cd29  1  0.05696221  0.40355096  0.34658874  1
  Cd  Cd30  1  0.80701953  0.30701953  0.50000000  1
  Cd  Cd31  1  0.19298047  0.69298047  0.50000000  1
  Cd  Cd32  1  0.50000000  0.19315544  0.30684456  1
  Cd  Cd33  1  0.50000000  0.80684456  0.69315544  1
  Cd  Cd34  1  0.68898604  0.50000000  0.81101396  1
  Cd  Cd35  1  0.31101396  0.50000000  0.18898604  1
  Cd  Cd36  1  0.00084823  0.67885384  0.00121352  1
  Cd  Cd37  1  0.31993264  0.32114616  0.67800561  1
  Cd  Cd38  1  0.68006736  0.00206175  0.99878648  1
  Cd  Cd39  1  0.99915177  0.99793825  0.32199439  1
  Cd  Cd40  1  0.99915177  0.32114616  0.99878648  1
  Cd  Cd41  1  0.68006736  0.67885384  0.32199439  1
  Cd  Cd42  1  0.31993264  0.99793825  0.00121352  1
  Cd  Cd43  1  0.00084823  0.00206175  0.67800561  1
  Cd  Cd44  1  0.91563529  0.45497660  0.22609944  1
  Cd  Cd45  1  0.31892395  0.54502340  0.53934131  1
  Cd  Cd46  1  0.68107605  0.14173473  0.77390056  1
  Cd  Cd47  1  0.08436471  0.85826527  0.46065869  1
  Cd  Cd48  1  0.54636043  0.08735471  0.14016205  1
  Cd  Cd49  1  0.22751676  0.68652248  0.85983795  1
  Cd  Cd50  1  0.45363957  0.31347752  0.45900572  1
  Cd  Cd51  1  0.77248324  0.91264529  0.54099428  1
  Cd  Cd52  1  0.54008758  0.45657079  0.68358918  1
  Cd  Cd53  1  0.45991242  0.77632324  0.08351678  1
  Cd  Cd54  1  0.85984002  0.54342921  0.91648322  1
  Cd  Cd55  1  0.14015998  0.22367676  0.31641082  1
  Cd  Cd56  1  0.08436471  0.54502340  0.77390056  1
  Cd  Cd57  1  0.68107605  0.45497660  0.46065869  1
  Cd  Cd58  1  0.31892395  0.85826527  0.22609944  1
  Cd  Cd59  1  0.91563529  0.14173473  0.53934131  1
  Cd  Cd60  1  0.45363957  0.91264529  0.85983795  1
  Cd  Cd61  1  0.77248324  0.31347752  0.14016205  1
  Cd  Cd62  1  0.54636043  0.68652248  0.54099428  1
  Cd  Cd63  1  0.22751676  0.08735471  0.45900572  1
  Cd  Cd64  1  0.45991242  0.54342921  0.31641082  1
  Cd  Cd65  1  0.54008758  0.22367676  0.91648322  1
  Cd  Cd66  1  0.14015998  0.45657079  0.08351678  1
  Cd  Cd67  1  0.85984002  0.77632324  0.68358918  1
  Cd  Cd68  1  0.90754590  0.82303856  0.08450734  1
  Cd  Cd69  1  0.09245410  0.17696144  0.91549266  1
  Cd  Cd70  1  0.90754590  0.99205323  0.91549266  1
  Cd  Cd71  1  0.09245410  0.00794677  0.08450734  1
  Cd  Cd72  1  0.90541061  0.65048397  0.25492664  1
  Cd  Cd73  1  0.09458939  0.34951603  0.74507336  1
  Cd  Cd74  1  0.90541061  0.16033725  0.74507336  1
  Cd  Cd75  1  0.09458939  0.83966275  0.25492664  1
  Cd  Cd76  1  0.76679798  0.09079985  0.14240217  1
  Cd  Cd77  1  0.23320202  0.90920015  0.85759783  1
  Cd  Cd78  1  0.23320202  0.09079985  0.67599813  1
  Cd  Cd79  1  0.76679798  0.90920015  0.32400187  1
  Cd  Cd80  1  0.33577900  0.24038457  0.90460557  1
  Cd  Cd81  1  0.66422100  0.75961543  0.09539443  1
  Cd  Cd82  1  0.85500986  0.75961543  0.90460557  1
  Cd  Cd83  1  0.14499014  0.24038457  0.09539443  1
