# generated using pymatgen
data_Er2Mn(GeO3)4
_symmetry_space_group_name_H-M   'P 1'
_cell_length_a   5.00720719
_cell_length_b   9.98379771
_cell_length_c   9.98379771
_cell_angle_alpha   90.50646448
_cell_angle_beta   90.00000000
_cell_angle_gamma   90.00000000
_symmetry_Int_Tables_number   1
_chemical_formula_structural   Er2Mn(GeO3)4
_chemical_formula_sum   'Er4 Mn2 Ge8 O24'
_cell_volume   499.07997044
_cell_formula_units_Z   2
loop_
 _symmetry_equiv_pos_site_id
 _symmetry_equiv_pos_as_xyz
  1  'x, y, z'
loop_
 _atom_site_type_symbol
 _atom_site_label
 _atom_site_symmetry_multiplicity
 _atom_site_fract_x
 _atom_site_fract_y
 _atom_site_fract_z
 _atom_site_occupancy
  Er  Er0  1  0.50000000  -0.00000000  0.50000000  1
  Er  Er1  1  0.50000000  0.50000000  -0.00000000  1
  Er  Er2  1  0.50000000  0.75000000  0.75000000  1
  Er  Er3  1  0.50000000  0.25000000  0.25000000  1
  Mn  Mn4  1  0.50000000  0.50000000  0.50000000  1
  Mn  Mn5  1  0.50000000  -0.00000000  -0.00000000  1
  Ge  Ge6  1  0.99608425  0.74680015  0.47928748  1
  Ge  Ge7  1  0.00391575  0.25319985  0.52071252  1
  Ge  Ge8  1  0.00391575  0.24680015  0.97928748  1
  Ge  Ge9  1  0.99608425  0.75319985  0.02071252  1
  Ge  Ge10  1  0.00391575  0.47928748  0.74680015  1
  Ge  Ge11  1  0.99608425  0.52071252  0.25319985  1
  Ge  Ge12  1  0.99608425  0.97928748  0.24680015  1
  Ge  Ge13  1  0.00391575  0.02071252  0.75319985  1
  O  O14  1  0.26187528  0.56496904  0.66841243  1
  O  O15  1  0.25465109  0.06341626  0.33009447  1
  O  O16  1  0.25465109  0.43658374  0.16990553  1
  O  O17  1  0.26187528  0.93503096  0.83158757  1
  O  O18  1  0.73812472  0.43503096  0.33158757  1
  O  O19  1  0.74534891  0.93658374  0.66990553  1
  O  O20  1  0.74534891  0.56341626  0.83009447  1
  O  O21  1  0.73812472  0.06496904  0.16841243  1
  O  O22  1  0.73812472  0.66841243  0.56496904  1
  O  O23  1  0.74534891  0.33009447  0.06341626  1
  O  O24  1  0.74534891  0.16990553  0.43658374  1
  O  O25  1  0.73812472  0.83158757  0.93503096  1
  O  O26  1  0.26187528  0.33158757  0.43503096  1
  O  O27  1  0.25465109  0.66990553  0.93658374  1
  O  O28  1  0.25465109  0.83009447  0.56341626  1
  O  O29  1  0.26187528  0.16841243  0.06496904  1
  O  O30  1  0.83121013  0.36963425  0.63036575  1
  O  O31  1  0.83020154  0.87332225  0.37332225  1
  O  O32  1  0.83020154  0.62667775  0.12667775  1
  O  O33  1  0.83121013  0.13036575  0.86963425  1
  O  O34  1  0.16878987  0.63036575  0.36963425  1
  O  O35  1  0.16979846  0.12667775  0.62667775  1
  O  O36  1  0.16979846  0.37332225  0.87332225  1
  O  O37  1  0.16878987  0.86963425  0.13036575  1
