# generated using pymatgen
data_CsFeNiF6
_symmetry_space_group_name_H-M   'P 1'
_cell_length_a   7.42476908
_cell_length_b   7.37950666
_cell_length_c   7.48838166
_cell_angle_alpha   90.00000000
_cell_angle_beta   59.71617855
_cell_angle_gamma   119.79854543
_symmetry_Int_Tables_number   1
_chemical_formula_structural   CsFeNiF6
_chemical_formula_sum   'Cs2 Fe2 Ni2 F12'
_cell_volume   289.75696191
_cell_formula_units_Z   2
loop_
 _symmetry_equiv_pos_site_id
 _symmetry_equiv_pos_as_xyz
  1  'x, y, z'
loop_
 _atom_site_type_symbol
 _atom_site_label
 _atom_site_symmetry_multiplicity
 _atom_site_fract_x
 _atom_site_fract_y
 _atom_site_fract_z
 _atom_site_occupancy
  Cs  Cs0  1  0.75781479  0.37890739  0.37109261  1
  Cs  Cs1  1  0.24218521  0.62109261  0.62890739  1
  Fe  Fe2  1  0.00000000  -0.00000000  0.50000000  1
  Fe  Fe3  1  0.00000000  -0.00000000  0.00000000  1
  Ni  Ni4  1  0.50000000  0.50000000  0.00000000  1
  Ni  Ni5  1  0.50000000  -0.00000000  0.00000000  1
  F  F6  1  0.86767912  0.93383956  0.31616044  1
  F  F7  1  0.64786775  0.32393388  0.92606612  1
  F  F8  1  0.24363995  0.93258571  0.93122636  1
  F  F9  1  0.24363995  0.31105424  0.32513370  1
  F  F10  1  0.24363995  0.31105424  0.93122636  1
  F  F11  1  0.24363995  0.93258571  0.32513370  1
  F  F12  1  0.13232088  0.06616044  0.68383956  1
  F  F13  1  0.35213225  0.67606612  0.07393388  1
  F  F14  1  0.75636005  0.06741429  0.06877364  1
  F  F15  1  0.75636005  0.68894576  0.67486630  1
  F  F16  1  0.75636005  0.68894576  0.06877364  1
  F  F17  1  0.75636005  0.06741429  0.67486630  1
