# generated using pymatgen
data_CsNa5(FeO3)2
_symmetry_space_group_name_H-M   'P 1'
_cell_length_a   9.31787687
_cell_length_b   9.31787687
_cell_length_c   12.10470130
_cell_angle_alpha   67.52443363
_cell_angle_beta   67.52443363
_cell_angle_gamma   90.38664967
_symmetry_Int_Tables_number   1
_chemical_formula_structural   CsNa5(FeO3)2
_chemical_formula_sum   'Cs4 Na20 Fe8 O24'
_cell_volume   882.86742331
_cell_formula_units_Z   4
loop_
 _symmetry_equiv_pos_site_id
 _symmetry_equiv_pos_as_xyz
  1  'x, y, z'
loop_
 _atom_site_type_symbol
 _atom_site_label
 _atom_site_symmetry_multiplicity
 _atom_site_fract_x
 _atom_site_fract_y
 _atom_site_fract_z
 _atom_site_occupancy
  Cs  Cs0  1  0.83577387  0.12112037  0.25071392  1
  Cs  Cs1  1  0.91351221  0.62816571  0.25071392  1
  Cs  Cs2  1  0.87112037  0.08577387  0.75071392  1
  Cs  Cs3  1  0.37816571  0.16351221  0.75071392  1
  Na  Na4  1  0.48754889  0.98754889  0.02490222  1
  Na  Na5  1  0.25733234  0.25733234  0.48533531  1
  Na  Na6  1  0.00733234  0.50733234  0.98533531  1
  Na  Na7  1  0.73754889  0.73754889  0.52490222  1
  Na  Na8  1  0.73448618  0.74990303  0.02508265  1
  Na  Na9  1  0.00388534  0.99875754  0.48672924  1
  Na  Na10  1  0.24043117  0.22501433  0.02508265  1
  Na  Na11  1  0.50938542  0.51451323  0.48672924  1
  Na  Na12  1  0.26451323  0.75938542  0.98672924  1
  Na  Na13  1  0.49990303  0.98448618  0.52508265  1
  Na  Na14  1  0.74875754  0.25388534  0.98672924  1
  Na  Na15  1  0.97501433  0.49043117  0.52508265  1
  Na  Na16  1  0.75180055  0.25180055  0.49639891  1
  Na  Na17  1  0.00180055  0.00180055  0.99639891  1
  Na  Na18  1  0.49555486  0.49555486  0.00889028  1
  Na  Na19  1  0.24555486  0.74555486  0.50889028  1
  Na  Na20  1  0.34218669  0.55727827  0.81131336  1
  Na  Na21  1  0.84649995  0.63140837  0.81131336  1
  Na  Na22  1  0.30727827  0.59218669  0.31131336  1
  Na  Na23  1  0.38140837  0.09649995  0.31131336  1
  Fe  Fe24  1  0.58138813  0.82544177  0.75747313  1
  Fe  Fe25  1  0.17146736  0.83385786  0.74052713  1
  Fe  Fe26  1  0.66113874  0.41708510  0.75747313  1
  Fe  Fe27  1  0.08800551  0.42561501  0.74052713  1
  Fe  Fe28  1  0.17561501  0.33800551  0.24052713  1
  Fe  Fe29  1  0.57544177  0.83138813  0.25747313  1
  Fe  Fe30  1  0.58385786  0.42146736  0.24052713  1
  Fe  Fe31  1  0.16708510  0.91113874  0.25747313  1
  O  O32  1  0.61715835  0.61715835  0.76568331  1
  O  O33  1  0.12673629  0.62673629  0.74652742  1
  O  O34  1  0.37673629  0.37673629  0.24652742  1
  O  O35  1  0.36715835  0.86715835  0.26568331  1
  O  O36  1  0.37109523  0.83479047  0.75709317  1
  O  O37  1  0.87181160  0.40811636  0.75709317  1
  O  O38  1  0.15811636  0.12181160  0.25709317  1
  O  O39  1  0.58479047  0.62109523  0.25709317  1
  O  O40  1  0.09541486  0.27904010  0.89434022  1
  O  O41  1  0.67327927  0.42695079  0.59688754  1
  O  O42  1  0.01024492  0.82661968  0.89434022  1
  O  O43  1  0.72983319  0.97616168  0.59688754  1
  O  O44  1  0.72616168  0.97983319  0.09688754  1
  O  O45  1  0.02904010  0.34541486  0.39434022  1
  O  O46  1  0.17695079  0.92327927  0.09688754  1
  O  O47  1  0.57661968  0.26024492  0.39434022  1
  O  O48  1  0.57084326  0.81860023  0.41631196  1
  O  O49  1  0.19670658  0.47657263  0.07065897  1
  O  O50  1  0.01284478  0.76508780  0.41631196  1
  O  O51  1  0.73263445  0.45276840  0.07065897  1
  O  O52  1  0.20276840  0.98263445  0.57065897  1
  O  O53  1  0.56860023  0.82084326  0.91631196  1
  O  O54  1  0.22657263  0.44670658  0.57065897  1
  O  O55  1  0.51508780  0.26284478  0.91631196  1
