# generated using pymatgen
data_CrSnSbO6
_symmetry_space_group_name_H-M   'P 1'
_cell_length_a   4.72769472
_cell_length_b   4.72769472
_cell_length_c   9.46273928
_cell_angle_alpha   90.00000000
_cell_angle_beta   90.00000000
_cell_angle_gamma   90.00000000
_symmetry_Int_Tables_number   1
_chemical_formula_structural   CrSnSbO6
_chemical_formula_sum   'Cr2 Sn2 Sb2 O12'
_cell_volume   211.50260699
_cell_formula_units_Z   2
loop_
 _symmetry_equiv_pos_site_id
 _symmetry_equiv_pos_as_xyz
  1  'x, y, z'
loop_
 _atom_site_type_symbol
 _atom_site_label
 _atom_site_symmetry_multiplicity
 _atom_site_fract_x
 _atom_site_fract_y
 _atom_site_fract_z
 _atom_site_occupancy
  Cr  Cr0  1  0.50000000  0.50000000  0.16715572  1
  Cr  Cr1  1  0.00000000  -0.00000000  0.66715572  1
  Sn  Sn2  1  0.50000000  0.50000000  0.49927290  1
  Sn  Sn3  1  0.00000000  -0.00000000  0.99927290  1
  Sb  Sb4  1  0.50000000  0.50000000  0.83298198  1
  Sb  Sb5  1  0.00000000  -0.00000000  0.33298198  1
  O  O6  1  0.19586816  0.80413184  0.17132567  1
  O  O7  1  0.18781270  0.81218730  0.49892918  1
  O  O8  1  0.19725194  0.80274806  0.83003985  1
  O  O9  1  0.80413184  0.19586816  0.17132567  1
  O  O10  1  0.81218730  0.18781270  0.49892918  1
  O  O11  1  0.80274806  0.19725194  0.83003985  1
  O  O12  1  0.30274806  0.30274806  0.33003985  1
  O  O13  1  0.30413184  0.30413184  0.67132567  1
  O  O14  1  0.31218730  0.31218730  0.99892918  1
  O  O15  1  0.68781270  0.68781270  0.99892918  1
  O  O16  1  0.69725194  0.69725194  0.33003985  1
  O  O17  1  0.69586816  0.69586816  0.67132567  1
