# generated using pymatgen
data_Er2PbS4
_symmetry_space_group_name_H-M   'P 1'
_cell_length_a   7.92683737
_cell_length_b   12.13303207
_cell_length_c   14.87322612
_cell_angle_alpha   90.00000000
_cell_angle_beta   74.54508127
_cell_angle_gamma   90.00000000
_symmetry_Int_Tables_number   1
_chemical_formula_structural   Er2PbS4
_chemical_formula_sum   'Er16 Pb8 S32'
_cell_volume   1378.73122231
_cell_formula_units_Z   8
loop_
 _symmetry_equiv_pos_site_id
 _symmetry_equiv_pos_as_xyz
  1  'x, y, z'
loop_
 _atom_site_type_symbol
 _atom_site_label
 _atom_site_symmetry_multiplicity
 _atom_site_fract_x
 _atom_site_fract_y
 _atom_site_fract_z
 _atom_site_occupancy
  Er  Er0  1  0.93084952  0.58707841  0.13830096  1
  Er  Er1  1  0.06915048  0.08707841  0.86169904  1
  Er  Er2  1  0.32581114  0.06524250  0.34837772  1
  Er  Er3  1  0.67418886  0.56524250  0.65162228  1
  Er  Er4  1  0.43037037  0.57885461  0.13925927  1
  Er  Er5  1  0.56962963  0.07885461  0.86074073  1
  Er  Er6  1  0.82488301  0.06775331  0.35023397  1
  Er  Er7  1  0.17511699  0.56775331  0.64976603  1
  Er  Er8  1  0.56902846  0.71361772  0.36187841  1
  Er  Er9  1  0.06909312  0.71361772  0.36187841  1
  Er  Er10  1  0.43097154  0.21361772  0.63812159  1
  Er  Er11  1  0.93090688  0.21361772  0.63812159  1
  Er  Er12  1  0.67383233  0.23141092  0.15288025  1
  Er  Er13  1  0.17328742  0.23141092  0.15288025  1
  Er  Er14  1  0.32616767  0.73141092  0.84711975  1
  Er  Er15  1  0.82671258  0.73141092  0.84711975  1
  Pb  Pb16  1  0.46154402  0.88136127  0.07691196  1
  Pb  Pb17  1  0.53845598  0.38136127  0.92308804  1
  Pb  Pb18  1  0.95353132  0.93389918  0.09293736  1
  Pb  Pb19  1  0.04646868  0.43389918  0.90706264  1
  Pb  Pb20  1  0.54124839  0.40295888  0.41706571  1
  Pb  Pb21  1  0.04168590  0.40295888  0.41706571  1
  Pb  Pb22  1  0.45875161  0.90295888  0.58293429  1
  Pb  Pb23  1  0.95831410  0.90295888  0.58293429  1
  S  S24  1  0.63937887  0.02197952  0.22311883  1
  S  S25  1  0.13750230  0.02197952  0.22311883  1
  S  S26  1  0.36062113  0.52197952  0.77688117  1
  S  S27  1  0.86249770  0.52197952  0.77688117  1
  S  S28  1  0.33630753  0.55997625  0.32738494  1
  S  S29  1  0.66369247  0.05997625  0.67261506  1
  S  S30  1  0.51467851  0.11872996  0.46732439  1
  S  S31  1  0.01799710  0.11872996  0.46732439  1
  S  S32  1  0.48532149  0.61872996  0.53267561  1
  S  S33  1  0.98200290  0.61872996  0.53267561  1
  S  S34  1  0.98059757  0.16347764  0.03880486  1
  S  S35  1  0.01940243  0.66347764  0.96119514  1
  S  S36  1  0.65981239  0.73180501  0.17513671  1
  S  S37  1  0.16505090  0.73180501  0.17513671  1
  S  S38  1  0.34018761  0.23180501  0.82486329  1
  S  S39  1  0.83494910  0.23180501  0.82486329  1
  S  S40  1  0.79125792  0.85459922  0.41748416  1
  S  S41  1  0.20874208  0.35459922  0.58251584  1
  S  S42  1  0.48461143  0.18318909  0.03077714  1
  S  S43  1  0.51538857  0.68318909  0.96922286  1
  S  S44  1  0.36068799  0.27397687  0.27862402  1
  S  S45  1  0.63931201  0.77397687  0.72137598  1
  S  S46  1  0.83697826  0.56194736  0.32604347  1
  S  S47  1  0.16302174  0.06194736  0.67395653  1
  S  S48  1  0.29131084  0.85389107  0.41737832  1
  S  S49  1  0.70868916  0.35389107  0.58262168  1
  S  S50  1  0.71193905  0.44151233  0.08046209  1
  S  S51  1  0.20759885  0.44151233  0.08046209  1
  S  S52  1  0.28806095  0.94151233  0.91953791  1
  S  S53  1  0.79240115  0.94151233  0.91953791  1
  S  S54  1  0.86055378  0.27642449  0.27889244  1
  S  S55  1  0.13944622  0.77642449  0.72110756  1
