# generated using pymatgen
data_CoAg2Sn3S8
_symmetry_space_group_name_H-M   'P 1'
_cell_length_a   7.44605616
_cell_length_b   7.55179714
_cell_length_c   7.48485336
_cell_angle_alpha   59.70369450
_cell_angle_beta   61.11852309
_cell_angle_gamma   90.00000000
_symmetry_Int_Tables_number   1
_chemical_formula_structural   CoAg2Sn3S8
_chemical_formula_sum   'Co1 Ag2 Sn3 S8'
_cell_volume   301.22294972
_cell_formula_units_Z   1
loop_
 _symmetry_equiv_pos_site_id
 _symmetry_equiv_pos_as_xyz
  1  'x, y, z'
loop_
 _atom_site_type_symbol
 _atom_site_label
 _atom_site_symmetry_multiplicity
 _atom_site_fract_x
 _atom_site_fract_y
 _atom_site_fract_z
 _atom_site_occupancy
  Co  Co0  1  0.00000000  0.50000000  0.50000000  1
  Ag  Ag1  1  0.61457512  0.88914701  0.72170598  1
  Ag  Ag2  1  0.38542488  0.11085299  0.27829402  1
  Sn  Sn3  1  0.50000000  0.50000000  0.50000000  1
  Sn  Sn4  1  0.00000000  0.50000000  -0.00000000  1
  Sn  Sn5  1  0.00000000  -0.00000000  -0.00000000  1
  S  S6  1  0.78613272  0.27321494  0.95357011  1
  S  S7  1  0.24985244  0.25492932  0.99014136  1
  S  S8  1  0.78109773  0.29255061  0.48387676  1
  S  S9  1  0.78109773  0.72357264  0.48387676  1
  S  S10  1  0.21386728  0.72678506  0.04642989  1
  S  S11  1  0.75014756  0.74507068  0.00985864  1
  S  S12  1  0.21890227  0.70744939  0.51612324  1
  S  S13  1  0.21890227  0.27642736  0.51612324  1
