# generated using pymatgen
data_Ni9S8
_symmetry_space_group_name_H-M   'P 1'
_cell_length_a   9.54609881
_cell_length_b   9.54609881
_cell_length_c   12.97223138
_cell_angle_alpha   111.58884902
_cell_angle_beta   111.58884902
_cell_angle_gamma   90.00000000
_symmetry_Int_Tables_number   1
_chemical_formula_structural   Ni9S8
_chemical_formula_sum   'Ni36 S32'
_cell_volume   1009.48599311
_cell_formula_units_Z   4
loop_
 _symmetry_equiv_pos_site_id
 _symmetry_equiv_pos_as_xyz
  1  'x, y, z'
loop_
 _atom_site_type_symbol
 _atom_site_label
 _atom_site_symmetry_multiplicity
 _atom_site_fract_x
 _atom_site_fract_y
 _atom_site_fract_z
 _atom_site_occupancy
  Ni  Ni0  1  0.48403702  0.74880565  0.50272933  1
  Ni  Ni1  1  0.76596298  0.99607632  0.99727067  1
  Ni  Ni2  1  0.01869231  0.75392368  0.50272933  1
  Ni  Ni3  1  0.23130769  0.00119435  0.99727067  1
  Ni  Ni4  1  0.25119435  0.98130769  0.49727067  1
  Ni  Ni5  1  0.99880565  0.23403702  0.00272933  1
  Ni  Ni6  1  0.24607632  0.51596298  0.49727067  1
  Ni  Ni7  1  0.00392368  0.76869231  0.00272933  1
  Ni  Ni8  1  0.75336904  0.75336904  0.50673808  1
  Ni  Ni9  1  0.49663096  0.99663096  0.99326192  1
  Ni  Ni10  1  0.24663096  0.24663096  0.49326192  1
  Ni  Ni11  1  0.00336904  0.50336904  0.00673808  1
  Ni  Ni12  1  0.41625143  0.37500000  0.25000000  1
  Ni  Ni13  1  0.83374857  0.87500000  0.25000000  1
  Ni  Ni14  1  0.62500000  0.16625143  0.75000000  1
  Ni  Ni15  1  0.12500000  0.58374857  0.75000000  1
  Ni  Ni16  1  0.88422098  0.38422098  0.76844196  1
  Ni  Ni17  1  0.36577902  0.36577902  0.73155804  1
  Ni  Ni18  1  0.61577902  0.11577902  0.23155804  1
  Ni  Ni19  1  0.63422098  0.63422098  0.26844196  1
  Ni  Ni20  1  0.23603178  0.74309793  0.67839841  1
  Ni  Ni21  1  0.01396822  0.81469952  0.82160159  1
  Ni  Ni22  1  0.44236663  0.93530048  0.67839841  1
  Ni  Ni23  1  0.80763337  0.00690207  0.82160159  1
  Ni  Ni24  1  0.25690207  0.55763337  0.32160159  1
  Ni  Ni25  1  0.99309793  0.98603178  0.17839841  1
  Ni  Ni26  1  0.06469952  0.76396822  0.32160159  1
  Ni  Ni27  1  0.18530048  0.19236663  0.17839841  1
  Ni  Ni28  1  0.59405902  0.32919002  0.42266542  1
  Ni  Ni29  1  0.65594098  0.65652460  0.07733458  1
  Ni  Ni30  1  0.82860641  0.09347540  0.42266542  1
  Ni  Ni31  1  0.42139359  0.42080998  0.07733458  1
  Ni  Ni32  1  0.67080998  0.17139359  0.57733458  1
  Ni  Ni33  1  0.57919002  0.34405902  0.92266542  1
  Ni  Ni34  1  0.90652460  0.40594098  0.57733458  1
  Ni  Ni35  1  0.34347540  0.57860641  0.92266542  1
  S  S36  1  0.57476660  0.56263043  0.39981692  1
  S  S37  1  0.67523340  0.91281351  0.10018308  1
  S  S38  1  0.82505032  0.83718649  0.39981692  1
  S  S39  1  0.42494968  0.18736957  0.10018308  1
  S  S40  1  0.43736957  0.17494968  0.60018308  1
  S  S41  1  0.81263043  0.32476660  0.89981692  1
  S  S42  1  0.16281351  0.42523340  0.60018308  1
  S  S43  1  0.08718649  0.57505032  0.89981692  1
  S  S44  1  0.67710282  0.94747539  0.62288438  1
  S  S45  1  0.57289718  0.07459101  0.87711562  1
  S  S46  1  0.94578156  0.67540899  0.62288438  1
  S  S47  1  0.30421844  0.80252461  0.87711562  1
  S  S48  1  0.05252461  0.05421844  0.37711562  1
  S  S49  1  0.19747539  0.42710282  0.12288438  1
  S  S50  1  0.32459101  0.32289718  0.37711562  1
  S  S51  1  0.92540899  0.69578156  0.12288438  1
  S  S52  1  0.44423378  0.69024798  0.64084796  1
  S  S53  1  0.80576622  0.79940001  0.85915204  1
  S  S54  1  0.19661418  0.95059999  0.64084796  1
  S  S55  1  0.05338582  0.05975202  0.85915204  1
  S  S56  1  0.30975202  0.80338582  0.35915204  1
  S  S57  1  0.94024798  0.19423378  0.14084796  1
  S  S58  1  0.04940001  0.55576622  0.35915204  1
  S  S59  1  0.20059999  0.94661418  0.14084796  1
  S  S60  1  0.69916077  0.42864606  0.62551803  1
  S  S61  1  0.55083923  0.55312803  0.87448197  1
  S  S62  1  0.92635726  0.19687197  0.62551803  1
  S  S63  1  0.32364274  0.32135394  0.87448197  1
  S  S64  1  0.57135394  0.07364274  0.37448197  1
  S  S65  1  0.67864606  0.44916077  0.12551803  1
  S  S66  1  0.80312803  0.30083923  0.37448197  1
  S  S67  1  0.44687197  0.67635726  0.12551803  1
