# generated using pymatgen
data_Er5P12Ir19
_symmetry_space_group_name_H-M   'P 1'
_cell_length_a   3.96473539
_cell_length_b   12.71585319
_cell_length_c   12.71585277
_cell_angle_alpha   60.00160980
_cell_angle_beta   89.99968083
_cell_angle_gamma   90.00031929
_symmetry_Int_Tables_number   1
_chemical_formula_structural   Er5P12Ir19
_chemical_formula_sum   'Er5 P12 Ir19'
_cell_volume   555.19159103
_cell_formula_units_Z   1
loop_
 _symmetry_equiv_pos_site_id
 _symmetry_equiv_pos_as_xyz
  1  'x, y, z'
loop_
 _atom_site_type_symbol
 _atom_site_label
 _atom_site_symmetry_multiplicity
 _atom_site_fract_x
 _atom_site_fract_y
 _atom_site_fract_z
 _atom_site_occupancy
  Er  Er0  1  0.00007671  0.33330713  0.33336463  1
  Er  Er1  1  0.00007671  0.66663537  0.66669287  1
  Er  Er2  1  0.50270549  0.18481317  0.81518683  1
  Er  Er3  1  0.50271941  0.81509196  0.99997549  1
  Er  Er4  1  0.50271941  0.00002451  0.18490804  1
  P  P5  1  0.50029072  0.31172427  0.17106887  1
  P  P6  1  0.50029002  0.17110270  0.51719991  1
  P  P7  1  0.50030217  0.51719251  0.31175949  1
  P  P8  1  0.50029072  0.82893113  0.68827573  1
  P  P9  1  0.50029002  0.48280009  0.82889730  1
  P  P10  1  0.50030217  0.68824051  0.48280749  1
  P  P11  1  0.00037265  0.35835286  0.64164714  1
  P  P12  1  0.00040720  0.64158620  0.99998971  1
  P  P13  1  0.00040720  0.00001029  0.35841380  1
  P  P14  1  0.00363875  0.82256828  0.17743172  1
  P  P15  1  0.00365086  0.17745231  -0.00001719  1
  P  P16  1  0.00365086  0.00001719  0.82254769  1
  Ir  Ir17  1  0.00106709  0.19327555  0.18122359  1
  Ir  Ir18  1  0.00108749  0.18124476  0.62545022  1
  Ir  Ir19  1  0.00105377  0.62550231  0.19326521  1
  Ir  Ir20  1  0.00106709  0.81877641  0.80672445  1
  Ir  Ir21  1  0.00108749  0.37454978  0.81875524  1
  Ir  Ir22  1  0.00105377  0.80673479  0.37449769  1
  Ir  Ir23  1  0.99954712  0.53858901  0.46141099  1
  Ir  Ir24  1  0.99955564  0.46136165  0.00000937  1
  Ir  Ir25  1  0.99955564  0.99999063  0.53863835  1
  Ir  Ir26  1  0.50245193  0.71637553  0.28362447  1
  Ir  Ir27  1  0.50242436  0.28367354  0.99997622  1
  Ir  Ir28  1  0.50242436  0.00002378  0.71632646  1
  Ir  Ir29  1  0.50033980  0.13321133  0.36084190  1
  Ir  Ir30  1  0.50033030  0.36094118  0.50596083  1
  Ir  Ir31  1  0.50031066  0.50587041  0.13325084  1
  Ir  Ir32  1  0.50033980  0.63915810  0.86678867  1
  Ir  Ir33  1  0.50033030  0.49403917  0.63905882  1
  Ir  Ir34  1  0.50031066  0.86674916  0.49412959  1
  Ir  Ir35  1  0.00917167  -0.00001755  0.00001755  1
