# generated using pymatgen
data_CsNd(PO3)4
_symmetry_space_group_name_H-M   'P 1'
_cell_length_a   13.33231946
_cell_length_b   13.33543863
_cell_length_c   13.33280771
_cell_angle_alpha   70.53027905
_cell_angle_beta   70.53303227
_cell_angle_gamma   109.46823776
_symmetry_Int_Tables_number   1
_chemical_formula_structural   CsNd(PO3)4
_chemical_formula_sum   'Cs6 Nd6 P24 O72'
_cell_volume   1824.98606522
_cell_formula_units_Z   6
loop_
 _symmetry_equiv_pos_site_id
 _symmetry_equiv_pos_as_xyz
  1  'x, y, z'
loop_
 _atom_site_type_symbol
 _atom_site_label
 _atom_site_symmetry_multiplicity
 _atom_site_fract_x
 _atom_site_fract_y
 _atom_site_fract_z
 _atom_site_occupancy
  Cs  Cs0  1  0.49925914  0.76373766  0.99943832  1
  Cs  Cs1  1  0.26369507  0.50043196  0.50091700  1
  Cs  Cs2  1  0.00074040  0.99928977  0.73613365  1
  Cs  Cs3  1  0.73552148  0.23626234  0.26317598  1
  Cs  Cs4  1  0.76326311  0.49956804  0.50134896  1
  Cs  Cs5  1  0.00145063  0.00071023  0.23542342  1
  Nd  Nd6  1  0.37577854  0.24878317  0.37225693  1
  Nd  Nd7  1  0.12699537  0.75121683  0.12104010  1
  Nd  Nd8  1  0.87514937  0.62288571  0.75195542  1
  Nd  Nd9  1  0.62389605  0.87523555  0.25086990  1
  Nd  Nd10  1  0.74866050  0.12476445  0.62610544  1
  Nd  Nd11  1  0.25226366  0.37711429  0.87484113  1
  P  P12  1  0.50487414  0.17728918  0.58079405  1
  P  P13  1  0.24328248  0.32243320  0.17153348  1
  P  P14  1  0.99490913  0.41466828  0.32680909  1
  P  P15  1  0.25933363  0.08638906  0.92025627  1
  P  P16  1  0.32758496  0.82271082  0.25808323  1
  P  P17  1  0.92084927  0.67756680  0.99396668  1
  P  P18  1  0.58024085  0.58533172  0.24147738  1
  P  P19  1  0.17294458  0.91361094  0.50664533  1
  P  P20  1  0.67244745  0.49386580  0.08486547  1
  P  P21  1  0.08040898  0.75878315  0.41429126  1
  P  P22  1  0.41979091  0.00620666  0.32151714  1
  P  P23  1  0.82771948  0.74198167  0.17733660  1
  P  P24  1  0.49367066  0.67223667  0.58643464  1
  P  P25  1  0.75800631  0.08076376  0.91432431  1
  P  P26  1  0.00637040  0.42114861  0.82138328  1
  P  P27  1  0.74137257  0.82672358  0.67832672  1
  P  P28  1  0.82143399  0.32776333  0.75867131  1
  P  P29  1  0.67724254  0.91923624  0.49508807  1
  P  P30  1  0.58522179  0.57885139  0.74253189  1
  P  P31  1  0.91464899  0.17327642  0.00505030  1
  P  P32  1  0.17858166  0.50613420  0.07873127  1
  P  P33  1  0.32162583  0.24121685  0.67307440  1
  P  P34  1  0.41358425  0.99379334  0.82772379  1
  P  P35  1  0.08573780  0.25801833  0.41931828  1
  O  O36  1  0.46015754  0.26210072  0.62696369  1
  O  O37  1  0.11066462  0.23812393  0.30185856  1
  O  O38  1  0.04002570  0.41284401  0.19797520  1
  O  O39  1  0.38930183  0.08739815  0.87185039  1
  O  O40  1  0.19805683  0.73789928  0.38906441  1
  O  O41  1  0.87254068  0.76187607  0.03998249  1
  O  O42  1  0.62718169  0.58715599  0.11081921  1
  O  O43  1  0.30190367  0.91260185  0.45924854  1
  O  O44  1  0.80186605  0.54004296  0.08747481  1
  O  O45  1  0.12770382  0.88934348  0.41252880  1
  O  O46  1  0.37262719  0.95969937  0.23835118  1
  O  O47  1  0.69797230  0.61086146  0.26204971  1
  O  O48  1  0.54041358  0.80197475  0.58711468  1
  O  O49  1  0.88908080  0.12693736  0.91291099  1
  O  O50  1  0.95973261  0.37195990  0.73851302  1
  O  O51  1  0.61083564  0.69802819  0.76196392  1
  O  O52  1  0.73843883  0.19802525  0.88908943  1
  O  O53  1  0.76214344  0.87306264  0.53984834  1
  O  O54  1  0.58777271  0.62804010  0.61047291  1
  O  O55  1  0.91280745  0.30197181  0.95999210  1
  O  O56  1  0.26182309  0.45995704  0.12751777  1
  O  O57  1  0.23836034  0.11065652  0.80187228  1
  O  O58  1  0.41292782  0.04030063  0.69805055  1
  O  O59  1  0.08711084  0.38913854  0.37291117  1
  O  O60  1  0.48284682  0.18038880  0.47669446  1
  O  O61  1  0.34264793  0.32079870  0.19927078  1
  O  O62  1  0.01748051  0.54063614  0.30294769  1
  O  O63  1  0.15698454  0.95942721  0.02272518  1
  O  O64  1  0.30245803  0.81961120  0.15708325  1
  O  O65  1  0.02184923  0.67920130  0.02006948  1
  O  O66  1  0.47684437  0.45936386  0.34358383  1
  O  O67  1  0.19755733  0.04057279  0.48215239  1
  O  O68  1  0.69870873  0.51975250  0.95811205  1
  O  O69  1  0.97692933  0.65655787  0.54032431  1
  O  O70  1  0.52298641  0.98222207  0.31955145  1
  O  O71  1  0.80231394  0.84313251  0.17985888  1
  O  O72  1  0.51833529  0.69814004  0.45909720  1
  O  O73  1  0.65712273  0.97664186  0.04064201  1
  O  O74  1  0.98038570  0.52204350  0.82090535  1
  O  O75  1  0.84364350  0.80315827  0.67947747  1
  O  O76  1  0.82019525  0.30185996  0.65723724  1
  O  O77  1  0.68048087  0.02335814  0.51728387  1
  O  O78  1  0.45834220  0.47795650  0.84294885  1
  O  O79  1  0.04048523  0.19684173  0.98263574  1
  O  O80  1  0.17895623  0.48024750  0.97786454  1
  O  O81  1  0.32037146  0.34344213  0.69688217  1
  O  O82  1  0.54076434  0.01777793  0.80177352  1
  O  O83  1  0.95918143  0.15686749  0.52299139  1
  O  O84  1  0.63246154  0.22014803  0.56106002  1
  O  O85  1  0.21663303  0.27963357  0.08836682  1
  O  O86  1  0.86790542  0.30628073  0.41232596  1
  O  O87  1  0.27955576  0.19416428  0.93832924  1
  O  O88  1  0.41231350  0.77985197  0.28120806  1
  O  O89  1  0.93699946  0.72036643  0.86800039  1
  O  O90  1  0.56162469  0.69371927  0.21860669  1
  O  O91  1  0.08539148  0.80583572  0.63249353  1
  O  O92  1  0.58816712  0.36844248  0.19517705  1
  O  O93  1  0.06147058  0.78124111  0.30620729  1
  O  O94  1  0.43880862  0.13258866  0.28168256  1
  O  O95  1  0.91199601  0.71857646  0.22040909  1
  O  O96  1  0.36734600  0.58580269  0.69376493  1
  O  O97  1  0.78137332  0.06110240  0.80646053  1
  O  O98  1  0.13181896  0.43644487  0.78018284  1
  O  O99  1  0.71876594  0.91245583  0.71965425  1
  O  O100  1  0.78154330  0.41419731  0.77956762  1
  O  O101  1  0.72027092  0.93889760  0.36756293  1
  O  O102  1  0.69537409  0.56355513  0.71662771  1
  O  O103  1  0.80631012  0.08754417  0.13211008  1
  O  O104  1  0.21972464  0.63155752  0.06361953  1
  O  O105  1  0.28022948  0.21875889  0.58744839  1
  O  O106  1  0.30621996  0.86741134  0.91427122  1
  O  O107  1  0.19341955  0.28142354  0.43898555  1
