# generated using pymatgen
data_CsSiSbO5
_symmetry_space_group_name_H-M   'P 1'
_cell_length_a   7.29214681
_cell_length_b   7.29214681
_cell_length_c   19.94927854
_cell_angle_alpha   90.00000000
_cell_angle_beta   90.00000000
_cell_angle_gamma   89.98456188
_symmetry_Int_Tables_number   1
_chemical_formula_structural   CsSiSbO5
_chemical_formula_sum   'Cs8 Si8 Sb8 O40'
_cell_volume   1060.81092817
_cell_formula_units_Z   8
loop_
 _symmetry_equiv_pos_site_id
 _symmetry_equiv_pos_as_xyz
  1  'x, y, z'
loop_
 _atom_site_type_symbol
 _atom_site_label
 _atom_site_symmetry_multiplicity
 _atom_site_fract_x
 _atom_site_fract_y
 _atom_site_fract_z
 _atom_site_occupancy
  Cs  Cs0  1  0.49893189  0.00027826  0.13653687  1
  Cs  Cs1  1  0.99972174  0.50106811  0.63653687  1
  Cs  Cs2  1  0.49893189  0.00027826  0.86346313  1
  Cs  Cs3  1  0.99972174  0.50106811  0.36346313  1
  Cs  Cs4  1  0.50006760  0.49993240  0.75000000  1
  Cs  Cs5  1  0.50006760  0.49993240  0.25000000  1
  Cs  Cs6  1  0.02729976  0.02475921  0.50000000  1
  Cs  Cs7  1  0.97524079  0.97270024  0.00000000  1
  Si  Si8  1  0.50035554  0.27534496  0.58065075  1
  Si  Si9  1  0.50025137  0.72516474  0.58060338  1
  Si  Si10  1  0.72465504  0.49964446  0.08065075  1
  Si  Si11  1  0.27483526  0.49974863  0.08060338  1
  Si  Si12  1  0.50035554  0.27534496  0.41934925  1
  Si  Si13  1  0.50025137  0.72516474  0.41939662  1
  Si  Si14  1  0.27483526  0.49974863  0.91939662  1
  Si  Si15  1  0.72465504  0.49964446  0.91934925  1
  Sb  Sb16  1  0.24840198  0.99989374  0.68421083  1
  Sb  Sb17  1  0.75189926  0.99991891  0.68396403  1
  Sb  Sb18  1  0.00008109  0.24810074  0.18396403  1
  Sb  Sb19  1  0.00010626  0.75159802  0.18421083  1
  Sb  Sb20  1  0.75189926  0.99991891  0.31603597  1
  Sb  Sb21  1  0.24840198  0.99989374  0.31578917  1
  Sb  Sb22  1  0.00008109  0.24810074  0.81603597  1
  Sb  Sb23  1  0.00010626  0.75159802  0.81578917  1
  O  O24  1  0.31152679  0.19585530  0.61403403  1
  O  O25  1  0.68845245  0.80390140  0.61440789  1
  O  O26  1  0.80384895  0.31124334  0.11420147  1
  O  O27  1  0.19545923  0.68850649  0.11408958  1
  O  O28  1  0.68875666  0.19615105  0.38579853  1
  O  O29  1  0.31149351  0.80454077  0.38591042  1
  O  O30  1  0.19609860  0.31154755  0.88559211  1
  O  O31  1  0.80414470  0.68847321  0.88596597  1
  O  O32  1  0.68845245  0.80390140  0.38559211  1
  O  O33  1  0.31152679  0.19585530  0.38596597  1
  O  O34  1  0.19545923  0.68850649  0.88591042  1
  O  O35  1  0.80384895  0.31124334  0.88579853  1
  O  O36  1  0.31149351  0.80454077  0.61408958  1
  O  O37  1  0.68875666  0.19615105  0.61420147  1
  O  O38  1  0.80414470  0.68847321  0.11403403  1
  O  O39  1  0.19609860  0.31154755  0.11440789  1
  O  O40  1  0.50013925  0.00023243  0.71883111  1
  O  O41  1  0.99976757  0.49986075  0.21883111  1
  O  O42  1  0.50013925  0.00023243  0.28116889  1
  O  O43  1  0.99976757  0.49986075  0.78116889  1
  O  O44  1  0.49884204  0.23336207  0.50000000  1
  O  O45  1  0.49923068  0.76678206  0.50000000  1
  O  O46  1  0.76663793  0.50115796  0.00000000  1
  O  O47  1  0.23321794  0.50076932  0.00000000  1
  O  O48  1  0.49999293  0.50014418  0.59042730  1
  O  O49  1  0.49985582  0.50000707  0.09042730  1
  O  O50  1  0.49999293  0.50014418  0.40957270  1
  O  O51  1  0.49985582  0.50000707  0.90957270  1
  O  O52  1  0.19940368  0.19929973  0.75001957  1
  O  O53  1  0.80070027  0.80059632  0.74998043  1
  O  O54  1  0.80087891  0.19912109  0.25000000  1
  O  O55  1  0.19961209  0.80038791  0.25000000  1
  O  O56  1  0.80070027  0.80059632  0.25001957  1
  O  O57  1  0.19940368  0.19929973  0.24998043  1
  O  O58  1  0.19961209  0.80038791  0.75000000  1
  O  O59  1  0.80087891  0.19912109  0.75000000  1
  O  O60  1  0.00024821  0.99987122  0.64375089  1
  O  O61  1  0.00012878  0.99975179  0.14375089  1
  O  O62  1  0.00024821  0.99987122  0.35624911  1
  O  O63  1  0.00012878  0.99975179  0.85624911  1
