# generated using pymatgen
data_Cs3Ge2Sb3O13
_symmetry_space_group_name_H-M   'P 1'
_cell_length_a   7.42429501
_cell_length_b   7.41836258
_cell_length_c   16.90095320
_cell_angle_alpha   90.00000000
_cell_angle_beta   90.00000000
_cell_angle_gamma   59.97327600
_symmetry_Int_Tables_number   1
_chemical_formula_structural   Cs3Ge2Sb3O13
_chemical_formula_sum   'Cs6 Ge4 Sb6 O26'
_cell_volume   805.91287489
_cell_formula_units_Z   2
loop_
 _symmetry_equiv_pos_site_id
 _symmetry_equiv_pos_as_xyz
  1  'x, y, z'
loop_
 _atom_site_type_symbol
 _atom_site_label
 _atom_site_symmetry_multiplicity
 _atom_site_fract_x
 _atom_site_fract_y
 _atom_site_fract_z
 _atom_site_occupancy
  Cs  Cs0  1  0.00678000  0.98638936  0.61311071  1
  Cs  Cs1  1  0.99322000  0.01361064  0.38688929  1
  Cs  Cs2  1  0.99322000  0.01361064  0.11311071  1
  Cs  Cs3  1  0.00678000  0.98638936  0.88688929  1
  Cs  Cs4  1  0.66881444  0.66232188  0.75000000  1
  Cs  Cs5  1  0.33118556  0.33767812  0.25000000  1
  Ge  Ge6  1  0.33327882  0.33343276  0.64683029  1
  Ge  Ge7  1  0.66672118  0.66656724  0.35316971  1
  Ge  Ge8  1  0.66672118  0.66656724  0.14683029  1
  Ge  Ge9  1  0.33327882  0.33343276  0.85316971  1
  Sb  Sb10  1  0.50000000  -0.00000000  0.50000000  1
  Sb  Sb11  1  0.00000000  0.50000000  0.50000000  1
  Sb  Sb12  1  0.50000000  0.50000000  0.50000000  1
  Sb  Sb13  1  0.50000000  -0.00000000  0.00000000  1
  Sb  Sb14  1  0.00000000  0.50000000  0.00000000  1
  Sb  Sb15  1  0.50000000  0.50000000  0.00000000  1
  O  O16  1  0.46645975  0.06707532  0.61908189  1
  O  O17  1  0.06750634  0.46708067  0.61839082  1
  O  O18  1  0.46542309  0.46707078  0.61839279  1
  O  O19  1  0.53354025  0.93292468  0.38091811  1
  O  O20  1  0.93249366  0.53291933  0.38160918  1
  O  O21  1  0.53457691  0.53292922  0.38160721  1
  O  O22  1  0.53354025  0.93292468  0.11908189  1
  O  O23  1  0.93249366  0.53291933  0.11839082  1
  O  O24  1  0.53457691  0.53292922  0.11839279  1
  O  O25  1  0.46645975  0.06707532  0.88091811  1
  O  O26  1  0.06750634  0.46708067  0.88160918  1
  O  O27  1  0.46542309  0.46707078  0.88160721  1
  O  O28  1  0.32842053  0.34310586  0.75000000  1
  O  O29  1  0.67157947  0.65689414  0.25000000  1
  O  O30  1  0.20062994  0.59874009  0.47835172  1
  O  O31  1  0.59686604  0.20128066  0.47859487  1
  O  O32  1  0.20185905  0.20128599  0.47859345  1
  O  O33  1  0.79937006  0.40125991  0.52164828  1
  O  O34  1  0.40313396  0.79871934  0.52140513  1
  O  O35  1  0.79814095  0.79871401  0.52140655  1
  O  O36  1  0.79937006  0.40125991  0.97835172  1
  O  O37  1  0.40313396  0.79871934  0.97859487  1
  O  O38  1  0.79814095  0.79871401  0.97859345  1
  O  O39  1  0.20062994  0.59874009  0.02164828  1
  O  O40  1  0.59686604  0.20128066  0.02140513  1
  O  O41  1  0.20185905  0.20128599  0.02140655  1
