# generated using pymatgen
data_Cr4CdAgSe8
_symmetry_space_group_name_H-M   'P 1'
_cell_length_a   7.65316998
_cell_length_b   7.65316998
_cell_length_c   7.65316998
_cell_angle_alpha   90.00000000
_cell_angle_beta   60.00000000
_cell_angle_gamma   120.00000000
_symmetry_Int_Tables_number   1
_chemical_formula_structural   Cr4CdAgSe8
_chemical_formula_sum   'Cr4 Cd1 Ag1 Se8'
_cell_volume   316.96337310
_cell_formula_units_Z   1
loop_
 _symmetry_equiv_pos_site_id
 _symmetry_equiv_pos_as_xyz
  1  'x, y, z'
loop_
 _atom_site_type_symbol
 _atom_site_label
 _atom_site_symmetry_multiplicity
 _atom_site_fract_x
 _atom_site_fract_y
 _atom_site_fract_z
 _atom_site_occupancy
  Cr  Cr0  1  0.49683520  0.49525280  0.00158240  1
  Cr  Cr1  1  0.49683520  0.00158240  0.00158240  1
  Cr  Cr2  1  0.00316480  0.00158240  0.49525280  1
  Cr  Cr3  1  0.00316480  0.00158240  0.00158240  1
  Cd  Cd4  1  0.25000000  0.62500000  0.62500000  1
  Ag  Ag5  1  0.75000000  0.37500000  0.37500000  1
  Se  Se6  1  0.02881498  0.79322246  0.23559251  1
  Se  Se7  1  0.02881498  0.23559251  0.23559251  1
  Se  Se8  1  0.47118502  0.23559251  0.79322246  1
  Se  Se9  1  0.47118502  0.23559251  0.23559251  1
  Se  Se10  1  0.96858069  0.20287104  0.76570965  1
  Se  Se11  1  0.96858069  0.76570965  0.76570965  1
  Se  Se12  1  0.53141931  0.76570965  0.20287104  1
  Se  Se13  1  0.53141931  0.76570965  0.76570965  1
