# generated using pymatgen
data_CeB2Ru2Rh
_symmetry_space_group_name_H-M   'P 1'
_cell_length_a   3.00427805
_cell_length_b   5.51418423
_cell_length_c   5.51418430
_cell_angle_alpha   61.27680169
_cell_angle_beta   90.00000000
_cell_angle_gamma   90.00000000
_symmetry_Int_Tables_number   1
_chemical_formula_structural   CeB2Ru2Rh
_chemical_formula_sum   'Ce1 B2 Ru2 Rh1'
_cell_volume   80.10844955
_cell_formula_units_Z   1
loop_
 _symmetry_equiv_pos_site_id
 _symmetry_equiv_pos_as_xyz
  1  'x, y, z'
loop_
 _atom_site_type_symbol
 _atom_site_label
 _atom_site_symmetry_multiplicity
 _atom_site_fract_x
 _atom_site_fract_y
 _atom_site_fract_z
 _atom_site_occupancy
  Ce  Ce0  1  0.00000000  0.00001396  0.99998604  1
  B  B1  1  0.00000000  0.32825306  0.32832843  1
  B  B2  1  0.00000000  0.67167157  0.67174694  1
  Ru  Ru3  1  0.50000000  0.49997818  0.00002654  1
  Ru  Ru4  1  0.50000000  0.99997346  0.50002182  1
  Rh  Rh5  1  0.50000000  0.50000976  0.49999024  1
