# generated using pymatgen
data_Er6Al41Cr6
_symmetry_space_group_name_H-M   'P 1'
_cell_length_a   10.84554823
_cell_length_b   10.84631841
_cell_length_c   17.42144836
_cell_angle_alpha   89.99743532
_cell_angle_beta   89.99593187
_cell_angle_gamma   60.00234586
_symmetry_Int_Tables_number   1
_chemical_formula_structural   Er6Al41Cr6
_chemical_formula_sum   'Er12 Al82 Cr12'
_cell_volume   1774.83920726
_cell_formula_units_Z   2
loop_
 _symmetry_equiv_pos_site_id
 _symmetry_equiv_pos_as_xyz
  1  'x, y, z'
loop_
 _atom_site_type_symbol
 _atom_site_label
 _atom_site_symmetry_multiplicity
 _atom_site_fract_x
 _atom_site_fract_y
 _atom_site_fract_z
 _atom_site_occupancy
  Er  Er0  1  0.46718942  0.00001043  0.59764377  1
  Er  Er1  1  -0.00001682  0.53282434  0.59761637  1
  Er  Er2  1  0.53273259  0.46726790  0.59757964  1
  Er  Er3  1  0.53281058  -0.00001043  0.40235623  1
  Er  Er4  1  0.00001682  0.46717566  0.40238363  1
  Er  Er5  1  0.46726741  0.53273210  0.40242036  1
  Er  Er6  1  0.53544342  0.99995473  0.09570379  1
  Er  Er7  1  0.00003168  0.46453358  0.09561407  1
  Er  Er8  1  0.46463055  0.53541968  0.09563902  1
  Er  Er9  1  0.46455658  0.00004527  0.90429621  1
  Er  Er10  1  -0.00003168  0.53546642  0.90438593  1
  Er  Er11  1  0.53536945  0.46458032  0.90436098  1
  Al  Al12  1  0.25085002  -0.00000035  0.02844571  1
  Al  Al13  1  0.00001852  0.74913575  0.02842407  1
  Al  Al14  1  0.74915866  0.25085830  0.02842251  1
  Al  Al15  1  0.74914998  0.00000035  0.97155429  1
  Al  Al16  1  0.99998148  0.25086425  0.97157593  1
  Al  Al17  1  0.25084134  0.74914170  0.97157749  1
  Al  Al18  1  0.74823821  0.99999930  0.53048960  1
  Al  Al19  1  0.99995885  0.25179658  0.53044100  1
  Al  Al20  1  0.25175379  0.74820542  0.53044208  1
  Al  Al21  1  0.25176179  0.00000070  0.46951040  1
  Al  Al22  1  0.00004115  0.74820342  0.46955900  1
  Al  Al23  1  0.74824621  0.25179458  0.46955792  1
  Al  Al24  1  0.84070697  0.39203345  0.66472906  1
  Al  Al25  1  0.39196113  0.76728168  0.66474069  1
  Al  Al26  1  0.76727272  0.84072267  0.66473946  1
  Al  Al27  1  0.23274083  0.60796817  0.66472896  1
  Al  Al28  1  0.15923717  0.23271851  0.66474007  1
  Al  Al29  1  0.60799959  0.15927225  0.66473954  1
  Al  Al30  1  0.15929303  0.60796655  0.33527094  1
  Al  Al31  1  0.60803887  0.23271832  0.33525931  1
  Al  Al32  1  0.23272728  0.15927733  0.33526054  1
  Al  Al33  1  0.76725917  0.39203183  0.33527104  1
  Al  Al34  1  0.84076283  0.76728149  0.33525993  1
  Al  Al35  1  0.39200041  0.84072775  0.33526046  1
  Al  Al36  1  0.16488330  0.60078856  0.16122882  1
  Al  Al37  1  0.60084093  0.23428105  0.16124657  1
  Al  Al38  1  0.23428899  0.16488449  0.16122892  1
  Al  Al39  1  0.76566155  0.39925817  0.16122230  1
  Al  Al40  1  0.83508905  0.76570448  0.16123694  1
  Al  Al41  1  0.39922400  0.83508027  0.16122064  1
  Al  Al42  1  0.83511670  0.39921144  0.83877118  1
  Al  Al43  1  0.39915907  0.76571895  0.83875343  1
  Al  Al44  1  0.76571101  0.83511551  0.83877108  1
  Al  Al45  1  0.23433845  0.60074183  0.83877770  1
  Al  Al46  1  0.16491095  0.23429552  0.83876306  1
  Al  Al47  1  0.60077600  0.16491973  0.83877936  1
  Al  Al48  1  0.85038675  -0.00000235  0.75137885  1
  Al  Al49  1  0.00027698  0.14943659  0.75136646  1
  Al  Al50  1  0.14971257  0.85056486  0.75136694  1
  Al  Al51  1  0.14961325  0.00000235  0.24862115  1
  Al  Al52  1  -0.00027698  0.85056341  0.24863354  1
  Al  Al53  1  0.85028743  0.14943514  0.24863306  1
  Al  Al54  1  0.60295359  0.54682480  0.75309644  1
  Al  Al55  1  0.54685691  0.85016178  0.75309912  1
  Al  Al56  1  0.85023467  0.60292552  0.75309793  1
  Al  Al57  1  0.14980856  0.45315800  0.75311768  1
  Al  Al58  1  0.39700246  0.14987430  0.75311827  1
  Al  Al59  1  0.45313714  0.39706032  0.75311496  1
  Al  Al60  1  0.39704641  0.45317520  0.24690356  1
  Al  Al61  1  0.45314309  0.14983822  0.24690088  1
  Al  Al62  1  0.14976533  0.39707448  0.24690207  1
  Al  Al63  1  0.85019144  0.54684200  0.24688232  1
  Al  Al64  1  0.60299754  0.85012570  0.24688173  1
  Al  Al65  1  0.54686286  0.60293968  0.24688504  1
  Al  Al66  1  0.75277847  0.49445005  0.50000019  1
  Al  Al67  1  0.49444783  0.75276305  0.50000297  1
  Al  Al68  1  0.75279347  0.75275851  0.49999871  1
  Al  Al69  1  0.24722153  0.50554995  0.49999981  1
  Al  Al70  1  0.24720653  0.24724149  0.50000129  1
  Al  Al71  1  0.50555217  0.24723695  0.49999703  1
  Al  Al72  1  0.25194517  0.49610545  -0.00001657  1
  Al  Al73  1  0.49610688  0.25194522  0.99997841  1
  Al  Al74  1  0.25194430  0.25194823  -0.00001621  1
  Al  Al75  1  0.74805483  0.50389455  0.00001657  1
  Al  Al76  1  0.74805570  0.74805177  0.00001621  1
  Al  Al77  1  0.50389312  0.74805478  0.00002159  1
  Al  Al78  1  0.15495571  0.99999989  0.61543372  1
  Al  Al79  1  0.99998746  0.84504857  0.61537924  1
  Al  Al80  1  0.84503760  0.15495380  0.61538326  1
  Al  Al81  1  0.84504429  0.00000011  0.38456628  1
  Al  Al82  1  0.00001254  0.15495143  0.38462076  1
  Al  Al83  1  0.15496240  0.84504620  0.38461674  1
  Al  Al84  1  0.84492431  -0.00000163  0.11594892  1
  Al  Al85  1  0.00000799  0.15504756  0.11588020  1
  Al  Al86  1  0.15505198  0.84495604  0.11588179  1
  Al  Al87  1  0.15507569  0.00000163  0.88405108  1
  Al  Al88  1  0.99999201  0.84495244  0.88411980  1
  Al  Al89  1  0.84494802  0.15504396  0.88411821  1
  Al  Al90  1  0.66670377  0.66663725  0.62687845  1
  Al  Al91  1  0.33333691  0.33336375  0.62687652  1
  Al  Al92  1  0.33329623  0.33336275  0.37312155  1
  Al  Al93  1  0.66666309  0.66663625  0.37312348  1
  Cr  Cr94  1  0.00000000  0.00000000  0.50000000  1
  Cr  Cr95  1  0.00000000  0.00000000  0.00000000  1
  Cr  Cr96  1  0.26178473  0.99999342  0.74853722  1
  Cr  Cr97  1  0.99995955  0.73801590  0.74858137  1
  Cr  Cr98  1  0.73790190  0.26205225  0.74863824  1
  Cr  Cr99  1  0.73821527  0.00000658  0.25146278  1
  Cr  Cr100  1  0.00004045  0.26198410  0.25141863  1
  Cr  Cr101  1  0.26209810  0.73794775  0.25136176  1
  Cr  Cr102  1  0.33328289  0.33338091  0.13430516  1
  Cr  Cr103  1  0.66666496  0.66663921  0.13438091  1
  Cr  Cr104  1  0.66671711  0.66661909  0.86569484  1
  Cr  Cr105  1  0.33333504  0.33336079  0.86561909  1
