# generated using pymatgen
data_Er4CoB13
_symmetry_space_group_name_H-M   'P 1'
_cell_length_a   7.27596534
_cell_length_b   7.27596534
_cell_length_c   6.84494828
_cell_angle_alpha   90.00000000
_cell_angle_beta   90.00000000
_cell_angle_gamma   90.00000000
_symmetry_Int_Tables_number   1
_chemical_formula_structural   Er4CoB13
_chemical_formula_sum   'Er8 Co2 B26'
_cell_volume   362.36931426
_cell_formula_units_Z   2
loop_
 _symmetry_equiv_pos_site_id
 _symmetry_equiv_pos_as_xyz
  1  'x, y, z'
loop_
 _atom_site_type_symbol
 _atom_site_label
 _atom_site_symmetry_multiplicity
 _atom_site_fract_x
 _atom_site_fract_y
 _atom_site_fract_z
 _atom_site_occupancy
  Er  Er0  1  0.18157949  0.68490262  0.50000000  1
  Er  Er1  1  0.81842051  0.31509738  0.50000000  1
  Er  Er2  1  0.31842051  0.18490262  0.00000000  1
  Er  Er3  1  0.68157949  0.81509738  -0.00000000  1
  Er  Er4  1  0.68490262  0.81842051  0.50000000  1
  Er  Er5  1  0.31509738  0.18157949  0.50000000  1
  Er  Er6  1  0.18490262  0.68157949  0.00000000  1
  Er  Er7  1  0.81509738  0.31842051  -0.00000000  1
  Co  Co8  1  0.50000000  0.50000000  0.50000000  1
  Co  Co9  1  0.00000000  -0.00000000  0.00000000  1
  B  B10  1  0.50000000  0.50000000  0.00000000  1
  B  B11  1  0.00000000  0.00000000  0.50000000  1
  B  B12  1  0.40936025  0.90936025  0.25000000  1
  B  B13  1  0.59063975  0.09063975  0.25000000  1
  B  B14  1  0.09063975  0.40936025  0.75000000  1
  B  B15  1  0.90936025  0.59063975  0.75000000  1
  B  B16  1  0.90936025  0.59063975  0.25000000  1
  B  B17  1  0.09063975  0.40936025  0.25000000  1
  B  B18  1  0.40936025  0.90936025  0.75000000  1
  B  B19  1  0.59063975  0.09063975  0.75000000  1
  B  B20  1  0.67031629  0.53911737  0.24593163  1
  B  B21  1  0.32968371  0.46088263  0.24593163  1
  B  B22  1  0.82968371  0.03911737  0.74593163  1
  B  B23  1  0.17031629  0.96088263  0.74593163  1
  B  B24  1  0.53911737  0.32968371  0.24593163  1
  B  B25  1  0.46088263  0.67031629  0.24593163  1
  B  B26  1  0.03911737  0.17031629  0.74593163  1
  B  B27  1  0.96088263  0.82968371  0.74593163  1
  B  B28  1  0.32968371  0.46088263  0.75406837  1
  B  B29  1  0.67031629  0.53911737  0.75406837  1
  B  B30  1  0.17031629  0.96088263  0.25406837  1
  B  B31  1  0.82968371  0.03911737  0.25406837  1
  B  B32  1  0.46088263  0.67031629  0.75406837  1
  B  B33  1  0.53911737  0.32968371  0.75406837  1
  B  B34  1  0.96088263  0.82968371  0.25406837  1
  B  B35  1  0.03911737  0.17031629  0.25406837  1
