# generated using pymatgen
data_Rb4PS3O16
_symmetry_space_group_name_H-M   'P 1'
_cell_length_a   7.50840389
_cell_length_b   7.92517099
_cell_length_c   14.87685241
_cell_angle_alpha   90.00000000
_cell_angle_beta   90.00000000
_cell_angle_gamma   90.00000000
_symmetry_Int_Tables_number   1
_chemical_formula_structural   Rb4PS3O16
_chemical_formula_sum   'Rb8 P2 S6 O32'
_cell_volume   885.25282564
_cell_formula_units_Z   2
loop_
 _symmetry_equiv_pos_site_id
 _symmetry_equiv_pos_as_xyz
  1  'x, y, z'
loop_
 _atom_site_type_symbol
 _atom_site_label
 _atom_site_symmetry_multiplicity
 _atom_site_fract_x
 _atom_site_fract_y
 _atom_site_fract_z
 _atom_site_occupancy
  Rb  Rb0  1  0.23165052  0.50000000  0.50000000  1
  Rb  Rb1  1  0.76834948  -0.00000000  -0.00000000  1
  Rb  Rb2  1  0.64425092  0.34408866  0.24185531  1
  Rb  Rb3  1  0.64425092  0.65591134  0.75814469  1
  Rb  Rb4  1  0.35574908  0.84408866  0.25814469  1
  Rb  Rb5  1  0.35574908  0.15591134  0.74185531  1
  Rb  Rb6  1  0.93559306  -0.00000000  0.50000000  1
  Rb  Rb7  1  0.06440694  0.50000000  0.00000000  1
  P  P8  1  0.73051083  0.50000000  0.50000000  1
  P  P9  1  0.26948917  0.00000000  -0.00000000  1
  S  S10  1  0.14644400  0.34462119  0.26161078  1
  S  S11  1  0.14644400  0.65537881  0.73838922  1
  S  S12  1  0.85355600  0.84462119  0.23838922  1
  S  S13  1  0.85355600  0.15537881  0.76161078  1
  S  S14  1  0.56068356  0.50000000  -0.00000000  1
  S  S15  1  0.43931644  0.00000000  0.50000000  1
  O  O16  1  0.26094647  0.48392727  0.29654995  1
  O  O17  1  0.26094647  0.51607273  0.70345005  1
  O  O18  1  0.73905353  0.98392727  0.20345005  1
  O  O19  1  0.73905353  0.01607273  0.79654995  1
  O  O20  1  0.04561736  0.26963020  0.33794571  1
  O  O21  1  0.04561736  0.73036980  0.66205429  1
  O  O22  1  0.95438264  0.76963020  0.16205429  1
  O  O23  1  0.95438264  0.23036980  0.83794571  1
  O  O24  1  0.02345546  0.41136915  0.19198100  1
  O  O25  1  0.02345546  0.58863085  0.80801900  1
  O  O26  1  0.97654454  0.91136915  0.30801900  1
  O  O27  1  0.97654454  0.08863085  0.69198100  1
  O  O28  1  0.26101171  0.21219572  0.21948662  1
  O  O29  1  0.26101171  0.78780428  0.78051338  1
  O  O30  1  0.73898829  0.71219572  0.28051338  1
  O  O31  1  0.73898829  0.28780428  0.71948662  1
  O  O32  1  0.32502488  0.13743439  0.53694537  1
  O  O33  1  0.32502488  0.86256561  0.46305463  1
  O  O34  1  0.67497512  0.63743439  0.96305463  1
  O  O35  1  0.67497512  0.36256561  0.03694537  1
  O  O36  1  0.44881673  0.56352489  0.07549214  1
  O  O37  1  0.44881673  0.43647511  0.92450786  1
  O  O38  1  0.55118327  0.06352489  0.42450786  1
  O  O39  1  0.55118327  0.93647511  0.57549214  1
  O  O40  1  0.85824295  0.37194722  0.54448717  1
  O  O41  1  0.85824295  0.62805278  0.45551283  1
  O  O42  1  0.14175705  0.87194722  0.95551283  1
  O  O43  1  0.14175705  0.12805278  0.04448717  1
  O  O44  1  0.60596468  0.41513954  0.43136007  1
  O  O45  1  0.60596468  0.58486046  0.56863993  1
  O  O46  1  0.39403532  0.91513954  0.06863993  1
  O  O47  1  0.39403532  0.08486046  0.93136007  1
