# generated using pymatgen
data_Ca4Al6CrO16
_symmetry_space_group_name_H-M   'P 1'
_cell_length_a   8.09639266
_cell_length_b   8.09639266
_cell_length_c   8.09639266
_cell_angle_alpha   70.15094978
_cell_angle_beta   71.28182425
_cell_angle_gamma   109.84905022
_symmetry_Int_Tables_number   1
_chemical_formula_structural   Ca4Al6CrO16
_chemical_formula_sum   'Ca4 Al6 Cr1 O16'
_cell_volume   408.50428465
_cell_formula_units_Z   1
loop_
 _symmetry_equiv_pos_site_id
 _symmetry_equiv_pos_as_xyz
  1  'x, y, z'
loop_
 _atom_site_type_symbol
 _atom_site_label
 _atom_site_symmetry_multiplicity
 _atom_site_fract_x
 _atom_site_fract_y
 _atom_site_fract_z
 _atom_site_occupancy
  Ca  Ca0  1  0.56086143  0.57298697  0.42057513  1
  Ca  Ca1  1  0.42057513  0.98143657  0.00643790  1
  Ca  Ca2  1  0.00643790  0.42701303  0.01212554  1
  Ca  Ca3  1  0.01212554  0.01856343  0.56086143  1
  Al  Al4  1  0.24537109  0.74427010  0.50826788  1
  Al  Al5  1  0.75000000  0.50000000  0.75000000  1
  Al  Al6  1  0.49889901  0.24636102  0.24537109  1
  Al  Al7  1  0.25000000  0.50000000  0.25000000  1
  Al  Al8  1  0.74746202  0.25572990  0.49889901  1
  Al  Al9  1  0.50826788  0.75363898  0.74746202  1
  Cr  Cr10  1  -0.00000000  -0.00000000  -0.00000000  1
  O  O11  1  0.69123801  0.40848804  0.59430770  1
  O  O12  1  0.39752579  0.39479855  0.29978035  1
  O  O13  1  0.40228675  0.69274087  0.60215160  1
  O  O14  1  0.29978035  0.69730614  0.30542110  1
  O  O15  1  0.59430770  0.28554572  0.99720426  1
  O  O16  1  0.60215160  0.00443836  0.70510753  1
  O  O17  1  0.99720426  0.59151196  0.71725002  1
  O  O18  1  0.30542110  0.60520145  0.99727276  1
  O  O19  1  0.70510753  0.30725913  0.29045412  1
  O  O20  1  0.99727276  0.30269386  0.39752579  1
  O  O21  1  0.71725002  0.71445428  0.69123801  1
  O  O22  1  0.29045412  0.99556164  0.40228675  1
  O  O23  1  0.75196195  0.86162408  0.09374719  1
  O  O24  1  0.09374719  0.84570914  0.04462873  1
  O  O25  1  0.04462873  0.13837592  0.10966213  1
  O  O26  1  0.10966213  0.15429086  0.75196195  1
