# generated using pymatgen
data_BaCdSn
_symmetry_space_group_name_H-M   'P 1'
_cell_length_a   5.27906778
_cell_length_b   6.66333138
_cell_length_c   6.66146525
_cell_angle_alpha   97.76549195
_cell_angle_beta   113.34328873
_cell_angle_gamma   66.66363607
_symmetry_Int_Tables_number   1
_chemical_formula_structural   BaCdSn
_chemical_formula_sum   'Ba2 Cd2 Sn2'
_cell_volume   197.47855496
_cell_formula_units_Z   2
loop_
 _symmetry_equiv_pos_site_id
 _symmetry_equiv_pos_as_xyz
  1  'x, y, z'
loop_
 _atom_site_type_symbol
 _atom_site_label
 _atom_site_symmetry_multiplicity
 _atom_site_fract_x
 _atom_site_fract_y
 _atom_site_fract_z
 _atom_site_occupancy
  Ba  Ba0  1  0.74977369  0.70718309  0.20673048  1
  Ba  Ba1  1  0.25022631  0.29281691  0.79326952  1
  Cd  Cd2  1  0.56230268  0.27738241  0.40198778  1
  Cd  Cd3  1  0.43769732  0.72261759  0.59801222  1
  Sn  Sn4  1  0.05882262  0.10192716  0.21957240  1
  Sn  Sn5  1  0.94117738  0.89807284  0.78042760  1
