# generated using pymatgen
data_Ca2Zn3Ga
_symmetry_space_group_name_H-M   'P 1'
_cell_length_a   4.55068810
_cell_length_b   5.78596363
_cell_length_c   5.83305146
_cell_angle_alpha   96.50314214
_cell_angle_beta   112.95934224
_cell_angle_gamma   66.84297516
_symmetry_Int_Tables_number   1
_chemical_formula_structural   Ca2Zn3Ga
_chemical_formula_sum   'Ca2 Zn3 Ga1'
_cell_volume   129.87798552
_cell_formula_units_Z   1
loop_
 _symmetry_equiv_pos_site_id
 _symmetry_equiv_pos_as_xyz
  1  'x, y, z'
loop_
 _atom_site_type_symbol
 _atom_site_label
 _atom_site_symmetry_multiplicity
 _atom_site_fract_x
 _atom_site_fract_y
 _atom_site_fract_z
 _atom_site_occupancy
  Ca  Ca0  1  0.74959129  0.70615420  0.20533679  1
  Ca  Ca1  1  0.25137385  0.29216740  0.79491510  1
  Zn  Zn2  1  0.44816326  0.71624070  0.61256722  1
  Zn  Zn3  1  0.05243956  0.11301344  0.21789256  1
  Zn  Zn4  1  0.94298934  0.89226561  0.77824430  1
  Ga  Ga5  1  0.55544270  0.28015864  0.39104404  1
