# generated using pymatgen
data_CaYb3(InGe2)2
_symmetry_space_group_name_H-M   'P 1'
_cell_length_a   4.49861001
_cell_length_b   7.25763541
_cell_length_c   7.25763541
_cell_angle_alpha   89.79915318
_cell_angle_beta   90.00000000
_cell_angle_gamma   90.00000000
_symmetry_Int_Tables_number   1
_chemical_formula_structural   CaYb3(InGe2)2
_chemical_formula_sum   'Ca1 Yb3 In2 Ge4'
_cell_volume   236.95505152
_cell_formula_units_Z   1
loop_
 _symmetry_equiv_pos_site_id
 _symmetry_equiv_pos_as_xyz
  1  'x, y, z'
loop_
 _atom_site_type_symbol
 _atom_site_label
 _atom_site_symmetry_multiplicity
 _atom_site_fract_x
 _atom_site_fract_y
 _atom_site_fract_z
 _atom_site_occupancy
  Ca  Ca0  1  0.00000000  0.17404052  0.67404052  1
  Yb  Yb1  1  0.00000000  0.82666978  0.32666978  1
  Yb  Yb2  1  0.00000000  0.32755228  0.17272840  1
  Yb  Yb3  1  0.00000000  0.67272840  0.82755228  1
  In  In4  1  0.50000000  0.50050806  0.49967576  1
  In  In5  1  0.50000000  0.99967576  0.00050806  1
  Ge  Ge6  1  0.50000000  0.62424398  0.12424398  1
  Ge  Ge7  1  0.50000000  0.37732606  0.87732606  1
  Ge  Ge8  1  0.50000000  0.87469866  0.62255651  1
  Ge  Ge9  1  0.50000000  0.12255651  0.37469866  1
