# generated using pymatgen
data_Be3Cu
_symmetry_space_group_name_H-M   'P 1'
_cell_length_a   4.16972617
_cell_length_b   4.16972616
_cell_length_c   7.21262262
_cell_angle_alpha   73.19846364
_cell_angle_beta   90.00000000
_cell_angle_gamma   120.00000006
_symmetry_Int_Tables_number   1
_chemical_formula_structural   Be3Cu
_chemical_formula_sum   'Be9 Cu3'
_cell_volume   102.37423991
_cell_formula_units_Z   3
loop_
 _symmetry_equiv_pos_site_id
 _symmetry_equiv_pos_as_xyz
  1  'x, y, z'
loop_
 _atom_site_type_symbol
 _atom_site_label
 _atom_site_symmetry_multiplicity
 _atom_site_fract_x
 _atom_site_fract_y
 _atom_site_fract_z
 _atom_site_occupancy
  Be  Be0  1  0.43720547  0.37405400  0.18874053  1
  Be  Be1  1  0.93789861  0.37598425  0.68611714  1
  Be  Be2  1  0.43720547  0.87441094  0.18874053  1
  Be  Be3  1  0.93789861  0.87579722  0.68611714  1
  Be  Be4  1  0.18756269  0.37512538  0.43731193  1
  Be  Be5  1  0.68739549  0.37479099  0.93781352  1
  Be  Be6  1  0.93684852  0.37405400  0.18874053  1
  Be  Be7  1  0.43808564  0.37598425  0.68611714  1
  Be  Be8  1  0.87507471  0.75014941  0.37477588  1
  Cu  Cu9  1  0.37519152  0.75038305  0.87442543  1
  Cu  Cu10  1  0.99729135  0.99458269  0.00812596  1
  Cu  Cu11  1  0.50234192  0.00468383  0.49297425  1
