# generated using pymatgen
data_Ca2AlP3Pt7
_symmetry_space_group_name_H-M   'P 1'
_cell_length_a   4.03782686
_cell_length_b   4.03782686
_cell_length_c   13.93705035
_cell_angle_alpha   81.67085974
_cell_angle_beta   81.67085974
_cell_angle_gamma   90.00000000
_symmetry_Int_Tables_number   1
_chemical_formula_structural   Ca2AlP3Pt7
_chemical_formula_sum   'Ca2 Al1 P3 Pt7'
_cell_volume   222.41093937
_cell_formula_units_Z   1
loop_
 _symmetry_equiv_pos_site_id
 _symmetry_equiv_pos_as_xyz
  1  'x, y, z'
loop_
 _atom_site_type_symbol
 _atom_site_label
 _atom_site_symmetry_multiplicity
 _atom_site_fract_x
 _atom_site_fract_y
 _atom_site_fract_z
 _atom_site_occupancy
  Ca  Ca0  1  0.33420276  0.33420276  0.33159448  1
  Ca  Ca1  1  0.66579724  0.66579724  0.66840552  1
  Al  Al2  1  0.50000000  0.50000000  0.00000000  1
  P  P3  1  0.12176753  0.12176753  0.75646494  1
  P  P4  1  0.87823247  0.87823247  0.24353506  1
  P  P5  1  0.75000000  0.25000000  0.50000000  1
  Pt  Pt6  1  0.57067809  0.07067809  0.85864382  1
  Pt  Pt7  1  0.07298074  0.57298074  0.85403852  1
  Pt  Pt8  1  0.42701926  0.92701926  0.14596148  1
  Pt  Pt9  1  0.92932191  0.42932191  0.14135618  1
  Pt  Pt10  1  0.20601083  0.20601083  0.58797834  1
  Pt  Pt11  1  0.79398917  0.79398917  0.41202166  1
  Pt  Pt12  1  -0.00000000  -0.00000000  0.00000000  1
