# generated using pymatgen
data_Ca5Si(PO6)2
_symmetry_space_group_name_H-M   'P 1'
_cell_length_a   6.79427306
_cell_length_b   10.19719667
_cell_length_c   15.56043073
_cell_angle_alpha   90.00000000
_cell_angle_beta   90.00000000
_cell_angle_gamma   90.00000000
_symmetry_Int_Tables_number   1
_chemical_formula_structural   Ca5Si(PO6)2
_chemical_formula_sum   'Ca20 Si4 P8 O48'
_cell_volume   1078.06614303
_cell_formula_units_Z   4
loop_
 _symmetry_equiv_pos_site_id
 _symmetry_equiv_pos_as_xyz
  1  'x, y, z'
loop_
 _atom_site_type_symbol
 _atom_site_label
 _atom_site_symmetry_multiplicity
 _atom_site_fract_x
 _atom_site_fract_y
 _atom_site_fract_z
 _atom_site_occupancy
  Ca  Ca0  1  0.46033298  0.68574126  0.74781715  1
  Ca  Ca1  1  0.96033298  0.81425874  0.75218285  1
  Ca  Ca2  1  0.53966702  0.31425874  0.24781715  1
  Ca  Ca3  1  0.03966702  0.18574126  0.25218285  1
  Ca  Ca4  1  0.13404422  0.56823550  0.90954017  1
  Ca  Ca5  1  0.63404422  0.93176450  0.59045983  1
  Ca  Ca6  1  0.86595578  0.43176450  0.40954017  1
  Ca  Ca7  1  0.36595578  0.06823550  0.09045983  1
  Ca  Ca8  1  0.86835354  0.43764411  0.09308533  1
  Ca  Ca9  1  0.36835354  0.06235589  0.40691467  1
  Ca  Ca10  1  0.13164646  0.56235589  0.59308533  1
  Ca  Ca11  1  0.63164646  0.93764411  0.90691467  1
  Ca  Ca12  1  0.32737780  0.66146518  0.10683913  1
  Ca  Ca13  1  0.82737780  0.83853482  0.39316087  1
  Ca  Ca14  1  0.67262220  0.33853482  0.60683913  1
  Ca  Ca15  1  0.17262220  0.16146518  0.89316087  1
  Ca  Ca16  1  0.66402336  0.33346844  0.89316460  1
  Ca  Ca17  1  0.16402336  0.16653156  0.60683540  1
  Ca  Ca18  1  0.33597664  0.66653156  0.39316460  1
  Ca  Ca19  1  0.83597664  0.83346844  0.10683540  1
  Si  Si20  1  0.14837552  0.86849535  0.92799053  1
  Si  Si21  1  0.64837552  0.63150465  0.57200947  1
  Si  Si22  1  0.85162448  0.13150465  0.42799053  1
  Si  Si23  1  0.35162448  0.36849535  0.07200947  1
  P  P24  1  0.47357685  0.07828288  0.74902931  1
  P  P25  1  0.97357685  0.42171712  0.75097069  1
  P  P26  1  0.52642315  0.92171712  0.24902931  1
  P  P27  1  0.02642315  0.57828288  0.25097069  1
  P  P28  1  0.85152766  0.13086742  0.07265214  1
  P  P29  1  0.35152766  0.36913258  0.42734786  1
  P  P30  1  0.14847234  0.86913258  0.57265214  1
  P  P31  1  0.64847234  0.63086742  0.92734786  1
  O  O32  1  0.96528629  0.95599625  0.88701471  1
  O  O33  1  0.46528629  0.54400375  0.61298529  1
  O  O34  1  0.03471371  0.04400375  0.38701471  1
  O  O35  1  0.53471371  0.45599625  0.11298529  1
  O  O36  1  0.02450210  0.04823584  0.10933184  1
  O  O37  1  0.52450210  0.45176416  0.39066816  1
  O  O38  1  0.97549790  0.95176416  0.60933184  1
  O  O39  1  0.47549790  0.54823584  0.89066816  1
  O  O40  1  0.54538748  0.14689500  0.83291592  1
  O  O41  1  0.04538748  0.35310500  0.66708408  1
  O  O42  1  0.45461252  0.85310500  0.33291592  1
  O  O43  1  0.95461252  0.64689500  0.16708408  1
  O  O44  1  0.45589609  0.85351833  0.16478400  1
  O  O45  1  0.95589609  0.64648167  0.33521600  1
  O  O46  1  0.54410391  0.14648167  0.66478400  1
  O  O47  1  0.04410391  0.35351833  0.83521600  1
  O  O48  1  0.24573777  0.07987881  0.74921346  1
  O  O49  1  0.74573777  0.42012119  0.75078654  1
  O  O50  1  0.75426223  0.92012119  0.24921346  1
  O  O51  1  0.25426223  0.57987881  0.25078654  1
  O  O52  1  0.31607023  0.97659291  0.95698132  1
  O  O53  1  0.81607023  0.52340709  0.54301868  1
  O  O54  1  0.68392977  0.02340709  0.45698132  1
  O  O55  1  0.18392977  0.47659291  0.04301868  1
  O  O56  1  0.69229027  0.02926603  0.04518153  1
  O  O57  1  0.19229027  0.47073397  0.45481847  1
  O  O58  1  0.30770973  0.97073397  0.54518153  1
  O  O59  1  0.80770973  0.52926603  0.95481847  1
  O  O60  1  0.09059906  0.77130490  0.00878205  1
  O  O61  1  0.59059906  0.72869510  0.49121795  1
  O  O62  1  0.90940094  0.22869510  0.50878205  1
  O  O63  1  0.40940094  0.27130490  0.99121795  1
  O  O64  1  0.90643711  0.22255565  0.99616381  1
  O  O65  1  0.40643711  0.27744435  0.50383619  1
  O  O66  1  0.09356289  0.77744435  0.49616381  1
  O  O67  1  0.59356289  0.72255565  0.00383619  1
  O  O68  1  0.56560983  0.93712709  0.75008571  1
  O  O69  1  0.06560983  0.56287291  0.74991429  1
  O  O70  1  0.43439017  0.06287291  0.25008571  1
  O  O71  1  0.93439017  0.43712709  0.24991429  1
  O  O72  1  0.22549073  0.77286116  0.84859396  1
  O  O73  1  0.72549073  0.72713884  0.65140604  1
  O  O74  1  0.77450927  0.22713884  0.34859396  1
  O  O75  1  0.27450927  0.27286116  0.15140604  1
  O  O76  1  0.77662540  0.22032058  0.14694065  1
  O  O77  1  0.27662540  0.27967942  0.35305935  1
  O  O78  1  0.22337460  0.77967942  0.64694065  1
  O  O79  1  0.72337460  0.72032058  0.85305935  1
