# generated using pymatgen
data_Ca2Pr4(Mo2O7)3
_symmetry_space_group_name_H-M   'P 1'
_cell_length_a   7.49269721
_cell_length_b   16.78552018
_cell_length_c   7.49269721
_cell_angle_alpha   77.13200747
_cell_angle_beta   90.12418839
_cell_angle_gamma   77.13200747
_symmetry_Int_Tables_number   1
_chemical_formula_structural   Ca2Pr4(Mo2O7)3
_chemical_formula_sum   'Ca4 Pr8 Mo12 O42'
_cell_volume   894.27990120
_cell_formula_units_Z   2
loop_
 _symmetry_equiv_pos_site_id
 _symmetry_equiv_pos_as_xyz
  1  'x, y, z'
loop_
 _atom_site_type_symbol
 _atom_site_label
 _atom_site_symmetry_multiplicity
 _atom_site_fract_x
 _atom_site_fract_y
 _atom_site_fract_z
 _atom_site_occupancy
  Ca  Ca0  1  0.17289672  0.16413978  0.16806972  1
  Ca  Ca1  1  0.50370250  0.50252722  0.99887550  1
  Ca  Ca2  1  0.49887550  0.00252722  0.00370250  1
  Ca  Ca3  1  0.66806972  0.66413978  0.67289672  1
  Pr  Pr4  1  0.50485301  0.50140821  0.50098029  1
  Pr  Pr5  1  0.82434813  0.83441948  0.83188792  1
  Pr  Pr6  1  0.82543462  0.83224652  0.33297441  1
  Pr  Pr7  1  0.17292822  0.16525879  0.66905550  1
  Pr  Pr8  1  0.83297441  0.33224652  0.32543462  1
  Pr  Pr9  1  0.16905550  0.66525879  0.67292822  1
  Pr  Pr10  1  0.00098029  0.00140821  0.00485301  1
  Pr  Pr11  1  0.33188792  0.33441948  0.32434813  1
  Mo  Mo12  1  0.66673757  0.16543896  0.66872772  1
  Mo  Mo13  1  0.99762347  0.50031072  0.00013904  1
  Mo  Mo14  1  0.33408977  0.83267244  0.33300632  1
  Mo  Mo15  1  0.66460119  0.16635628  0.16711676  1
  Mo  Mo16  1  0.99884252  0.50122804  0.50083268  1
  Mo  Mo17  1  0.33342922  0.83399356  0.83234576  1
  Mo  Mo18  1  0.33234576  0.33399356  0.83342922  1
  Mo  Mo19  1  0.66711676  0.66635628  0.16460119  1
  Mo  Mo20  1  0.00083268  0.00122804  0.49884252  1
  Mo  Mo21  1  0.83300632  0.33267244  0.83408977  1
  Mo  Mo22  1  0.16872772  0.66543896  0.16673757  1
  Mo  Mo23  1  0.50013904  0.00031072  0.49762347  1
  O  O24  1  0.21232018  0.08333300  0.96232018  1
  O  O25  1  0.54107290  0.41875383  0.28516438  1
  O  O26  1  0.87058422  0.74791317  0.62649273  1
  O  O27  1  0.46232018  0.58333300  0.71232018  1
  O  O28  1  0.78516438  0.91875383  0.04107290  1
  O  O29  1  0.12649273  0.24791317  0.37058422  1
  O  O30  1  0.98098043  0.55265222  0.71750238  1
  O  O31  1  0.30718075  0.88265431  0.05825104  1
  O  O32  1  0.63703913  0.22206776  0.39590821  1
  O  O33  1  0.10757235  0.28401169  0.85650206  1
  O  O34  1  0.43682159  0.61401478  0.20029965  1
  O  O35  1  0.78464197  0.94459924  0.52577289  1
  O  O36  1  0.24240669  0.41623347  0.99541652  1
  O  O37  1  0.57831599  0.75043353  0.32530616  1
  O  O38  1  0.90987178  0.08333300  0.65987178  1
  O  O39  1  0.83449529  0.41635168  0.59075660  1
  O  O40  1  0.17377428  0.75031532  0.91751297  1
  O  O41  1  0.50769931  0.08333300  0.25769931  1
  O  O42  1  0.24657463  0.41780665  0.58978442  1
  O  O43  1  0.57740592  0.75239310  0.92278381  1
  O  O44  1  0.90728086  0.07951284  0.25493161  1
  O  O45  1  0.84184391  0.41427390  0.99646602  1
  O  O46  1  0.17425707  0.74886035  0.33104728  1
  O  O47  1  0.50111145  0.08715316  0.65346069  1
  O  O48  1  0.70029965  0.11401478  0.93682159  1
  O  O49  1  0.02577289  0.44459924  0.28464197  1
  O  O50  1  0.35650206  0.78401169  0.60757235  1
  O  O51  1  0.55825104  0.38265431  0.80718075  1
  O  O52  1  0.89590821  0.72206776  0.13703913  1
  O  O53  1  0.21750238  0.05265222  0.48098043  1
  O  O54  1  0.41751297  0.25031532  0.67377428  1
  O  O55  1  0.75769931  0.58333300  0.00769931  1
  O  O56  1  0.09075660  0.91635168  0.33449529  1
  O  O57  1  0.82530616  0.25043353  0.07831599  1
  O  O58  1  0.15987178  0.58333300  0.40987178  1
  O  O59  1  0.49541652  0.91623347  0.74240669  1
  O  O60  1  0.42278381  0.25239310  0.07740592  1
  O  O61  1  0.75493161  0.57951284  0.40728086  1
  O  O62  1  0.08978442  0.91780665  0.74657463  1
  O  O63  1  0.83104728  0.24886035  0.67425707  1
  O  O64  1  0.15346069  0.58715316  0.00111145  1
  O  O65  1  0.49646602  0.91427390  0.34184391  1
