# generated using pymatgen
data_Ba3PrIrRuO9
_symmetry_space_group_name_H-M   'P 1'
_cell_length_a   6.03308814
_cell_length_b   6.03260404
_cell_length_c   15.00762023
_cell_angle_alpha   90.00000000
_cell_angle_beta   90.00000000
_cell_angle_gamma   60.00265430
_symmetry_Int_Tables_number   1
_chemical_formula_structural   Ba3PrIrRuO9
_chemical_formula_sum   'Ba6 Pr2 Ir2 Ru2 O18'
_cell_volume   473.04076552
_cell_formula_units_Z   2
loop_
 _symmetry_equiv_pos_site_id
 _symmetry_equiv_pos_as_xyz
  1  'x, y, z'
loop_
 _atom_site_type_symbol
 _atom_site_label
 _atom_site_symmetry_multiplicity
 _atom_site_fract_x
 _atom_site_fract_y
 _atom_site_fract_z
 _atom_site_occupancy
  Ba  Ba0  1  0.99999034  0.00000483  0.74968019  1
  Ba  Ba1  1  0.00000966  0.99999517  0.24968019  1
  Ba  Ba2  1  0.33336878  0.33331561  0.40065131  1
  Ba  Ba3  1  0.66664658  0.66667671  0.60029413  1
  Ba  Ba4  1  0.66663122  0.66668439  0.90065131  1
  Ba  Ba5  1  0.33335342  0.33332329  0.10029413  1
  Pr  Pr6  1  0.00001858  0.99999071  0.50104303  1
  Pr  Pr7  1  0.99998142  0.00000929  0.00104303  1
  Ir  Ir8  1  0.33334659  0.33332671  0.66696379  1
  Ir  Ir9  1  0.66665341  0.66667329  0.16696379  1
  Ru  Ru10  1  0.66666007  0.66666997  0.33442805  1
  Ru  Ru11  1  0.33333993  0.33333003  0.83442805  1
  O  O12  1  0.48992977  0.02020889  0.75076783  1
  O  O13  1  0.02019850  0.48990075  0.75075759  1
  O  O14  1  0.48992977  0.48986135  0.75076783  1
  O  O15  1  0.51007023  0.97979111  0.25076783  1
  O  O16  1  0.97980150  0.51009925  0.25075759  1
  O  O17  1  0.51007023  0.51013865  0.25076783  1
  O  O18  1  0.17964750  0.64066679  0.90779066  1
  O  O19  1  0.64076021  0.17961990  0.90779954  1
  O  O20  1  0.17964750  0.17968571  0.90779066  1
  O  O21  1  0.82087818  0.35821978  0.09042225  1
  O  O22  1  0.35821816  0.82089092  0.09042088  1
  O  O23  1  0.82087818  0.82090204  0.09042225  1
  O  O24  1  0.82035250  0.35933321  0.40779066  1
  O  O25  1  0.35923979  0.82038010  0.40779954  1
  O  O26  1  0.82035250  0.82031429  0.40779066  1
  O  O27  1  0.17912182  0.64178022  0.59042225  1
  O  O28  1  0.64178184  0.17910908  0.59042088  1
  O  O29  1  0.17912182  0.17909796  0.59042225  1
