# generated using pymatgen
data_BaAlSi5N7O2
_symmetry_space_group_name_H-M   'P 1'
_cell_length_a   4.93246218
_cell_length_b   6.88222051
_cell_length_c   6.84499709
_cell_angle_alpha   89.14855554
_cell_angle_beta   111.38958007
_cell_angle_gamma   69.54018424
_symmetry_Int_Tables_number   1
_chemical_formula_structural   BaAlSi5N7O2
_chemical_formula_sum   'Ba1 Al1 Si5 N7 O2'
_cell_volume   199.99271062
_cell_formula_units_Z   1
loop_
 _symmetry_equiv_pos_site_id
 _symmetry_equiv_pos_as_xyz
  1  'x, y, z'
loop_
 _atom_site_type_symbol
 _atom_site_label
 _atom_site_symmetry_multiplicity
 _atom_site_fract_x
 _atom_site_fract_y
 _atom_site_fract_z
 _atom_site_occupancy
  Ba  Ba0  1  0.78816717  0.00596602  0.98851040  1
  Al  Al1  1  0.64624591  0.85287241  0.46856586  1
  Si  Si2  1  0.34333816  0.66613785  0.66479133  1
  Si  Si3  1  0.35069479  0.34152363  0.34156199  1
  Si  Si4  1  0.03210538  0.14531689  0.53554732  1
  Si  Si5  1  0.04174726  0.46406510  0.85587139  1
  Si  Si6  1  0.65313168  0.52357713  0.14066209  1
  N  N7  1  0.31140671  0.90094651  0.54973767  1
  N  N8  1  0.67321938  0.11192585  0.44093708  1
  N  N9  1  0.68430000  0.55075222  0.89843092  1
  N  N10  1  0.33284471  0.45297611  0.10508939  1
  N  N11  1  0.01084244  0.67957626  0.69808335  1
  N  N12  1  0.00015073  0.31626001  0.31393163  1
  N  N13  1  0.14214913  0.22606445  0.77621563  1
  O  O14  1  0.42894909  0.50764223  0.49966571  1
  O  O15  1  0.60234747  0.75439734  0.22239824  1
