# generated using pymatgen
data_Ba2MnTeSe2
_symmetry_space_group_name_H-M   'P 1'
_cell_length_a   4.67105712
_cell_length_b   9.35654892
_cell_length_c   18.24983674
_cell_angle_alpha   90.00000000
_cell_angle_beta   90.00000000
_cell_angle_gamma   90.00000000
_symmetry_Int_Tables_number   1
_chemical_formula_structural   Ba2MnTeSe2
_chemical_formula_sum   'Ba8 Mn4 Te4 Se8'
_cell_volume   797.60864846
_cell_formula_units_Z   4
loop_
 _symmetry_equiv_pos_site_id
 _symmetry_equiv_pos_as_xyz
  1  'x, y, z'
loop_
 _atom_site_type_symbol
 _atom_site_label
 _atom_site_symmetry_multiplicity
 _atom_site_fract_x
 _atom_site_fract_y
 _atom_site_fract_z
 _atom_site_occupancy
  Ba  Ba0  1  0.75000000  0.22832601  0.95708285  1
  Ba  Ba1  1  0.75000000  0.72832601  0.54291715  1
  Ba  Ba2  1  0.25000000  0.77167399  0.04291715  1
  Ba  Ba3  1  0.25000000  0.27167399  0.45708285  1
  Ba  Ba4  1  0.75000000  0.08527543  0.21274805  1
  Ba  Ba5  1  0.75000000  0.58527543  0.28725195  1
  Ba  Ba6  1  0.25000000  0.91472457  0.78725195  1
  Ba  Ba7  1  0.25000000  0.41472457  0.71274805  1
  Mn  Mn8  1  0.75000000  0.13464418  0.63612299  1
  Mn  Mn9  1  0.75000000  0.63464418  0.86387701  1
  Mn  Mn10  1  0.25000000  0.86535582  0.36387701  1
  Mn  Mn11  1  0.25000000  0.36535582  0.13612299  1
  Te  Te12  1  0.75000000  0.50373042  0.09837372  1
  Te  Te13  1  0.75000000  0.00373042  0.40162628  1
  Te  Te14  1  0.25000000  0.49626958  0.90162628  1
  Te  Te15  1  0.25000000  0.99626958  0.59837372  1
  Se  Se16  1  0.75000000  0.37509437  0.57335657  1
  Se  Se17  1  0.75000000  0.87509437  0.92664343  1
  Se  Se18  1  0.25000000  0.62490563  0.42664343  1
  Se  Se19  1  0.25000000  0.12490563  0.07335657  1
  Se  Se20  1  0.75000000  0.17852031  0.77156647  1
  Se  Se21  1  0.75000000  0.67852031  0.72843353  1
  Se  Se22  1  0.25000000  0.82147969  0.22843353  1
  Se  Se23  1  0.25000000  0.32147969  0.27156647  1
