# generated using pymatgen
data_Al7Cr(Bi2O9)2
_symmetry_space_group_name_H-M   'P 1'
_cell_length_a   5.82335593
_cell_length_b   7.79995454
_cell_length_c   8.24344516
_cell_angle_alpha   90.12598161
_cell_angle_beta   90.00000000
_cell_angle_gamma   90.00000000
_symmetry_Int_Tables_number   1
_chemical_formula_structural   Al7Cr(Bi2O9)2
_chemical_formula_sum   'Al7 Cr1 Bi4 O18'
_cell_volume   374.43213184
_cell_formula_units_Z   1
loop_
 _symmetry_equiv_pos_site_id
 _symmetry_equiv_pos_as_xyz
  1  'x, y, z'
loop_
 _atom_site_type_symbol
 _atom_site_label
 _atom_site_symmetry_multiplicity
 _atom_site_fract_x
 _atom_site_fract_y
 _atom_site_fract_z
 _atom_site_occupancy
  Al  Al0  1  0.26243480  0.00000000  0.00000000  1
  Al  Al1  1  0.73860560  0.50000000  0.50000000  1
  Al  Al2  1  0.73822254  0.00000000  0.00000000  1
  Al  Al3  1  0.50207764  0.64966462  0.15953923  1
  Al  Al4  1  0.50207764  0.35033538  0.84046077  1
  Al  Al5  1  0.50178999  0.14564134  0.33727974  1
  Al  Al6  1  0.50178999  0.85435866  0.66272026  1
  Cr  Cr7  1  0.25806575  0.50000000  0.50000000  1
  Bi  Bi8  1  0.99735567  0.83082322  0.32998449  1
  Bi  Bi9  1  0.99735567  0.16917678  0.67001551  1
  Bi  Bi10  1  0.99843905  0.32772947  0.16752842  1
  Bi  Bi11  1  0.99843905  0.67227053  0.83247158  1
  O  O12  1  0.25016315  0.62888777  0.28530803  1
  O  O13  1  0.25016315  0.37111223  0.71469197  1
  O  O14  1  0.74825864  0.12256561  0.20582592  1
  O  O15  1  0.74825864  0.87743439  0.79417408  1
  O  O16  1  0.74793159  0.37375290  0.70868772  1
  O  O17  1  0.74793159  0.62624710  0.29131228  1
  O  O18  1  0.25259778  0.87500478  0.79245806  1
  O  O19  1  0.25259778  0.12499522  0.20754194  1
  O  O20  1  0.50243624  0.50000000  0.00000000  1
  O  O21  1  0.49950443  0.00000000  0.50000000  1
  O  O22  1  0.50067194  0.86257755  0.08536127  1
  O  O23  1  0.50067194  0.13742245  0.91463873  1
  O  O24  1  0.51223185  0.35909327  0.41070941  1
  O  O25  1  0.51223185  0.64090673  0.58929059  1
  O  O26  1  0.00003039  0.85734608  0.06505536  1
  O  O27  1  0.00003039  0.14265392  0.93494464  1
  O  O28  1  0.98881763  0.35204305  0.43333042  1
  O  O29  1  0.98881763  0.64795695  0.56666958  1
