# generated using pymatgen
data_Ba8Li13GaSb12
_symmetry_space_group_name_H-M   'P 1'
_cell_length_a   4.97554941
_cell_length_b   9.48724929
_cell_length_c   21.20573403
_cell_angle_alpha   83.27825122
_cell_angle_beta   90.00000000
_cell_angle_gamma   105.20200645
_symmetry_Int_Tables_number   1
_chemical_formula_structural   Ba8Li13GaSb12
_chemical_formula_sum   'Ba8 Li13 Ga1 Sb12'
_cell_volume   958.84171241
_cell_formula_units_Z   1
loop_
 _symmetry_equiv_pos_site_id
 _symmetry_equiv_pos_as_xyz
  1  'x, y, z'
loop_
 _atom_site_type_symbol
 _atom_site_label
 _atom_site_symmetry_multiplicity
 _atom_site_fract_x
 _atom_site_fract_y
 _atom_site_fract_z
 _atom_site_occupancy
  Ba  Ba0  1  0.88266486  0.76533073  0.04036107  1
  Ba  Ba1  1  0.38548034  0.77096168  0.54584071  1
  Ba  Ba2  1  0.61261588  0.22523077  0.45857810  1
  Ba  Ba3  1  0.11592934  0.23185768  0.95575902  1
  Ba  Ba4  1  0.43309025  0.86617951  0.33083918  1
  Ba  Ba5  1  0.93047666  0.86095431  0.82771248  1
  Ba  Ba6  1  0.07166111  0.14332323  0.16911630  1
  Ba  Ba7  1  0.56896353  0.13792806  0.67249490  1
  Li  Li8  1  0.11290751  0.22581502  0.34171625  1
  Li  Li9  1  0.61616364  0.23232728  0.84101768  1
  Li  Li10  1  0.38284581  0.76569163  0.15840901  1
  Li  Li11  1  0.88406971  0.76813942  0.65913814  1
  Li  Li12  1  0.81218295  0.62436591  0.45526267  1
  Li  Li13  1  0.30976986  0.61953973  0.95429256  1
  Li  Li14  1  0.69036340  0.38072681  0.04491605  1
  Li  Li15  1  0.18884985  0.37769970  0.54749611  1
  Li  Li16  1  0.24969708  0.49939417  0.24676166  1
  Li  Li17  1  0.75004473  0.50008945  0.75105216  1
  Li  Li18  1  0.25897600  0.51795200  0.82673202  1
  Li  Li19  1  0.74076161  0.48152323  0.17044330  1
  Li  Li20  1  0.24108508  0.48217017  0.67343829  1
  Ga  Ga21  1  0.75939493  0.51878985  0.32784897  1
  Sb  Sb22  1  0.25117420  0.50234939  0.40184962  1
  Sb  Sb23  1  0.75065114  0.50130328  0.90899062  1
  Sb  Sb24  1  0.24955039  0.49910177  0.09526403  1
  Sb  Sb25  1  0.74951233  0.49902565  0.58736356  1
  Sb  Sb26  1  0.97658535  0.95317069  0.43685317  1
  Sb  Sb27  1  0.47630236  0.95260472  0.93923149  1
  Sb  Sb28  1  0.52190492  0.04380984  0.06445018  1
  Sb  Sb29  1  0.02406852  0.04813704  0.56130588  1
  Sb  Sb30  1  0.62830537  0.25661173  0.27533275  1
  Sb  Sb31  1  0.12415662  0.24831424  0.77278631  1
  Sb  Sb32  1  0.87431063  0.74862025  0.23129360  1
  Sb  Sb33  1  0.37548003  0.75096106  0.72605715  1
