# generated using pymatgen
data_Ba3Er2MoO9
_symmetry_space_group_name_H-M   'P 1'
_cell_length_a   6.04959366
_cell_length_b   6.06493803
_cell_length_c   14.84257684
_cell_angle_alpha   89.75774637
_cell_angle_beta   90.00000000
_cell_angle_gamma   60.08365694
_symmetry_Int_Tables_number   1
_chemical_formula_structural   Ba3Er2MoO9
_chemical_formula_sum   'Ba6 Er4 Mo2 O18'
_cell_volume   472.01177097
_cell_formula_units_Z   2
loop_
 _symmetry_equiv_pos_site_id
 _symmetry_equiv_pos_as_xyz
  1  'x, y, z'
loop_
 _atom_site_type_symbol
 _atom_site_label
 _atom_site_symmetry_multiplicity
 _atom_site_fract_x
 _atom_site_fract_y
 _atom_site_fract_z
 _atom_site_occupancy
  Ba  Ba0  1  0.66540953  0.66650495  0.91247699  1
  Ba  Ba1  1  0.00239862  0.00000000  0.25000000  1
  Ba  Ba2  1  0.33191347  0.33349505  0.58752301  1
  Ba  Ba3  1  0.33459047  0.33349505  0.08752301  1
  Ba  Ba4  1  0.66808653  0.66650495  0.41247699  1
  Ba  Ba5  1  0.99760138  0.00000000  0.75000000  1
  Er  Er6  1  0.33351347  0.33350908  0.83278276  1
  Er  Er7  1  0.66648653  0.66649092  0.16721724  1
  Er  Er8  1  0.33297645  0.33350908  0.33278276  1
  Er  Er9  1  0.66702355  0.66649092  0.66721724  1
  Mo  Mo10  1  -0.00000000  0.00000000  0.50000000  1
  Mo  Mo11  1  -0.00000000  0.00000000  0.00000000  1
  O  O12  1  0.54141709  0.47936607  0.76037326  1
  O  O13  1  0.87979579  0.83002330  0.08329961  1
  O  O14  1  0.18612007  0.13669054  0.43347584  1
  O  O15  1  0.12020421  0.16997670  0.91670039  1
  O  O16  1  0.45858291  0.52063393  0.23962674  1
  O  O17  1  0.81387993  0.86330946  0.56652416  1
  O  O18  1  0.97921584  0.47936607  0.26037326  1
  O  O19  1  0.29018191  0.83002330  0.58329961  1
  O  O20  1  0.67718939  0.13669054  0.93347584  1
  O  O21  1  0.02078416  0.52063393  0.73962674  1
  O  O22  1  0.32281061  0.86330946  0.06652416  1
  O  O23  1  0.70981809  0.16997670  0.41670039  1
  O  O24  1  0.15300755  0.69306723  0.92485777  1
  O  O25  1  0.50114258  0.00000000  0.25000000  1
  O  O26  1  0.84607378  0.30693277  0.57514223  1
  O  O27  1  0.84699245  0.30693277  0.07514223  1
  O  O28  1  0.15392622  0.69306723  0.42485777  1
  O  O29  1  0.49885742  0.00000000  0.75000000  1
