# generated using pymatgen
data_Cs7(InAs2)3
_symmetry_space_group_name_H-M   'P 1'
_cell_length_a   8.89206655
_cell_length_b   9.87481670
_cell_length_c   15.07299429
_cell_angle_alpha   85.36745495
_cell_angle_beta   85.60890272
_cell_angle_gamma   87.32451258
_symmetry_Int_Tables_number   1
_chemical_formula_structural   Cs7(InAs2)3
_chemical_formula_sum   'Cs14 In6 As12'
_cell_volume   1314.23390784
_cell_formula_units_Z   2
loop_
 _symmetry_equiv_pos_site_id
 _symmetry_equiv_pos_as_xyz
  1  'x, y, z'
loop_
 _atom_site_type_symbol
 _atom_site_label
 _atom_site_symmetry_multiplicity
 _atom_site_fract_x
 _atom_site_fract_y
 _atom_site_fract_z
 _atom_site_occupancy
  Cs  Cs0  1  0.81388089  0.81510113  0.12910753  1
  Cs  Cs1  1  0.18611911  0.18489887  0.87089247  1
  Cs  Cs2  1  0.27659312  0.26165124  0.25022848  1
  Cs  Cs3  1  0.72340688  0.73834876  0.74977152  1
  Cs  Cs4  1  0.74476444  0.50234546  0.98120265  1
  Cs  Cs5  1  0.25523556  0.49765454  0.01879735  1
  Cs  Cs6  1  0.68961787  0.08470589  0.88351638  1
  Cs  Cs7  1  0.31038213  0.91529411  0.11648362  1
  Cs  Cs8  1  0.69128607  0.65613070  0.39395737  1
  Cs  Cs9  1  0.30871393  0.34386930  0.60604263  1
  Cs  Cs10  1  0.75665759  0.99157904  0.53226318  1
  Cs  Cs11  1  0.24334241  0.00842096  0.46773682  1
  Cs  Cs12  1  0.82586649  0.37217388  0.63697064  1
  Cs  Cs13  1  0.17413351  0.62782612  0.36302936  1
  In  In14  1  0.91484110  0.27249763  0.37748715  1
  In  In15  1  0.08515890  0.72750237  0.62251285  1
  In  In16  1  0.94255063  0.18289985  0.13190020  1
  In  In17  1  0.05744937  0.81710015  0.86809980  1
  In  In18  1  0.63528462  0.04403194  0.29653211  1
  In  In19  1  0.36471538  0.95596806  0.70346789  1
  As  As20  1  0.63930049  0.40100263  0.22679389  1
  As  As21  1  0.36069951  0.59899737  0.77320611  1
  As  As22  1  0.48646484  0.59986077  0.19178835  1
  As  As23  1  0.51353516  0.40013923  0.80821165  1
  As  As24  1  0.91075461  0.44787908  0.21250527  1
  As  As25  1  0.08924539  0.55212092  0.78749473  1
  As  As26  1  0.58941488  0.30137404  0.38486666  1
  As  As27  1  0.41058512  0.69862596  0.61513334  1
  As  As28  1  0.62098700  0.20793569  0.12508474  1
  As  As29  1  0.37901300  0.79206431  0.87491526  1
  As  As30  1  0.96049865  0.01012450  0.29831153  1
  As  As31  1  0.03950135  0.98987550  0.70168847  1
