# generated using pymatgen
data_Ba2PrNb(CuO4)2
_symmetry_space_group_name_H-M   'P 1'
_cell_length_a   5.65232330
_cell_length_b   5.65232330
_cell_length_c   12.89197525
_cell_angle_alpha   77.32406768
_cell_angle_beta   77.32406768
_cell_angle_gamma   89.94308336
_symmetry_Int_Tables_number   1
_chemical_formula_structural   Ba2PrNb(CuO4)2
_chemical_formula_sum   'Ba4 Pr2 Nb2 Cu4 O16'
_cell_volume   391.56802482
_cell_formula_units_Z   2
loop_
 _symmetry_equiv_pos_site_id
 _symmetry_equiv_pos_as_xyz
  1  'x, y, z'
loop_
 _atom_site_type_symbol
 _atom_site_label
 _atom_site_symmetry_multiplicity
 _atom_site_fract_x
 _atom_site_fract_y
 _atom_site_fract_z
 _atom_site_occupancy
  Ba  Ba0  1  0.59849571  0.09849571  0.80300858  1
  Ba  Ba1  1  0.09738133  0.59738133  0.80523734  1
  Ba  Ba2  1  0.40150429  0.90150429  0.19699142  1
  Ba  Ba3  1  0.90261867  0.40261867  0.19476266  1
  Pr  Pr4  1  0.75032363  0.25032363  0.49935274  1
  Pr  Pr5  1  0.24967637  0.74967637  0.50064726  1
  Nb  Nb6  1  0.50000000  0.50000000  -0.00000000  1
  Nb  Nb7  1  0.00000000  0.00000000  -0.00000000  1
  Cu  Cu8  1  0.67940099  0.67940099  0.64119802  1
  Cu  Cu9  1  0.17940099  0.17940099  0.64119802  1
  Cu  Cu10  1  0.32059901  0.32059901  0.35880198  1
  Cu  Cu11  1  0.82059901  0.82059901  0.35880198  1
  O  O12  1  0.79093234  0.29093234  1.00000000  1
  O  O13  1  0.20906766  0.70906766  0.00000000  1
  O  O14  1  0.70984430  0.79015570  -0.00000000  1
  O  O15  1  0.29015570  0.20984430  -0.00000000  1
  O  O16  1  0.58159590  0.58159590  0.83680820  1
  O  O17  1  0.08159590  0.08159590  0.83680820  1
  O  O18  1  0.41840410  0.41840410  0.16319180  1
  O  O19  1  0.91840410  0.91840410  0.16319180  1
  O  O20  1  0.93546720  0.43546720  0.62652734  1
  O  O21  1  0.43800546  0.93800546  0.62652734  1
  O  O22  1  0.93748478  0.93608048  0.62643474  1
  O  O23  1  0.43608048  0.43748478  0.62643474  1
  O  O24  1  0.06453280  0.56453280  0.37347266  1
  O  O25  1  0.56199454  0.06199454  0.37347266  1
  O  O26  1  0.06251522  0.06391952  0.37356526  1
  O  O27  1  0.56391952  0.56251522  0.37356526  1
