# generated using pymatgen
data_Mo2H37C12N3Cl8
_symmetry_space_group_name_H-M   'P 1'
_cell_length_a   9.90485394
_cell_length_b   12.05250639
_cell_length_c   25.22916573
_cell_angle_alpha   90.00000000
_cell_angle_beta   90.00000000
_cell_angle_gamma   90.00000000
_symmetry_Int_Tables_number   1
_chemical_formula_structural   Mo2H37C12N3Cl8
_chemical_formula_sum   'Mo8 H148 C48 N12 Cl32'
_cell_volume   3011.81530389
_cell_formula_units_Z   4
loop_
 _symmetry_equiv_pos_site_id
 _symmetry_equiv_pos_as_xyz
  1  'x, y, z'
loop_
 _atom_site_type_symbol
 _atom_site_label
 _atom_site_symmetry_multiplicity
 _atom_site_fract_x
 _atom_site_fract_y
 _atom_site_fract_z
 _atom_site_occupancy
  Mo  Mo0  1  0.25000000  0.27396586  0.60168372  1
  Mo  Mo1  1  0.25000000  0.22603414  0.10168372  1
  Mo  Mo2  1  0.75000000  0.72603414  0.39831628  1
  Mo  Mo3  1  0.75000000  0.77396586  0.89831628  1
  Mo  Mo4  1  0.25000000  0.19424480  0.68947289  1
  Mo  Mo5  1  0.25000000  0.30575520  0.18947289  1
  Mo  Mo6  1  0.75000000  0.80575520  0.31052711  1
  Mo  Mo7  1  0.75000000  0.69424480  0.81052711  1
  H  H8  1  0.25000000  0.13078840  0.62395232  1
  H  H9  1  0.25000000  0.36921160  0.12395232  1
  H  H10  1  0.75000000  0.86921160  0.37604768  1
  H  H11  1  0.75000000  0.63078840  0.87604768  1
  H  H12  1  0.25000000  0.47957259  0.99935258  1
  H  H13  1  0.25000000  0.02042741  0.49935258  1
  H  H14  1  0.75000000  0.52042741  0.00064742  1
  H  H15  1  0.75000000  0.97957259  0.50064742  1
  H  H16  1  0.34126673  0.60053356  0.97672588  1
  H  H17  1  0.15873327  0.89946644  0.47672588  1
  H  H18  1  0.84126673  0.39946644  0.02327412  1
  H  H19  1  0.65873327  0.10053356  0.52327412  1
  H  H20  1  0.65873327  0.39946644  0.02327412  1
  H  H21  1  0.84126673  0.10053356  0.52327412  1
  H  H22  1  0.15873327  0.60053356  0.97672588  1
  H  H23  1  0.34126673  0.89946644  0.47672588  1
  H  H24  1  0.25000000  0.56187942  0.83748098  1
  H  H25  1  0.25000000  0.93812058  0.33748098  1
  H  H26  1  0.75000000  0.43812058  0.16251902  1
  H  H27  1  0.75000000  0.06187942  0.66251902  1
  H  H28  1  0.34170600  0.64741322  0.88338109  1
  H  H29  1  0.15829400  0.85258678  0.38338109  1
  H  H30  1  0.84170600  0.35258678  0.11661891  1
  H  H31  1  0.65829400  0.14741322  0.61661891  1
  H  H32  1  0.65829400  0.35258678  0.11661891  1
  H  H33  1  0.84170600  0.14741322  0.61661891  1
  H  H34  1  0.15829400  0.64741322  0.88338109  1
  H  H35  1  0.34170600  0.85258678  0.38338109  1
  H  H36  1  0.37449494  0.37016007  0.93853204  1
  H  H37  1  0.12550506  0.12983993  0.43853204  1
  H  H38  1  0.87449494  0.62983993  0.06146796  1
  H  H39  1  0.62550506  0.87016007  0.56146796  1
  H  H40  1  0.62550506  0.62983993  0.06146796  1
  H  H41  1  0.87449494  0.87016007  0.56146796  1
  H  H42  1  0.12550506  0.37016007  0.93853204  1
  H  H43  1  0.37449494  0.12983993  0.43853204  1
  H  H44  1  0.36941577  0.40060664  0.86803736  1
  H  H45  1  0.13058423  0.09939336  0.36803736  1
  H  H46  1  0.86941577  0.59939336  0.13196264  1
  H  H47  1  0.63058423  0.90060664  0.63196264  1
  H  H48  1  0.63058423  0.59939336  0.13196264  1
  H  H49  1  0.86941577  0.90060664  0.63196264  1
  H  H50  1  0.13058423  0.40060664  0.86803736  1
  H  H51  1  0.36941577  0.09939336  0.36803736  1
  H  H52  1  0.46199625  0.48942118  0.91246343  1
  H  H53  1  0.03800375  0.01057882  0.41246343  1
  H  H54  1  0.96199625  0.51057882  0.08753657  1
  H  H55  1  0.53800375  0.98942118  0.58753657  1
  H  H56  1  0.53800375  0.51057882  0.08753657  1
  H  H57  1  0.96199625  0.98942118  0.58753657  1
  H  H58  1  0.03800375  0.48942118  0.91246343  1
  H  H59  1  0.46199625  0.01057882  0.41246343  1
  H  H60  1  0.25000000  0.09139607  0.83183108  1
  H  H61  1  0.25000000  0.40860393  0.33183108  1
  H  H62  1  0.75000000  0.90860393  0.16816892  1
  H  H63  1  0.75000000  0.59139607  0.66816892  1
  H  H64  1  0.34112870  0.96265571  0.83529241  1
  H  H65  1  0.15887130  0.53734429  0.33529241  1
  H  H66  1  0.84112870  0.03734429  0.16470759  1
  H  H67  1  0.65887130  0.46265571  0.66470759  1
  H  H68  1  0.65887130  0.03734429  0.16470759  1
  H  H69  1  0.84112870  0.46265571  0.66470759  1
  H  H70  1  0.15887130  0.96265571  0.83529241  1
  H  H71  1  0.34112870  0.53734429  0.33529241  1
  H  H72  1  0.25000000  0.90563376  0.97356365  1
  H  H73  1  0.25000000  0.59436624  0.47356365  1
  H  H74  1  0.75000000  0.09436624  0.02643635  1
  H  H75  1  0.75000000  0.40563376  0.52643635  1
  H  H76  1  0.15853726  0.85509053  0.91686822  1
  H  H77  1  0.34146274  0.64490947  0.41686822  1
  H  H78  1  0.65853726  0.14490947  0.08313178  1
  H  H79  1  0.84146274  0.35509053  0.58313178  1
  H  H80  1  0.84146274  0.14490947  0.08313178  1
  H  H81  1  0.65853726  0.35509053  0.58313178  1
  H  H82  1  0.34146274  0.85509053  0.91686822  1
  H  H83  1  0.15853726  0.64490947  0.41686822  1
  H  H84  1  0.37259062  0.15552068  0.90758801  1
  H  H85  1  0.12740938  0.34447932  0.40758801  1
  H  H86  1  0.87259062  0.84447932  0.09241199  1
  H  H87  1  0.62740938  0.65552068  0.59241199  1
  H  H88  1  0.62740938  0.84447932  0.09241199  1
  H  H89  1  0.87259062  0.65552068  0.59241199  1
  H  H90  1  0.12740938  0.15552068  0.90758801  1
  H  H91  1  0.37259062  0.34447932  0.40758801  1
  H  H92  1  0.36892939  0.08027896  0.96917290  1
  H  H93  1  0.13107061  0.41972104  0.46917290  1
  H  H94  1  0.86892939  0.91972104  0.03082710  1
  H  H95  1  0.63107061  0.58027896  0.53082710  1
  H  H96  1  0.63107061  0.91972104  0.03082710  1
  H  H97  1  0.86892939  0.58027896  0.53082710  1
  H  H98  1  0.13107061  0.08027896  0.96917290  1
  H  H99  1  0.36892939  0.41972104  0.46917290  1
  H  H100  1  0.46299834  0.02632853  0.91359708  1
  H  H101  1  0.03700166  0.47367147  0.41359708  1
  H  H102  1  0.96299834  0.97367147  0.08640292  1
  H  H103  1  0.53700166  0.52632853  0.58640292  1
  H  H104  1  0.53700166  0.97367147  0.08640292  1
  H  H105  1  0.96299834  0.52632853  0.58640292  1
  H  H106  1  0.03700166  0.02632853  0.91359708  1
  H  H107  1  0.46299834  0.47367147  0.41359708  1
  H  H108  1  0.25000000  0.85813176  0.74429380  1
  H  H109  1  0.25000000  0.64186824  0.24429380  1
  H  H110  1  0.75000000  0.14186824  0.25570620  1
  H  H111  1  0.75000000  0.35813176  0.75570620  1
  H  H112  1  0.34147152  0.74540734  0.77448442  1
  H  H113  1  0.15852848  0.75459266  0.27448442  1
  H  H114  1  0.84147152  0.25459266  0.22551558  1
  H  H115  1  0.65852848  0.24540734  0.72551558  1
  H  H116  1  0.65852848  0.25459266  0.22551558  1
  H  H117  1  0.84147152  0.24540734  0.72551558  1
  H  H118  1  0.15852848  0.74540734  0.77448442  1
  H  H119  1  0.34147152  0.75459266  0.27448442  1
  H  H120  1  0.25000000  0.54268441  0.67199610  1
  H  H121  1  0.25000000  0.95731559  0.17199610  1
  H  H122  1  0.75000000  0.45731559  0.32800390  1
  H  H123  1  0.75000000  0.04268441  0.82800390  1
  H  H124  1  0.34125328  0.56353700  0.73281081  1
  H  H125  1  0.15874672  0.93646300  0.23281081  1
  H  H126  1  0.84125328  0.43646300  0.26718919  1
  H  H127  1  0.65874672  0.06353700  0.76718919  1
  H  H128  1  0.65874672  0.43646300  0.26718919  1
  H  H129  1  0.84125328  0.06353700  0.76718919  1
  H  H130  1  0.15874672  0.56353700  0.73281081  1
  H  H131  1  0.34125328  0.93646300  0.23281081  1
  H  H132  1  0.37237205  0.82981089  0.66457361  1
  H  H133  1  0.12762795  0.67018911  0.16457361  1
  H  H134  1  0.87237205  0.17018911  0.33542639  1
  H  H135  1  0.62762795  0.32981089  0.83542639  1
  H  H136  1  0.62762795  0.17018911  0.33542639  1
  H  H137  1  0.87237205  0.32981089  0.83542639  1
  H  H138  1  0.12762795  0.82981089  0.66457361  1
  H  H139  1  0.37237205  0.67018911  0.16457361  1
  H  H140  1  0.46276560  0.71573695  0.69340115  1
  H  H141  1  0.03723440  0.78426305  0.19340115  1
  H  H142  1  0.96276560  0.28426305  0.30659885  1
  H  H143  1  0.53723440  0.21573695  0.80659885  1
  H  H144  1  0.53723440  0.28426305  0.30659885  1
  H  H145  1  0.96276560  0.21573695  0.80659885  1
  H  H146  1  0.03723440  0.71573695  0.69340115  1
  H  H147  1  0.46276560  0.78426305  0.19340115  1
  H  H148  1  0.37063827  0.69521535  0.63244645  1
  H  H149  1  0.12936173  0.80478465  0.13244645  1
  H  H150  1  0.87063827  0.30478465  0.36755355  1
  H  H151  1  0.62936173  0.19521535  0.86755355  1
  H  H152  1  0.62936173  0.30478465  0.36755355  1
  H  H153  1  0.87063827  0.19521535  0.86755355  1
  H  H154  1  0.12936173  0.69521535  0.63244645  1
  H  H155  1  0.37063827  0.80478465  0.13244645  1
  C  C156  1  0.25000000  0.54988130  0.97184955  1
  C  C157  1  0.25000000  0.95011870  0.47184955  1
  C  C158  1  0.75000000  0.45011870  0.02815045  1
  C  C159  1  0.75000000  0.04988130  0.52815045  1
  C  C160  1  0.25000000  0.59814522  0.87719751  1
  C  C161  1  0.25000000  0.90185478  0.37719751  1
  C  C162  1  0.75000000  0.40185478  0.12280249  1
  C  C163  1  0.75000000  0.09814522  0.62280249  1
  C  C164  1  0.37380460  0.43538758  0.90820338  1
  C  C165  1  0.12619540  0.06461242  0.40820338  1
  C  C166  1  0.87380460  0.56461242  0.09179662  1
  C  C167  1  0.62619540  0.93538758  0.59179662  1
  C  C168  1  0.62619540  0.56461242  0.09179662  1
  C  C169  1  0.87380460  0.93538758  0.59179662  1
  C  C170  1  0.12619540  0.43538758  0.90820338  1
  C  C171  1  0.37380460  0.06461242  0.40820338  1
  C  C172  1  0.25000000  0.00690928  0.84795165  1
  C  C173  1  0.25000000  0.49309072  0.34795165  1
  C  C174  1  0.75000000  0.99309072  0.15204835  1
  C  C175  1  0.75000000  0.50690928  0.65204835  1
  C  C176  1  0.25000000  0.89783725  0.93032098  1
  C  C177  1  0.25000000  0.60216275  0.43032098  1
  C  C178  1  0.75000000  0.10216275  0.06967902  1
  C  C179  1  0.75000000  0.39783725  0.56967902  1
  C  C180  1  0.37342650  0.07311652  0.92586094  1
  C  C181  1  0.12657350  0.42688348  0.42586094  1
  C  C182  1  0.87342650  0.92688348  0.07413906  1
  C  C183  1  0.62657350  0.57311652  0.57413906  1
  C  C184  1  0.62657350  0.92688348  0.07413906  1
  C  C185  1  0.87342650  0.57311652  0.57413906  1
  C  C186  1  0.12657350  0.07311652  0.92586094  1
  C  C187  1  0.37342650  0.42688348  0.42586094  1
  C  C188  1  0.25000000  0.76878280  0.75277977  1
  C  C189  1  0.25000000  0.73121720  0.25277977  1
  C  C190  1  0.75000000  0.23121720  0.24722023  1
  C  C191  1  0.75000000  0.26878280  0.74722023  1
  C  C192  1  0.25000000  0.58487592  0.71051897  1
  C  C193  1  0.25000000  0.91512408  0.21051897  1
  C  C194  1  0.75000000  0.41512408  0.28948103  1
  C  C195  1  0.75000000  0.08487592  0.78948103  1
  C  C196  1  0.37356560  0.73950643  0.67035660  1
  C  C197  1  0.12643440  0.76049357  0.17035660  1
  C  C198  1  0.87356560  0.26049357  0.32964340  1
  C  C199  1  0.62643440  0.23950643  0.82964340  1
  C  C200  1  0.62643440  0.26049357  0.32964340  1
  C  C201  1  0.87356560  0.23950643  0.82964340  1
  C  C202  1  0.12643440  0.73950643  0.67035660  1
  C  C203  1  0.37356560  0.76049357  0.17035660  1
  N  N204  1  0.25000000  0.50481896  0.91645667  1
  N  N205  1  0.25000000  0.99518104  0.41645667  1
  N  N206  1  0.75000000  0.49518104  0.08354333  1
  N  N207  1  0.75000000  0.00481896  0.58354333  1
  N  N208  1  0.25000000  0.01259844  0.90730700  1
  N  N209  1  0.25000000  0.48740156  0.40730700  1
  N  N210  1  0.75000000  0.98740156  0.09269300  1
  N  N211  1  0.75000000  0.51259844  0.59269300  1
  N  N212  1  0.25000000  0.70799686  0.70100470  1
  N  N213  1  0.25000000  0.79200314  0.20100470  1
  N  N214  1  0.75000000  0.29200314  0.29899530  1
  N  N215  1  0.75000000  0.20799686  0.79899530  1
  Cl  Cl216  1  0.42453085  0.33601382  0.66593720  1
  Cl  Cl217  1  0.07546915  0.16398618  0.16593720  1
  Cl  Cl218  1  0.92453085  0.66398618  0.33406280  1
  Cl  Cl219  1  0.57546915  0.83601382  0.83406280  1
  Cl  Cl220  1  0.57546915  0.66398618  0.33406280  1
  Cl  Cl221  1  0.92453085  0.83601382  0.83406280  1
  Cl  Cl222  1  0.07546915  0.33601382  0.66593720  1
  Cl  Cl223  1  0.42453085  0.16398618  0.16593720  1
  Cl  Cl224  1  0.42516195  0.21352660  0.54036241  1
  Cl  Cl225  1  0.07483805  0.28647340  0.04036241  1
  Cl  Cl226  1  0.92516195  0.78647340  0.45963759  1
  Cl  Cl227  1  0.57483805  0.71352660  0.95963759  1
  Cl  Cl228  1  0.57483805  0.78647340  0.45963759  1
  Cl  Cl229  1  0.92516195  0.71352660  0.95963759  1
  Cl  Cl230  1  0.07483805  0.21352660  0.54036241  1
  Cl  Cl231  1  0.42516195  0.28647340  0.04036241  1
  Cl  Cl232  1  0.25000000  0.47247345  0.56748336  1
  Cl  Cl233  1  0.25000000  0.02752655  0.06748336  1
  Cl  Cl234  1  0.75000000  0.52752655  0.43251664  1
  Cl  Cl235  1  0.75000000  0.97247345  0.93251664  1
  Cl  Cl236  1  0.42283935  0.05965627  0.70942839  1
  Cl  Cl237  1  0.07716065  0.44034373  0.20942839  1
  Cl  Cl238  1  0.92283935  0.94034373  0.29057161  1
  Cl  Cl239  1  0.57716065  0.55965627  0.79057161  1
  Cl  Cl240  1  0.57716065  0.94034373  0.29057161  1
  Cl  Cl241  1  0.92283935  0.55965627  0.79057161  1
  Cl  Cl242  1  0.07716065  0.05965627  0.70942839  1
  Cl  Cl243  1  0.42283935  0.44034373  0.20942839  1
  Cl  Cl244  1  0.25000000  0.27706620  0.78154328  1
  Cl  Cl245  1  0.25000000  0.22293380  0.28154328  1
  Cl  Cl246  1  0.75000000  0.72293380  0.21845672  1
  Cl  Cl247  1  0.75000000  0.77706620  0.71845672  1
