# generated using pymatgen
data_Ba6Y(ReO6)3
_symmetry_space_group_name_H-M   'P 1'
_cell_length_a   10.08707452
_cell_length_b   10.21589248
_cell_length_c   10.21511903
_cell_angle_alpha   59.99749052
_cell_angle_beta   99.71559590
_cell_angle_gamma   109.72400894
_symmetry_Int_Tables_number   1
_chemical_formula_structural   Ba6Y(ReO6)3
_chemical_formula_sum   'Ba12 Y2 Re6 O36'
_cell_volume   858.11631171
_cell_formula_units_Z   2
loop_
 _symmetry_equiv_pos_site_id
 _symmetry_equiv_pos_as_xyz
  1  'x, y, z'
loop_
 _atom_site_type_symbol
 _atom_site_label
 _atom_site_symmetry_multiplicity
 _atom_site_fract_x
 _atom_site_fract_y
 _atom_site_fract_z
 _atom_site_occupancy
  Ba  Ba0  1  0.12406141  0.04133468  0.32415957  1
  Ba  Ba1  1  0.12438300  0.71724075  1.00000000  1
  Ba  Ba2  1  0.12406141  0.36549525  0.67584043  1
  Ba  Ba3  1  0.87593859  0.95866532  0.67584043  1
  Ba  Ba4  1  0.87593859  0.63450475  0.32415957  1
  Ba  Ba5  1  0.87561700  0.28275925  0.00000000  1
  Ba  Ba6  1  0.60758089  0.20257967  0.33398844  1
  Ba  Ba7  1  0.61477130  0.87098371  0.00000000  1
  Ba  Ba8  1  0.60758089  0.53656911  0.66601156  1
  Ba  Ba9  1  0.39241911  0.79742033  0.66601156  1
  Ba  Ba10  1  0.39241911  0.46343089  0.33398844  1
  Ba  Ba11  1  0.38522870  0.12901629  1.00000000  1
  Y  Y12  1  1.00000000  0.66673780  0.66652541  1
  Y  Y13  1  0.00000000  0.33326220  0.33347459  1
  Re  Re14  1  0.73205462  0.58108714  1.00000000  1
  Re  Re15  1  0.73197168  0.24014379  0.67078046  1
  Re  Re16  1  0.73197168  0.91092325  0.32921954  1
  Re  Re17  1  0.26794538  0.41891286  0.00000000  1
  Re  Re18  1  0.26802832  0.08907675  0.67078046  1
  Re  Re19  1  0.26802832  0.75985621  0.32921954  1
  O  O20  1  0.63132183  0.69971696  0.84330129  1
  O  O21  1  0.63750717  0.36828813  0.51073868  1
  O  O22  1  0.63051186  0.03349195  0.17752729  1
  O  O23  1  0.63673056  0.38986790  1.00000000  1
  O  O24  1  0.63135698  0.05475936  0.66553786  1
  O  O25  1  0.63135698  0.72029622  0.33446214  1
  O  O26  1  0.63132183  0.54301825  0.15669871  1
  O  O27  1  0.63051186  0.21102023  0.82247271  1
  O  O28  1  0.63750717  0.87902581  0.48926132  1
  O  O29  1  0.36867817  0.30028304  0.15669871  1
  O  O30  1  0.36948814  0.96650805  0.82247271  1
  O  O31  1  0.36249283  0.63171187  0.48926132  1
  O  O32  1  0.36326944  0.61013210  0.00000000  1
  O  O33  1  0.36864302  0.27970378  0.66553786  1
  O  O34  1  0.36864302  0.94524064  0.33446214  1
  O  O35  1  0.36867817  0.45698175  0.84330129  1
  O  O36  1  0.36249283  0.12097419  0.51073868  1
  O  O37  1  0.36948814  0.78897977  0.17752729  1
  O  O38  1  0.13764690  0.53452700  0.84535613  1
  O  O39  1  0.13756292  0.20062454  0.51138370  1
  O  O40  1  0.14078158  0.85798527  0.18879146  1
  O  O41  1  0.14075045  0.23577908  1.00000000  1
  O  O42  1  0.13768162  0.89114566  0.66626989  1
  O  O43  1  0.13768162  0.55741456  0.33373011  1
  O  O44  1  0.13764690  0.37988313  0.15464387  1
  O  O45  1  0.14078158  0.04677773  0.81120854  1
  O  O46  1  0.13756292  0.71200724  0.48861630  1
  O  O47  1  0.86235310  0.46547300  0.15464387  1
  O  O48  1  0.85921842  0.14201473  0.81120854  1
  O  O49  1  0.86243708  0.79937546  0.48861630  1
  O  O50  1  0.85924955  0.76422092  0.00000000  1
  O  O51  1  0.86231838  0.44258544  0.66626989  1
  O  O52  1  0.86231838  0.10885434  0.33373011  1
  O  O53  1  0.86235310  0.62011687  0.84535613  1
  O  O54  1  0.86243708  0.28799276  0.51138370  1
  O  O55  1  0.85921842  0.95322227  0.18879146  1
