# generated using pymatgen
data_CsCrCuF6
_symmetry_space_group_name_H-M   'P 1'
_cell_length_a   7.44631236
_cell_length_b   7.31164879
_cell_length_c   7.43079905
_cell_angle_alpha   90.00000000
_cell_angle_beta   60.06889291
_cell_angle_gamma   119.40354791
_symmetry_Int_Tables_number   1
_chemical_formula_structural   CsCrCuF6
_chemical_formula_sum   'Cs2 Cr2 Cu2 F12'
_cell_volume   288.92003434
_cell_formula_units_Z   2
loop_
 _symmetry_equiv_pos_site_id
 _symmetry_equiv_pos_as_xyz
  1  'x, y, z'
loop_
 _atom_site_type_symbol
 _atom_site_label
 _atom_site_symmetry_multiplicity
 _atom_site_fract_x
 _atom_site_fract_y
 _atom_site_fract_z
 _atom_site_occupancy
  Cs  Cs0  1  0.75605665  0.37802833  0.37197167  1
  Cs  Cs1  1  0.24394335  0.62197167  0.62802833  1
  Cr  Cr2  1  0.00000000  -0.00000000  0.50000000  1
  Cr  Cr3  1  0.00000000  -0.00000000  0.00000000  1
  Cu  Cu4  1  0.50000000  0.50000000  0.00000000  1
  Cu  Cu5  1  0.50000000  -0.00000000  0.00000000  1
  F  F6  1  0.87540852  0.93770426  0.31229574  1
  F  F7  1  0.63461293  0.31730647  0.93269353  1
  F  F8  1  0.24263215  0.92972693  0.92709701  1
  F  F9  1  0.24263215  0.31290522  0.33027084  1
  F  F10  1  0.24263215  0.31290522  0.92709701  1
  F  F11  1  0.24263215  0.92972693  0.33027084  1
  F  F12  1  0.12459148  0.06229574  0.68770426  1
  F  F13  1  0.36538707  0.68269353  0.06730647  1
  F  F14  1  0.75736785  0.07027307  0.07290299  1
  F  F15  1  0.75736785  0.68709478  0.66972916  1
  F  F16  1  0.75736785  0.68709478  0.07290299  1
  F  F17  1  0.75736785  0.07027307  0.66972916  1
