# generated using pymatgen
data_Ba3GdIrRuO9
_symmetry_space_group_name_H-M   'P 1'
_cell_length_a   5.97676406
_cell_length_b   5.97676406
_cell_length_c   14.82660092
_cell_angle_alpha   90.00000000
_cell_angle_beta   90.00000000
_cell_angle_gamma   120.00467878
_symmetry_Int_Tables_number   1
_chemical_formula_structural   Ba3GdIrRuO9
_chemical_formula_sum   'Ba6 Gd2 Ir2 Ru2 O18'
_cell_volume   458.65272286
_cell_formula_units_Z   2
loop_
 _symmetry_equiv_pos_site_id
 _symmetry_equiv_pos_as_xyz
  1  'x, y, z'
loop_
 _atom_site_type_symbol
 _atom_site_label
 _atom_site_symmetry_multiplicity
 _atom_site_fract_x
 _atom_site_fract_y
 _atom_site_fract_z
 _atom_site_occupancy
  Ba  Ba0  1  0.66672044  0.33327956  0.40318231  1
  Ba  Ba1  1  0.33336635  0.66663365  0.59764512  1
  Ba  Ba2  1  0.33327956  0.66672044  0.90318231  1
  Ba  Ba3  1  0.66663365  0.33336635  0.09764512  1
  Ba  Ba4  1  0.99995882  0.00004118  0.74991297  1
  Ba  Ba5  1  0.00004118  0.99995882  0.24991297  1
  Gd  Gd6  1  0.00002431  -0.00002431  0.50115154  1
  Gd  Gd7  1  -0.00002431  0.00002431  0.00115154  1
  Ir  Ir8  1  0.66669113  0.33330887  0.66525661  1
  Ir  Ir9  1  0.33330887  0.66669113  0.16525661  1
  Ru  Ru10  1  0.33328320  0.66671680  0.33597074  1
  Ru  Ru11  1  0.66671680  0.33328320  0.83597074  1
  O  O12  1  0.51047289  0.02046103  0.75055642  1
  O  O13  1  0.51036600  0.48963400  0.75060641  1
  O  O14  1  0.97953897  0.48952711  0.75055642  1
  O  O15  1  0.48952711  0.97953897  0.25055642  1
  O  O16  1  0.48963400  0.51036600  0.25060641  1
  O  O17  1  0.02046103  0.51047289  0.25055642  1
  O  O18  1  0.82353521  0.64660899  0.90990725  1
  O  O19  1  0.82310141  0.17689859  0.91016071  1
  O  O20  1  0.35339101  0.17646479  0.90990725  1
  O  O21  1  0.17646591  0.35254019  0.08840660  1
  O  O22  1  0.17623973  0.82376027  0.08837306  1
  O  O23  1  0.64745981  0.82353409  0.08840660  1
  O  O24  1  0.17646479  0.35339101  0.40990725  1
  O  O25  1  0.17689859  0.82310141  0.41016071  1
  O  O26  1  0.64660899  0.82353521  0.40990725  1
  O  O27  1  0.82353409  0.64745981  0.58840660  1
  O  O28  1  0.82376027  0.17623973  0.58837306  1
  O  O29  1  0.35254019  0.17646591  0.58840660  1
