# generated using pymatgen
data_Ba4Sr2Sm2Co4O15
_symmetry_space_group_name_H-M   'P 1'
_cell_length_a   6.88461883
_cell_length_b   11.78656588
_cell_length_c   11.74823856
_cell_angle_alpha   59.94852193
_cell_angle_beta   90.01995833
_cell_angle_gamma   89.72476706
_symmetry_Int_Tables_number   1
_chemical_formula_structural   Ba4Sr2Sm2Co4O15
_chemical_formula_sum   'Ba8 Sr4 Sm4 Co8 O30'
_cell_volume   825.15940489
_cell_formula_units_Z   2
loop_
 _symmetry_equiv_pos_site_id
 _symmetry_equiv_pos_as_xyz
  1  'x, y, z'
loop_
 _atom_site_type_symbol
 _atom_site_label
 _atom_site_symmetry_multiplicity
 _atom_site_fract_x
 _atom_site_fract_y
 _atom_site_fract_z
 _atom_site_occupancy
  Ba  Ba0  1  0.32868076  0.17509885  0.64663649  1
  Ba  Ba1  1  0.32767660  0.65213097  0.17352759  1
  Ba  Ba2  1  0.33464133  0.17451700  0.17407064  1
  Ba  Ba3  1  0.82598973  0.82595594  0.34824016  1
  Ba  Ba4  1  0.83425236  0.34353929  0.82975248  1
  Ba  Ba5  1  0.82865712  0.82713631  0.82729475  1
  Ba  Ba6  1  0.02215446  0.33441162  0.33104276  1
  Ba  Ba7  1  0.50792554  0.66577778  0.67008289  1
  Sr  Sr8  1  0.51443204  0.00031898  0.99916656  1
  Sr  Sr9  1  0.01580845  0.99964106  0.00009298  1
  Sr  Sr10  1  0.66686355  0.05120276  0.47388569  1
  Sr  Sr11  1  0.17060630  0.52348068  0.52463612  1
  Sm  Sm12  1  0.66417937  0.47514620  0.04849453  1
  Sm  Sm13  1  0.66521512  0.47506961  0.47376547  1
  Sm  Sm14  1  0.16514813  0.52225265  0.95326030  1
  Sm  Sm15  1  0.16766204  0.95138792  0.52421530  1
  Co  Co16  1  0.48960517  0.33383991  0.33125154  1
  Co  Co17  1  0.96447522  0.66377868  0.66664435  1
  Co  Co18  1  0.83608718  0.17596467  0.64579898  1
  Co  Co19  1  0.83256111  0.64838960  0.17546084  1
  Co  Co20  1  0.84214454  0.17374334  0.17901991  1
  Co  Co21  1  0.33704898  0.82302578  0.35079417  1
  Co  Co22  1  0.34451947  0.34972700  0.82229836  1
  Co  Co23  1  0.33395738  0.82457315  0.82601470  1
  O  O24  1  0.66131793  0.25735607  0.49589336  1
  O  O25  1  0.65830196  0.49859379  0.24794096  1
  O  O26  1  0.66435849  0.25881517  0.24146129  1
  O  O27  1  0.16408027  0.75760349  0.49632058  1
  O  O28  1  0.16490962  0.49484177  0.76234751  1
  O  O29  1  0.16158077  0.74666572  0.75553854  1
  O  O30  1  0.33693252  0.41602667  0.16849147  1
  O  O31  1  0.33149095  0.17494900  0.41232057  1
  O  O32  1  0.34530433  0.41420422  0.41238915  1
  O  O33  1  0.82930678  0.58147778  0.83788508  1
  O  O34  1  0.84282407  0.83220920  0.58580556  1
  O  O35  1  0.82864151  0.58376590  0.58614236  1
  O  O36  1  0.25673991  0.90568794  0.17996578  1
  O  O37  1  0.25220665  0.18360091  0.91146470  1
  O  O38  1  0.25441679  0.90365044  0.91624872  1
  O  O39  1  0.75466127  0.08741342  0.81629835  1
  O  O40  1  0.75511480  0.81849933  0.08498311  1
  O  O41  1  0.75354316  0.09567594  0.08917675  1
  O  O42  1  0.48349945  0.67080467  0.39080094  1
  O  O43  1  0.46913388  0.39691375  0.93939684  1
  O  O44  1  0.45370931  0.93399325  0.66912669  1
  O  O45  1  0.48457603  0.39364790  0.67286901  1
  O  O46  1  0.45617141  0.93817764  0.39369024  1
  O  O47  1  0.46216235  0.66297254  0.94114877  1
  O  O48  1  0.95261255  0.33271782  0.60433523  1
  O  O49  1  0.96258580  0.60195223  0.06193076  1
  O  O50  1  0.98310752  0.06644817  0.32777503  1
  O  O51  1  0.95194428  0.60286478  0.33171387  1
  O  O52  1  0.98214372  0.06272117  0.60813894  1
  O  O53  1  0.96832997  0.33563956  0.06295228  1
