# generated using pymatgen
data_Ca43Al16Pb13
_symmetry_space_group_name_H-M   'P 1'
_cell_length_a   11.62309843
_cell_length_b   11.62309843
_cell_length_c   20.13131882
_cell_angle_alpha   73.22093476
_cell_angle_beta   90.00000000
_cell_angle_gamma   120.00000000
_symmetry_Int_Tables_number   1
_chemical_formula_structural   Ca43Al16Pb13
_chemical_formula_sum   'Ca43 Al16 Pb13'
_cell_volume   2220.59388338
_cell_formula_units_Z   1
loop_
 _symmetry_equiv_pos_site_id
 _symmetry_equiv_pos_as_xyz
  1  'x, y, z'
loop_
 _atom_site_type_symbol
 _atom_site_label
 _atom_site_symmetry_multiplicity
 _atom_site_fract_x
 _atom_site_fract_y
 _atom_site_fract_z
 _atom_site_occupancy
  Ca  Ca0  1  0.91543781  0.50000000  0.25000000  1
  Ca  Ca1  1  0.43238735  0.50000000  0.75000000  1
  Ca  Ca2  1  0.08177195  0.49924794  0.41898011  1
  Ca  Ca3  1  0.59202104  0.50060027  0.90737869  1
  Ca  Ca4  1  0.25000000  0.83456219  0.25000000  1
  Ca  Ca5  1  0.75000000  0.81761265  0.75000000  1
  Ca  Ca6  1  0.08177195  0.16354389  0.41898011  1
  Ca  Ca7  1  0.59202104  0.18404208  0.90737869  1
  Ca  Ca8  1  0.91543781  0.16543781  0.25000000  1
  Ca  Ca9  1  0.43238735  0.18238735  0.75000000  1
  Ca  Ca10  1  0.25000000  0.16543781  0.25000000  1
  Ca  Ca11  1  0.75000000  0.18238735  0.75000000  1
  Ca  Ca12  1  0.41822805  0.83645611  0.08101989  1
  Ca  Ca13  1  0.90797896  0.81595792  0.59262131  1
  Ca  Ca14  1  0.41822805  0.50075206  0.08101989  1
  Ca  Ca15  1  0.90797896  0.49939973  0.59262131  1
  Ca  Ca16  1  0.08252400  0.50075206  0.08101989  1
  Ca  Ca17  1  0.59142077  0.49939973  0.59262131  1
  Ca  Ca18  1  0.58456219  0.50000000  0.25000000  1
  Ca  Ca19  1  0.06761265  0.50000000  0.75000000  1
  Ca  Ca20  1  0.58456219  0.83456219  0.25000000  1
  Ca  Ca21  1  0.06761265  0.81761265  0.75000000  1
  Ca  Ca22  1  0.41747600  0.49924794  0.41898011  1
  Ca  Ca23  1  0.90857923  0.50060027  0.90737869  1
  Ca  Ca24  1  0.80553353  0.13113332  0.06333315  1
  Ca  Ca25  1  0.30567389  0.12785052  0.56647559  1
  Ca  Ca26  1  0.80553353  0.61106706  0.06333315  1
  Ca  Ca27  1  0.30567389  0.61134778  0.56647559  1
  Ca  Ca28  1  0.56491030  0.12982059  0.30526911  1
  Ca  Ca29  1  0.06458440  0.12916881  0.80624679  1
  Ca  Ca30  1  0.32559980  0.13113332  0.06333315  1
  Ca  Ca31  1  0.82217663  0.12785052  0.56647559  1
  Ca  Ca32  1  0.69446647  0.86886668  0.43666685  1
  Ca  Ca33  1  0.19432611  0.87214948  0.93352441  1
  Ca  Ca34  1  0.69446647  0.38893294  0.43666685  1
  Ca  Ca35  1  0.19432611  0.38865222  0.93352441  1
  Ca  Ca36  1  0.93508970  0.87017941  0.19473089  1
  Ca  Ca37  1  0.43541560  0.87083119  0.69375321  1
  Ca  Ca38  1  0.17440020  0.86886668  0.43666685  1
  Ca  Ca39  1  0.67782337  0.87214948  0.93352441  1
  Ca  Ca40  1  0.00081625  0.00163250  0.99755125  1
  Ca  Ca41  1  0.49918375  0.99836750  0.50244875  1
  Ca  Ca42  1  0.25000000  0.50000000  0.25000000  1
  Al  Al43  1  0.53781114  0.30772028  0.15446858  1
  Al  Al44  1  0.03741275  0.30841777  0.65416947  1
  Al  Al45  1  0.53781114  0.07562227  0.15446858  1
  Al  Al46  1  0.03741275  0.07482551  0.65416947  1
  Al  Al47  1  0.65429879  0.30859758  0.03710363  1
  Al  Al48  1  0.15389959  0.30779917  0.53830124  1
  Al  Al49  1  0.76990914  0.30772028  0.15446858  1
  Al  Al50  1  0.27100502  0.30841777  0.65416947  1
  Al  Al51  1  0.96218886  0.69227972  0.34553142  1
  Al  Al52  1  0.46258725  0.69158223  0.84583053  1
  Al  Al53  1  0.96218886  0.92437773  0.34553142  1
  Al  Al54  1  0.46258725  0.92517449  0.84583053  1
  Al  Al55  1  0.84570121  0.69140242  0.46289637  1
  Al  Al56  1  0.34610041  0.69220083  0.96169876  1
  Al  Al57  1  0.73009086  0.69227972  0.34553142  1
  Al  Al58  1  0.22899498  0.69158223  0.84583053  1
  Pb  Pb59  1  0.10936075  0.21872149  0.11010245  1
  Pb  Pb60  1  0.60627137  0.21254274  0.60430954  1
  Pb  Pb61  1  0.39063925  0.21946319  0.38989755  1
  Pb  Pb62  1  0.89372863  0.21058091  0.89569046  1
  Pb  Pb63  1  0.67117606  0.78053681  0.11010245  1
  Pb  Pb64  1  0.18314773  0.78941909  0.60430954  1
  Pb  Pb65  1  0.39063925  0.78127851  0.38989755  1
  Pb  Pb66  1  0.89372863  0.78745726  0.89569046  1
  Pb  Pb67  1  0.10936075  0.78053681  0.11010245  1
  Pb  Pb68  1  0.60627137  0.78941909  0.60430954  1
  Pb  Pb69  1  0.82882394  0.21946319  0.38989755  1
  Pb  Pb70  1  0.31685227  0.21058091  0.89569046  1
  Pb  Pb71  1  0.75000000  0.50000000  0.75000000  1
