# generated using pymatgen
data_CsTlCuF6
_symmetry_space_group_name_H-M   'P 1'
_cell_length_a   7.79825437
_cell_length_b   7.58064484
_cell_length_c   8.05463323
_cell_angle_alpha   90.00000000
_cell_angle_beta   58.90636374
_cell_angle_gamma   119.08112770
_symmetry_Int_Tables_number   1
_chemical_formula_structural   CsTlCuF6
_chemical_formula_sum   'Cs2 Tl2 Cu2 F12'
_cell_volume   335.69824398
_cell_formula_units_Z   2
loop_
 _symmetry_equiv_pos_site_id
 _symmetry_equiv_pos_as_xyz
  1  'x, y, z'
loop_
 _atom_site_type_symbol
 _atom_site_label
 _atom_site_symmetry_multiplicity
 _atom_site_fract_x
 _atom_site_fract_y
 _atom_site_fract_z
 _atom_site_occupancy
  Cs  Cs0  1  0.77742008  0.38871004  0.36128996  1
  Cs  Cs1  1  0.22257992  0.61128996  0.63871004  1
  Tl  Tl2  1  -0.00000000  -0.00000000  0.50000000  1
  Tl  Tl3  1  -0.00000000  -0.00000000  0.00000000  1
  Cu  Cu4  1  0.50000000  0.50000000  0.00000000  1
  Cu  Cu5  1  0.50000000  -0.00000000  0.00000000  1
  F  F6  1  0.80804489  0.90402245  0.34597755  1
  F  F7  1  0.59195197  0.29597598  0.95402402  1
  F  F8  1  0.24469100  0.90626234  0.94333130  1
  F  F9  1  0.24469100  0.33842866  0.31197770  1
  F  F10  1  0.24469100  0.33842866  0.94333130  1
  F  F11  1  0.24469100  0.90626234  0.31197770  1
  F  F12  1  0.19195511  0.09597755  0.65402245  1
  F  F13  1  0.40804803  0.70402402  0.04597598  1
  F  F14  1  0.75530900  0.09373766  0.05666870  1
  F  F15  1  0.75530900  0.66157134  0.68802230  1
  F  F16  1  0.75530900  0.66157134  0.05666870  1
  F  F17  1  0.75530900  0.09373766  0.68802230  1
