# generated using pymatgen
data_Ca4Be3AlSi9H3O28
_symmetry_space_group_name_H-M   'P 1'
_cell_length_a   5.03461967
_cell_length_b   12.01695943
_cell_length_c   19.68722720
_cell_angle_alpha   89.90123930
_cell_angle_beta   89.52853792
_cell_angle_gamma   77.90813309
_symmetry_Int_Tables_number   1
_chemical_formula_structural   Ca4Be3AlSi9H3O28
_chemical_formula_sum   'Ca8 Be6 Al2 Si18 H6 O56'
_cell_volume   1164.62715720
_cell_formula_units_Z   2
loop_
 _symmetry_equiv_pos_site_id
 _symmetry_equiv_pos_as_xyz
  1  'x, y, z'
loop_
 _atom_site_type_symbol
 _atom_site_label
 _atom_site_symmetry_multiplicity
 _atom_site_fract_x
 _atom_site_fract_y
 _atom_site_fract_z
 _atom_site_occupancy
  Ca  Ca0  1  0.67450292  0.16564334  0.65210363  1
  Ca  Ca1  1  0.15985374  0.16564334  0.34789637  1
  Ca  Ca2  1  0.65694879  0.16228322  0.84344211  1
  Ca  Ca3  1  0.18076800  0.16228322  0.15655789  1
  Ca  Ca4  1  0.32549708  0.83435666  0.34789637  1
  Ca  Ca5  1  0.84014626  0.83435666  0.65210363  1
  Ca  Ca6  1  0.34305121  0.83771678  0.15655789  1
  Ca  Ca7  1  0.81923200  0.83771678  0.84344211  1
  Be  Be8  1  0.05277267  0.24751729  0.74992163  1
  Be  Be9  1  0.69971004  0.24751729  0.25007837  1
  Be  Be10  1  0.94722733  0.75248271  0.25007837  1
  Be  Be11  1  0.30028996  0.75248271  0.74992163  1
  Be  Be12  1  0.30215139  -0.00000000  0.89697692  1
  Be  Be13  1  0.69784861  0.00000000  0.10302308  1
  Al  Al14  1  0.40530433  0.18939134  0.50000000  1
  Al  Al15  1  0.59469567  0.81060866  0.50000000  1
  Si  Si16  1  0.91879255  0.42731355  0.64346479  1
  Si  Si17  1  0.65389390  0.42731355  0.35653521  1
  Si  Si18  1  0.91677332  0.42663773  0.85567785  1
  Si  Si19  1  0.65658896  0.42663773  0.14432215  1
  Si  Si20  1  0.08120745  0.57268645  0.35653521  1
  Si  Si21  1  0.34610610  0.57268645  0.64346479  1
  Si  Si22  1  0.08322668  0.57336227  0.14432215  1
  Si  Si23  1  0.34341104  0.57336227  0.85567785  1
  Si  Si24  1  0.22603852  -0.00000000  0.75339453  1
  Si  Si25  1  0.77396148  -0.00000000  0.24660547  1
  Si  Si26  1  0.83028325  0.33943350  0.50000000  1
  Si  Si27  1  0.83150412  0.33699176  -0.00000000  1
  Si  Si28  1  0.16971675  0.66056650  0.50000000  1
  Si  Si29  1  0.16849588  0.66300824  -0.00000000  1
  Si  Si30  1  0.40939308  0.18121385  -0.00000000  1
  Si  Si31  1  0.59060692  0.81878615  -0.00000000  1
  Si  Si32  1  0.27651714  0.00000000  0.60572349  1
  Si  Si33  1  0.72348286  -0.00000000  0.39427651  1
  H  H34  1  0.72430776  0.68014388  0.74917460  1
  H  H35  1  0.59554836  0.68014388  0.25082540  1
  H  H36  1  0.27569224  0.31985612  0.25082540  1
  H  H37  1  0.40445164  0.31985612  0.74917460  1
  H  H38  1  0.89167950  -0.00000000  0.93583870  1
  H  H39  1  0.10832050  0.00000000  0.06416130  1
  O  O40  1  0.19738165  0.46808490  0.66539200  1
  O  O41  1  0.33453345  0.46808490  0.33460800  1
  O  O42  1  0.19855736  0.46723291  0.83555245  1
  O  O43  1  0.33420973  0.46723291  0.16444755  1
  O  O44  1  0.80261835  0.53191510  0.33460800  1
  O  O45  1  0.66546655  0.53191510  0.66539200  1
  O  O46  1  0.80144264  0.53276709  0.16444755  1
  O  O47  1  0.66579027  0.53276709  0.83555245  1
  O  O48  1  0.42190632  -0.00000000  0.68368882  1
  O  O49  1  0.57809368  -0.00000000  0.31631118  1
  O  O50  1  0.42861622  -0.00000000  0.81821857  1
  O  O51  1  0.57138378  0.00000000  0.18178143  1
  O  O52  1  0.91975790  0.41617996  0.56048961  1
  O  O53  1  0.66406214  0.41617996  0.43951039  1
  O  O54  1  0.90919898  0.41365165  0.93869680  1
  O  O55  1  0.67714938  0.41365165  0.06130320  1
  O  O56  1  0.08024210  0.58382004  0.43951039  1
  O  O57  1  0.33593786  0.58382004  0.56048961  1
  O  O58  1  0.09080102  0.58634835  0.06130320  1
  O  O59  1  0.32285062  0.58634835  0.93869680  1
  O  O60  1  0.63770383  0.26200893  0.53640759  1
  O  O61  1  0.10028724  0.26200893  0.46359241  1
  O  O62  1  0.62466427  0.25911876  0.96984493  1
  O  O63  1  0.11621697  0.25911876  0.03015507  1
  O  O64  1  0.36229617  0.73799107  0.46359241  1
  O  O65  1  0.89971276  0.73799107  0.53640759  1
  O  O66  1  0.37533573  0.74088124  0.03015507  1
  O  O67  1  0.88378303  0.74088124  0.96984493  1
  O  O68  1  0.98509134  0.11601678  0.75091029  1
  O  O69  1  0.89889189  0.11601678  0.24908971  1
  O  O70  1  0.01490866  0.88398322  0.24908971  1
  O  O71  1  0.10110811  0.88398322  0.75091029  1
  O  O72  1  0.90735402  0.30832609  0.68088539  1
  O  O73  1  0.78431990  0.30832609  0.31911461  1
  O  O74  1  0.90407493  0.30766639  0.81950392  1
  O  O75  1  0.78825868  0.30766639  0.18049608  1
  O  O76  1  0.09264598  0.69167391  0.31911461  1
  O  O77  1  0.21568010  0.69167391  0.68088539  1
  O  O78  1  0.09592507  0.69233361  0.18049608  1
  O  O79  1  0.21174132  0.69233361  0.81950392  1
  O  O80  1  0.34629380  0.11469269  0.57279162  1
  O  O81  1  0.53901351  0.11469269  0.42720838  1
  O  O82  1  0.35925428  0.11395738  0.93237539  1
  O  O83  1  0.52678833  0.11395738  0.06762461  1
  O  O84  1  0.65370620  0.88530731  0.42720838  1
  O  O85  1  0.46098649  0.88530731  0.57279162  1
  O  O86  1  0.64074572  0.88604262  0.06762461  1
  O  O87  1  0.47321167  0.88604262  0.93237539  1
  O  O88  1  0.95995087  -0.00000000  0.61272592  1
  O  O89  1  0.04004913  0.00000000  0.38727408  1
  O  O90  1  0.97351733  0.00000000  0.89105993  1
  O  O91  1  0.02648267  -0.00000000  0.10894007  1
  O  O92  1  0.38275760  0.24098123  0.74963715  1
  O  O93  1  0.37626117  0.24098123  0.25036285  1
  O  O94  1  0.61724240  0.75901877  0.25036285  1
  O  O95  1  0.62373883  0.75901877  0.74963715  1
