# generated using pymatgen
data_BSbPbS4
_symmetry_space_group_name_H-M   'P 1'
_cell_length_a   6.17972173
_cell_length_b   6.26592466
_cell_length_c   9.57214525
_cell_angle_alpha   90.00000000
_cell_angle_beta   107.99172683
_cell_angle_gamma   90.00000000
_symmetry_Int_Tables_number   1
_chemical_formula_structural   BSbPbS4
_chemical_formula_sum   'B2 Sb2 Pb2 S8'
_cell_volume   352.52511621
_cell_formula_units_Z   2
loop_
 _symmetry_equiv_pos_site_id
 _symmetry_equiv_pos_as_xyz
  1  'x, y, z'
loop_
 _atom_site_type_symbol
 _atom_site_label
 _atom_site_symmetry_multiplicity
 _atom_site_fract_x
 _atom_site_fract_y
 _atom_site_fract_z
 _atom_site_occupancy
  B  B0  1  0.16940331  0.25000342  0.19888726  1
  B  B1  1  0.83059669  0.75000342  0.80111274  1
  Sb  Sb2  1  0.69013075  0.24999823  0.83445793  1
  Sb  Sb3  1  0.30986925  0.74999823  0.16554207  1
  Pb  Pb4  1  0.72922597  0.30163563  0.43814628  1
  Pb  Pb5  1  0.27077403  0.80163563  0.56185372  1
  S  S6  1  0.40561128  0.24322577  0.58502887  1
  S  S7  1  0.59438872  0.74322577  0.41497113  1
  S  S8  1  0.02174358  0.49452992  0.21509420  1
  S  S9  1  0.97825642  0.99452992  0.78490580  1
  S  S10  1  0.97595521  0.50470525  0.78173832  1
  S  S11  1  0.02404479  0.00470525  0.21826168  1
  S  S12  1  0.43399434  0.24810179  0.15610123  1
  S  S13  1  0.56600566  0.74810179  0.84389877  1
