# generated using pymatgen
data_Ca2Pr19(CoI12)3
_symmetry_space_group_name_H-M   'P 1'
_cell_length_a   10.02209247
_cell_length_b   10.05186392
_cell_length_c   26.45544535
_cell_angle_alpha   93.67464405
_cell_angle_beta   93.72426316
_cell_angle_gamma   106.86399011
_symmetry_Int_Tables_number   1
_chemical_formula_structural   Ca2Pr19(CoI12)3
_chemical_formula_sum   'Ca2 Pr19 Co3 I36'
_cell_volume   2535.52689232
_cell_formula_units_Z   1
loop_
 _symmetry_equiv_pos_site_id
 _symmetry_equiv_pos_as_xyz
  1  'x, y, z'
loop_
 _atom_site_type_symbol
 _atom_site_label
 _atom_site_symmetry_multiplicity
 _atom_site_fract_x
 _atom_site_fract_y
 _atom_site_fract_z
 _atom_site_occupancy
  Ca  Ca0  1  0.33326520  0.33328090  0.16670258  1
  Ca  Ca1  1  0.00006780  0.00005210  0.49996442  1
  Pr  Pr2  1  0.73993735  0.66865576  0.23213415  1
  Pr  Pr3  1  0.40573784  0.33502792  0.56614491  1
  Pr  Pr4  1  0.07401949  0.00342970  0.90013449  1
  Pr  Pr5  1  0.57659919  0.37212502  0.32409594  1
  Pr  Pr6  1  0.24339782  0.04089667  0.65718504  1
  Pr  Pr7  1  0.91105130  0.70801836  0.99150899  1
  Pr  Pr8  1  0.40209800  0.67216951  0.30083219  1
  Pr  Pr9  1  0.06687958  0.33786119  0.63378902  1
  Pr  Pr10  1  0.73414313  0.00624152  0.96794139  1
  Pr  Pr11  1  0.92759516  0.99830508  0.10052209  1
  Pr  Pr12  1  0.59339665  0.66467824  0.43453185  1
  Pr  Pr13  1  0.25931351  0.32990330  0.76653251  1
  Pr  Pr14  1  0.08993518  0.29243633  0.00948196  1
  Pr  Pr15  1  0.75673481  0.96120898  0.34257006  1
  Pr  Pr16  1  0.42228170  0.62531464  0.67515801  1
  Pr  Pr17  1  0.26645342  0.99547181  0.03287798  1
  Pr  Pr18  1  0.93123600  0.66116449  0.36583381  1
  Pr  Pr19  1  0.59918987  0.32709148  0.69872561  1
  Pr  Pr20  1  0.66666700  0.66666700  0.83333300  1
  Co  Co21  1  0.99973098  0.99968930  0.99992372  1
  Co  Co22  1  0.66666700  0.66666700  0.33333300  1
  Co  Co23  1  0.33360202  0.33364370  0.66674328  1
  I  I24  1  0.43557504  0.66271794  0.17887462  1
  I  I25  1  0.10207550  0.32939904  0.51221365  1
  I  I26  1  0.76742617  0.99748446  0.84425476  1
  I  I27  1  0.63713363  0.33197165  0.20499714  1
  I  I28  1  0.30389951  0.99860519  0.53838617  1
  I  I29  1  0.97208006  0.66239030  0.87079193  1
  I  I30  1  0.25592458  0.33461339  0.28051275  1
  I  I31  1  0.92206351  0.00077979  0.61387229  1
  I  I32  1  0.58524124  0.66475235  0.94712681  1
  I  I33  1  0.23125750  0.00393396  0.15445335  1
  I  I34  1  0.89775896  0.67061606  0.48779138  1
  I  I35  1  0.56590683  0.33584854  0.82241224  1
  I  I36  1  0.02943349  0.33472781  0.12828083  1
  I  I37  1  0.69620037  0.00136235  0.46166886  1
  I  I38  1  0.36125294  0.67094270  0.79587507  1
  I  I39  1  0.41126949  0.33255321  0.05279471  1
  I  I40  1  0.07740942  0.99872061  0.38615325  1
  I  I41  1  0.74809176  0.66858065  0.71954019  1
  I  I42  1  0.84603604  -0.00022522  0.22746981  1
  I  I43  1  0.51299541  0.66689602  0.56099408  1
  I  I44  1  0.17954209  0.33395007  0.89398977  1
  I  I45  1  0.20353790  0.65786498  0.02436428  1
  I  I46  1  0.86976469  0.32430747  0.35789980  1
  I  I47  1  0.53684710  0.99099384  0.69154279  1
  I  I48  1  0.60597912  0.99761837  0.07559669  1
  I  I49  1  0.27283880  0.66446877  0.40892837  1
  I  I50  1  0.93930285  0.33184003  0.74261617  1
  I  I51  1  0.82033859  0.66643798  0.10567192  1
  I  I52  1  0.48729696  0.33355822  0.43919719  1
  I  I53  1  0.15379091  0.99938293  0.77267723  1
  I  I54  1  0.46356831  0.00902553  0.30876720  1
  I  I55  1  0.12979510  0.67546802  0.64230272  1
  I  I56  1  0.79648690  0.34234016  0.97512321  1
  I  I57  1  0.06049420  0.66886423  0.25773863  1
  I  I58  1  0.72735388  0.33571463  0.59107031  1
  I  I59  1  0.39403115  0.00149397  0.92404983  1
