# generated using pymatgen
data_CsTaTe3
_symmetry_space_group_name_H-M   'P 1'
_cell_length_a   6.40097940
_cell_length_b   8.31981999
_cell_length_c   8.31981999
_cell_angle_alpha   120.00012480
_cell_angle_beta   90.00000000
_cell_angle_gamma   90.00000000
_symmetry_Int_Tables_number   1
_chemical_formula_structural   CsTaTe3
_chemical_formula_sum   'Cs2 Ta2 Te6'
_cell_volume   383.71111110
_cell_formula_units_Z   2
loop_
 _symmetry_equiv_pos_site_id
 _symmetry_equiv_pos_as_xyz
  1  'x, y, z'
loop_
 _atom_site_type_symbol
 _atom_site_label
 _atom_site_symmetry_multiplicity
 _atom_site_fract_x
 _atom_site_fract_y
 _atom_site_fract_z
 _atom_site_occupancy
  Cs  Cs0  1  0.24903333  0.66669228  0.33330772  1
  Cs  Cs1  1  0.74903333  0.33330772  0.66669228  1
  Ta  Ta2  1  0.52994011  0.00000220  0.99999780  1
  Ta  Ta3  1  0.02994011  0.99999780  0.00000220  1
  Te  Te4  1  0.75721064  0.83928445  0.67858530  1
  Te  Te5  1  0.75720528  0.83929651  0.16070349  1
  Te  Te6  1  0.75721064  0.32141470  0.16071555  1
  Te  Te7  1  0.25721064  0.16071555  0.32141470  1
  Te  Te8  1  0.25720528  0.16070349  0.83929651  1
  Te  Te9  1  0.25721064  0.67858530  0.83928445  1
