# generated using pymatgen
data_AlAgSnSe4
_symmetry_space_group_name_H-M   'P 1'
_cell_length_a   6.05621113
_cell_length_b   6.05621113
_cell_length_c   6.89680489
_cell_angle_alpha   63.95613089
_cell_angle_beta   63.95613089
_cell_angle_gamma   90.00000000
_symmetry_Int_Tables_number   1
_chemical_formula_structural   AlAgSnSe4
_chemical_formula_sum   'Al1 Ag1 Sn1 Se4'
_cell_volume   198.28719173
_cell_formula_units_Z   1
loop_
 _symmetry_equiv_pos_site_id
 _symmetry_equiv_pos_as_xyz
  1  'x, y, z'
loop_
 _atom_site_type_symbol
 _atom_site_label
 _atom_site_symmetry_multiplicity
 _atom_site_fract_x
 _atom_site_fract_y
 _atom_site_fract_z
 _atom_site_occupancy
  Al  Al0  1  0.50000000  0.50000000  0.00000000  1
  Ag  Ag1  1  0.25000000  0.75000000  0.50000000  1
  Sn  Sn2  1  0.75000000  0.25000000  0.50000000  1
  Se  Se3  1  0.64696752  0.63280873  0.21570561  1
  Se  Se4  1  0.13732687  0.15148566  0.21570561  1
  Se  Se5  1  0.84851434  0.35303248  0.78429439  1
  Se  Se6  1  0.36719127  0.86267313  0.78429439  1
