# generated using pymatgen
data_AlGeMo
_symmetry_space_group_name_H-M   'P 1'
_cell_length_a   4.84955470
_cell_length_b   4.84955447
_cell_length_c   6.73153076
_cell_angle_alpha   90.00000000
_cell_angle_beta   90.00000000
_cell_angle_gamma   59.99999445
_symmetry_Int_Tables_number   1
_chemical_formula_structural   AlGeMo
_chemical_formula_sum   'Al3 Ge3 Mo3'
_cell_volume   137.10337518
_cell_formula_units_Z   3
loop_
 _symmetry_equiv_pos_site_id
 _symmetry_equiv_pos_as_xyz
  1  'x, y, z'
loop_
 _atom_site_type_symbol
 _atom_site_label
 _atom_site_symmetry_multiplicity
 _atom_site_fract_x
 _atom_site_fract_y
 _atom_site_fract_z
 _atom_site_occupancy
  Al  Al0  1  0.16512630  0.66974739  0.16666700  1
  Al  Al1  1  0.66974739  0.16512630  0.50000000  1
  Al  Al2  1  0.16512630  0.16512630  0.83333300  1
  Ge  Ge3  1  0.83545722  0.32908555  0.16666700  1
  Ge  Ge4  1  0.32908555  0.83545722  0.50000000  1
  Ge  Ge5  1  0.83545722  0.83545722  0.83333300  1
  Mo  Mo6  1  0.50126798  0.99746404  0.16666700  1
  Mo  Mo7  1  0.99746404  0.50126798  0.50000000  1
  Mo  Mo8  1  0.50126798  0.50126798  0.83333300  1
