# generated using pymatgen
data_AlV9Au2
_symmetry_space_group_name_H-M   'P 1'
_cell_length_a   4.85022859
_cell_length_b   4.85723667
_cell_length_c   14.55154192
_cell_angle_alpha   90.00000000
_cell_angle_beta   90.00000000
_cell_angle_gamma   90.00000000
_symmetry_Int_Tables_number   1
_chemical_formula_structural   AlV9Au2
_chemical_formula_sum   'Al2 V18 Au4'
_cell_volume   342.81552945
_cell_formula_units_Z   2
loop_
 _symmetry_equiv_pos_site_id
 _symmetry_equiv_pos_as_xyz
  1  'x, y, z'
loop_
 _atom_site_type_symbol
 _atom_site_label
 _atom_site_symmetry_multiplicity
 _atom_site_fract_x
 _atom_site_fract_y
 _atom_site_fract_z
 _atom_site_occupancy
  Al  Al0  1  0.50000000  0.50000000  0.16764335  1
  Al  Al1  1  0.50000000  0.50000000  0.49902365  1
  V  V2  1  -0.00000000  0.50000000  0.25101606  1
  V  V3  1  -0.00000000  0.50000000  0.58330595  1
  V  V4  1  -0.00000000  0.50000000  0.91322905  1
  V  V5  1  0.50000000  0.25238640  0.00404857  1
  V  V6  1  0.50000000  0.25392880  0.33333300  1
  V  V7  1  0.50000000  0.25238640  0.66261843  1
  V  V8  1  0.74311464  0.00000000  0.16680564  1
  V  V9  1  0.74311464  0.00000000  0.49986136  1
  V  V10  1  0.75250092  0.00000000  0.83333300  1
  V  V11  1  -0.00000000  0.50000000  0.08336005  1
  V  V12  1  -0.00000000  0.50000000  0.41565094  1
  V  V13  1  -0.00000000  0.50000000  0.75343795  1
  V  V14  1  0.50000000  0.74761360  0.00404857  1
  V  V15  1  0.50000000  0.74607120  0.33333300  1
  V  V16  1  0.50000000  0.74761360  0.66261843  1
  V  V17  1  0.25688536  -0.00000000  0.16680564  1
  V  V18  1  0.25688536  -0.00000000  0.49986136  1
  V  V19  1  0.24749908  -0.00000000  0.83333300  1
  Au  Au20  1  0.50000000  0.50000000  0.83333300  1
  Au  Au21  1  -0.00000000  0.00000000  0.99985420  1
  Au  Au22  1  -0.00000000  -0.00000000  0.33333300  1
  Au  Au23  1  -0.00000000  0.00000000  0.66681280  1
