# generated using pymatgen
data_Cs(NbS2)2
_symmetry_space_group_name_H-M   'P 1'
_cell_length_a   3.48083991
_cell_length_b   5.85283578
_cell_length_c   17.53061303
_cell_angle_alpha   90.00000000
_cell_angle_beta   90.00000000
_cell_angle_gamma   89.96344900
_symmetry_Int_Tables_number   1
_chemical_formula_structural   Cs(NbS2)2
_chemical_formula_sum   'Cs2 Nb4 S8'
_cell_volume   357.14732642
_cell_formula_units_Z   2
loop_
 _symmetry_equiv_pos_site_id
 _symmetry_equiv_pos_as_xyz
  1  'x, y, z'
loop_
 _atom_site_type_symbol
 _atom_site_label
 _atom_site_symmetry_multiplicity
 _atom_site_fract_x
 _atom_site_fract_y
 _atom_site_fract_z
 _atom_site_occupancy
  Cs  Cs0  1  -0.00000000  -0.00000000  0.50000000  1
  Cs  Cs1  1  0.50000000  0.50000000  -0.00000000  1
  Nb  Nb2  1  0.00025240  0.00093337  0.74999655  1
  Nb  Nb3  1  0.50025240  0.50093337  0.75000345  1
  Nb  Nb4  1  0.99974760  0.99906663  0.25000345  1
  Nb  Nb5  1  0.49974760  0.49906663  0.24999655  1
  S  S6  1  0.49993416  0.16629368  0.66233146  1
  S  S7  1  0.99989595  0.66450821  0.66231617  1
  S  S8  1  0.00010405  0.33549179  0.33768383  1
  S  S9  1  0.50006584  0.83370632  0.33766854  1
  S  S10  1  0.00006584  0.33370632  0.16233146  1
  S  S11  1  0.50010405  0.83549179  0.16231617  1
  S  S12  1  0.49989595  0.16450821  0.83768383  1
  S  S13  1  0.99993416  0.66629368  0.83766854  1
