# generated using pymatgen
data_Ba3Ga2B10H4O23
_symmetry_space_group_name_H-M   'P 1'
_cell_length_a   7.16185767
_cell_length_b   7.16185767
_cell_length_c   23.51205554
_cell_angle_alpha   85.40297663
_cell_angle_beta   85.42617949
_cell_angle_gamma   118.36497214
_symmetry_Int_Tables_number   1
_chemical_formula_structural   Ba3Ga2B10H4O23
_chemical_formula_sum   'Ba6 Ga4 B20 H8 O46'
_cell_volume   1048.19305248
_cell_formula_units_Z   2
loop_
 _symmetry_equiv_pos_site_id
 _symmetry_equiv_pos_as_xyz
  1  'x, y, z'
loop_
 _atom_site_type_symbol
 _atom_site_label
 _atom_site_symmetry_multiplicity
 _atom_site_fract_x
 _atom_site_fract_y
 _atom_site_fract_z
 _atom_site_occupancy
  Ba  Ba0  1  0.21155567  0.21009410  0.31372586  1
  Ba  Ba1  1  0.79103653  0.78962059  0.68656139  1
  Ba  Ba2  1  0.72618004  0.22471847  0.81372586  1
  Ba  Ba3  1  0.77381802  0.27240208  0.18656139  1
  Ba  Ba4  1  0.74326009  0.26035077  0.50007785  1
  Ba  Ba5  1  0.48957139  0.50666206  0.00007785  1
  Ga  Ga6  1  0.89952289  0.54440706  0.33539471  1
  Ga  Ga7  1  0.45690812  0.10097698  0.66452982  1
  Ga  Ga8  1  0.37019823  0.51508241  0.83539471  1
  Ga  Ga9  1  0.48449320  0.62856206  0.16452982  1
  B  B10  1  0.89409956  0.84264749  0.53651675  1
  B  B11  1  0.16139120  0.10895841  0.46379134  1
  B  B12  1  0.87083576  0.31938369  0.03651675  1
  B  B13  1  0.67725025  0.12481746  0.96379134  1
  B  B14  1  0.68456695  0.09345476  0.33603469  1
  B  B15  1  0.90751960  0.31609872  0.66397053  1
  B  B16  1  0.82051055  0.72939835  0.83603469  1
  B  B17  1  0.26993075  0.17850988  0.16397053  1
  B  B18  1  0.60717861  0.71856057  0.32526328  1
  B  B19  1  0.28236692  0.39336229  0.67475954  1
  B  B20  1  0.20617615  0.81755811  0.82526328  1
  B  B21  1  0.18187817  0.79287354  0.17475954  1
  B  B22  1  0.99627061  0.74054773  0.44227176  1
  B  B23  1  0.26263780  0.00316795  0.55764072  1
  B  B24  1  0.06718051  0.31145763  0.94227176  1
  B  B25  1  0.68919133  0.92972148  0.05764072  1
  B  B26  1  0.34255835  0.82807989  0.30419827  1
  B  B27  1  0.17284377  0.65810429  0.69583702  1
  B  B28  1  0.11772184  0.10324338  0.80419827  1
  B  B29  1  0.89605869  0.88131920  0.19583702  1
  H  H30  1  0.45734618  0.03697724  0.40433371  1
  H  H31  1  0.96476806  0.54290450  0.59554831  1
  H  H32  1  0.80868905  0.88832011  0.90433371  1
  H  H33  1  0.11154719  0.18968363  0.09554831  1
  H  H34  1  0.58818390  0.79884406  0.55996525  1
  H  H35  1  0.19345978  0.40879543  0.43887606  1
  H  H36  1  0.89119069  0.60185085  0.05996525  1
  H  H37  1  0.40232852  0.11766416  0.93887606  1
  O  O38  1  0.49980988  0.03981685  0.30131995  1
  O  O39  1  0.96120802  0.50122687  0.69848667  1
  O  O40  1  0.90886320  0.94887016  0.80131995  1
  O  O41  1  0.05028646  0.09030531  0.19848667  1
  O  O42  1  0.14123827  0.78533263  0.29511664  1
  O  O43  1  0.21584829  0.85955312  0.70492410  1
  O  O44  1  0.16955073  0.31364509  0.79511664  1
  O  O45  1  0.68552278  0.82922761  0.20492410  1
  O  O46  1  0.89016414  0.68222177  0.49806546  1
  O  O47  1  0.32122952  0.10820398  0.50173212  1
  O  O48  1  0.06971277  0.36177039  0.99806546  1
  O  O49  1  0.64006391  0.92703836  0.00173212  1
  O  O50  1  0.65092313  0.55332410  0.32423561  1
  O  O51  1  0.44770375  0.34964280  0.67560114  1
  O  O52  1  0.37244029  0.77484126  0.82423561  1
  O  O53  1  0.22475606  0.62669511  0.17560114  1
  O  O54  1  0.96175215  0.57446878  0.41101083  1
  O  O55  1  0.42868536  0.03873814  0.58893591  1
  O  O56  1  0.26452039  0.37723703  0.91101083  1
  O  O57  1  0.62232595  0.73237872  0.08893591  1
  O  O58  1  0.74876605  0.92205743  0.33408020  1
  O  O59  1  0.07899433  0.25200506  0.66583943  1
  O  O60  1  0.99386237  0.66715374  0.83408020  1
  O  O61  1  0.33215551  0.00516624  0.16583943  1
  O  O62  1  0.61341261  0.10620864  0.39578218  1
  O  O63  1  0.89479019  0.38703015  0.60412598  1
  O  O64  1  0.74800918  0.74080522  0.89578218  1
  O  O65  1  0.25884387  0.25108383  0.10412598  1
  O  O66  1  0.96120846  0.04415083  0.50025147  1
  O  O67  1  0.70559769  0.28854007  0.00025147  1
  O  O68  1  0.39330977  0.66515286  0.31743088  1
  O  O69  1  0.33567706  0.60701093  0.68283755  1
  O  O70  1  0.26741627  0.03925935  0.81743088  1
  O  O71  1  0.96015152  0.73148539  0.18283755  1
  O  O72  1  0.69265485  0.76431311  0.57411515  1
  O  O73  1  0.24391582  0.31266271  0.42685324  1
  O  O74  1  0.91157174  0.48323000  0.07411515  1
  O  O75  1  0.51048405  0.07923094  0.92685324  1
  O  O76  1  0.87083708  0.29594335  0.31008075  1
  O  O77  1  0.70515041  0.13027768  0.69013883  1
  O  O78  1  0.64397590  0.56908217  0.81008075  1
  O  O79  1  0.42958349  0.35471076  0.19013883  1
  O  O80  1  0.13724494  0.95181514  0.42147649  1
  O  O81  1  0.05111167  0.86292059  0.57846257  1
  O  O82  1  0.87670837  0.19127857  0.92147649  1
  O  O83  1  0.80861684  0.12042577  0.07846257  1
