# generated using pymatgen
data_Sr2GeSe4
_symmetry_space_group_name_H-M   'P 1'
_cell_length_a   6.55179960
_cell_length_b   6.55179961
_cell_length_c   10.45055509
_cell_angle_alpha   90.00000000
_cell_angle_beta   90.00000000
_cell_angle_gamma   110.17982322
_symmetry_Int_Tables_number   1
_chemical_formula_structural   Sr2GeSe4
_chemical_formula_sum   'Sr4 Ge2 Se8'
_cell_volume   421.06375345
_cell_formula_units_Z   2
loop_
 _symmetry_equiv_pos_site_id
 _symmetry_equiv_pos_as_xyz
  1  'x, y, z'
loop_
 _atom_site_type_symbol
 _atom_site_label
 _atom_site_symmetry_multiplicity
 _atom_site_fract_x
 _atom_site_fract_y
 _atom_site_fract_z
 _atom_site_occupancy
  Ge  Ge0  1  0.76307387  0.31158122  0.75000000  1
  Ge  Ge1  1  0.31158122  0.76307387  0.25000000  1
  Se  Se2  1  0.26338593  0.11156502  0.25000000  1
  Se  Se3  1  0.11156502  0.26338593  0.75000000  1
  Se  Se4  1  0.69821302  0.83905517  0.25000000  1
  Se  Se5  1  0.83905517  0.69821302  0.75000000  1
  Se  Se6  1  0.13519413  0.57587299  0.43822364  1
  Se  Se7  1  0.57587299  0.13519413  0.56177636  1
  Se  Se8  1  0.13519413  0.57587299  0.06177636  1
  Se  Se9  1  0.57587299  0.13519413  0.93822364  1
  Sr  Sr10  1  0.74547582  0.36525571  0.25000000  1
  Sr  Sr11  1  0.36525571  0.74547582  0.75000000  1
  Sr  Sr12  1  1.00003001  1.00003001  0.50000000  1
  Sr  Sr13  1  1.00003001  1.00003001  0.00000000  1
