# generated using pymatgen
data_K3AlSe3
_symmetry_space_group_name_H-M   'P 1'
_cell_length_a   8.19607164
_cell_length_b   8.52417375
_cell_length_c   13.31312803
_cell_angle_alpha   90.00000000
_cell_angle_beta   90.00000000
_cell_angle_gamma   101.59929294
_symmetry_Int_Tables_number   1
_chemical_formula_structural   K3AlSe3
_chemical_formula_sum   'K12 Al4 Se12'
_cell_volume   911.12308736
_cell_formula_units_Z   4
loop_
 _symmetry_equiv_pos_site_id
 _symmetry_equiv_pos_as_xyz
  1  'x, y, z'
loop_
 _atom_site_type_symbol
 _atom_site_label
 _atom_site_symmetry_multiplicity
 _atom_site_fract_x
 _atom_site_fract_y
 _atom_site_fract_z
 _atom_site_occupancy
  Al  Al0  1  0.89908132  0.84195927  0.93772351  1
  Al  Al1  1  0.60091868  0.65804073  0.43772351  1
  Al  Al2  1  0.39908132  0.34195927  0.56227649  1
  Al  Al3  1  0.10091868  0.15804073  0.06227649  1
  K  K4  1  0.77429905  0.92536856  0.68819636  1
  K  K5  1  0.22570095  0.07463144  0.31180364  1
  K  K6  1  0.72570095  0.57463144  0.18819636  1
  K  K7  1  0.27973348  0.60143088  0.10214608  1
  K  K8  1  0.15214988  0.52954469  0.38069773  1
  K  K9  1  0.34785012  0.97045531  0.88069773  1
  K  K10  1  0.84785012  0.47045531  0.61930227  1
  K  K11  1  0.65214988  0.02954469  0.11930227  1
  K  K12  1  0.77973348  0.10143088  0.39785392  1
  K  K13  1  0.72026652  0.39856912  0.89785392  1
  K  K14  1  0.22026652  0.89856912  0.60214608  1
  K  K15  1  0.27429905  0.42536856  0.81180364  1
  Se  Se16  1  0.45943852  0.63188867  0.60132201  1
  Se  Se17  1  0.04056148  0.86811133  0.10132201  1
  Se  Se18  1  0.54056148  0.36811133  0.39867799  1
  Se  Se19  1  0.95943852  0.13188867  0.89867799  1
  Se  Se20  1  0.47589860  0.80123520  0.31401117  1
  Se  Se21  1  0.02410140  0.69876480  0.81401117  1
  Se  Se22  1  0.52410140  0.19876480  0.68598883  1
  Se  Se23  1  0.97589860  0.30123520  0.18598883  1
  Se  Se24  1  0.89171221  0.76236149  0.45338071  1
  Se  Se25  1  0.60828779  0.73763851  0.95338071  1
  Se  Se26  1  0.10828779  0.23763851  0.54661929  1
  Se  Se27  1  0.39171221  0.26236149  0.04661929  1
