# generated using pymatgen
data_Eu(FeP)2
_symmetry_space_group_name_H-M   'P 1'
_cell_length_a   3.80610263
_cell_length_b   3.80610262
_cell_length_c   6.00602133
_cell_angle_alpha   108.47296984
_cell_angle_beta   108.47296977
_cell_angle_gamma   90.00000010
_symmetry_Int_Tables_number   1
_chemical_formula_structural   Eu(FeP)2
_chemical_formula_sum   'Eu1 Fe2 P2'
_cell_volume   77.78151682
_cell_formula_units_Z   1
loop_
 _symmetry_equiv_pos_site_id
 _symmetry_equiv_pos_as_xyz
  1  'x, y, z'
loop_
 _atom_site_type_symbol
 _atom_site_label
 _atom_site_symmetry_multiplicity
 _atom_site_fract_x
 _atom_site_fract_y
 _atom_site_fract_z
 _atom_site_occupancy
  P  P0  1  0.64790768  0.64790768  0.29581537  1
  P  P1  1  0.35209232  0.35209232  0.70418463  1
  Fe  Fe2  1  0.25000000  0.75000000  0.50000000  1
  Fe  Fe3  1  0.75000000  0.25000000  0.50000000  1
  Eu  Eu4  1  0.00000000  0.00000000  0.00000000  1
