# generated using pymatgen
data_LiSm2OsO6
_symmetry_space_group_name_H-M   'P 1'
_cell_length_a   5.41668892
_cell_length_b   5.82385568
_cell_length_c   7.74525906
_cell_angle_alpha   90.00000000
_cell_angle_beta   90.73351527
_cell_angle_gamma   90.00000000
_symmetry_Int_Tables_number   1
_chemical_formula_structural   LiSm2OsO6
_chemical_formula_sum   'Li2 Sm4 Os2 O12'
_cell_volume   244.31203249
_cell_formula_units_Z   2
loop_
 _symmetry_equiv_pos_site_id
 _symmetry_equiv_pos_as_xyz
  1  'x, y, z'
loop_
 _atom_site_type_symbol
 _atom_site_label
 _atom_site_symmetry_multiplicity
 _atom_site_fract_x
 _atom_site_fract_y
 _atom_site_fract_z
 _atom_site_occupancy
  Li  Li0  1  0.00000000  0.00000000  0.00000000  1
  Li  Li1  1  0.50000000  0.50000000  0.50000000  1
  O  O2  1  0.17596453  0.29085932  0.44132963  1
  O  O3  1  0.32403547  0.79085932  0.05867037  1
  O  O4  1  0.82403547  0.70914068  0.55867037  1
  O  O5  1  0.67596453  0.20914068  0.94132963  1
  O  O6  1  0.10938626  0.03813405  0.74392924  1
  O  O7  1  0.39061374  0.53813405  0.75607076  1
  O  O8  1  0.19973929  0.31715067  0.05169535  1
  O  O9  1  0.30026071  0.81715067  0.44830465  1
  O  O10  1  0.80026071  0.68284933  0.94830465  1
  O  O11  1  0.69973929  0.18284933  0.55169535  1
  O  O12  1  0.60938626  0.46186595  0.24392924  1
  O  O13  1  0.89061374  0.96186595  0.25607076  1
  Sm  Sm14  1  0.48056725  0.07489150  0.25171025  1
  Sm  Sm15  1  0.01943275  0.57489150  0.24828975  1
  Sm  Sm16  1  0.98056725  0.42510850  0.75171025  1
  Sm  Sm17  1  0.51943275  0.92510850  0.74828975  1
  Os  Os18  1  0.50000000  0.50000000  0.00000000  1
  Os  Os19  1  0.00000000  0.00000000  0.50000000  1
