# generated using pymatgen
data_Na2ZnBr4
_symmetry_space_group_name_H-M   'P 1'
_cell_length_a   6.86533533
_cell_length_b   8.70370694
_cell_length_c   14.77396885
_cell_angle_alpha   90.00000000
_cell_angle_beta   90.00000000
_cell_angle_gamma   90.00000000
_symmetry_Int_Tables_number   1
_chemical_formula_structural   Na2ZnBr4
_chemical_formula_sum   'Na8 Zn4 Br16'
_cell_volume   882.80176614
_cell_formula_units_Z   4
loop_
 _symmetry_equiv_pos_site_id
 _symmetry_equiv_pos_as_xyz
  1  'x, y, z'
loop_
 _atom_site_type_symbol
 _atom_site_label
 _atom_site_symmetry_multiplicity
 _atom_site_fract_x
 _atom_site_fract_y
 _atom_site_fract_z
 _atom_site_occupancy
  Na  Na0  1  0.00000000  0.00000000  0.00000000  1
  Na  Na1  1  0.50000000  0.00000000  0.50000000  1
  Na  Na2  1  0.00000000  0.50000000  0.00000000  1
  Na  Na3  1  0.50000000  0.50000000  0.50000000  1
  Na  Na4  1  0.00808647  0.75000000  0.73013711  1
  Na  Na5  1  0.50808647  0.25000000  0.76986289  1
  Na  Na6  1  0.99191353  0.25000000  0.26986289  1
  Na  Na7  1  0.49191353  0.75000000  0.23013711  1
  Zn  Zn8  1  0.59459674  0.75000000  0.90892160  1
  Zn  Zn9  1  0.09459674  0.25000000  0.59107840  1
  Zn  Zn10  1  0.40540326  0.25000000  0.09107840  1
  Zn  Zn11  1  0.90540326  0.75000000  0.40892160  1
  Br  Br12  1  0.24281722  0.75000000  0.90753805  1
  Br  Br13  1  0.74281722  0.25000000  0.59246195  1
  Br  Br14  1  0.75718278  0.25000000  0.09246195  1
  Br  Br15  1  0.25718278  0.75000000  0.40753805  1
  Br  Br16  1  0.76344910  0.75000000  0.56235658  1
  Br  Br17  1  0.26344910  0.25000000  0.93764342  1
  Br  Br18  1  0.23655090  0.25000000  0.43764342  1
  Br  Br19  1  0.73655090  0.75000000  0.06235658  1
  Br  Br20  1  0.74330041  0.97315461  0.83405667  1
  Br  Br21  1  0.24330041  0.02684539  0.66594333  1
  Br  Br22  1  0.25669959  0.47315461  0.16594333  1
  Br  Br23  1  0.75669959  0.52684539  0.33405667  1
  Br  Br24  1  0.25669959  0.02684539  0.16594333  1
  Br  Br25  1  0.75669959  0.97315461  0.33405667  1
  Br  Br26  1  0.74330041  0.52684539  0.83405667  1
  Br  Br27  1  0.24330041  0.47315461  0.66594333  1
