# generated using pymatgen
data_Mn5(AsO6)2
_symmetry_space_group_name_H-M   'P 1'
_cell_length_a   5.65146149
_cell_length_b   9.06500062
_cell_length_c   17.95441409
_cell_angle_alpha   90.00000000
_cell_angle_beta   90.00000000
_cell_angle_gamma   90.00000000
_symmetry_Int_Tables_number   1
_chemical_formula_structural   Mn5(AsO6)2
_chemical_formula_sum   'Mn20 As8 O48'
_cell_volume   919.81364534
_cell_formula_units_Z   4
loop_
 _symmetry_equiv_pos_site_id
 _symmetry_equiv_pos_as_xyz
  1  'x, y, z'
loop_
 _atom_site_type_symbol
 _atom_site_label
 _atom_site_symmetry_multiplicity
 _atom_site_fract_x
 _atom_site_fract_y
 _atom_site_fract_z
 _atom_site_occupancy
  Mn  Mn0  1  0.78050934  0.77892868  0.56603508  1
  Mn  Mn1  1  0.21949066  0.27892868  0.93396492  1
  Mn  Mn2  1  0.71949066  0.22107132  0.06603508  1
  Mn  Mn3  1  0.28050934  0.72107132  0.43396492  1
  Mn  Mn4  1  0.55406197  0.62680322  0.97279873  1
  Mn  Mn5  1  0.44593803  0.12680322  0.52720127  1
  Mn  Mn6  1  0.94593803  0.37319678  0.47279873  1
  Mn  Mn7  1  0.05406197  0.87319678  0.02720127  1
  Mn  Mn8  1  0.56047218  0.64760961  0.78609599  1
  Mn  Mn9  1  0.43952782  0.14760961  0.71390401  1
  Mn  Mn10  1  0.93952782  0.35239039  0.28609599  1
  Mn  Mn11  1  0.06047218  0.85239039  0.21390401  1
  Mn  Mn12  1  0.05771078  0.62727752  0.87744046  1
  Mn  Mn13  1  0.94228922  0.12727752  0.62255954  1
  Mn  Mn14  1  0.44228922  0.37272248  0.37744046  1
  Mn  Mn15  1  0.55771078  0.87272248  0.12255954  1
  Mn  Mn16  1  0.09727761  0.45931980  0.70313970  1
  Mn  Mn17  1  0.90272239  0.95931980  0.79686030  1
  Mn  Mn18  1  0.40272239  0.54068020  0.20313970  1
  Mn  Mn19  1  0.59727761  0.04068020  0.29686030  1
  As  As20  1  0.60437617  0.45018093  0.62628026  1
  As  As21  1  0.39562383  0.95018093  0.87371974  1
  As  As22  1  0.89562383  0.54981907  0.12628026  1
  As  As23  1  0.10437617  0.04981907  0.37371974  1
  As  As24  1  0.68602201  0.31608547  0.87439944  1
  As  As25  1  0.31397799  0.81608547  0.62560056  1
  As  As26  1  0.81397799  0.68391453  0.37439944  1
  As  As27  1  0.18602201  0.18391453  0.12560056  1
  O  O28  1  0.24725955  0.49600499  0.94013491  1
  O  O29  1  0.75274045  0.99600499  0.55986509  1
  O  O30  1  0.25274045  0.50399501  0.44013491  1
  O  O31  1  0.74725955  0.00399501  0.05986509  1
  O  O32  1  0.86433754  0.74774791  0.80771253  1
  O  O33  1  0.13566246  0.24774791  0.69228747  1
  O  O34  1  0.63566246  0.25225209  0.30771253  1
  O  O35  1  0.36433754  0.75225209  0.19228747  1
  O  O36  1  0.89482949  0.72245373  0.96434121  1
  O  O37  1  0.10517051  0.22245373  0.53565879  1
  O  O38  1  0.60517051  0.27754627  0.46434121  1
  O  O39  1  0.39482949  0.77754627  0.03565879  1
  O  O40  1  0.24130181  0.56415283  0.78496426  1
  O  O41  1  0.75869819  0.06415283  0.71503574  1
  O  O42  1  0.25869819  0.43584717  0.28496426  1
  O  O43  1  0.74130181  0.93584717  0.21503574  1
  O  O44  1  0.96490546  0.25623743  0.85772337  1
  O  O45  1  0.03509454  0.75623743  0.64227663  1
  O  O46  1  0.53509454  0.74376257  0.35772337  1
  O  O47  1  0.46490546  0.24376257  0.14227663  1
  O  O48  1  0.70919211  0.50972029  0.87827020  1
  O  O49  1  0.29080789  0.00972029  0.62172980  1
  O  O50  1  0.79080789  0.49027971  0.37827020  1
  O  O51  1  0.20919211  0.99027971  0.12172980  1
  O  O52  1  0.46266490  0.26615705  0.81587806  1
  O  O53  1  0.53733510  0.76615705  0.68412194  1
  O  O54  1  0.03733510  0.73384295  0.31587806  1
  O  O55  1  0.96266490  0.23384295  0.18412194  1
  O  O56  1  0.56986447  0.26714831  0.96098703  1
  O  O57  1  0.43013553  0.76714831  0.53901297  1
  O  O58  1  0.93013553  0.73285169  0.46098703  1
  O  O59  1  0.06986447  0.23285169  0.03901297  1
  O  O60  1  0.60581108  0.25816356  0.62175732  1
  O  O61  1  0.39418892  0.75816356  0.87824268  1
  O  O62  1  0.89418892  0.74183644  0.12175732  1
  O  O63  1  0.10581108  0.24183644  0.37824268  1
  O  O64  1  0.73228980  0.48285158  0.71387586  1
  O  O65  1  0.26771020  0.98285158  0.78612414  1
  O  O66  1  0.76771020  0.51714842  0.21387586  1
  O  O67  1  0.23228980  0.01714842  0.28612414  1
  O  O68  1  0.79009888  0.52852512  0.56223185  1
  O  O69  1  0.20990112  0.02852512  0.93776815  1
  O  O70  1  0.70990112  0.47147488  0.06223185  1
  O  O71  1  0.29009888  0.97147488  0.43776815  1
  O  O72  1  0.31924355  0.50821019  0.62111843  1
  O  O73  1  0.68075645  0.00821019  0.87888157  1
  O  O74  1  0.18075645  0.49178981  0.12111843  1
  O  O75  1  0.81924355  0.99178981  0.37888157  1
