# generated using pymatgen
data_Zr6CoCl15
_symmetry_space_group_name_H-M   'P 1'
_cell_length_a   9.01253339
_cell_length_b   9.01253340
_cell_length_c   9.01253339
_cell_angle_alpha   109.47122065
_cell_angle_beta   109.47122065
_cell_angle_gamma   109.47122065
_symmetry_Int_Tables_number   1
_chemical_formula_structural   Zr6CoCl15
_chemical_formula_sum   'Zr6 Co1 Cl15'
_cell_volume   563.53224299
_cell_formula_units_Z   1
loop_
 _symmetry_equiv_pos_site_id
 _symmetry_equiv_pos_as_xyz
  1  'x, y, z'
loop_
 _atom_site_type_symbol
 _atom_site_label
 _atom_site_symmetry_multiplicity
 _atom_site_fract_x
 _atom_site_fract_y
 _atom_site_fract_z
 _atom_site_occupancy
  Cl  Cl0  1  0.00000000  0.24541510  0.75458490  1
  Cl  Cl1  1  0.50000000  0.50000000  0.00000000  1
  Cl  Cl2  1  0.50000000  0.00000000  0.50000000  1
  Cl  Cl3  1  0.00000000  0.50000000  0.50000000  1
  Cl  Cl4  1  0.50916979  0.75458490  0.75458490  1
  Cl  Cl5  1  0.75458490  0.50916979  0.75458490  1
  Cl  Cl6  1  0.49083021  0.24541510  0.24541510  1
  Cl  Cl7  1  0.24541510  0.00000000  0.75458490  1
  Cl  Cl8  1  0.24541510  0.49083021  0.24541510  1
  Cl  Cl9  1  0.24541510  0.24541510  0.49083021  1
  Cl  Cl10  1  0.24541510  0.75458490  0.00000000  1
  Cl  Cl11  1  0.75458490  0.00000000  0.24541510  1
  Cl  Cl12  1  0.00000000  0.75458490  0.24541510  1
  Cl  Cl13  1  0.75458490  0.75458490  0.50916979  1
  Cl  Cl14  1  0.75458490  0.24541510  0.00000000  1
  Co  Co15  1  0.00000000  0.00000000  0.00000000  1
  Zr  Zr16  1  0.76163755  0.76163755  0.00000000  1
  Zr  Zr17  1  0.23836245  0.23836245  0.00000000  1
  Zr  Zr18  1  0.00000000  0.76163755  0.76163755  1
  Zr  Zr19  1  0.76163755  0.00000000  0.76163755  1
  Zr  Zr20  1  0.23836245  0.00000000  0.23836245  1
  Zr  Zr21  1  0.00000000  0.23836245  0.23836245  1
