# generated using pymatgen
data_RbDy2CuSe4
_symmetry_space_group_name_H-M   'P 1'
_cell_length_a   4.13989716
_cell_length_b   7.45626144
_cell_length_c   14.43578636
_cell_angle_alpha   90.00000000
_cell_angle_beta   90.00000000
_cell_angle_gamma   106.11774040
_symmetry_Int_Tables_number   1
_chemical_formula_structural   RbDy2CuSe4
_chemical_formula_sum   'Rb2 Dy4 Cu2 Se8'
_cell_volume   428.09076873
_cell_formula_units_Z   2
loop_
 _symmetry_equiv_pos_site_id
 _symmetry_equiv_pos_as_xyz
  1  'x, y, z'
loop_
 _atom_site_type_symbol
 _atom_site_label
 _atom_site_symmetry_multiplicity
 _atom_site_fract_x
 _atom_site_fract_y
 _atom_site_fract_z
 _atom_site_occupancy
  Cu  Cu0  1  0.83678300  0.67356599  0.75000000  1
  Cu  Cu1  1  0.16321700  0.32643401  0.25000000  1
  Se  Se2  1  0.57049174  0.14098349  0.25000000  1
  Se  Se3  1  0.42950826  0.85901651  0.75000000  1
  Se  Se4  1  0.26171647  0.52343294  0.10903444  1
  Se  Se5  1  0.73828353  0.47656706  0.89096556  1
  Se  Se6  1  0.00000000  0.00000000  0.50000000  1
  Se  Se7  1  0.00000000  0.00000000  0.00000000  1
  Se  Se8  1  0.26171647  0.52343294  0.39096556  1
  Se  Se9  1  0.73828353  0.47656706  0.60903444  1
  Rb  Rb10  1  0.11028646  0.22057292  0.75000000  1
  Rb  Rb11  1  0.88971354  0.77942708  0.25000000  1
  Dy  Dy12  1  0.63397181  0.26794363  0.06385326  1
  Dy  Dy13  1  0.36602819  0.73205637  0.93614674  1
  Dy  Dy14  1  0.63397181  0.26794363  0.43614674  1
  Dy  Dy15  1  0.36602819  0.73205637  0.56385326  1
