# generated using pymatgen
data_V(BiO3)2
_symmetry_space_group_name_H-M   'P 1'
_cell_length_a   6.98296867
_cell_length_b   7.84380700
_cell_length_c   10.91055436
_cell_angle_alpha   90.00000000
_cell_angle_beta   107.66630173
_cell_angle_gamma   90.00000000
_symmetry_Int_Tables_number   1
_chemical_formula_structural   V(BiO3)2
_chemical_formula_sum   'V4 Bi8 O24'
_cell_volume   569.42148654
_cell_formula_units_Z   4
loop_
 _symmetry_equiv_pos_site_id
 _symmetry_equiv_pos_as_xyz
  1  'x, y, z'
loop_
 _atom_site_type_symbol
 _atom_site_label
 _atom_site_symmetry_multiplicity
 _atom_site_fract_x
 _atom_site_fract_y
 _atom_site_fract_z
 _atom_site_occupancy
  V  V0  1  0.12150677  0.94987206  0.33378634  1
  V  V1  1  0.87849323  0.44987206  0.16621366  1
  V  V2  1  0.87849323  0.05012794  0.66621366  1
  V  V3  1  0.12150677  0.55012794  0.83378634  1
  Bi  Bi4  1  0.26527824  0.10384351  0.98625124  1
  Bi  Bi5  1  0.73472176  0.60384351  0.51374876  1
  Bi  Bi6  1  0.73472176  0.89615649  0.01374876  1
  Bi  Bi7  1  0.26527824  0.39615649  0.48625124  1
  Bi  Bi8  1  0.37920818  0.66695990  0.16231120  1
  Bi  Bi9  1  0.62079182  0.16695990  0.33768880  1
  Bi  Bi10  1  0.62079182  0.33304010  0.83768880  1
  Bi  Bi11  1  0.37920818  0.83304010  0.66231120  1
  O  O12  1  0.48170286  0.90067851  0.09058953  1
  O  O13  1  0.51829714  0.40067851  0.40941047  1
  O  O14  1  0.51829714  0.09932149  0.90941047  1
  O  O15  1  0.48170286  0.59932149  0.59058953  1
  O  O16  1  0.41462464  0.24884062  0.15517093  1
  O  O17  1  0.58537536  0.74884062  0.34482907  1
  O  O18  1  0.58537536  0.75115938  0.84482907  1
  O  O19  1  0.41462464  0.25115938  0.65517093  1
  O  O20  1  0.17919319  0.87221795  0.19809046  1
  O  O21  1  0.82080681  0.37221795  0.30190954  1
  O  O22  1  0.82080681  0.12778205  0.80190954  1
  O  O23  1  0.17919319  0.62778205  0.69809046  1
  O  O24  1  0.14277003  0.80083847  0.45709216  1
  O  O25  1  0.85722997  0.30083847  0.04290784  1
  O  O26  1  0.85722997  0.19916153  0.54290784  1
  O  O27  1  0.14277003  0.69916153  0.95709216  1
  O  O28  1  0.28725663  0.11716953  0.40194354  1
  O  O29  1  0.71274337  0.61716953  0.09805646  1
  O  O30  1  0.71274337  0.88283047  0.59805646  1
  O  O31  1  0.28725663  0.38283047  0.90194354  1
  O  O32  1  0.87568836  0.01808297  0.27324368  1
  O  O33  1  0.12431164  0.51808297  0.22675632  1
  O  O34  1  0.12431164  0.98191703  0.72675632  1
  O  O35  1  0.87568836  0.48191703  0.77324368  1
