# generated using pymatgen
data_Dy3Se3N
_symmetry_space_group_name_H-M   'P 1'
_cell_length_a   3.95016637
_cell_length_b   12.57249987
_cell_length_c   13.22139462
_cell_angle_alpha   90.00000000
_cell_angle_beta   90.00000000
_cell_angle_gamma   90.00000000
_symmetry_Int_Tables_number   1
_chemical_formula_structural   Dy3Se3N
_chemical_formula_sum   'Dy12 Se12 N4'
_cell_volume   656.62028447
_cell_formula_units_Z   4
loop_
 _symmetry_equiv_pos_site_id
 _symmetry_equiv_pos_as_xyz
  1  'x, y, z'
loop_
 _atom_site_type_symbol
 _atom_site_label
 _atom_site_symmetry_multiplicity
 _atom_site_fract_x
 _atom_site_fract_y
 _atom_site_fract_z
 _atom_site_occupancy
  Dy  Dy0  1  0.75000000  0.79736446  0.14258267  1
  Dy  Dy1  1  0.75000000  0.95784740  0.85001539  1
  Dy  Dy2  1  0.75000000  0.43760704  0.13410823  1
  Dy  Dy3  1  0.75000000  0.29736446  0.35741733  1
  Dy  Dy4  1  0.75000000  0.45784740  0.64998461  1
  Dy  Dy5  1  0.25000000  0.06239296  0.63410823  1
  Dy  Dy6  1  0.25000000  0.56239296  0.86589177  1
  Dy  Dy7  1  0.25000000  0.20263554  0.85741733  1
  Dy  Dy8  1  0.25000000  0.70263554  0.64258267  1
  Dy  Dy9  1  0.25000000  0.04215260  0.14998461  1
  Dy  Dy10  1  0.25000000  0.54215260  0.35001539  1
  Dy  Dy11  1  0.75000000  0.93760704  0.36589177  1
  Se  Se12  1  0.75000000  0.40334675  0.89808413  1
  Se  Se13  1  0.25000000  0.36980097  0.49416678  1
  Se  Se14  1  0.75000000  0.13019903  0.99416678  1
  Se  Se15  1  0.25000000  0.86980097  0.00583322  1
  Se  Se16  1  0.25000000  0.27537029  0.18787508  1
  Se  Se17  1  0.75000000  0.63019903  0.50583322  1
  Se  Se18  1  0.75000000  0.90334675  0.60191587  1
  Se  Se19  1  0.25000000  0.09665325  0.39808413  1
  Se  Se20  1  0.75000000  0.72462971  0.81212492  1
  Se  Se21  1  0.75000000  0.22462971  0.68787508  1
  Se  Se22  1  0.25000000  0.59665325  0.10191587  1
  Se  Se23  1  0.25000000  0.77537029  0.31212492  1
  N  N24  1  0.75000000  0.46385429  0.29700724  1
  N  N25  1  0.75000000  0.96385429  0.20299276  1
  N  N26  1  0.25000000  0.03614571  0.79700724  1
  N  N27  1  0.25000000  0.53614571  0.70299276  1
