# generated using pymatgen
data_K2TeClF5
_symmetry_space_group_name_H-M   'P 1'
_cell_length_a   4.69917407
_cell_length_b   10.75689789
_cell_length_c   15.00128007
_cell_angle_alpha   90.00000000
_cell_angle_beta   90.96819728
_cell_angle_gamma   90.00000000
_symmetry_Int_Tables_number   1
_chemical_formula_structural   K2TeClF5
_chemical_formula_sum   'K8 Te4 Cl4 F20'
_cell_volume   758.18447778
_cell_formula_units_Z   4
loop_
 _symmetry_equiv_pos_site_id
 _symmetry_equiv_pos_as_xyz
  1  'x, y, z'
loop_
 _atom_site_type_symbol
 _atom_site_label
 _atom_site_symmetry_multiplicity
 _atom_site_fract_x
 _atom_site_fract_y
 _atom_site_fract_z
 _atom_site_occupancy
  K  K0  1  0.24196430  0.07639686  0.89438058  1
  K  K1  1  0.76422348  0.33931491  0.07920784  1
  K  K2  1  0.26422348  0.16068509  0.57920784  1
  K  K3  1  0.25803570  0.57639686  0.60561942  1
  K  K4  1  0.74196430  0.42360314  0.39438058  1
  K  K5  1  0.23577652  0.66068509  0.92079216  1
  K  K6  1  0.75803570  0.92360314  0.10561942  1
  K  K7  1  0.73577652  0.83931491  0.42079216  1
  Te  Te8  1  0.35989722  0.62975824  0.18209351  1
  Te  Te9  1  0.85989722  0.87024176  0.68209351  1
  Te  Te10  1  0.14010278  0.12975824  0.31790649  1
  Te  Te11  1  0.64010278  0.37024176  0.81790649  1
  Cl  Cl12  1  0.26981046  0.12779937  0.09875473  1
  Cl  Cl13  1  0.76981046  0.37220063  0.59875473  1
  Cl  Cl14  1  0.73018954  0.87220063  0.90124527  1
  Cl  Cl15  1  0.23018954  0.62779937  0.40124527  1
  F  F16  1  0.38484485  0.24497102  0.75886966  1
  F  F17  1  0.72569381  0.72835661  0.60135422  1
  F  F18  1  0.27584357  0.00283583  0.40983967  1
  F  F19  1  0.27430619  0.27164339  0.39864578  1
  F  F20  1  0.38663503  0.50618759  0.77205221  1
  F  F21  1  0.66214910  0.63766586  0.09657341  1
  F  F22  1  0.88484485  0.25502898  0.25886966  1
  F  F23  1  0.22415643  0.50283583  0.09016033  1
  F  F24  1  0.83785090  0.13766586  0.40342659  1
  F  F25  1  0.22569381  0.77164339  0.10135422  1
  F  F26  1  0.88663503  0.99381241  0.27205221  1
  F  F27  1  0.61515515  0.75502898  0.24113034  1
  F  F28  1  0.16214910  0.86233414  0.59657341  1
  F  F29  1  0.33785090  0.36233414  0.90342659  1
  F  F30  1  0.77584357  0.49716417  0.90983967  1
  F  F31  1  0.77430619  0.22835661  0.89864578  1
  F  F32  1  0.11336497  0.00618759  0.72794779  1
  F  F33  1  0.61336497  0.49381241  0.22794779  1
  F  F34  1  0.11515515  0.74497102  0.74113034  1
  F  F35  1  0.72415643  0.99716417  0.59016033  1
