# generated using pymatgen
data_Ca7Ni4Sn13
_symmetry_space_group_name_H-M   'P 1'
_cell_length_a   4.64714153
_cell_length_b   11.31080809
_cell_length_c   11.31080809
_cell_angle_alpha   90.00000000
_cell_angle_beta   90.00000000
_cell_angle_gamma   90.00000000
_symmetry_Int_Tables_number   1
_chemical_formula_structural   Ca7Ni4Sn13
_chemical_formula_sum   'Ca7 Ni4 Sn13'
_cell_volume   594.52916878
_cell_formula_units_Z   1
loop_
 _symmetry_equiv_pos_site_id
 _symmetry_equiv_pos_as_xyz
  1  'x, y, z'
loop_
 _atom_site_type_symbol
 _atom_site_label
 _atom_site_symmetry_multiplicity
 _atom_site_fract_x
 _atom_site_fract_y
 _atom_site_fract_z
 _atom_site_occupancy
  Ca  Ca0  1  -0.00000000  0.17052519  0.83701362  1
  Ca  Ca1  1  -0.00000000  0.83701362  0.82947481  1
  Ca  Ca2  1  -0.00000000  0.82947481  0.16298638  1
  Ca  Ca3  1  0.00000000  0.16298638  0.17052519  1
  Ca  Ca4  1  0.50000000  0.50000000  0.50000000  1
  Ca  Ca5  1  -0.00000000  0.50000000  0.00000000  1
  Ca  Ca6  1  -0.00000000  0.00000000  0.50000000  1
  Ni  Ni7  1  0.50000000  0.61905285  0.77573397  1
  Ni  Ni8  1  0.50000000  0.77573397  0.38094715  1
  Ni  Ni9  1  0.50000000  0.22426603  0.61905285  1
  Ni  Ni10  1  0.50000000  0.38094715  0.22426603  1
  Sn  Sn11  1  0.50000000  0.28546566  0.01816329  1
  Sn  Sn12  1  0.50000000  0.71453434  0.98183671  1
  Sn  Sn13  1  0.50000000  0.61062268  0.21695040  1
  Sn  Sn14  1  -0.00000000  0.30909289  0.57570935  1
  Sn  Sn15  1  -0.00000000  0.57570935  0.69090711  1
  Sn  Sn16  1  0.50000000  0.38937732  0.78304960  1
  Sn  Sn17  1  0.50000000  0.01816329  0.71453434  1
  Sn  Sn18  1  0.50000000  0.00000000  0.00000000  1
  Sn  Sn19  1  0.50000000  0.98183671  0.28546566  1
  Sn  Sn20  1  -0.00000000  0.69090711  0.42429065  1
  Sn  Sn21  1  0.50000000  0.78304960  0.61062268  1
  Sn  Sn22  1  -0.00000000  0.42429065  0.30909289  1
  Sn  Sn23  1  0.50000000  0.21695040  0.38937732  1
