# generated using pymatgen
data_TmBi2ClO4
_symmetry_space_group_name_H-M   'P 1'
_cell_length_a   3.87139098
_cell_length_b   3.87134622
_cell_length_c   9.00831013
_cell_angle_alpha   90.00000000
_cell_angle_beta   90.00000000
_cell_angle_gamma   90.00000000
_symmetry_Int_Tables_number   1
_chemical_formula_structural   TmBi2ClO4
_chemical_formula_sum   'Tm1 Bi2 Cl1 O4'
_cell_volume   135.01200156
_cell_formula_units_Z   1
loop_
 _symmetry_equiv_pos_site_id
 _symmetry_equiv_pos_as_xyz
  1  'x, y, z'
loop_
 _atom_site_type_symbol
 _atom_site_label
 _atom_site_symmetry_multiplicity
 _atom_site_fract_x
 _atom_site_fract_y
 _atom_site_fract_z
 _atom_site_occupancy
  O  O0  1  0.00000000  0.50000000  0.15039444  1
  O  O1  1  0.50000000  0.00000000  0.15039131  1
  Bi  Bi2  1  0.50000000  0.50000000  0.72303289  1
  O  O3  1  0.00000000  0.50000000  0.84960284  1
  Bi  Bi4  1  0.50000000  0.50000000  0.27696666  1
  Tm  Tm5  1  0.00000000  0.00000000  0.00000341  1
  O  O6  1  0.50000000  0.00000000  0.84960609  1
  Cl  Cl7  1  0.00000000  0.00000000  0.50000236  1
