# generated using pymatgen
data_CsUGa(PO5)2
_symmetry_space_group_name_H-M   'P 1'
_cell_length_a   7.94227545
_cell_length_b   8.64539602
_cell_length_c   9.09602871
_cell_angle_alpha   66.21012423
_cell_angle_beta   70.07563829
_cell_angle_gamma   83.57661095
_symmetry_Int_Tables_number   1
_chemical_formula_structural   CsUGa(PO5)2
_chemical_formula_sum   'Cs2 U2 Ga2 P4 O20'
_cell_volume   537.05563088
_cell_formula_units_Z   2
loop_
 _symmetry_equiv_pos_site_id
 _symmetry_equiv_pos_as_xyz
  1  'x, y, z'
loop_
 _atom_site_type_symbol
 _atom_site_label
 _atom_site_symmetry_multiplicity
 _atom_site_fract_x
 _atom_site_fract_y
 _atom_site_fract_z
 _atom_site_occupancy
  Cs  Cs0  1  0.66719192  0.69594685  0.48422683  1
  Cs  Cs1  1  0.33280808  0.30405315  0.51577317  1
  U  U2  1  0.21496768  0.92149602  0.33389846  1
  U  U3  1  0.78503232  0.07850398  0.66610154  1
  Ga  Ga4  1  0.24541525  0.57807083  0.98791462  1
  Ga  Ga5  1  0.75458475  0.42192917  0.01208538  1
  P  P6  1  0.04273432  0.67484288  0.71611084  1
  P  P7  1  0.95726568  0.32515712  0.28388916  1
  P  P8  1  0.52704818  0.73612556  0.05629681  1
  P  P9  1  0.47295182  0.26387444  0.94370319  1
  O  O10  1  0.63261526  0.00789068  0.59366822  1
  O  O11  1  0.44381151  0.77250928  0.21826203  1
  O  O12  1  0.67994281  0.86354373  0.92682182  1
  O  O13  1  0.11252049  0.45902889  0.21253119  1
  O  O14  1  0.94505703  0.15400863  0.72655243  1
  O  O15  1  0.79975294  0.35426312  0.42400495  1
  O  O16  1  0.02433752  0.14791044  0.37609611  1
  O  O17  1  0.59765279  0.55168249  0.11583425  1
  O  O18  1  0.09162717  0.67691932  0.86631222  1
  O  O19  1  0.20024706  0.64573688  0.57599505  1
  O  O20  1  0.32005719  0.13645627  0.07317818  1
  O  O21  1  0.97566248  0.85208956  0.62390389  1
  O  O22  1  0.05494297  0.84599137  0.27344757  1
  O  O23  1  0.55618849  0.22749072  0.78173797  1
  O  O24  1  0.90837283  0.32308068  0.13368778  1
  O  O25  1  0.38253205  0.74429146  0.97254831  1
  O  O26  1  0.61746795  0.25570854  0.02745169  1
  O  O27  1  0.88747951  0.54097111  0.78746881  1
  O  O28  1  0.40234721  0.44831751  0.88416575  1
  O  O29  1  0.36738474  0.99210932  0.40633178  1
