# generated using pymatgen
data_BaGa2B2O7
_symmetry_space_group_name_H-M   'P 1'
_cell_length_a   5.92738977
_cell_length_b   7.38395796
_cell_length_c   7.38395762
_cell_angle_alpha   107.00963297
_cell_angle_beta   90.00000000
_cell_angle_gamma   90.00000000
_symmetry_Int_Tables_number   1
_chemical_formula_structural   BaGa2B2O7
_chemical_formula_sum   'Ba2 Ga4 B4 O14'
_cell_volume   309.04084514
_cell_formula_units_Z   2
loop_
 _symmetry_equiv_pos_site_id
 _symmetry_equiv_pos_as_xyz
  1  'x, y, z'
loop_
 _atom_site_type_symbol
 _atom_site_label
 _atom_site_symmetry_multiplicity
 _atom_site_fract_x
 _atom_site_fract_y
 _atom_site_fract_z
 _atom_site_occupancy
  Ba  Ba0  1  0.75000000  0.19444341  0.19444341  1
  Ba  Ba1  1  0.25000000  0.80555659  0.80555659  1
  Ga  Ga2  1  0.75000000  0.13045332  0.71130877  1
  Ga  Ga3  1  0.25000000  0.28869123  0.86954668  1
  Ga  Ga4  1  0.75000000  0.71130877  0.13045332  1
  Ga  Ga5  1  0.25000000  0.86954668  0.28869123  1
  B  B6  1  0.25000000  0.50234742  0.28093630  1
  B  B7  1  0.75000000  0.49765258  0.71906370  1
  B  B8  1  0.75000000  0.71906370  0.49765258  1
  B  B9  1  0.25000000  0.28093630  0.50234742  1
  O  O10  1  0.50000000  0.13449506  0.86550494  1
  O  O11  1  0.75000000  0.66773101  0.66773101  1
  O  O12  1  0.00000000  0.86550494  0.13449506  1
  O  O13  1  0.75000000  0.32153379  0.58695642  1
  O  O14  1  0.50000000  0.86550494  0.13449506  1
  O  O15  1  0.00000000  0.13449506  0.86550494  1
  O  O16  1  0.25000000  0.33226899  0.33226899  1
  O  O17  1  0.25000000  0.09290696  0.48891467  1
  O  O18  1  0.25000000  0.67846621  0.41304358  1
  O  O19  1  0.75000000  0.51108533  0.90709304  1
  O  O20  1  0.75000000  0.90709304  0.51108533  1
  O  O21  1  0.75000000  0.58695642  0.32153379  1
  O  O22  1  0.25000000  0.41304358  0.67846621  1
  O  O23  1  0.25000000  0.48891467  0.09290696  1
