# generated using pymatgen
data_KBiN(ClO)3
_symmetry_space_group_name_H-M   'P 1'
_cell_length_a   8.55217763
_cell_length_b   10.26461552
_cell_length_c   10.50436907
_cell_angle_alpha   113.75574129
_cell_angle_beta   90.00000000
_cell_angle_gamma   90.00000000
_symmetry_Int_Tables_number   1
_chemical_formula_structural   KBiN(ClO)3
_chemical_formula_sum   'K4 Bi4 N4 Cl12 O12'
_cell_volume   843.99355377
_cell_formula_units_Z   4
loop_
 _symmetry_equiv_pos_site_id
 _symmetry_equiv_pos_as_xyz
  1  'x, y, z'
loop_
 _atom_site_type_symbol
 _atom_site_label
 _atom_site_symmetry_multiplicity
 _atom_site_fract_x
 _atom_site_fract_y
 _atom_site_fract_z
 _atom_site_occupancy
  K  K0  1  0.57340627  0.35312533  0.21626112  1
  K  K1  1  0.42659373  0.64687467  0.78373888  1
  K  K2  1  0.92659373  0.35312533  0.71626112  1
  K  K3  1  0.07340627  0.64687467  0.28373888  1
  Bi  Bi4  1  0.07964245  0.13945433  0.22408620  1
  Bi  Bi5  1  0.57964245  0.86054567  0.27591380  1
  Bi  Bi6  1  0.92035755  0.86054567  0.77591380  1
  Bi  Bi7  1  0.42035755  0.13945433  0.72408620  1
  N  N8  1  0.78551694  0.67434145  0.95154933  1
  N  N9  1  0.71448306  0.67434145  0.45154933  1
  N  N10  1  0.21448306  0.32565855  0.04845067  1
  N  N11  1  0.28551694  0.32565855  0.54845067  1
  Cl  Cl12  1  0.59548794  0.34045014  0.88460700  1
  Cl  Cl13  1  0.87351069  0.13832610  0.03838155  1
  Cl  Cl14  1  0.09548794  0.65954986  0.61539300  1
  Cl  Cl15  1  0.62648931  0.13832610  0.53838155  1
  Cl  Cl16  1  0.44517634  0.03958977  0.19529923  1
  Cl  Cl17  1  0.12648931  0.86167390  0.96161845  1
  Cl  Cl18  1  0.55482366  0.96041023  0.80470077  1
  Cl  Cl19  1  0.37351069  0.86167390  0.46161845  1
  Cl  Cl20  1  0.90451206  0.34045014  0.38460700  1
  Cl  Cl21  1  0.94517634  0.96041023  0.30470077  1
  Cl  Cl22  1  0.05482366  0.03958977  0.69529923  1
  Cl  Cl23  1  0.40451206  0.65954986  0.11539300  1
  O  O24  1  0.29335818  0.35777384  0.68136240  1
  O  O25  1  0.20630351  0.21561647  0.47598740  1
  O  O26  1  0.79335818  0.64222616  0.81863760  1
  O  O27  1  0.14718566  0.40119918  0.99852094  1
  O  O28  1  0.29369649  0.21561647  0.97598740  1
  O  O29  1  0.79369649  0.78438353  0.52401260  1
  O  O30  1  0.35281434  0.40119918  0.49852094  1
  O  O31  1  0.85281434  0.59880082  0.00147906  1
  O  O32  1  0.70630351  0.78438353  0.02401260  1
  O  O33  1  0.20664182  0.35777384  0.18136240  1
  O  O34  1  0.64718566  0.59880082  0.50147906  1
  O  O35  1  0.70664182  0.64222616  0.31863760  1
