# generated using pymatgen
data_Cd2PbO4
_symmetry_space_group_name_H-M   'P 1'
_cell_length_a   5.75198595
_cell_length_b   10.17753657
_cell_length_c   3.36526395
_cell_angle_alpha   90.00572554
_cell_angle_beta   89.99414104
_cell_angle_gamma   90.01190243
_symmetry_Int_Tables_number   1
_chemical_formula_structural   Cd2PbO4
_chemical_formula_sum   'Cd4 Pb2 O8'
_cell_volume   197.00606982
_cell_formula_units_Z   2
loop_
 _symmetry_equiv_pos_site_id
 _symmetry_equiv_pos_as_xyz
  1  'x, y, z'
loop_
 _atom_site_type_symbol
 _atom_site_label
 _atom_site_symmetry_multiplicity
 _atom_site_fract_x
 _atom_site_fract_y
 _atom_site_fract_z
 _atom_site_occupancy
  Cd  Cd0  1  0.05990028  0.32286013  0.49997963  1
  Cd  Cd1  1  0.44015495  0.82290806  0.49998470  1
  Cd  Cd2  1  0.55991577  0.17707226  0.50000180  1
  Cd  Cd3  1  0.94014182  0.67717451  0.49999572  1
  Pb  Pb4  1  -0.00023716  0.00003109  0.00007433  1
  Pb  Pb5  1  0.49995010  0.50002400  0.00006440  1
  O  O6  1  0.14623276  0.80130068  0.99995203  1
  O  O7  1  0.24669657  0.03853173  0.49997114  1
  O  O8  1  0.25344292  0.53846316  0.49994129  1
  O  O9  1  0.35379058  0.30133490  0.99994598  1
  O  O10  1  0.64618681  0.69863567  0.00009129  1
  O  O11  1  0.74659333  0.46146710  0.49986341  1
  O  O12  1  0.75345130  0.96150205  0.50010565  1
  O  O13  1  0.85377999  0.19869464  0.00002863  1
