# generated using pymatgen
data_RbTaGeS5
_symmetry_space_group_name_H-M   'P 1'
_cell_length_a   7.02748143
_cell_length_b   7.22185798
_cell_length_c   9.19454070
_cell_angle_alpha   69.37528400
_cell_angle_beta   78.37007461
_cell_angle_gamma   75.82687684
_symmetry_Int_Tables_number   1
_chemical_formula_structural   RbTaGeS5
_chemical_formula_sum   'Rb2 Ta2 Ge2 S10'
_cell_volume   420.00018547
_cell_formula_units_Z   2
loop_
 _symmetry_equiv_pos_site_id
 _symmetry_equiv_pos_as_xyz
  1  'x, y, z'
loop_
 _atom_site_type_symbol
 _atom_site_label
 _atom_site_symmetry_multiplicity
 _atom_site_fract_x
 _atom_site_fract_y
 _atom_site_fract_z
 _atom_site_occupancy
  Rb  Rb0  1  0.59283989  0.35914385  0.31033647  1
  Rb  Rb1  1  0.40715918  0.64086131  0.68966363  1
  Ta  Ta2  1  0.24051355  0.02784234  0.00426992  1
  Ta  Ta3  1  0.75948667  0.97215663  0.99572935  1
  Ge  Ge4  1  0.97784315  0.70592448  0.37643908  1
  Ge  Ge5  1  0.02215718  0.29407461  0.62356044  1
  S  S6  1  0.06681462  0.75396135  0.00901278  1
  S  S7  1  0.44119704  0.22759059  0.02996158  1
  S  S8  1  0.69017816  0.87028359  0.29293456  1
  S  S9  1  0.21840463  0.88069148  0.29531141  1
  S  S10  1  0.06866865  0.39023212  0.35613454  1
  S  S11  1  0.93133059  0.60976796  0.64386601  1
  S  S12  1  0.78159672  0.11930724  0.70468862  1
  S  S13  1  0.30982181  0.12971453  0.70706517  1
  S  S14  1  0.55880309  0.77240897  0.97003938  1
  S  S15  1  0.93318505  0.24603895  0.99098705  1
