# generated using pymatgen
data_CsAlV(PO5)2
_symmetry_space_group_name_H-M   'P 1'
_cell_length_a   8.06879993
_cell_length_b   8.27653158
_cell_length_c   14.27645967
_cell_angle_alpha   90.00000000
_cell_angle_beta   104.60935348
_cell_angle_gamma   90.00000000
_symmetry_Int_Tables_number   1
_chemical_formula_structural   CsAlV(PO5)2
_chemical_formula_sum   'Cs4 Al4 V4 P8 O40'
_cell_volume   922.58041191
_cell_formula_units_Z   4
loop_
 _symmetry_equiv_pos_site_id
 _symmetry_equiv_pos_as_xyz
  1  'x, y, z'
loop_
 _atom_site_type_symbol
 _atom_site_label
 _atom_site_symmetry_multiplicity
 _atom_site_fract_x
 _atom_site_fract_y
 _atom_site_fract_z
 _atom_site_occupancy
  Cs  Cs0  1  0.61783628  0.97604097  0.29944127  1
  Cs  Cs1  1  0.11783628  0.52395903  0.79944127  1
  Cs  Cs2  1  0.38216372  0.02395903  0.70055873  1
  Cs  Cs3  1  0.88216372  0.47604097  0.20055873  1
  Al  Al4  1  0.24694719  0.96181486  0.96650811  1
  Al  Al5  1  0.74694719  0.53818514  0.46650811  1
  Al  Al6  1  0.75305281  0.03818514  0.03349189  1
  Al  Al7  1  0.25305281  0.46181486  0.53349189  1
  V  V8  1  0.66043183  0.54480088  0.86394263  1
  V  V9  1  0.16043183  0.95519912  0.36394263  1
  V  V10  1  0.33956817  0.45519912  0.13605737  1
  V  V11  1  0.83956817  0.04480088  0.63605737  1
  P  P12  1  0.53645583  0.72820918  0.03990789  1
  P  P13  1  0.03645583  0.77179082  0.53990789  1
  P  P14  1  0.46354417  0.27179082  0.96009211  1
  P  P15  1  0.96354417  0.22820918  0.46009211  1
  P  P16  1  0.14268914  0.10718289  0.14700238  1
  P  P17  1  0.64268914  0.39281711  0.64700238  1
  P  P18  1  0.85731086  0.89281711  0.85299762  1
  P  P19  1  0.35731086  0.60718289  0.35299762  1
  O  O20  1  0.50486159  0.66020623  0.79899816  1
  O  O21  1  0.00486159  0.83979377  0.29899816  1
  O  O22  1  0.49513841  0.33979377  0.20100184  1
  O  O23  1  0.99513841  0.16020623  0.70100184  1
  O  O24  1  0.64078447  0.61279715  0.99110630  1
  O  O25  1  0.14078447  0.88720285  0.49110630  1
  O  O26  1  0.35921553  0.38720285  0.00889370  1
  O  O27  1  0.85921553  0.11279715  0.50889370  1
  O  O28  1  0.50010201  0.64223270  0.12837526  1
  O  O29  1  0.00010201  0.85776730  0.62837526  1
  O  O30  1  0.49989799  0.35776730  0.87162474  1
  O  O31  1  -0.00010201  0.14223270  0.37162474  1
  O  O32  1  0.37071999  0.78550204  0.96651652  1
  O  O33  1  0.87071999  0.71449796  0.46651652  1
  O  O34  1  0.62928001  0.21449796  0.03348348  1
  O  O35  1  0.12928001  0.28550204  0.53348348  1
  O  O36  1  0.35191074  0.12104337  0.92135305  1
  O  O37  1  0.85191074  0.37895663  0.42135305  1
  O  O38  1  0.64808926  0.87895663  0.07864695  1
  O  O39  1  0.14808926  0.62104337  0.57864695  1
  O  O40  1  0.54981543  0.56472766  0.38341343  1
  O  O41  1  0.04981543  0.93527234  0.88341343  1
  O  O42  1  0.45018457  0.43527234  0.61658657  1
  O  O43  1  0.95018457  0.06472766  0.11658657  1
  O  O44  1  0.23921698  0.00935202  0.08498163  1
  O  O45  1  0.73921698  0.49064798  0.58498163  1
  O  O46  1  0.76078302  0.99064798  0.91501837  1
  O  O47  1  0.26078302  0.50935202  0.41501837  1
  O  O48  1  0.16034419  0.28970733  0.13216624  1
  O  O49  1  0.66034419  0.21029267  0.63216624  1
  O  O50  1  0.83965581  0.71029267  0.86783376  1
  O  O51  1  0.33965581  0.78970733  0.36783376  1
  O  O52  1  0.21841788  0.06243869  0.25409643  1
  O  O53  1  0.71841788  0.43756131  0.75409643  1
  O  O54  1  0.78158212  0.93756131  0.74590357  1
  O  O55  1  0.28158212  0.56243869  0.24590357  1
  O  O56  1  0.35601995  0.08526113  0.43184980  1
  O  O57  1  0.85601995  0.41473887  0.93184980  1
  O  O58  1  0.64398005  0.91473887  0.56815020  1
  O  O59  1  0.14398005  0.58526113  0.06815020  1
