# generated using pymatgen
data_KNd3Te8
_symmetry_space_group_name_H-M   'P 1'
_cell_length_a   9.04141835
_cell_length_b   12.95475561
_cell_length_c   14.49900319
_cell_angle_alpha   90.00000000
_cell_angle_beta   99.96397078
_cell_angle_gamma   90.00000000
_symmetry_Int_Tables_number   1
_chemical_formula_structural   KNd3Te8
_chemical_formula_sum   'K4 Nd12 Te32'
_cell_volume   1672.64377840
_cell_formula_units_Z   4
loop_
 _symmetry_equiv_pos_site_id
 _symmetry_equiv_pos_as_xyz
  1  'x, y, z'
loop_
 _atom_site_type_symbol
 _atom_site_label
 _atom_site_symmetry_multiplicity
 _atom_site_fract_x
 _atom_site_fract_y
 _atom_site_fract_z
 _atom_site_occupancy
  K  K0  1  0.24816929  0.58723977  0.53487581  1
  K  K1  1  0.75183071  0.41276023  0.46512419  1
  K  K2  1  0.25183071  0.08723977  0.46512419  1
  K  K3  1  0.74816929  0.91276023  0.53487581  1
  Nd  Nd4  1  0.58968672  0.58357916  0.85372872  1
  Nd  Nd5  1  0.91782270  0.75051733  0.15202628  1
  Nd  Nd6  1  0.58217730  0.25051733  0.84797372  1
  Nd  Nd7  1  0.08968672  0.91642084  0.85372872  1
  Nd  Nd8  1  0.57353527  0.91439967  0.85175310  1
  Nd  Nd9  1  0.08217730  0.24948267  0.84797372  1
  Nd  Nd10  1  0.42646473  0.08560033  0.14824690  1
  Nd  Nd11  1  0.41031328  0.41642084  0.14627128  1
  Nd  Nd12  1  0.91031328  0.08357916  0.14627128  1
  Nd  Nd13  1  0.07353527  0.58560033  0.85175310  1
  Nd  Nd14  1  0.41782270  0.74948267  0.15202628  1
  Nd  Nd15  1  0.92646473  0.41439967  0.14824690  1
  Te  Te16  1  0.71852215  0.09559427  0.32333119  1
  Te  Te17  1  0.35348224  0.08518289  0.91649591  1
  Te  Te18  1  0.34804305  0.42037313  0.91402564  1
  Te  Te19  1  0.84804305  0.07962687  0.91402564  1
  Te  Te20  1  0.14909118  0.24520978  0.07966113  1
  Te  Te21  1  0.28147785  0.90440573  0.67666881  1
  Te  Te22  1  0.64909118  0.25479022  0.07966113  1
  Te  Te23  1  0.03027988  0.75125796  0.67810540  1
  Te  Te24  1  0.65195695  0.57962687  0.08597436  1
  Te  Te25  1  0.78175604  0.23030394  0.66788674  1
  Te  Te26  1  0.85348224  0.41481711  0.91649591  1
  Te  Te27  1  0.52297522  0.41917180  0.67360655  1
  Te  Te28  1  0.02297522  0.08082820  0.67360655  1
  Te  Te29  1  0.28175604  0.26969606  0.66788674  1
  Te  Te30  1  0.53027988  0.74874204  0.67810540  1
  Te  Te31  1  0.54499896  0.07986774  0.67411330  1
  Te  Te32  1  0.21824396  0.76969606  0.33211326  1
  Te  Te33  1  0.46972012  0.25125796  0.32189460  1
  Te  Te34  1  0.78147785  0.59559427  0.67666881  1
  Te  Te35  1  0.45500104  0.92013226  0.32588670  1
  Te  Te36  1  0.35090882  0.74520978  0.92033887  1
  Te  Te37  1  0.47702478  0.58082820  0.32639345  1
  Te  Te38  1  0.71824396  0.73030394  0.33211326  1
  Te  Te39  1  0.14651776  0.58518289  0.08350409  1
  Te  Te40  1  0.96972012  0.24874204  0.32189460  1
  Te  Te41  1  0.95500104  0.57986774  0.32588670  1
  Te  Te42  1  0.85090882  0.75479022  0.92033887  1
  Te  Te43  1  0.97702478  0.91917180  0.32639345  1
  Te  Te44  1  0.04499896  0.42013226  0.67411330  1
  Te  Te45  1  0.21852215  0.40440573  0.32333119  1
  Te  Te46  1  0.15195695  0.92037313  0.08597436  1
  Te  Te47  1  0.64651776  0.91481711  0.08350409  1
