# generated using pymatgen
data_Ag2H4(SO4)3
_symmetry_space_group_name_H-M   'P 1'
_cell_length_a   10.35222735
_cell_length_b   7.19595741
_cell_length_c   14.19269564
_cell_angle_alpha   90.00000000
_cell_angle_beta   90.00000000
_cell_angle_gamma   90.00000000
_symmetry_Int_Tables_number   1
_chemical_formula_structural   Ag2H4(SO4)3
_chemical_formula_sum   'Ag8 H16 S12 O48'
_cell_volume   1057.27332459
_cell_formula_units_Z   4
loop_
 _symmetry_equiv_pos_site_id
 _symmetry_equiv_pos_as_xyz
  1  'x, y, z'
loop_
 _atom_site_type_symbol
 _atom_site_label
 _atom_site_symmetry_multiplicity
 _atom_site_fract_x
 _atom_site_fract_y
 _atom_site_fract_z
 _atom_site_occupancy
  Ag  Ag0  1  0.12984533  0.24743569  0.16310296  1
  Ag  Ag1  1  0.15598271  0.37648495  0.81082935  1
  Ag  Ag2  1  0.34401729  0.87648495  0.31082935  1
  Ag  Ag3  1  0.37015467  0.74743569  0.66310296  1
  Ag  Ag4  1  0.62984533  0.25256431  0.16310296  1
  Ag  Ag5  1  0.65598271  0.12351505  0.81082935  1
  Ag  Ag6  1  0.84401729  0.62351505  0.31082935  1
  Ag  Ag7  1  0.87015467  0.75256431  0.66310296  1
  H  H8  1  0.05558448  0.08003410  0.36702098  1
  H  H9  1  0.04985383  0.08192194  0.57951538  1
  H  H10  1  0.17703759  0.70442516  0.00580036  1
  H  H11  1  0.24003839  0.55042270  0.48042257  1
  H  H12  1  0.25996161  0.05042270  0.98042257  1
  H  H13  1  0.32296241  0.20442516  0.50580036  1
  H  H14  1  0.45014617  0.58192194  0.07951538  1
  H  H15  1  0.44441552  0.58003410  0.86702098  1
  H  H16  1  0.55558448  0.41996590  0.36702098  1
  H  H17  1  0.54985383  0.41807806  0.57951538  1
  H  H18  1  0.67703759  0.79557484  0.00580036  1
  H  H19  1  0.74003839  0.94957730  0.48042257  1
  H  H20  1  0.75996161  0.44957730  0.98042257  1
  H  H21  1  0.82296241  0.29557484  0.50580036  1
  H  H22  1  0.95014617  0.91807806  0.07951538  1
  H  H23  1  0.94441552  0.91996590  0.86702098  1
  S  S24  1  0.07830918  0.71311511  0.13865238  1
  S  S25  1  0.09541836  0.77496872  0.48116110  1
  S  S26  1  0.14586813  0.86440408  0.83038983  1
  S  S27  1  0.35413187  0.36440408  0.33038983  1
  S  S28  1  0.40458164  0.27496872  0.98116110  1
  S  S29  1  0.42169082  0.21311511  0.63865238  1
  S  S30  1  0.57830918  0.78688489  0.13865238  1
  S  S31  1  0.59541836  0.72503128  0.48116110  1
  S  S32  1  0.64586813  0.63559592  0.83038983  1
  S  S33  1  0.85413187  0.13559592  0.33038983  1
  S  S34  1  0.90458164  0.22503128  0.98116110  1
  S  S35  1  0.92169082  0.28688489  0.63865238  1
  O  O36  1  0.00403783  0.18194422  0.33478115  1
  O  O37  1  0.00619289  0.64293018  0.43999859  1
  O  O38  1  0.04338672  0.56510326  0.20328401  1
  O  O39  1  0.04633238  0.22456178  0.58610291  1
  O  O40  1  0.04582723  0.86783132  0.56746736  1
  O  O41  1  0.14634385  0.91586450  0.41466513  1
  O  O42  1  0.14422857  0.87448092  0.17617470  1
  O  O43  1  0.16475203  0.04342721  0.78502470  1
  O  O44  1  0.16116672  0.61588174  0.06121969  1
  O  O45  1  0.19378102  0.86571621  0.92987830  1
  O  O46  1  0.19744190  0.70649037  0.77665937  1
  O  O47  1  0.21637835  0.66238827  0.52024317  1
  O  O48  1  0.28362165  0.16238827  0.02024317  1
  O  O49  1  0.30255810  0.20649037  0.27665937  1
  O  O50  1  0.30621898  0.36571621  0.42987830  1
  O  O51  1  0.33883328  0.11588174  0.56121969  1
  O  O52  1  0.33524797  0.54342721  0.28502470  1
  O  O53  1  0.35577143  0.37448092  0.67617470  1
  O  O54  1  0.35365615  0.41586450  0.91466513  1
  O  O55  1  0.45417277  0.36783132  0.06746736  1
  O  O56  1  0.45366762  0.72456178  0.08610291  1
  O  O57  1  0.45661328  0.06510326  0.70328401  1
  O  O58  1  0.49380711  0.14293018  0.93999859  1
  O  O59  1  0.49596217  0.68194422  0.83478115  1
  O  O60  1  0.50403783  0.31805578  0.33478115  1
  O  O61  1  0.50619289  0.85706982  0.43999859  1
  O  O62  1  0.54338672  0.93489674  0.20328401  1
  O  O63  1  0.54633238  0.27543822  0.58610291  1
  O  O64  1  0.54582723  0.63216868  0.56746736  1
  O  O65  1  0.64634385  0.58413550  0.41466513  1
  O  O66  1  0.64422857  0.62551908  0.17617470  1
  O  O67  1  0.66475203  0.45657279  0.78502470  1
  O  O68  1  0.66116672  0.88411826  0.06121969  1
  O  O69  1  0.69378102  0.63428379  0.92987830  1
  O  O70  1  0.69744190  0.79350963  0.77665937  1
  O  O71  1  0.71637835  0.83761173  0.52024317  1
  O  O72  1  0.78362165  0.33761173  0.02024317  1
  O  O73  1  0.80255810  0.29350963  0.27665937  1
  O  O74  1  0.80621898  0.13428379  0.42987830  1
  O  O75  1  0.83883328  0.38411826  0.56121969  1
  O  O76  1  0.83524797  0.95657279  0.28502470  1
  O  O77  1  0.85577143  0.12551908  0.67617470  1
  O  O78  1  0.85365615  0.08413550  0.91466513  1
  O  O79  1  0.95417277  0.13216868  0.06746736  1
  O  O80  1  0.95366762  0.77543822  0.08610291  1
  O  O81  1  0.95661328  0.43489674  0.70328401  1
  O  O82  1  0.99380711  0.35706982  0.93999859  1
  O  O83  1  0.99596217  0.81805578  0.83478115  1
