# generated using pymatgen
data_SbI3(BrCl3)2
_symmetry_space_group_name_H-M   'P 1'
_cell_length_a   7.66820111
_cell_length_b   8.03914243
_cell_length_c   8.08847087
_cell_angle_alpha   93.24143102
_cell_angle_beta   87.58087450
_cell_angle_gamma   77.94581645
_symmetry_Int_Tables_number   1
_chemical_formula_structural   SbI3(BrCl3)2
_chemical_formula_sum   'Sb1 I3 Br2 Cl6'
_cell_volume   486.09988559
_cell_formula_units_Z   1
loop_
 _symmetry_equiv_pos_site_id
 _symmetry_equiv_pos_as_xyz
  1  'x, y, z'
loop_
 _atom_site_type_symbol
 _atom_site_label
 _atom_site_symmetry_multiplicity
 _atom_site_fract_x
 _atom_site_fract_y
 _atom_site_fract_z
 _atom_site_occupancy
  Sb  Sb0  1  -0.00000000  0.50000000  0.50000000  1
  I  I1  1  0.31541783  0.76522857  0.84037718  1
  I  I2  1  -0.00000000  -0.00000000  -0.00000000  1
  I  I3  1  0.68458217  0.23477143  0.15962282  1
  Br  Br4  1  0.50756844  0.75449614  0.08961055  1
  Br  Br5  1  0.49243156  0.24550386  0.91038945  1
  Cl  Cl6  1  0.86177525  0.24707263  0.46941163  1
  Cl  Cl7  1  0.90936565  0.52812522  0.78713610  1
  Cl  Cl8  1  0.13822475  0.75292737  0.53058837  1
  Cl  Cl9  1  0.27683011  0.31478006  0.55742737  1
  Cl  Cl10  1  0.72316989  0.68521994  0.44257263  1
  Cl  Cl11  1  0.09063435  0.47187478  0.21286390  1
