# generated using pymatgen
data_CsNaS
_symmetry_space_group_name_H-M   'P 1'
_cell_length_a   4.84304630
_cell_length_b   4.84304630
_cell_length_c   7.97625695
_cell_angle_alpha   90.00000000
_cell_angle_beta   90.00000000
_cell_angle_gamma   90.00000000
_symmetry_Int_Tables_number   1
_chemical_formula_structural   CsNaS
_chemical_formula_sum   'Cs2 Na2 S2'
_cell_volume   187.08388416
_cell_formula_units_Z   2
loop_
 _symmetry_equiv_pos_site_id
 _symmetry_equiv_pos_as_xyz
  1  'x, y, z'
loop_
 _atom_site_type_symbol
 _atom_site_label
 _atom_site_symmetry_multiplicity
 _atom_site_fract_x
 _atom_site_fract_y
 _atom_site_fract_z
 _atom_site_occupancy
  Na  Na0  1  0.25000000  0.75000000  0.00000000  1
  Na  Na1  1  0.75000000  0.25000000  0.00000000  1
  S  S2  1  0.75000000  0.75000000  0.80728899  1
  S  S3  1  0.25000000  0.25000000  0.19271101  1
  Cs  Cs4  1  0.25000000  0.25000000  0.65180809  1
  Cs  Cs5  1  0.75000000  0.75000000  0.34819191  1
