# generated using pymatgen
data_InBP2H5NO9
_symmetry_space_group_name_H-M   'P 1'
_cell_length_a   5.37612723
_cell_length_b   8.58393237
_cell_length_c   8.51160532
_cell_angle_alpha   92.72540324
_cell_angle_beta   93.26554094
_cell_angle_gamma   80.60451785
_symmetry_Int_Tables_number   1
_chemical_formula_structural   InBP2H5NO9
_chemical_formula_sum   'In2 B2 P4 H10 N2 O18'
_cell_volume   386.60579644
_cell_formula_units_Z   2
loop_
 _symmetry_equiv_pos_site_id
 _symmetry_equiv_pos_as_xyz
  1  'x, y, z'
loop_
 _atom_site_type_symbol
 _atom_site_label
 _atom_site_symmetry_multiplicity
 _atom_site_fract_x
 _atom_site_fract_y
 _atom_site_fract_z
 _atom_site_occupancy
  In  In0  1  0.27695310  0.79288714  0.31753458  1
  In  In1  1  0.72304690  0.20711286  0.68246542  1
  B  B2  1  0.10710607  0.43635107  0.22531450  1
  B  B3  1  0.89289393  0.56364893  0.77468550  1
  P  P4  1  0.19552707  0.31039385  0.91595984  1
  P  P5  1  0.21987008  0.18920345  0.42894696  1
  P  P6  1  0.78012992  0.81079655  0.57105304  1
  P  P7  1  0.80447293  0.68960615  0.08404016  1
  H  H8  1  0.16393642  0.82325118  0.77973981  1
  H  H9  1  0.14559027  0.99794028  0.88258201  1
  H  H10  1  0.35650336  0.83923372  0.94072759  1
  H  H11  1  0.41994924  0.46819641  0.35979748  1
  H  H12  1  0.39940182  0.93336348  0.77693500  1
  H  H13  1  0.60059818  0.06663652  0.22306500  1
  H  H14  1  0.58005076  0.53180359  0.64020252  1
  H  H15  1  0.64349664  0.16076628  0.05927241  1
  H  H16  1  0.85440973  0.00205972  0.11741799  1
  H  H17  1  0.83606358  0.17674882  0.22026019  1
  N  N18  1  0.26654676  0.89821166  0.84501534  1
  N  N19  1  0.73345324  0.10178834  0.15498466  1
  O  O20  1  0.07653070  0.15346681  0.56844243  1
  O  O21  1  0.03947869  0.31988871  0.33159432  1
  O  O22  1  0.13076815  0.46787138  0.82600964  1
  O  O23  1  0.02259966  0.78644050  0.10346959  1
  O  O24  1  0.28280695  0.04413882  0.31347178  1
  O  O25  1  0.24851492  0.35114887  0.09398214  1
  O  O26  1  0.27581522  0.53574038  0.31013357  1
  O  O27  1  0.44494244  0.21720908  0.86176794  1
  O  O28  1  0.46622524  0.25525371  0.47894303  1
  O  O29  1  0.53377476  0.74474629  0.52105697  1
  O  O30  1  0.55505756  0.78279092  0.13823206  1
  O  O31  1  0.72418478  0.46425962  0.68986643  1
  O  O32  1  0.75148508  0.64885113  0.90601786  1
  O  O33  1  0.71719305  0.95586118  0.68652822  1
  O  O34  1  0.97740034  0.21355950  0.89653041  1
  O  O35  1  0.86923185  0.53212862  0.17399036  1
  O  O36  1  0.96052131  0.68011129  0.66840568  1
  O  O37  1  0.92346930  0.84653319  0.43155757  1
