# generated using pymatgen
data_NdAlGe2O7
_symmetry_space_group_name_H-M   'P 1'
_cell_length_a   6.59616131
_cell_length_b   7.32912725
_cell_length_c   11.48417871
_cell_angle_alpha   96.65975241
_cell_angle_beta   90.00000000
_cell_angle_gamma   90.00000000
_symmetry_Int_Tables_number   1
_chemical_formula_structural   NdAlGe2O7
_chemical_formula_sum   'Nd4 Al4 Ge8 O28'
_cell_volume   551.44611007
_cell_formula_units_Z   4
loop_
 _symmetry_equiv_pos_site_id
 _symmetry_equiv_pos_as_xyz
  1  'x, y, z'
loop_
 _atom_site_type_symbol
 _atom_site_label
 _atom_site_symmetry_multiplicity
 _atom_site_fract_x
 _atom_site_fract_y
 _atom_site_fract_z
 _atom_site_occupancy
  O  O0  1  0.37999571  0.23038187  0.80345287  1
  O  O1  1  0.87999571  0.26961813  0.69654713  1
  O  O2  1  0.62000429  0.76961813  0.19654713  1
  O  O3  1  0.12000429  0.73038187  0.30345287  1
  O  O4  1  0.18294107  0.52727510  0.68730891  1
  O  O5  1  0.68294107  0.97272490  0.81269109  1
  O  O6  1  0.81705893  0.47272490  0.31269109  1
  O  O7  1  0.31705893  0.02727510  0.18730891  1
  O  O8  1  0.61705048  0.55224725  0.77656955  1
  O  O9  1  0.11705048  0.94775275  0.72343045  1
  O  O10  1  0.38294952  0.44775275  0.22343045  1
  O  O11  1  0.88294952  0.05224725  0.27656955  1
  O  O12  1  0.17392490  0.06889536  0.47562601  1
  O  O13  1  0.67392490  0.43110464  0.02437399  1
  O  O14  1  0.82607510  0.93110464  0.52437399  1
  O  O15  1  0.32607510  0.56889536  0.97562601  1
  O  O16  1  0.00153398  0.82391172  0.07285554  1
  O  O17  1  0.50153398  0.67608828  0.42714446  1
  O  O18  1  0.99846602  0.17608828  0.92714446  1
  O  O19  1  0.49846602  0.32391172  0.57285554  1
  O  O20  1  0.34068796  0.90849192  0.91483085  1
  O  O21  1  0.84068796  0.59150808  0.58516915  1
  O  O22  1  0.65931204  0.09150808  0.08516915  1
  O  O23  1  0.15931204  0.40849192  0.41483085  1
  O  O24  1  0.94848243  0.65931452  0.86467113  1
  O  O25  1  0.44848243  0.84068548  0.63532887  1
  O  O26  1  0.05151757  0.34068548  0.13532887  1
  O  O27  1  0.55151757  0.15931452  0.36467113  1
  Al  Al28  1  0.39864255  0.98414609  0.77054429  1
  Al  Al29  1  0.10135745  0.48414609  0.27054429  1
  Al  Al30  1  0.60135745  0.01585391  0.22945571  1
  Al  Al31  1  0.89864255  0.51585391  0.72945571  1
  Ge  Ge32  1  0.84194815  0.25994143  0.04980157  1
  Ge  Ge33  1  0.41075932  0.41674399  0.71957401  1
  Ge  Ge34  1  0.65805185  0.75994143  0.54980157  1
  Ge  Ge35  1  0.15805185  0.74005857  0.95019843  1
  Ge  Ge36  1  0.58924068  0.58325601  0.28042599  1
  Ge  Ge37  1  0.08924068  0.91674399  0.21957401  1
  Ge  Ge38  1  0.91075932  0.08325601  0.78042599  1
  Ge  Ge39  1  0.34194815  0.24005857  0.45019843  1
  Nd  Nd40  1  0.14780645  0.76509930  0.52688507  1
  Nd  Nd41  1  0.64780645  0.73490070  0.97311493  1
  Nd  Nd42  1  0.85219355  0.23490070  0.47311493  1
  Nd  Nd43  1  0.35219355  0.26509930  0.02688507  1
