# generated using pymatgen
data_BaMgCuF7
_symmetry_space_group_name_H-M   'P 1'
_cell_length_a   5.61262486
_cell_length_b   9.70702018
_cell_length_c   9.94281677
_cell_angle_alpha   90.00000000
_cell_angle_beta   90.00000000
_cell_angle_gamma   93.19876876
_symmetry_Int_Tables_number   1
_chemical_formula_structural   BaMgCuF7
_chemical_formula_sum   'Ba4 Mg4 Cu4 F28'
_cell_volume   540.85918552
_cell_formula_units_Z   4
loop_
 _symmetry_equiv_pos_site_id
 _symmetry_equiv_pos_as_xyz
  1  'x, y, z'
loop_
 _atom_site_type_symbol
 _atom_site_label
 _atom_site_symmetry_multiplicity
 _atom_site_fract_x
 _atom_site_fract_y
 _atom_site_fract_z
 _atom_site_occupancy
  Ba  Ba0  1  0.26302410  0.49994703  0.31962918  1
  Ba  Ba1  1  0.73697590  0.00005297  0.81962918  1
  Ba  Ba2  1  0.73697590  0.50005297  0.68037082  1
  Ba  Ba3  1  0.26302410  0.99994703  0.18037082  1
  Mg  Mg4  1  0.69678044  0.80916929  0.39634114  1
  Mg  Mg5  1  0.30321956  0.69083071  0.89634114  1
  Mg  Mg6  1  0.69678044  0.30916929  0.10365886  1
  Mg  Mg7  1  0.30321956  0.19083071  0.60365886  1
  Cu  Cu8  1  0.19356432  0.81348983  0.61332626  1
  Cu  Cu9  1  0.80643568  0.18651017  0.38667374  1
  Cu  Cu10  1  0.19356432  0.31348983  0.88667374  1
  Cu  Cu11  1  0.80643568  0.68651017  0.11332626  1
  F  F12  1  0.10841593  0.12514461  0.44582148  1
  F  F13  1  0.36581919  0.36873402  0.04755553  1
  F  F14  1  0.46933956  0.75056433  0.71121354  1
  F  F15  1  0.53066044  0.24943567  0.28878646  1
  F  F16  1  0.88713225  0.36434808  0.45634011  1
  F  F17  1  0.25981660  0.49683329  0.80993246  1
  F  F18  1  0.02632347  0.75248664  0.77744657  1
  F  F19  1  0.11286775  0.13565192  0.95634011  1
  F  F20  1  0.36581919  0.86873402  0.45244447  1
  F  F21  1  0.53066044  0.74943567  0.21121354  1
  F  F22  1  0.10841593  0.62514461  0.05417852  1
  F  F23  1  0.89158407  0.87485539  0.55417852  1
  F  F24  1  0.97367653  0.74751336  0.27744657  1
  F  F25  1  0.38411779  0.87354265  0.95763999  1
  F  F26  1  0.11286775  0.63565192  0.54365989  1
  F  F27  1  0.88713225  0.86434808  0.04365989  1
  F  F28  1  0.97367653  0.24751336  0.22255343  1
  F  F29  1  0.89158407  0.37485539  0.94582148  1
  F  F30  1  0.61588221  0.62645735  0.45763999  1
  F  F31  1  0.63418081  0.63126598  0.95244447  1
  F  F32  1  0.61588221  0.12645735  0.04236001  1
  F  F33  1  0.02632347  0.25248664  0.72255343  1
  F  F34  1  0.38411779  0.37354265  0.54236001  1
  F  F35  1  0.74018340  0.00316671  0.30993246  1
  F  F36  1  0.74018340  0.50316671  0.19006754  1
  F  F37  1  0.25981660  0.99683329  0.69006754  1
  F  F38  1  0.63418081  0.13126598  0.54755553  1
  F  F39  1  0.46933956  0.25056433  0.78878646  1
