# generated using pymatgen
data_TaTi(PO4)3
_symmetry_space_group_name_H-M   'P 1'
_cell_length_a   8.88316586
_cell_length_b   8.88316526
_cell_length_c   8.88316566
_cell_angle_alpha   58.75044269
_cell_angle_beta   58.75044633
_cell_angle_gamma   58.75045024
_symmetry_Int_Tables_number   1
_chemical_formula_structural   TaTi(PO4)3
_chemical_formula_sum   'Ta2 Ti2 P6 O24'
_cell_volume   481.51673468
_cell_formula_units_Z   2
loop_
 _symmetry_equiv_pos_site_id
 _symmetry_equiv_pos_as_xyz
  1  'x, y, z'
loop_
 _atom_site_type_symbol
 _atom_site_label
 _atom_site_symmetry_multiplicity
 _atom_site_fract_x
 _atom_site_fract_y
 _atom_site_fract_z
 _atom_site_occupancy
  Ta  Ta0  1  0.36073236  0.36073236  0.36073236  1
  Ta  Ta1  1  0.86073236  0.86073236  0.86073236  1
  Ti  Ti2  1  0.13980958  0.13980958  0.13980958  1
  Ti  Ti3  1  0.63980958  0.63980958  0.63980958  1
  P  P4  1  0.02953799  0.46522691  0.75327445  1
  P  P5  1  0.46522691  0.75327445  0.02953799  1
  P  P6  1  0.75327445  0.02953799  0.46522691  1
  P  P7  1  0.25327445  0.96522691  0.52953799  1
  P  P8  1  0.52953799  0.25327445  0.96522691  1
  P  P9  1  0.96522691  0.52953799  0.25327445  1
  O  O10  1  0.13688650  0.50212735  0.28217146  1
  O  O11  1  0.28217146  0.13688650  0.50212735  1
  O  O12  1  0.06153374  0.28757297  0.92233101  1
  O  O13  1  0.50212735  0.28217146  0.13688650  1
  O  O14  1  0.00212735  0.63688650  0.78217146  1
  O  O15  1  0.21127811  0.44186351  0.57910601  1
  O  O16  1  0.28757297  0.92233101  0.06153374  1
  O  O17  1  0.44186351  0.57910601  0.21127811  1
  O  O18  1  0.21505759  0.99907012  0.36416232  1
  O  O19  1  0.57910601  0.21127811  0.44186351  1
  O  O20  1  0.07910601  0.94186351  0.71127811  1
  O  O21  1  0.36416232  0.21505759  0.99907012  1
  O  O22  1  0.63688650  0.78217146  0.00212735  1
  O  O23  1  0.92233101  0.06153374  0.28757297  1
  O  O24  1  0.42233102  0.78757297  0.56153374  1
  O  O25  1  0.78217146  0.00212735  0.63688650  1
  O  O26  1  0.56153374  0.42233101  0.78757297  1
  O  O27  1  0.71127811  0.07910601  0.94186351  1
  O  O28  1  0.78757297  0.56153374  0.42233101  1
  O  O29  1  0.99907012  0.36416232  0.21505759  1
  O  O30  1  0.49907012  0.71505759  0.86416232  1
  O  O31  1  0.94186351  0.71127811  0.07910601  1
  O  O32  1  0.71505759  0.86416232  0.49907012  1
  O  O33  1  0.86416232  0.49907012  0.71505759  1
