# generated using pymatgen
data_GaSi3PH30C10(NCl2)2
_symmetry_space_group_name_H-M   'P 1'
_cell_length_a   8.96055653
_cell_length_b   11.54429984
_cell_length_c   13.34860871
_cell_angle_alpha   90.00000000
_cell_angle_beta   90.00000000
_cell_angle_gamma   99.63751389
_symmetry_Int_Tables_number   1
_chemical_formula_structural   GaSi3PH30C10(NCl2)2
_chemical_formula_sum   'Ga2 Si6 P2 H60 C20 N4 Cl8'
_cell_volume   1361.33673680
_cell_formula_units_Z   2
loop_
 _symmetry_equiv_pos_site_id
 _symmetry_equiv_pos_as_xyz
  1  'x, y, z'
loop_
 _atom_site_type_symbol
 _atom_site_label
 _atom_site_symmetry_multiplicity
 _atom_site_fract_x
 _atom_site_fract_y
 _atom_site_fract_z
 _atom_site_occupancy
  Ga  Ga0  1  0.92393431  0.13799408  0.49786199  1
  Ga  Ga1  1  0.07606569  0.86200592  0.99786199  1
  Si  Si2  1  0.57952897  0.85784449  0.58761155  1
  Si  Si3  1  0.42047103  0.14215551  0.08761155  1
  Si  Si4  1  0.64112839  0.69903165  0.33706380  1
  Si  Si5  1  0.35887161  0.30096835  0.83706380  1
  Si  Si6  1  0.78055662  0.58826617  0.52593023  1
  Si  Si7  1  0.21944338  0.41173383  0.02593023  1
  P  P8  1  0.90010670  0.91985317  0.50270502  1
  P  P9  1  0.09989330  0.08014683  0.00270502  1
  H  H10  1  0.70642933  0.85118121  0.75354394  1
  H  H11  1  0.29357067  0.14881879  0.25354394  1
  H  H12  1  0.55337044  0.93098360  0.75681196  1
  H  H13  1  0.44662956  0.06901640  0.25681196  1
  H  H14  1  0.73047378  0.99862513  0.70754875  1
  H  H15  1  0.26952622  0.00137487  0.20754875  1
  H  H16  1  0.02703719  0.78912074  0.40370129  1
  H  H17  1  0.97296281  0.21087926  0.90370129  1
  H  H18  1  0.12517578  0.93842404  0.40830942  1
  H  H19  1  0.87482422  0.06157596  0.90830942  1
  H  H20  1  0.96400565  0.90091107  0.32852098  1
  H  H21  1  0.03599435  0.09908893  0.82852098  1
  H  H22  1  0.51987114  0.47034230  0.53325785  1
  H  H23  1  0.48012886  0.52965770  0.03325785  1
  H  H24  1  0.66343331  0.38163117  0.54695166  1
  H  H25  1  0.33656669  0.61836883  0.04695166  1
  H  H26  1  0.61841066  0.42884560  0.42673482  1
  H  H27  1  0.38158934  0.57115440  0.92673482  1
  H  H28  1  0.97101696  0.54371592  0.39907489  1
  H  H29  1  0.02898304  0.45628408  0.89907489  1
  H  H30  1  0.98398608  0.46893853  0.51392274  1
  H  H31  1  0.01601392  0.53106147  0.01392274  1
  H  H32  1  0.06243964  0.61987241  0.50481292  1
  H  H33  1  0.93756036  0.38012759  0.00481292  1
  H  H34  1  0.85366591  0.63004710  0.24644398  1
  H  H35  1  0.14633409  0.36995290  0.74644398  1
  H  H36  1  0.67807396  0.58958534  0.18445596  1
  H  H37  1  0.32192604  0.41041466  0.68445596  1
  H  H38  1  0.72126824  0.50700952  0.28955177  1
  H  H39  1  0.27873176  0.49299048  0.78955177  1
  H  H40  1  0.40178021  0.56015539  0.38172184  1
  H  H41  1  0.59821979  0.43984461  0.88172184  1
  H  H42  1  0.39102888  0.62802650  0.26294182  1
  H  H43  1  0.60897112  0.37197350  0.76294182  1
  H  H44  1  0.36892911  0.70809712  0.37314662  1
  H  H45  1  0.63107089  0.29190288  0.87314662  1
  H  H46  1  0.65025497  0.91732110  0.32072613  1
  H  H47  1  0.34974503  0.08267890  0.82072613  1
  H  H48  1  0.57812277  0.83763782  0.21257246  1
  H  H49  1  0.42187723  0.16236218  0.71257246  1
  H  H50  1  0.77527208  0.86541705  0.23336838  1
  H  H51  1  0.22472792  0.13458295  0.73336838  1
  H  H52  1  0.39569486  0.68039808  0.53581592  1
  H  H53  1  0.60430514  0.31960192  0.03581592  1
  H  H54  1  0.34419782  0.74495461  0.64908586  1
  H  H55  1  0.65580218  0.25504539  0.14908586  1
  H  H56  1  0.48710449  0.65592776  0.65058362  1
  H  H57  1  0.51289551  0.34407224  0.15058362  1
  H  H58  1  0.88874826  0.69086157  0.68190311  1
  H  H59  1  0.11125174  0.30913843  0.18190311  1
  H  H60  1  0.83148961  0.53786853  0.69886622  1
  H  H61  1  0.16851039  0.46213147  0.19886622  1
  H  H62  1  0.69407532  0.63130443  0.69934223  1
  H  H63  1  0.30592468  0.36869557  0.19934223  1
  H  H64  1  0.56344690  0.05401540  0.51293365  1
  H  H65  1  0.43655310  0.94598460  0.01293365  1
  H  H66  1  0.38821608  0.98468956  0.56383264  1
  H  H67  1  0.61178392  0.01531044  0.06383264  1
  H  H68  1  0.44898277  0.93920418  0.44554623  1
  H  H69  1  0.55101723  0.06079582  0.94554623  1
  C  C70  1  0.65185557  0.91499375  0.71258536  1
  C  C71  1  0.34814443  0.08500625  0.21258536  1
  C  C72  1  0.01439918  0.88212098  0.39992564  1
  C  C73  1  0.98560082  0.11787902  0.89992564  1
  C  C74  1  0.63044699  0.45592591  0.50541158  1
  C  C75  1  0.36955301  0.54407409  0.00541158  1
  C  C76  1  0.96687069  0.55319803  0.48068284  1
  C  C77  1  0.03312931  0.44680197  0.98068284  1
  C  C78  1  0.73322164  0.59609654  0.25849772  1
  C  C79  1  0.26677836  0.40390346  0.75849772  1
  C  C80  1  0.43139336  0.64313714  0.34054861  1
  C  C81  1  0.56860664  0.35686286  0.84054861  1
  C  C82  1  0.66554739  0.84436150  0.27122743  1
  C  C83  1  0.33445261  0.15563850  0.77122743  1
  C  C84  1  0.43968708  0.72080461  0.60636984  1
  C  C85  1  0.56031292  0.27919539  0.10636984  1
  C  C86  1  0.79943261  0.61671553  0.66393750  1
  C  C87  1  0.20056739  0.38328447  0.16393750  1
  C  C88  1  0.48769038  0.96935998  0.52059734  1
  C  C89  1  0.51230962  0.03064002  0.02059734  1
  N  N90  1  0.73739657  0.82495256  0.50953377  1
  N  N91  1  0.26260343  0.17504744  0.00953377  1
  N  N92  1  0.72699834  0.71162411  0.45960003  1
  N  N93  1  0.27300166  0.28837589  0.95960003  1
  Cl  Cl94  1  0.85356765  0.21380696  0.63735210  1
  Cl  Cl95  1  0.14643235  0.78619304  0.13735210  1
  Cl  Cl96  1  0.79401192  0.18345936  0.36909144  1
  Cl  Cl97  1  0.20598808  0.81654064  0.86909144  1
  Cl  Cl98  1  0.16725732  0.19569582  0.47567139  1
  Cl  Cl99  1  0.83274268  0.80430418  0.97567139  1
  Cl  Cl100  1  0.04221964  0.89877878  0.62272017  1
  Cl  Cl101  1  0.95778036  0.10122122  0.12272017  1
