# generated using pymatgen
data_UB2Os3
_symmetry_space_group_name_H-M   'P 1'
_cell_length_a   11.15375954
_cell_length_b   11.13343339
_cell_length_c   5.92022385
_cell_angle_alpha   89.99878033
_cell_angle_beta   90.00037713
_cell_angle_gamma   119.93956281
_symmetry_Int_Tables_number   1
_chemical_formula_structural   UB2Os3
_chemical_formula_sum   'U8 B16 Os24'
_cell_volume   637.06437228
_cell_formula_units_Z   8
loop_
 _symmetry_equiv_pos_site_id
 _symmetry_equiv_pos_as_xyz
  1  'x, y, z'
loop_
 _atom_site_type_symbol
 _atom_site_label
 _atom_site_symmetry_multiplicity
 _atom_site_fract_x
 _atom_site_fract_y
 _atom_site_fract_z
 _atom_site_occupancy
  U  U0  1  0.00000000  -0.00000000  -0.00000000  1
  U  U1  1  0.00000000  -0.00000000  0.50000000  1
  U  U2  1  0.50000000  0.50000000  -0.00000000  1
  U  U3  1  0.00000000  0.50000000  -0.00000000  1
  U  U4  1  0.50000000  -0.00000000  -0.00000000  1
  U  U5  1  0.50000000  0.50000000  0.50000000  1
  U  U6  1  0.00000000  0.50000000  0.50000000  1
  U  U7  1  0.50000000  -0.00000000  0.50000000  1
  B  B8  1  0.66651771  0.33326322  0.00070530  1
  B  B9  1  0.33348229  0.66673678  0.99929470  1
  B  B10  1  0.66651938  0.33326454  0.49925699  1
  B  B11  1  0.33348062  0.66673546  0.50074301  1
  B  B12  1  0.83396040  0.16664902  0.00018317  1
  B  B13  1  0.33285790  0.16624692  0.00018193  1
  B  B14  1  0.83357976  0.66731568  0.00018437  1
  B  B15  1  0.16603960  0.83335098  0.99981683  1
  B  B16  1  0.66714210  0.83375308  0.99981807  1
  B  B17  1  0.16642024  0.33268432  0.99981563  1
  B  B18  1  0.83381411  0.16697896  0.49984476  1
  B  B19  1  0.33334447  0.16639351  0.49984697  1
  B  B20  1  0.83324673  0.66682831  0.49984610  1
  B  B21  1  0.16618589  0.83302104  0.50015524  1
  B  B22  1  0.66665553  0.83360649  0.50015303  1
  B  B23  1  0.16675327  0.33317169  0.50015390  1
  Os  Os24  1  0.74988773  0.24989986  0.75011578  1
  Os  Os25  1  0.49998528  0.25002633  0.75013495  1
  Os  Os26  1  0.75005978  0.49999046  0.75013727  1
  Os  Os27  1  0.25011227  0.75010014  0.24988422  1
  Os  Os28  1  0.50001472  0.74997367  0.24986505  1
  Os  Os29  1  0.24994022  0.50000954  0.24986273  1
  Os  Os30  1  0.24978028  0.74992604  0.75016314  1
  Os  Os31  1  0.50017499  0.75029867  0.75017334  1
  Os  Os32  1  0.25009070  0.49984604  0.75016864  1
  Os  Os33  1  0.75021972  0.25007396  0.24983686  1
  Os  Os34  1  0.49982501  0.24970133  0.24982666  1
  Os  Os35  1  0.74990930  0.50015396  0.24983136  1
  Os  Os36  1  0.00010053  0.25027049  0.74973087  1
  Os  Os37  1  0.25017316  0.99989482  0.74973770  1
  Os  Os38  1  0.74976070  0.74985035  0.74974335  1
  Os  Os39  1  0.99989947  0.74972951  0.25026913  1
  Os  Os40  1  0.74982684  0.00010518  0.25026230  1
  Os  Os41  1  0.25023930  0.25014965  0.25025665  1
  Os  Os42  1  0.99980530  0.75003746  0.74994609  1
  Os  Os43  1  0.75022356  0.00019779  0.74994586  1
  Os  Os44  1  0.24994714  0.24975957  0.74995110  1
  Os  Os45  1  0.00019470  0.24996254  0.25005391  1
  Os  Os46  1  0.24977644  0.99980221  0.25005414  1
  Os  Os47  1  0.75005286  0.75024043  0.25004890  1
