# generated using pymatgen
data_Pm2S3
_symmetry_space_group_name_H-M   'P 1'
_cell_length_a   7.13880349
_cell_length_b   7.13880351
_cell_length_c   7.52225607
_cell_angle_alpha   118.32758706
_cell_angle_beta   61.67241046
_cell_angle_gamma   119.99999986
_symmetry_Int_Tables_number   1
_chemical_formula_structural   Pm2S3
_chemical_formula_sum   'Pm4 S6'
_cell_volume   277.72291307
_cell_formula_units_Z   2
loop_
 _symmetry_equiv_pos_site_id
 _symmetry_equiv_pos_as_xyz
  1  'x, y, z'
loop_
 _atom_site_type_symbol
 _atom_site_label
 _atom_site_symmetry_multiplicity
 _atom_site_fract_x
 _atom_site_fract_y
 _atom_site_fract_z
 _atom_site_occupancy
  Pm  Pm0  1  0.64696111  0.35304089  0.05911867  1
  Pm  Pm1  1  0.85303889  0.14696111  0.44088233  1
  Pm  Pm2  1  0.14696011  0.85303889  0.55911867  1
  Pm  Pm3  1  0.35303989  0.64696211  0.94088233  1
  S  S4  1  0.25000000  0.04636359  0.25000100  1
  S  S5  1  0.95363741  0.45363841  0.25000100  1
  S  S6  1  0.54636159  0.74999900  0.25000100  1
  S  S7  1  0.45363741  0.25000000  0.75000100  1
  S  S8  1  0.04636259  0.54636259  0.75000100  1
  S  S9  1  0.75000000  0.95363941  0.75000100  1
