# generated using pymatgen
data_CaNi(GeO3)2
_symmetry_space_group_name_H-M   'P 1'
_cell_length_a   5.47397483
_cell_length_b   6.83714772
_cell_length_c   6.83714738
_cell_angle_alpha   83.05138949
_cell_angle_beta   78.25557564
_cell_angle_gamma   78.25557110
_symmetry_Int_Tables_number   1
_chemical_formula_structural   CaNi(GeO3)2
_chemical_formula_sum   'Ca2 Ni2 Ge4 O12'
_cell_volume   244.44175788
_cell_formula_units_Z   2
loop_
 _symmetry_equiv_pos_site_id
 _symmetry_equiv_pos_as_xyz
  1  'x, y, z'
loop_
 _atom_site_type_symbol
 _atom_site_label
 _atom_site_symmetry_multiplicity
 _atom_site_fract_x
 _atom_site_fract_y
 _atom_site_fract_z
 _atom_site_occupancy
  Ca  Ca0  1  0.75000000  0.30009936  0.69990064  1
  Ca  Ca1  1  0.25000000  0.69990064  0.30009936  1
  Ni  Ni2  1  0.75000000  0.91022160  0.08977840  1
  Ni  Ni3  1  0.25000000  0.08977840  0.91022160  1
  Ge  Ge4  1  0.78182496  0.38250629  0.18571642  1
  Ge  Ge5  1  0.71817504  0.81428358  0.61749371  1
  Ge  Ge6  1  0.21817504  0.61749371  0.81428358  1
  Ge  Ge7  1  0.28182496  0.18571642  0.38250629  1
  O  O8  1  0.52339498  0.32845527  0.38885623  1
  O  O9  1  0.97660502  0.61114377  0.67154473  1
  O  O10  1  0.47660502  0.67154473  0.61114377  1
  O  O11  1  0.02339498  0.38885623  0.32845527  1
  O  O12  1  0.16144861  0.10317269  0.62578788  1
  O  O13  1  0.33855139  0.37421212  0.89682731  1
  O  O14  1  0.83855139  0.89682731  0.37421212  1
  O  O15  1  0.66144861  0.62578788  0.10317269  1
  O  O16  1  0.86894102  0.19664539  0.01715254  1
  O  O17  1  0.63105898  0.98284746  0.80335461  1
  O  O18  1  0.13105898  0.80335461  0.98284746  1
  O  O19  1  0.36894102  0.01715254  0.19664539  1
