# generated using pymatgen
data_Ba2MgCu3F14
_symmetry_space_group_name_H-M   'P 1'
_cell_length_a   5.26447855
_cell_length_b   7.39419053
_cell_length_c   14.55035119
_cell_angle_alpha   91.42801193
_cell_angle_beta   90.23897868
_cell_angle_gamma   110.39005767
_symmetry_Int_Tables_number   1
_chemical_formula_structural   Ba2MgCu3F14
_chemical_formula_sum   'Ba4 Mg2 Cu6 F28'
_cell_volume   530.69133885
_cell_formula_units_Z   2
loop_
 _symmetry_equiv_pos_site_id
 _symmetry_equiv_pos_as_xyz
  1  'x, y, z'
loop_
 _atom_site_type_symbol
 _atom_site_label
 _atom_site_symmetry_multiplicity
 _atom_site_fract_x
 _atom_site_fract_y
 _atom_site_fract_z
 _atom_site_occupancy
  Ba  Ba0  1  0.11852504  0.37719007  0.62231156  1
  Ba  Ba1  1  0.25741791  0.37821474  0.12187244  1
  Ba  Ba2  1  0.87880066  0.62134961  0.37619782  1
  Ba  Ba3  1  0.74053723  0.62034784  0.87652927  1
  Mg  Mg4  1  0.42848048  0.00084888  0.74954591  1
  Mg  Mg5  1  0.56904436  0.99753196  0.24906529  1
  Cu  Cu6  1  0.09749473  0.23023868  0.87158606  1
  Cu  Cu7  1  0.90066282  0.76824292  0.12682097  1
  Cu  Cu8  1  0.13313435  0.23456787  0.37134351  1
  Cu  Cu9  1  0.86422115  0.76406443  0.62699047  1
  Cu  Cu10  1  0.49940034  0.99946666  0.99950480  1
  Cu  Cu11  1  0.49867753  0.99947621  0.49916723  1
  F  F12  1  0.88943000  0.98388856  0.33808983  1
  F  F13  1  0.86271132  0.26568536  0.45460985  1
  F  F14  1  0.13464337  0.73328897  0.54371204  1
  F  F15  1  0.66042236  0.50309571  0.59442419  1
  F  F16  1  0.60221600  0.10254756  0.61956277  1
  F  F17  1  0.50561760  0.89953626  0.87696785  1
  F  F18  1  0.40443346  0.25094203  0.95565450  1
  F  F19  1  0.90994107  0.01882315  0.16125372  1
  F  F20  1  0.36524133  0.31745491  0.77518758  1
  F  F21  1  0.33702456  0.49560024  0.40388334  1
  F  F22  1  0.80397194  0.22081520  0.78601101  1
  F  F23  1  0.16155381  0.49357877  0.90414241  1
  F  F24  1  0.41593810  0.22033416  0.28830381  1
  F  F25  1  0.19408521  0.77741874  0.21244868  1
  F  F26  1  0.49272129  0.09927730  0.12184245  1
  F  F27  1  0.63276474  0.68096861  0.22321379  1
  F  F28  1  0.12201288  0.83665297  0.01608560  1
  F  F29  1  0.10753625  0.01470894  0.66037926  1
  F  F30  1  0.87673012  0.16197900  0.98260371  1
  F  F31  1  0.70841780  0.84085516  0.51886484  1
  F  F32  1  0.59397479  0.74743979  0.04276241  1
  F  F33  1  0.58169844  0.77818202  0.71032793  1
  F  F34  1  0.95515671  0.32362846  0.27373610  1
  F  F35  1  0.28845070  0.15795543  0.47969736  1
  F  F36  1  0.39479273  0.89615895  0.37892542  1
  F  F37  1  0.08824347  0.97965618  0.83727663  1
  F  F38  1  0.04292047  0.67534572  0.72460997  1
  F  F39  1  0.83632787  0.50486799  0.09420063  1
