# generated using pymatgen
data_KYb(CO3)2
_symmetry_space_group_name_H-M   'P 1'
_cell_length_a   6.52217461
_cell_length_b   6.52217462
_cell_length_c   7.07756310
_cell_angle_alpha   103.08185988
_cell_angle_beta   103.08185988
_cell_angle_gamma   99.05524165
_symmetry_Int_Tables_number   1
_chemical_formula_structural   KYb(CO3)2
_chemical_formula_sum   'K2 Yb2 C4 O12'
_cell_volume   278.65575821
_cell_formula_units_Z   2
loop_
 _symmetry_equiv_pos_site_id
 _symmetry_equiv_pos_as_xyz
  1  'x, y, z'
loop_
 _atom_site_type_symbol
 _atom_site_label
 _atom_site_symmetry_multiplicity
 _atom_site_fract_x
 _atom_site_fract_y
 _atom_site_fract_z
 _atom_site_occupancy
  C  C0  1  0.14259007  0.39399244  0.25197064  1
  C  C1  1  0.60600756  0.85740993  0.24802936  1
  C  C2  1  0.85740993  0.60600756  0.74802936  1
  C  C3  1  0.39399244  0.14259007  0.75197064  1
  O  O4  1  0.41429171  0.94644232  0.72109359  1
  O  O5  1  0.05355768  0.58570829  0.77890641  1
  O  O6  1  0.58570829  0.05355768  0.27890641  1
  O  O7  1  0.94644232  0.41429171  0.22109359  1
  O  O8  1  0.24527853  0.19902258  0.63430602  1
  O  O9  1  0.80097742  0.75472147  0.86569398  1
  O  O10  1  0.75472147  0.80097742  0.36569398  1
  O  O11  1  0.19902258  0.24527853  0.13430602  1
  O  O12  1  0.53024231  0.29286809  0.90035676  1
  O  O13  1  0.70713191  0.46975769  0.59964324  1
  O  O14  1  0.46975769  0.70713191  0.09964324  1
  O  O15  1  0.29286809  0.53024231  0.40035676  1
  K  K16  1  0.87216933  0.12783067  0.75000000  1
  K  K17  1  0.12783067  0.87216933  0.25000000  1
  Yb  Yb18  1  0.40611963  0.59388037  0.75000000  1
  Yb  Yb19  1  0.59388037  0.40611963  0.25000000  1
