# generated using pymatgen
data_BaZnMoF7
_symmetry_space_group_name_H-M   'P 1'
_cell_length_a   5.78530850
_cell_length_b   9.91071579
_cell_length_c   10.25004418
_cell_angle_alpha   90.00000000
_cell_angle_beta   90.00000000
_cell_angle_gamma   92.65132779
_symmetry_Int_Tables_number   1
_chemical_formula_structural   BaZnMoF7
_chemical_formula_sum   'Ba4 Zn4 Mo4 F28'
_cell_volume   587.07303570
_cell_formula_units_Z   4
loop_
 _symmetry_equiv_pos_site_id
 _symmetry_equiv_pos_as_xyz
  1  'x, y, z'
loop_
 _atom_site_type_symbol
 _atom_site_label
 _atom_site_symmetry_multiplicity
 _atom_site_fract_x
 _atom_site_fract_y
 _atom_site_fract_z
 _atom_site_occupancy
  Ba  Ba0  1  0.26426542  0.49712038  0.32335702  1
  Ba  Ba1  1  0.73573458  0.00287962  0.82335702  1
  Ba  Ba2  1  0.73573458  0.50287962  0.67664298  1
  Ba  Ba3  1  0.26426542  0.99712038  0.17664298  1
  Zn  Zn4  1  0.69151725  0.80934584  0.39704515  1
  Zn  Zn5  1  0.30848275  0.69065416  0.89704515  1
  Zn  Zn6  1  0.69151725  0.30934584  0.10295485  1
  Zn  Zn7  1  0.30848275  0.19065416  0.60295485  1
  Mo  Mo8  1  0.19530406  0.81466544  0.61131860  1
  Mo  Mo9  1  0.80469594  0.18533456  0.38868140  1
  Mo  Mo10  1  0.19530406  0.31466544  0.88868140  1
  Mo  Mo11  1  0.80469594  0.68533456  0.11131860  1
  F  F12  1  0.12844891  0.11890165  0.44730964  1
  F  F13  1  0.36924539  0.37591202  0.05989806  1
  F  F14  1  0.49234632  0.75135454  0.71150645  1
  F  F15  1  0.50765368  0.24864546  0.28849355  1
  F  F16  1  0.89683304  0.37578944  0.46064253  1
  F  F17  1  0.26178061  0.50695864  0.80121493  1
  F  F18  1  0.02069276  0.75028212  0.78422272  1
  F  F19  1  0.10316696  0.12421056  0.96064253  1
  F  F20  1  0.36924539  0.87591202  0.44010194  1
  F  F21  1  0.50765368  0.74864546  0.21150645  1
  F  F22  1  0.12844891  0.61890165  0.05269036  1
  F  F23  1  0.87155109  0.88109835  0.55269036  1
  F  F24  1  0.97930724  0.74971788  0.28422272  1
  F  F25  1  0.39497724  0.87304425  0.95800298  1
  F  F26  1  0.10316696  0.62421056  0.53935747  1
  F  F27  1  0.89683304  0.87578944  0.03935747  1
  F  F28  1  0.97930724  0.24971788  0.21577728  1
  F  F29  1  0.87155109  0.38109835  0.94730964  1
  F  F30  1  0.60502276  0.62695575  0.45800298  1
  F  F31  1  0.63075461  0.62408798  0.94010194  1
  F  F32  1  0.60502276  0.12695575  0.04199702  1
  F  F33  1  0.02069276  0.25028212  0.71577728  1
  F  F34  1  0.39497724  0.37304425  0.54199702  1
  F  F35  1  0.73821939  0.99304136  0.30121493  1
  F  F36  1  0.73821939  0.49304136  0.19878507  1
  F  F37  1  0.26178061  0.00695864  0.69878507  1
  F  F38  1  0.63075461  0.12408798  0.55989806  1
  F  F39  1  0.49234632  0.25135454  0.78849355  1
