# generated using pymatgen
data_Sr4CaYCo2(Cu2O7)2
_symmetry_space_group_name_H-M   'P 1'
_cell_length_a   5.43879275
_cell_length_b   5.45546577
_cell_length_c   12.24809508
_cell_angle_alpha   102.86599185
_cell_angle_beta   102.86525289
_cell_angle_gamma   89.60158210
_symmetry_Int_Tables_number   1
_chemical_formula_structural   Sr4CaYCo2(Cu2O7)2
_chemical_formula_sum   'Sr4 Ca1 Y1 Co2 Cu4 O14'
_cell_volume   345.04943503
_cell_formula_units_Z   1
loop_
 _symmetry_equiv_pos_site_id
 _symmetry_equiv_pos_as_xyz
  1  'x, y, z'
loop_
 _atom_site_type_symbol
 _atom_site_label
 _atom_site_symmetry_multiplicity
 _atom_site_fract_x
 _atom_site_fract_y
 _atom_site_fract_z
 _atom_site_occupancy
  Sr  Sr0  1  0.15718619  0.16054499  0.30184703  1
  Sr  Sr1  1  0.36122832  0.36268601  0.70026277  1
  Sr  Sr2  1  0.63877168  0.63731399  0.29973723  1
  Sr  Sr3  1  0.84281381  0.83945501  0.69815297  1
  Ca  Ca4  1  0.50000000  0.50000000  0.00000000  1
  Y  Y5  1  0.00000000  0.00000000  0.00000000  1
  Co  Co6  1  0.18607375  0.80958765  0.50011012  1
  Co  Co7  1  0.81392625  0.19041235  0.49988988  1
  Cu  Cu8  1  0.07184446  0.57400632  0.14814761  1
  Cu  Cu9  1  0.42689880  0.92709322  0.85137275  1
  Cu  Cu10  1  0.57310120  0.07290678  0.14862725  1
  Cu  Cu11  1  0.92815554  0.42599368  0.85185239  1
  O  O12  1  0.17969940  0.17891348  0.86604718  1
  O  O13  1  0.18048775  0.69117151  0.86970935  1
  O  O14  1  0.17515976  0.16978861  0.50164271  1
  O  O15  1  0.19115071  0.65559764  0.35254400  1
  O  O16  1  0.33614988  0.80030690  0.64759391  1
  O  O17  1  0.30685517  0.30801975  0.12445196  1
  O  O18  1  0.30805241  0.82066276  0.13110703  1
  O  O19  1  0.69194759  0.17933724  0.86889297  1
  O  O20  1  0.69314483  0.69198025  0.87554804  1
  O  O21  1  0.66385012  0.19969310  0.35240609  1
  O  O22  1  0.80884929  0.34440236  0.64745600  1
  O  O23  1  0.82484024  0.83021139  0.49835729  1
  O  O24  1  0.81951225  0.30882849  0.13029065  1
  O  O25  1  0.82030060  0.82108652  0.13395282  1
