# generated using pymatgen
data_CaCu3O4
_symmetry_space_group_name_H-M   'P 1'
_cell_length_a   5.58897011
_cell_length_b   5.60109455
_cell_length_c   5.60594319
_cell_angle_alpha   90.00835402
_cell_angle_beta   90.00458113
_cell_angle_gamma   89.98894053
_symmetry_Int_Tables_number   1
_chemical_formula_structural   CaCu3O4
_chemical_formula_sum   'Ca2 Cu6 O8'
_cell_volume   175.49040216
_cell_formula_units_Z   2
loop_
 _symmetry_equiv_pos_site_id
 _symmetry_equiv_pos_as_xyz
  1  'x, y, z'
loop_
 _atom_site_type_symbol
 _atom_site_label
 _atom_site_symmetry_multiplicity
 _atom_site_fract_x
 _atom_site_fract_y
 _atom_site_fract_z
 _atom_site_occupancy
  Ca  Ca0  1  -0.00002860  0.00022525  0.00001473  1
  Ca  Ca1  1  0.50002500  0.49977665  0.49998691  1
  Cu  Cu2  1  0.00005691  0.49982437  0.25018075  1
  Cu  Cu3  1  0.00003205  0.49997303  0.74980551  1
  Cu  Cu4  1  0.25001534  0.00009778  0.50000387  1
  Cu  Cu5  1  0.49994897  0.24976980  0.00006282  1
  Cu  Cu6  1  0.49996719  0.75021390  0.99992887  1
  Cu  Cu7  1  0.74999752  0.00012010  0.50000696  1
  O  O8  1  0.24994971  0.24958850  0.25050084  1
  O  O9  1  0.25024741  0.75049137  0.25026532  1
  O  O10  1  0.24992991  0.24952194  0.74939569  1
  O  O11  1  0.25025939  0.75042711  0.74978875  1
  O  O12  1  0.75005420  0.24959762  0.25050783  1
  O  O13  1  0.75006880  0.24952619  0.74943287  1
  O  O14  1  0.74972355  0.75048511  0.25027003  1
  O  O15  1  0.74975366  0.75036229  0.74984722  1
