# generated using pymatgen
data_Na3PO4
_symmetry_space_group_name_H-M   'P 1'
_cell_length_a   5.87429964
_cell_length_b   10.67903141
_cell_length_c   9.09534937
_cell_angle_alpha   31.09067347
_cell_angle_beta   49.73924047
_cell_angle_gamma   56.11157876
_symmetry_Int_Tables_number   1
_chemical_formula_structural   Na3PO4
_chemical_formula_sum   'Na6 P2 O8'
_cell_volume   224.82894942
_cell_formula_units_Z   2
loop_
 _symmetry_equiv_pos_site_id
 _symmetry_equiv_pos_as_xyz
  1  'x, y, z'
loop_
 _atom_site_type_symbol
 _atom_site_label
 _atom_site_symmetry_multiplicity
 _atom_site_fract_x
 _atom_site_fract_y
 _atom_site_fract_z
 _atom_site_occupancy
  Na  Na0  1  0.30997279  0.49212262  0.25563186  1
  Na  Na1  1  0.58302644  0.49720325  0.50288707  1
  Na  Na2  1  0.68045897  0.00021249  0.75419458  1
  Na  Na3  1  0.18658280  0.99941489  0.24872850  1
  Na  Na4  1  0.80313266  0.49301011  0.76032618  1
  Na  Na5  1  0.41041533  0.98612073  0.51485891  1
  P  P6  1  0.92902953  0.99861472  0.00225977  1
  P  P7  1  0.06358155  0.50284002  0.99816933  1
  O  O8  1  0.31195125  0.39759615  0.10384552  1
  O  O9  1  0.92208176  0.28060272  0.72001318  1
  O  O10  1  0.12175286  0.41534866  0.90008820  1
  O  O11  1  0.75056255  0.41511980  0.27049626  1
  O  O12  1  0.68006930  0.90112862  0.10007720  1
  O  O13  1  0.24228684  0.90613652  0.91013742  1
  O  O14  1  0.87215246  0.90694639  0.27926490  1
  O  O15  1  0.07111190  0.78536033  0.71577914  1
