# generated using pymatgen
data_LaMg2H7Pd
_symmetry_space_group_name_H-M   'P 1'
_cell_length_a   4.76628773
_cell_length_b   11.75360379
_cell_length_c   8.11108284
_cell_angle_alpha   90.00000000
_cell_angle_beta   90.00000000
_cell_angle_gamma   90.00000000
_symmetry_Int_Tables_number   1
_chemical_formula_structural   LaMg2H7Pd
_chemical_formula_sum   'La4 Mg8 H28 Pd4'
_cell_volume   454.39143839
_cell_formula_units_Z   4
loop_
 _symmetry_equiv_pos_site_id
 _symmetry_equiv_pos_as_xyz
  1  'x, y, z'
loop_
 _atom_site_type_symbol
 _atom_site_label
 _atom_site_symmetry_multiplicity
 _atom_site_fract_x
 _atom_site_fract_y
 _atom_site_fract_z
 _atom_site_occupancy
  La  La0  1  0.75113770  0.53072052  0.30078423  1
  La  La1  1  0.74886230  0.46927948  0.80078423  1
  La  La2  1  0.25113770  0.96927948  0.69921577  1
  La  La3  1  0.24886230  0.03072052  0.19921577  1
  Mg  Mg4  1  0.76574154  0.85067282  0.40878776  1
  Mg  Mg5  1  0.73425846  0.14932718  0.90878776  1
  Mg  Mg6  1  0.26574154  0.64932718  0.59121224  1
  Mg  Mg7  1  0.23425846  0.35067282  0.09121224  1
  Mg  Mg8  1  0.75219803  0.85165668  0.02369590  1
  Mg  Mg9  1  0.74780197  0.14834332  0.52369590  1
  Mg  Mg10  1  0.25219803  0.64834332  0.97630410  1
  Mg  Mg11  1  0.24780197  0.35165668  0.47630410  1
  H  H12  1  0.21573104  0.61929582  0.34997620  1
  H  H13  1  0.28426896  0.38070418  0.84997620  1
  H  H14  1  0.71573104  0.88070418  0.65002380  1
  H  H15  1  0.78426896  0.11929582  0.15002380  1
  H  H16  1  0.63650822  0.73232273  0.23496697  1
  H  H17  1  0.86349178  0.26767727  0.73496697  1
  H  H18  1  0.13650822  0.76767727  0.76503303  1
  H  H19  1  0.36349178  0.23232273  0.26503303  1
  H  H20  1  0.15306784  0.80284614  0.09067418  1
  H  H21  1  0.34693216  0.19715386  0.59067418  1
  H  H22  1  0.65306784  0.69715386  0.90932582  1
  H  H23  1  0.84693216  0.30284614  0.40932582  1
  H  H24  1  0.21832486  0.86040840  0.42503460  1
  H  H25  1  0.28167514  0.13959160  0.92503460  1
  H  H26  1  0.71832486  0.63959160  0.57496540  1
  H  H27  1  0.78167514  0.36040840  0.07496540  1
  H  H28  1  0.47398788  0.96302178  0.96360634  1
  H  H29  1  0.02601212  0.03697822  0.46360634  1
  H  H30  1  0.97398788  0.53697822  0.03639366  1
  H  H31  1  0.52601212  0.46302178  0.53639366  1
  H  H32  1  0.77292919  0.94936676  0.21852331  1
  H  H33  1  0.72707081  0.05063324  0.71852331  1
  H  H34  1  0.27292919  0.55063324  0.78147669  1
  H  H35  1  0.22707081  0.44936676  0.28147669  1
  H  H36  1  0.99735076  0.98303935  0.95607539  1
  H  H37  1  0.50264924  0.01696065  0.45607539  1
  H  H38  1  0.49735076  0.51696065  0.04392461  1
  H  H39  1  0.00264924  0.48303935  0.54392461  1
  Pd  Pd40  1  0.27996862  0.75528920  0.27774020  1
  Pd  Pd41  1  0.22003138  0.24471080  0.77774020  1
  Pd  Pd42  1  0.77996862  0.74471080  0.72225980  1
  Pd  Pd43  1  0.72003138  0.25528920  0.22225980  1
