# generated using pymatgen
data_Na9Fe2P4HO18
_symmetry_space_group_name_H-M   'P 1'
_cell_length_a   7.17998202
_cell_length_b   11.37896048
_cell_length_c   11.37896103
_cell_angle_alpha   81.60588420
_cell_angle_beta   71.74199504
_cell_angle_gamma   71.74199511
_symmetry_Int_Tables_number   1
_chemical_formula_structural   Na9Fe2P4HO18
_chemical_formula_sum   'Na18 Fe4 P8 H2 O36'
_cell_volume   837.23821160
_cell_formula_units_Z   2
loop_
 _symmetry_equiv_pos_site_id
 _symmetry_equiv_pos_as_xyz
  1  'x, y, z'
loop_
 _atom_site_type_symbol
 _atom_site_label
 _atom_site_symmetry_multiplicity
 _atom_site_fract_x
 _atom_site_fract_y
 _atom_site_fract_z
 _atom_site_occupancy
  Na  Na0  1  0.11949358  0.24081071  0.52283862  1
  Na  Na1  1  0.38047967  0.00456284  0.23926036  1
  Na  Na2  1  0.01234673  0.73907820  0.73904373  1
  Na  Na3  1  0.24458194  0.76615353  0.22460175  1
  Na  Na4  1  0.26358396  0.22411296  0.76776979  1
  Na  Na5  1  0.25024600  0.50473907  0.49484500  1
  Na  Na6  1  0.48709251  0.26509853  0.26281651  1
  Na  Na7  1  0.37889858  0.47937339  0.76161877  1
  Na  Na8  1  0.61949358  0.52283862  0.24081071  1
  Na  Na9  1  0.28604060  0.96971125  0.96644467  1
  Na  Na10  1  0.88047967  0.23926036  0.00456284  1
  Na  Na11  1  0.51234673  0.73904373  0.73907820  1
  Na  Na12  1  0.76358396  0.76776979  0.22411296  1
  Na  Na13  1  0.75024600  0.49484500  0.50473907  1
  Na  Na14  1  0.74458194  0.22460175  0.76615353  1
  Na  Na15  1  0.98709251  0.26281651  0.26509853  1
  Na  Na16  1  0.87889858  0.76161877  0.47937339  1
  Na  Na17  1  0.78604060  0.96644467  0.96971125  1
  Fe  Fe18  1  0.98956692  0.49812325  0.00256186  1
  Fe  Fe19  1  0.50976230  0.49717709  0.00212067  1
  Fe  Fe20  1  0.48956692  0.00256186  0.49812325  1
  Fe  Fe21  1  0.00976230  0.00212067  0.49717709  1
  P  P22  1  0.11695339  0.50330169  0.26520993  1
  P  P23  1  0.37797137  0.23791202  0.00107852  1
  P  P24  1  0.12263908  0.99924746  0.75663704  1
  P  P25  1  0.38263735  0.73657379  0.49494695  1
  P  P26  1  0.61695339  0.26520993  0.50330169  1
  P  P27  1  0.87797137  0.00107852  0.23791202  1
  P  P28  1  0.62263908  0.75663704  0.99924746  1
  P  P29  1  0.88263735  0.49494695  0.73657379  1
  H  H30  1  0.19126143  0.65340586  0.97100623  1
  H  H31  1  0.69126143  0.97100623  0.65340586  1
  O  O32  1  0.02428732  0.08642863  0.86747803  1
  O  O33  1  0.02633143  0.63791857  0.30918865  1
  O  O34  1  0.10854417  0.40914764  0.37941844  1
  O  O35  1  0.25455135  0.05032884  0.43935046  1
  O  O36  1  0.01064367  0.52168724  0.81320993  1
  O  O37  1  0.32941960  0.19708760  0.14012092  1
  O  O38  1  0.03339760  0.96610107  0.31789818  1
  O  O39  1  0.32224529  0.03356418  0.67890112  1
  O  O40  1  0.34692404  0.48081054  0.18920736  1
  O  O41  1  0.15153231  0.81235451  0.51964346  1
  O  O42  1  0.17832186  0.31933340  0.96624647  1
  O  O43  1  0.46528410  0.67992513  0.03084580  1
  O  O44  1  0.16837075  0.86268677  0.80581254  1
  O  O45  1  0.48901427  0.18824151  0.47798306  1
  O  O46  1  0.24084173  0.56532921  0.95357383  1
  O  O47  1  0.39277859  0.62114991  0.58749985  1
  O  O48  1  0.47116510  0.69638094  0.35890625  1
  O  O49  1  0.47319139  0.12669216  0.91656577  1
  O  O50  1  0.52428732  0.86747803  0.08642863  1
  O  O51  1  0.52633143  0.30918865  0.63791857  1
  O  O52  1  0.60854417  0.37941844  0.40914764  1
  O  O53  1  0.75455135  0.43935046  0.05032884  1
  O  O54  1  0.51064367  0.81320993  0.52168724  1
  O  O55  1  0.82941960  0.14012092  0.19708760  1
  O  O56  1  0.53339760  0.31789818  0.96610107  1
  O  O57  1  0.82224529  0.67890112  0.03356418  1
  O  O58  1  0.84692404  0.18920736  0.48081054  1
  O  O59  1  0.65153231  0.51964346  0.81235451  1
  O  O60  1  0.67832186  0.96624647  0.31933340  1
  O  O61  1  0.96528410  0.03084580  0.67992513  1
  O  O62  1  0.66837075  0.80581254  0.86268677  1
  O  O63  1  0.98901427  0.47798306  0.18824151  1
  O  O64  1  0.74084173  0.95357383  0.56532921  1
  O  O65  1  0.89277859  0.58749985  0.62114991  1
  O  O66  1  0.97116510  0.35890625  0.69638094  1
  O  O67  1  0.97319139  0.91656577  0.12669216  1
