# generated using pymatgen
data_Sm2AgGe6
_symmetry_space_group_name_H-M   'P 1'
_cell_length_a   4.15696299
_cell_length_b   4.17521646
_cell_length_c   11.35648131
_cell_angle_alpha   90.00000000
_cell_angle_beta   100.54580806
_cell_angle_gamma   90.00000000
_symmetry_Int_Tables_number   1
_chemical_formula_structural   Sm2AgGe6
_chemical_formula_sum   'Sm2 Ag1 Ge6'
_cell_volume   193.77626034
_cell_formula_units_Z   1
loop_
 _symmetry_equiv_pos_site_id
 _symmetry_equiv_pos_as_xyz
  1  'x, y, z'
loop_
 _atom_site_type_symbol
 _atom_site_label
 _atom_site_symmetry_multiplicity
 _atom_site_fract_x
 _atom_site_fract_y
 _atom_site_fract_z
 _atom_site_occupancy
  Sm  Sm0  1  0.77841837  0.50000000  0.55683675  1
  Sm  Sm1  1  0.11908489  0.50000000  0.23816978  1
  Ag  Ag2  1  0.55969086  -0.00000000  0.11938171  1
  Ge  Ge3  1  0.49101164  0.50000000  0.98202328  1
  Ge  Ge4  1  0.37893805  0.50000000  0.75787609  1
  Ge  Ge5  1  0.99091917  0.00000000  0.98183835  1
  Ge  Ge6  1  0.87857290  0.00000000  0.75714579  1
  Ge  Ge7  1  0.67120886  -0.00000000  0.34241771  1
  Ge  Ge8  1  0.23915527  0.00000000  0.47831054  1
