# generated using pymatgen
data_K2TlPCO7
_symmetry_space_group_name_H-M   'P 1'
_cell_length_a   9.94146669
_cell_length_b   7.25348888
_cell_length_c   5.60469240
_cell_angle_alpha   90.00000000
_cell_angle_beta   91.24670700
_cell_angle_gamma   90.00000000
_symmetry_Int_Tables_number   1
_chemical_formula_structural   K2TlPCO7
_chemical_formula_sum   'K4 Tl2 P2 C2 O14'
_cell_volume   404.06047965
_cell_formula_units_Z   2
loop_
 _symmetry_equiv_pos_site_id
 _symmetry_equiv_pos_as_xyz
  1  'x, y, z'
loop_
 _atom_site_type_symbol
 _atom_site_label
 _atom_site_symmetry_multiplicity
 _atom_site_fract_x
 _atom_site_fract_y
 _atom_site_fract_z
 _atom_site_occupancy
  K  K0  1  0.22565948  0.01696659  0.24011039  1
  K  K1  1  0.22565948  0.48303341  0.24011039  1
  K  K2  1  0.77434052  0.51696659  0.75988961  1
  K  K3  1  0.77434052  0.98303341  0.75988961  1
  Tl  Tl4  1  0.36964242  0.75000000  0.76996745  1
  Tl  Tl5  1  0.63035758  0.25000000  0.23003255  1
  P  P6  1  0.42545252  0.25000000  0.71471075  1
  P  P7  1  0.57454748  0.75000000  0.28528925  1
  C  C8  1  0.09370559  0.75000000  0.72800236  1
  C  C9  1  0.90629441  0.25000000  0.27199764  1
  O  O10  1  0.03215686  0.25000000  0.29748829  1
  O  O11  1  0.15579769  0.75000000  0.93758102  1
  O  O12  1  0.17419771  0.75000000  0.54124837  1
  O  O13  1  0.34405495  0.07642294  0.78544249  1
  O  O14  1  0.34405495  0.42357706  0.78544249  1
  O  O15  1  0.43028848  0.75000000  0.16803660  1
  O  O16  1  0.44151872  0.25000000  0.43260187  1
  O  O17  1  0.55848128  0.75000000  0.56739813  1
  O  O18  1  0.56971152  0.25000000  0.83196340  1
  O  O19  1  0.65594505  0.57642394  0.21455751  1
  O  O20  1  0.65594505  0.92357606  0.21455751  1
  O  O21  1  0.82580229  0.25000000  0.45875163  1
  O  O22  1  0.84420231  0.25000000  0.06241898  1
  O  O23  1  0.96784314  0.75000000  0.70251171  1
