# generated using pymatgen
data_Pr5Te7MoCl3O23
_symmetry_space_group_name_H-M   'P 1'
_cell_length_a   7.77265005
_cell_length_b   10.06548878
_cell_length_c   18.58532926
_cell_angle_alpha   87.26481316
_cell_angle_beta   82.90046841
_cell_angle_gamma   67.28770775
_symmetry_Int_Tables_number   1
_chemical_formula_structural   Pr5Te7MoCl3O23
_chemical_formula_sum   'Pr10 Te14 Mo2 Cl6 O46'
_cell_volume   1330.99668477
_cell_formula_units_Z   2
loop_
 _symmetry_equiv_pos_site_id
 _symmetry_equiv_pos_as_xyz
  1  'x, y, z'
loop_
 _atom_site_type_symbol
 _atom_site_label
 _atom_site_symmetry_multiplicity
 _atom_site_fract_x
 _atom_site_fract_y
 _atom_site_fract_z
 _atom_site_occupancy
  Pr  Pr0  1  0.76080180  0.47839641  0.50000000  1
  Pr  Pr1  1  0.24218845  0.51562310  0.50000000  1
  Pr  Pr2  1  0.25778257  0.22159507  0.13658233  1
  Pr  Pr3  1  0.47943777  0.77849911  0.13624533  1
  Pr  Pr4  1  0.74206312  0.77849911  0.86375467  1
  Pr  Pr5  1  0.52062236  0.22159507  0.86341767  1
  Pr  Pr6  1  0.82007660  0.48145169  0.26174807  1
  Pr  Pr7  1  0.30154754  0.51643249  0.26164226  1
  Pr  Pr8  1  0.18201997  0.51643249  0.73835774  1
  Pr  Pr9  1  0.69847171  0.48145169  0.73825193  1
  Te  Te10  1  0.70144902  0.33944272  0.11018413  1
  Te  Te11  1  0.04081701  0.66080252  0.11019095  1
  Te  Te12  1  0.29838047  0.66080252  0.88980905  1
  Te  Te13  1  0.95910826  0.33944272  0.88981587  1
  Te  Te14  1  0.15111867  0.21200251  0.35779289  1
  Te  Te15  1  0.36568635  0.78750740  0.35654888  1
  Te  Te16  1  0.84680625  0.78750740  0.64345112  1
  Te  Te17  1  0.63687882  0.21200251  0.64220711  1
  Te  Te18  1  0.00463554  0.00004403  0.23797916  1
  Te  Te19  1  0.99532043  0.00004403  0.76202084  1
  Te  Te20  1  0.59406820  0.24241509  0.38521104  1
  Te  Te21  1  0.83515790  0.75716701  0.38457848  1
  Te  Te22  1  0.40767508  0.75716701  0.61542152  1
  Te  Te23  1  0.16351671  0.24241509  0.61478896  1
  Mo  Mo24  1  0.73648293  0.00003031  0.02472186  1
  Mo  Mo25  1  0.26348676  0.00003031  0.97527814  1
  Cl  Cl26  1  0.56235321  0.99918235  0.28558417  1
  Cl  Cl27  1  0.43846444  0.99918235  0.71441583  1
  Cl  Cl28  1  0.50046732  0.99906535  0.50000000  1
  Cl  Cl29  1  0.30277710  0.39444580  -0.00000000  1
  Cl  Cl30  1  0.69721462  0.60557076  0.00000000  1
  Cl  Cl31  1  0.96420087  0.07159827  0.50000000  1
  O  O32  1  0.58735366  0.51745485  0.16308683  1
  O  O33  1  0.10497112  0.48262717  0.16302026  1
  O  O34  1  0.41240171  0.48262717  0.83697974  1
  O  O35  1  0.89519149  0.51745485  0.83691317  1
  O  O36  1  0.85255821  0.83970753  0.97086154  1
  O  O37  1  0.69228424  0.16027717  0.97086401  1
  O  O38  1  0.14743858  0.16027717  0.02913599  1
  O  O39  1  0.30773426  0.83970753  0.02913846  1
  O  O40  1  0.52181555  0.27403943  0.15942259  1
  O  O41  1  0.79580671  0.72597735  0.15937725  1
  O  O42  1  0.47821593  0.72597735  0.84062275  1
  O  O43  1  0.20414502  0.27403943  0.84057741  1
  O  O44  1  0.23437447  0.99984168  0.18906849  1
  O  O45  1  0.76578385  0.99984168  0.81093151  1
  O  O46  1  0.51727501  0.99998413  0.07796556  1
  O  O47  1  0.48274086  0.99998413  0.92203444  1
  O  O48  1  0.96256408  0.14739313  0.30776981  1
  O  O49  1  0.11041284  0.85300288  0.30823135  1
  O  O50  1  0.03658428  0.85300288  0.69176865  1
  O  O51  1  0.89004278  0.14739313  0.69223019  1
  O  O52  1  0.17607744  0.30657504  0.26629635  1
  O  O53  1  0.48333089  0.69355680  0.26602019  1
  O  O54  1  0.82311232  0.69355680  0.73397981  1
  O  O55  1  0.51734752  0.30657504  0.73370365  1
  O  O56  1  0.88785337  0.00001123  0.08733533  1
  O  O57  1  0.11213540  0.00001123  0.91266467  1
  O  O58  1  0.92758001  0.37137071  0.38594848  1
  O  O59  1  0.29695927  0.63129497  0.38700370  1
  O  O60  1  0.07174576  0.63129497  0.61299630  1
  O  O61  1  0.70104927  0.37137071  0.61405152  1
  O  O62  1  0.31738466  0.32622789  0.39017877  1
  O  O63  1  0.64301417  0.67400336  0.38996281  1
  O  O64  1  0.68298247  0.67400336  0.61003719  1
  O  O65  1  0.35638746  0.32622789  0.60982123  1
  O  O66  1  0.90344320  0.27866454  0.16946629  1
  O  O67  1  0.18227065  0.72120286  0.16957735  1
  O  O68  1  0.09652650  0.72120286  0.83042265  1
  O  O69  1  0.81789226  0.27866454  0.83053371  1
  O  O70  1  0.59731622  0.37660811  0.30932418  1
  O  O71  1  0.97385484  0.62350400  0.30908158  1
  O  O72  1  0.40264116  0.62350400  0.69091842  1
  O  O73  1  0.02607566  0.37660811  0.69067582  1
  O  O74  1  0.57002752  0.36214948  0.46465836  1
  O  O75  1  0.93281886  0.64110352  0.46496801  1
  O  O76  1  0.42607762  0.64110352  0.53503199  1
  O  O77  1  0.06782300  0.36214948  0.53534164  1
