# generated using pymatgen
data_SmInCu
_symmetry_space_group_name_H-M   'P 1'
_cell_length_a   7.66527588
_cell_length_b   7.65639993
_cell_length_c   3.97398761
_cell_angle_alpha   89.99972384
_cell_angle_beta   90.00008323
_cell_angle_gamma   119.98862369
_symmetry_Int_Tables_number   1
_chemical_formula_structural   SmInCu
_chemical_formula_sum   'Sm3 In3 Cu3'
_cell_volume   202.00369591
_cell_formula_units_Z   3
loop_
 _symmetry_equiv_pos_site_id
 _symmetry_equiv_pos_as_xyz
  1  'x, y, z'
loop_
 _atom_site_type_symbol
 _atom_site_label
 _atom_site_symmetry_multiplicity
 _atom_site_fract_x
 _atom_site_fract_y
 _atom_site_fract_z
 _atom_site_occupancy
  Sm  Sm0  1  0.41521613  0.41578043  0.50000009  1
  Sm  Sm1  1  0.58475759  0.00046967  0.49999958  1
  Sm  Sm2  1  0.99996087  0.58412240  0.50000023  1
  In  In3  1  0.74901856  0.74923386  0.00000074  1
  In  In4  1  0.25094626  0.00008068  0.00000029  1
  In  In5  1  0.99986457  0.25066583  0.99999971  1
  Cu  Cu6  1  0.66680761  0.33334918  0.99999788  1
  Cu  Cu7  1  0.33346163  0.66644062  0.00000116  1
  Cu  Cu8  1  0.00006678  0.99995734  0.50000031  1
