# generated using pymatgen
data_Na3Gd(PO4)2
_symmetry_space_group_name_H-M   'P 1'
_cell_length_a   5.37207928
_cell_length_b   14.05604354
_cell_length_c   14.20645565
_cell_angle_alpha   91.26099019
_cell_angle_beta   101.01124114
_cell_angle_gamma   89.96141961
_symmetry_Int_Tables_number   1
_chemical_formula_structural   Na3Gd(PO4)2
_chemical_formula_sum   'Na18 Gd6 P12 O48'
_cell_volume   1052.72092227
_cell_formula_units_Z   6
loop_
 _symmetry_equiv_pos_site_id
 _symmetry_equiv_pos_as_xyz
  1  'x, y, z'
loop_
 _atom_site_type_symbol
 _atom_site_label
 _atom_site_symmetry_multiplicity
 _atom_site_fract_x
 _atom_site_fract_y
 _atom_site_fract_z
 _atom_site_occupancy
  Na  Na0  1  0.85322100  0.23420268  0.69608976  1
  Na  Na1  1  0.01735018  0.42076859  0.10905762  1
  Na  Na2  1  0.72612508  0.32209393  0.44360416  1
  Na  Na3  1  0.72449397  0.82310167  0.44260649  1
  Na  Na4  1  0.90208179  0.07929793  0.89092763  1
  Na  Na5  1  0.27805695  0.17554650  0.55678839  1
  Na  Na6  1  0.09606632  0.92087886  0.10933900  1
  Na  Na7  1  0.60729945  0.13673885  0.23552481  1
  Na  Na8  1  0.14794786  0.26596819  0.30208516  1
  Na  Na9  1  0.38498307  0.86448878  0.76113119  1
  Na  Na10  1  0.27375713  0.67581984  0.55557507  1
  Na  Na11  1  0.15632819  0.76635072  0.30176743  1
  Na  Na12  1  0.36725580  0.36297715  0.76211796  1
  Na  Na13  1  0.50155105  0.49899954  0.99917959  1
  Na  Na14  1  0.84762786  0.73273840  0.69833100  1
  Na  Na15  1  0.98490066  0.57910678  0.89184892  1
  Na  Na16  1  0.63201714  0.63613762  0.23514097  1
  Na  Na17  1  0.49983077  0.00096823  0.00085057  1
  Gd  Gd18  1  0.83397995  0.48551736  0.64348041  1
  Gd  Gd19  1  0.80452668  0.98540975  0.64421650  1
  Gd  Gd20  1  0.16550575  0.51449742  0.35516149  1
  Gd  Gd21  1  0.40326188  0.24985280  0.99969297  1
  Gd  Gd22  1  0.59653993  0.75043728  0.99901125  1
  Gd  Gd23  1  0.19667292  0.01408694  0.35596373  1
  P  P24  1  0.59931484  0.38906170  0.22313510  1
  P  P25  1  0.39915668  0.61063980  0.77557725  1
  P  P26  1  0.09656214  0.65131630  0.11566048  1
  P  P27  1  0.02238216  0.15218129  0.11568378  1
  P  P28  1  0.72558886  0.60353160  0.45732443  1
  P  P29  1  0.37239846  0.10998489  0.77608564  1
  P  P30  1  0.62758174  0.88970527  0.22280263  1
  P  P31  1  0.97857379  0.84812653  0.88355985  1
  P  P32  1  0.27147159  0.39615576  0.54125906  1
  P  P33  1  0.73169839  0.10298102  0.45722852  1
  P  P34  1  0.26785683  0.89616259  0.54204162  1
  P  P35  1  0.90428280  0.34736147  0.88387486  1
  O  O36  1  0.64486689  0.34988583  0.91845699  1
  O  O37  1  0.14933533  0.61927635  0.22171723  1
  O  O38  1  0.72830722  0.14964744  0.07980083  1
  O  O39  1  0.34428501  0.42374592  0.24921198  1
  O  O40  1  0.21938097  0.86227230  0.43496143  1
  O  O41  1  0.20797023  0.36361553  0.43384284  1
  O  O42  1  0.73243103  0.49303432  0.45539335  1
  O  O43  1  0.65604466  0.57714898  0.74954198  1
  O  O44  1  0.19932329  0.52872907  0.74830524  1
  O  O45  1  0.10623910  0.41037093  0.95005017  1
  O  O46  1  0.53769532  0.36012710  0.58884818  1
  O  O47  1  0.78822047  0.63674415  0.56461388  1
  O  O48  1  0.28082409  0.00660452  0.54317751  1
  O  O49  1  0.01609576  0.24479457  0.88677957  1
  O  O50  1  0.27271867  0.85106712  0.91850557  1
  O  O51  1  0.40605680  0.20113839  0.72168932  1
  O  O52  1  0.85697282  0.37990543  0.77802001  1
  O  O53  1  0.46006935  0.63988305  0.40935986  1
  O  O54  1  0.08966702  0.07660794  0.75121172  1
  O  O55  1  0.52242410  0.85436114  0.59620923  1
  O  O56  1  0.43366391  0.62559051  0.88672530  1
  O  O57  1  0.07194553  0.35418954  0.59552250  1
  O  O58  1  0.84134681  0.91079485  0.94939633  1
  O  O59  1  0.26252397  0.50648552  0.54430711  1
  O  O60  1  0.80222775  0.46987869  0.25043237  1
  O  O61  1  0.92568949  0.64465940  0.40291657  1
  O  O62  1  0.94935269  0.13785162  0.40897492  1
  O  O63  1  0.30934789  0.70172210  0.72176612  1
  O  O64  1  0.47809850  0.14605044  0.40375570  1
  O  O65  1  0.55025865  0.87518416  0.11152362  1
  O  O66  1  0.05128936  0.86169453  0.59109914  1
  O  O67  1  0.07876960  0.11928979  0.22125569  1
  O  O68  1  0.45220976  0.97070233  0.25000059  1
  O  O69  1  0.71488409  0.99275103  0.45455002  1
  O  O70  1  0.78082810  0.13587234  0.56465813  1
  O  O71  1  0.98397842  0.75380492  0.11327472  1
  O  O72  1  0.91985706  0.88040748  0.77762491  1
  O  O73  1  0.15966620  0.08954625  0.04988759  1
  O  O74  1  0.89295789  0.58772228  0.05112174  1
  O  O75  1  0.59362449  0.79802097  0.27602837  1
  O  O76  1  0.90910605  0.92406796  0.24944218  1
  O  O77  1  0.45472726  0.12540937  0.88700852  1
  O  O78  1  0.87130453  0.74513401  0.88634463  1
  O  O79  1  0.68560026  0.29744746  0.27689939  1
  O  O80  1  0.56513258  0.37416079  0.11193104  1
  O  O81  1  0.13082735  0.25480671  0.11355849  1
  O  O82  1  0.54305614  0.02798992  0.74798586  1
  O  O83  1  0.35327688  0.64894493  0.07926128  1
