# generated using pymatgen
data_DyWC2
_symmetry_space_group_name_H-M   'P 1'
_cell_length_a   5.73004139
_cell_length_b   3.38107956
_cell_length_c   10.81262236
_cell_angle_alpha   90.00000000
_cell_angle_beta   90.00000000
_cell_angle_gamma   90.00000000
_symmetry_Int_Tables_number   1
_chemical_formula_structural   DyWC2
_chemical_formula_sum   'Dy4 W4 C8'
_cell_volume   209.48078102
_cell_formula_units_Z   4
loop_
 _symmetry_equiv_pos_site_id
 _symmetry_equiv_pos_as_xyz
  1  'x, y, z'
loop_
 _atom_site_type_symbol
 _atom_site_label
 _atom_site_symmetry_multiplicity
 _atom_site_fract_x
 _atom_site_fract_y
 _atom_site_fract_z
 _atom_site_occupancy
  Dy  Dy0  1  0.58535883  0.25000000  0.36340172  1
  Dy  Dy1  1  0.08535883  0.25000000  0.13659828  1
  Dy  Dy2  1  0.41464117  0.75000000  0.63659828  1
  Dy  Dy3  1  0.91464117  0.75000000  0.86340172  1
  W  W4  1  0.90346278  0.25000000  0.61055600  1
  W  W5  1  0.40346278  0.25000000  0.88944400  1
  W  W6  1  0.09653722  0.75000000  0.38944400  1
  W  W7  1  0.59653722  0.75000000  0.11055600  1
  C  C8  1  0.66085600  0.25000000  0.74718819  1
  C  C9  1  0.16085600  0.25000000  0.75281181  1
  C  C10  1  0.33914400  0.75000000  0.25281181  1
  C  C11  1  0.83914400  0.75000000  0.24718819  1
  C  C12  1  0.22298507  0.25000000  0.48474973  1
  C  C13  1  0.72298507  0.25000000  0.01525027  1
  C  C14  1  0.77701493  0.75000000  0.51525027  1
  C  C15  1  0.27701493  0.75000000  0.98474973  1
