# generated using pymatgen
data_LiVTeO5
_symmetry_space_group_name_H-M   'P 1'
_cell_length_a   5.08554889
_cell_length_b   8.37888380
_cell_length_c   9.84812125
_cell_angle_alpha   90.00000000
_cell_angle_beta   90.00000000
_cell_angle_gamma   90.00000000
_symmetry_Int_Tables_number   1
_chemical_formula_structural   LiVTeO5
_chemical_formula_sum   'Li4 V4 Te4 O20'
_cell_volume   419.64049277
_cell_formula_units_Z   4
loop_
 _symmetry_equiv_pos_site_id
 _symmetry_equiv_pos_as_xyz
  1  'x, y, z'
loop_
 _atom_site_type_symbol
 _atom_site_label
 _atom_site_symmetry_multiplicity
 _atom_site_fract_x
 _atom_site_fract_y
 _atom_site_fract_z
 _atom_site_occupancy
  Li  Li0  1  0.26956386  0.12761872  0.21980228  1
  Li  Li1  1  0.23043614  0.62761872  0.78019772  1
  Li  Li2  1  0.76956386  0.87238128  0.28019772  1
  Li  Li3  1  0.73043614  0.37238128  0.71980228  1
  V  V4  1  0.20291237  0.27049172  0.90288427  1
  V  V5  1  0.70291237  0.72950828  0.59711573  1
  V  V6  1  0.29708763  0.77049172  0.09711573  1
  V  V7  1  0.79708763  0.22950828  0.40288427  1
  Te  Te8  1  0.76907441  0.92359868  0.88722357  1
  Te  Te9  1  0.23092559  0.57640132  0.38722357  1
  Te  Te10  1  0.73092559  0.42359868  0.11277643  1
  Te  Te11  1  0.26907441  0.07640132  0.61277643  1
  O  O12  1  0.97251978  0.84290230  0.04201434  1
  O  O13  1  0.57491487  0.27260139  0.23137596  1
  O  O14  1  0.44529970  0.57738680  0.17417761  1
  O  O15  1  0.42508513  0.22739861  0.73137596  1
  O  O16  1  0.94529970  0.42261320  0.32582239  1
  O  O17  1  0.02748022  0.65709770  0.54201434  1
  O  O18  1  0.07491487  0.72739861  0.26862404  1
  O  O19  1  0.05470030  0.07738680  0.82582239  1
  O  O20  1  0.92508513  0.77260139  0.76862404  1
  O  O21  1  0.44099054  0.73543003  0.93838368  1
  O  O22  1  0.96639399  0.07132337  0.34649572  1
  O  O23  1  0.05900946  0.23543003  0.06161632  1
  O  O24  1  0.53360601  0.57132337  0.65350428  1
  O  O25  1  0.46639399  0.92867663  0.15350428  1
  O  O26  1  0.52748022  0.34290230  0.95798566  1
  O  O27  1  0.94099054  0.26456997  0.56161632  1
  O  O28  1  0.55900946  0.76456997  0.43838368  1
  O  O29  1  0.47251978  0.15709770  0.45798566  1
  O  O30  1  0.03360601  0.42867663  0.84649572  1
  O  O31  1  0.55470030  0.92261320  0.67417761  1
