# generated using pymatgen
data_KVH4O7
_symmetry_space_group_name_H-M   'P 1'
_cell_length_a   6.57333760
_cell_length_b   8.14033822
_cell_length_c   7.51214035
_cell_angle_alpha   106.61764507
_cell_angle_beta   96.12852818
_cell_angle_gamma   115.64483237
_symmetry_Int_Tables_number   1
_chemical_formula_structural   KVH4O7
_chemical_formula_sum   'K2 V2 H8 O14'
_cell_volume   334.64461226
_cell_formula_units_Z   2
loop_
 _symmetry_equiv_pos_site_id
 _symmetry_equiv_pos_as_xyz
  1  'x, y, z'
loop_
 _atom_site_type_symbol
 _atom_site_label
 _atom_site_symmetry_multiplicity
 _atom_site_fract_x
 _atom_site_fract_y
 _atom_site_fract_z
 _atom_site_occupancy
  K  K0  1  0.00758787  0.00569177  0.97325621  1
  K  K1  1  0.62198471  0.44010505  0.56173670  1
  V  V2  1  0.40074913  0.87934086  0.75464420  1
  V  V3  1  0.25497415  0.57760212  0.96728614  1
  H  H4  1  0.29150568  0.67195206  0.34886010  1
  H  H5  1  0.01477485  0.58109044  0.22608410  1
  H  H6  1  0.69824085  0.05049529  0.49781300  1
  H  H7  1  0.62862742  0.05949363  0.29725958  1
  H  H8  1  0.68801091  0.33368309  0.11632543  1
  H  H9  1  0.67454661  0.53408036  0.15726526  1
  H  H10  1  0.02467315  0.17638912  0.40018541  1
  H  H11  1  0.15954075  0.06321198  0.41833787  1
  O  O12  1  0.25147294  0.96206565  0.65423858  1
  O  O13  1  0.13374632  0.33994637  0.90356257  1
  O  O14  1  0.18726301  0.65139842  0.22558466  1
  O  O15  1  0.73465829  0.14144348  0.42667927  1
  O  O16  1  0.74712164  0.46803387  0.21231251  1
  O  O17  1  0.16296211  0.16486835  0.37189562  1
  O  O18  1  0.40758613  0.95846839  0.02174197  1
  O  O19  1  0.62418228  0.08766112  0.98506759  1
  O  O20  1  0.44283944  0.70230108  0.54629686  1
  O  O21  1  0.64666079  0.89874205  0.63306183  1
  O  O22  1  0.13647416  0.61507386  0.73626558  1
  O  O23  1  0.01165175  0.63214087  0.88467389  1
  O  O24  1  0.54639940  0.65901602  0.90521649  1
  O  O25  1  0.57396566  0.68910471  0.10924860  1
