# generated using pymatgen
data_H5NO
_symmetry_space_group_name_H-M   'P 1'
_cell_length_a   19.29290556
_cell_length_b   6.99803484
_cell_length_c   6.94419413
_cell_angle_alpha   90.00000000
_cell_angle_beta   90.00000000
_cell_angle_gamma   90.00000000
_symmetry_Int_Tables_number   1
_chemical_formula_structural   H5NO
_chemical_formula_sum   'H80 N16 O16'
_cell_volume   937.55249106
_cell_formula_units_Z   16
loop_
 _symmetry_equiv_pos_site_id
 _symmetry_equiv_pos_as_xyz
  1  'x, y, z'
loop_
 _atom_site_type_symbol
 _atom_site_label
 _atom_site_symmetry_multiplicity
 _atom_site_fract_x
 _atom_site_fract_y
 _atom_site_fract_z
 _atom_site_occupancy
  H  H0  1  0.53609564  0.66414684  0.52878450  1
  H  H1  1  0.03609564  0.83585316  0.47121550  1
  H  H2  1  0.46390436  0.16414684  0.97121550  1
  H  H3  1  0.96390436  0.33585316  0.02878450  1
  H  H4  1  0.46390436  0.33585316  0.47121550  1
  H  H5  1  0.96390436  0.16414684  0.52878450  1
  H  H6  1  0.53609564  0.83585316  0.02878450  1
  H  H7  1  0.03609564  0.66414684  0.97121550  1
  H  H8  1  0.54505788  0.82941584  0.36491359  1
  H  H9  1  0.04505788  0.67058416  0.63508641  1
  H  H10  1  0.45494212  0.32941584  0.13508641  1
  H  H11  1  0.95494212  0.17058416  0.86491359  1
  H  H12  1  0.45494212  0.17058416  0.63508641  1
  H  H13  1  0.95494212  0.32941584  0.36491359  1
  H  H14  1  0.54505788  0.67058416  0.86491359  1
  H  H15  1  0.04505788  0.82941584  0.13508641  1
  H  H16  1  0.48286068  0.66700535  0.34250925  1
  H  H17  1  0.98286068  0.83299465  0.65749075  1
  H  H18  1  0.51713932  0.16700535  0.15749075  1
  H  H19  1  0.01713932  0.33299465  0.84250925  1
  H  H20  1  0.51713932  0.33299465  0.65749075  1
  H  H21  1  0.01713932  0.16700535  0.34250925  1
  H  H22  1  0.48286068  0.83299465  0.84250925  1
  H  H23  1  0.98286068  0.66700535  0.15749075  1
  H  H24  1  0.62560983  0.33344879  0.24556601  1
  H  H25  1  0.12560983  0.16655121  0.75443399  1
  H  H26  1  0.37439017  0.83344879  0.25443399  1
  H  H27  1  0.87439017  0.66655121  0.74556601  1
  H  H28  1  0.37439017  0.66655121  0.75443399  1
  H  H29  1  0.87439017  0.83344879  0.24556601  1
  H  H30  1  0.62560983  0.16655121  0.74556601  1
  H  H31  1  0.12560983  0.33344879  0.25443399  1
  H  H32  1  0.59335844  0.54408675  0.26370566  1
  H  H33  1  0.09335844  0.95591325  0.73629434  1
  H  H34  1  0.40664156  0.04408675  0.23629434  1
  H  H35  1  0.90664156  0.45591325  0.76370566  1
  H  H36  1  0.40664156  0.45591325  0.73629434  1
  H  H37  1  0.90664156  0.04408675  0.26370566  1
  H  H38  1  0.59335844  0.95591325  0.76370566  1
  H  H39  1  0.09335844  0.54408675  0.23629434  1
  H  H40  1  0.69588825  0.58838342  0.45821983  1
  H  H41  1  0.19588825  0.91161658  0.54178017  1
  H  H42  1  0.30411175  0.08838342  0.04178017  1
  H  H43  1  0.80411175  0.41161658  0.95821983  1
  H  H44  1  0.30411175  0.41161658  0.54178017  1
  H  H45  1  0.80411175  0.08838342  0.45821983  1
  H  H46  1  0.69588825  0.91161658  0.95821983  1
  H  H47  1  0.19588825  0.58838342  0.04178017  1
  H  H48  1  0.75658402  0.61277099  0.62524928  1
  H  H49  1  0.25658402  0.88722901  0.37475072  1
  H  H50  1  0.24341598  0.11277099  0.87475072  1
  H  H51  1  0.74341598  0.38722901  0.12524928  1
  H  H52  1  0.24341598  0.38722901  0.37475072  1
  H  H53  1  0.74341598  0.11277099  0.62524928  1
  H  H54  1  0.75658402  0.88722901  0.12524928  1
  H  H55  1  0.25658402  0.61277099  0.87475072  1
  H  H56  1  0.69142707  0.76631900  0.61384103  1
  H  H57  1  0.19142707  0.73368100  0.38615897  1
  H  H58  1  0.30857293  0.26631900  0.88615897  1
  H  H59  1  0.80857293  0.23368100  0.11384103  1
  H  H60  1  0.30857293  0.23368100  0.38615897  1
  H  H61  1  0.80857293  0.26631900  0.61384103  1
  H  H62  1  0.69142707  0.73368100  0.11384103  1
  H  H63  1  0.19142707  0.76631900  0.88615897  1
  H  H64  1  0.62076752  0.42877823  0.94480731  1
  H  H65  1  0.12076752  0.07122177  0.05519269  1
  H  H66  1  0.37923248  0.92877823  0.55519269  1
  H  H67  1  0.87923248  0.57122177  0.44480731  1
  H  H68  1  0.37923248  0.57122177  0.05519269  1
  H  H69  1  0.87923248  0.92877823  0.94480731  1
  H  H70  1  0.62076752  0.07122177  0.44480731  1
  H  H71  1  0.12076752  0.42877823  0.55519269  1
  H  H72  1  0.65072235  0.48526097  0.73507859  1
  H  H73  1  0.15072235  0.01473903  0.26492141  1
  H  H74  1  0.34927765  0.98526097  0.76492141  1
  H  H75  1  0.84927765  0.51473903  0.23507859  1
  H  H76  1  0.34927765  0.51473903  0.26492141  1
  H  H77  1  0.84927765  0.98526097  0.73507859  1
  H  H78  1  0.65072235  0.01473903  0.23507859  1
  H  H79  1  0.15072235  0.48526097  0.76492141  1
  N  N80  1  0.53341877  0.68755705  0.38384111  1
  N  N81  1  0.03341877  0.81244295  0.61615889  1
  N  N82  1  0.46658123  0.18755705  0.11615889  1
  N  N83  1  0.96658123  0.31244295  0.88384111  1
  N  N84  1  0.46658123  0.31244295  0.61615889  1
  N  N85  1  0.96658123  0.18755705  0.38384111  1
  N  N86  1  0.53341877  0.81244295  0.88384111  1
  N  N87  1  0.03341877  0.68755705  0.11615889  1
  N  N88  1  0.70452854  0.62534648  0.59883673  1
  N  N89  1  0.20452854  0.87465352  0.40116327  1
  N  N90  1  0.29547146  0.12534648  0.90116327  1
  N  N91  1  0.79547146  0.37465352  0.09883673  1
  N  N92  1  0.29547146  0.37465352  0.40116327  1
  N  N93  1  0.79547146  0.12534648  0.59883673  1
  N  N94  1  0.70452854  0.87465352  0.09883673  1
  N  N95  1  0.20452854  0.62534648  0.90116327  1
  O  O96  1  0.63133136  0.46732482  0.19748586  1
  O  O97  1  0.13133136  0.03267518  0.80251414  1
  O  O98  1  0.36866864  0.96732482  0.30251414  1
  O  O99  1  0.86866864  0.53267518  0.69748586  1
  O  O100  1  0.36866864  0.53267518  0.80251414  1
  O  O101  1  0.86866864  0.96732482  0.19748586  1
  O  O102  1  0.63133136  0.03267518  0.69748586  1
  O  O103  1  0.13133136  0.46732482  0.30251414  1
  O  O104  1  0.61355882  0.40724893  0.80437099  1
  O  O105  1  0.11355882  0.09275107  0.19562901  1
  O  O106  1  0.38644118  0.90724893  0.69562901  1
  O  O107  1  0.88644118  0.59275107  0.30437099  1
  O  O108  1  0.38644118  0.59275107  0.19562901  1
  O  O109  1  0.88644118  0.90724893  0.80437099  1
  O  O110  1  0.61355882  0.09275107  0.30437099  1
  O  O111  1  0.11355882  0.40724893  0.69562901  1
