# generated using pymatgen
data_MnFeH4NF6
_symmetry_space_group_name_H-M   'P 1'
_cell_length_a   10.81698931
_cell_length_b   7.98924404
_cell_length_c   13.09478818
_cell_angle_alpha   90.00000000
_cell_angle_beta   90.00000000
_cell_angle_gamma   90.00000000
_symmetry_Int_Tables_number   1
_chemical_formula_structural   MnFeH4NF6
_chemical_formula_sum   'Mn8 Fe8 H32 N8 F48'
_cell_volume   1131.64592939
_cell_formula_units_Z   8
loop_
 _symmetry_equiv_pos_site_id
 _symmetry_equiv_pos_as_xyz
  1  'x, y, z'
loop_
 _atom_site_type_symbol
 _atom_site_label
 _atom_site_symmetry_multiplicity
 _atom_site_fract_x
 _atom_site_fract_y
 _atom_site_fract_z
 _atom_site_occupancy
  Mn  Mn0  1  0.32183024  0.75021595  0.60317900  1
  Mn  Mn1  1  0.67816976  0.24978405  0.60317900  1
  Mn  Mn2  1  0.67816976  0.25021595  0.10317900  1
  Mn  Mn3  1  0.32183024  0.74978405  0.10317900  1
  Mn  Mn4  1  0.82102887  0.74578677  0.88710265  1
  Mn  Mn5  1  0.17897113  0.25421323  0.88710265  1
  Mn  Mn6  1  0.17897113  0.24578677  0.38710265  1
  Mn  Mn7  1  0.82102887  0.75421323  0.38710265  1
  Fe  Fe8  1  0.32445039  0.25002875  0.60420228  1
  Fe  Fe9  1  0.67554961  0.74997125  0.60420228  1
  Fe  Fe10  1  0.67554961  0.75002875  0.10420228  1
  Fe  Fe11  1  0.32445039  0.24997125  0.10420228  1
  Fe  Fe12  1  0.82244645  0.24889786  0.88575338  1
  Fe  Fe13  1  0.17755355  0.75110214  0.88575338  1
  Fe  Fe14  1  0.17755355  0.74889786  0.38575338  1
  Fe  Fe15  1  0.82244645  0.25110214  0.38575338  1
  H  H16  1  0.55872850  0.42885893  0.88670998  1
  H  H17  1  0.44127150  0.57114107  0.88670998  1
  H  H18  1  0.44127150  0.92885893  0.38670998  1
  H  H19  1  0.55872850  0.07114107  0.38670998  1
  H  H20  1  0.55022254  0.57824678  0.79514285  1
  H  H21  1  0.44977746  0.42175322  0.79514285  1
  H  H22  1  0.44977746  0.07824678  0.29514285  1
  H  H23  1  0.55022254  0.92175322  0.29514285  1
  H  H24  1  0.54257399  0.41083856  0.37601665  1
  H  H25  1  0.45742601  0.58916144  0.37601665  1
  H  H26  1  0.45742601  0.91083856  0.87601665  1
  H  H27  1  0.54257399  0.08916144  0.87601665  1
  H  H28  1  0.43400434  0.44405785  0.28482027  1
  H  H29  1  0.56599566  0.55594215  0.28482027  1
  H  H30  1  0.56599566  0.94405785  0.78482027  1
  H  H31  1  0.43400434  0.05594215  0.78482027  1
  H  H32  1  0.05845831  0.42818701  0.58571642  1
  H  H33  1  0.94154169  0.57181299  0.58571642  1
  H  H34  1  0.94154169  0.92818701  0.08571642  1
  H  H35  1  0.05845831  0.07181299  0.08571642  1
  H  H36  1  0.94816901  0.42224443  0.67591102  1
  H  H37  1  0.05183099  0.57775557  0.67591102  1
  H  H38  1  0.05183099  0.92224443  0.17591102  1
  H  H39  1  0.94816901  0.07775557  0.17591102  1
  H  H40  1  0.05382038  0.42263233  0.12200366  1
  H  H41  1  0.94617962  0.57736767  0.12200366  1
  H  H42  1  0.94617962  0.92263233  0.62200366  1
  H  H43  1  0.05382038  0.07736767  0.62200366  1
  H  H44  1  0.94297403  0.42877758  0.21348904  1
  H  H45  1  0.05702597  0.57122242  0.21348904  1
  H  H46  1  0.05702597  0.92877758  0.71348904  1
  H  H47  1  0.94297403  0.07122242  0.71348904  1
  N  N48  1  0.50000000  0.50000000  0.84170143  1
  N  N49  1  0.50000000  -0.00000000  0.34170143  1
  N  N50  1  0.50000000  0.50000000  0.33017444  1
  N  N51  1  0.50000000  -0.00000000  0.83017444  1
  N  N52  1  -0.00000000  0.50000000  0.63014848  1
  N  N53  1  -0.00000000  0.00000000  0.13014848  1
  N  N54  1  -0.00000000  0.50000000  0.16791272  1
  N  N55  1  -0.00000000  0.00000000  0.66791272  1
  F  F56  1  0.49325029  0.28349551  0.65564760  1
  F  F57  1  0.50674971  0.71650449  0.65564760  1
  F  F58  1  0.50674971  0.78349551  0.15564760  1
  F  F59  1  0.49325029  0.21650449  0.15564760  1
  F  F60  1  0.36052330  0.22772038  0.95915724  1
  F  F61  1  0.63947670  0.77227962  0.95915724  1
  F  F62  1  0.63947670  0.72772038  0.45915724  1
  F  F63  1  0.36052330  0.27227962  0.45915724  1
  F  F64  1  0.85876894  0.27259637  0.03077274  1
  F  F65  1  0.14123106  0.72740363  0.03077274  1
  F  F66  1  0.14123106  0.77259637  0.53077274  1
  F  F67  1  0.85876894  0.22740363  0.53077274  1
  F  F68  1  0.77102405  0.21029994  0.74444633  1
  F  F69  1  0.22897595  0.78970006  0.74444633  1
  F  F70  1  0.22897595  0.71029994  0.24444633  1
  F  F71  1  0.77102405  0.28970006  0.24444633  1
  F  F72  1  0.29094531  0.48844268  0.61799614  1
  F  F73  1  0.70905469  0.51155732  0.61799614  1
  F  F74  1  0.70905469  0.98844268  0.11799614  1
  F  F75  1  0.29094531  0.01155732  0.11799614  1
  F  F76  1  0.79255791  0.48638011  0.86756542  1
  F  F77  1  0.20744209  0.51361989  0.86756542  1
  F  F78  1  0.20744209  0.98638011  0.36756542  1
  F  F79  1  0.79255791  0.01361989  0.36756542  1
  F  F80  1  0.99251788  0.27886019  0.83795586  1
  F  F81  1  0.00748212  0.72113981  0.83795586  1
  F  F82  1  0.00748212  0.77886019  0.33795586  1
  F  F83  1  0.99251788  0.22113981  0.33795586  1
  F  F84  1  0.35483813  0.76710760  0.93563839  1
  F  F85  1  0.64516187  0.23289240  0.93563839  1
  F  F86  1  0.64516187  0.26710760  0.43563839  1
  F  F87  1  0.35483813  0.73289240  0.43563839  1
  F  F88  1  0.85166233  0.72158272  0.05415919  1
  F  F89  1  0.14833767  0.27841728  0.05415919  1
  F  F90  1  0.14833767  0.22158272  0.55415919  1
  F  F91  1  0.85166233  0.77841728  0.55415919  1
  F  F92  1  0.72972437  0.78364188  0.74515562  1
  F  F93  1  0.27027563  0.21635812  0.74515562  1
  F  F94  1  0.27027563  0.28364188  0.24515562  1
  F  F95  1  0.72972437  0.71635812  0.24515562  1
  F  F96  1  0.35421619  0.01096484  0.59638875  1
  F  F97  1  0.64578381  0.98903516  0.59638875  1
  F  F98  1  0.64578381  0.51096484  0.09638875  1
  F  F99  1  0.35421619  0.48903516  0.09638875  1
  F  F100  1  0.84955564  0.00874937  0.89560099  1
  F  F101  1  0.15044436  0.99125063  0.89560099  1
  F  F102  1  0.15044436  0.50874937  0.39560099  1
  F  F103  1  0.84955564  0.49125063  0.39560099  1
