# generated using pymatgen
data_LaBr3O7
_symmetry_space_group_name_H-M   'P 1'
_cell_length_a   7.35479296
_cell_length_b   8.78639714
_cell_length_c   6.59239266
_cell_angle_alpha   92.37239497
_cell_angle_beta   104.66293560
_cell_angle_gamma   83.70478399
_symmetry_Int_Tables_number   1
_chemical_formula_structural   LaBr3O7
_chemical_formula_sum   'La2 Br6 O14'
_cell_volume   409.61354405
_cell_formula_units_Z   2
loop_
 _symmetry_equiv_pos_site_id
 _symmetry_equiv_pos_as_xyz
  1  'x, y, z'
loop_
 _atom_site_type_symbol
 _atom_site_label
 _atom_site_symmetry_multiplicity
 _atom_site_fract_x
 _atom_site_fract_y
 _atom_site_fract_z
 _atom_site_occupancy
  La  La0  1  0.20400671  0.75608716  0.79719342  1
  La  La1  1  0.79599329  0.24391284  0.20280658  1
  Br  Br2  1  0.25737862  0.47590552  0.31036810  1
  Br  Br3  1  0.74262138  0.52409448  0.68963190  1
  Br  Br4  1  0.25514116  0.97670451  0.32666554  1
  Br  Br5  1  0.74485884  0.02329549  0.67333446  1
  Br  Br6  1  0.29555481  0.18294423  0.82555927  1
  Br  Br7  1  0.70444519  0.81705577  0.17444073  1
  O  O8  1  0.89727477  0.87189760  0.60669621  1
  O  O9  1  0.10272523  0.12810240  0.39330379  1
  O  O10  1  0.31907188  0.85774040  0.54276214  1
  O  O11  1  0.68092812  0.14225960  0.45723786  1
  O  O12  1  0.97040062  0.55858376  0.75059553  1
  O  O13  1  0.02959938  0.44141624  0.24940447  1
  O  O14  1  0.30349156  0.53427901  0.56568396  1
  O  O15  1  0.69650844  0.46572099  0.43431604  1
  O  O16  1  0.20171971  0.03253350  0.92355852  1
  O  O17  1  0.79828029  0.96746650  0.07644148  1
  O  O18  1  0.25399885  0.63003470  0.16447549  1
  O  O19  1  0.74600115  0.36996530  0.83552451  1
  O  O20  1  0.54223223  0.74632615  0.95915133  1
  O  O21  1  0.45776777  0.25367385  0.04084867  1
