# generated using pymatgen
data_DyEr3
_symmetry_space_group_name_H-M   'P 1'
_cell_length_a   7.17738008
_cell_length_b   7.17737842
_cell_length_c   5.61262729
_cell_angle_alpha   90.00000000
_cell_angle_beta   90.00000000
_cell_angle_gamma   119.99999659
_symmetry_Int_Tables_number   1
_chemical_formula_structural   DyEr3
_chemical_formula_sum   'Dy2 Er6'
_cell_volume   250.39672247
_cell_formula_units_Z   2
loop_
 _symmetry_equiv_pos_site_id
 _symmetry_equiv_pos_as_xyz
  1  'x, y, z'
loop_
 _atom_site_type_symbol
 _atom_site_label
 _atom_site_symmetry_multiplicity
 _atom_site_fract_x
 _atom_site_fract_y
 _atom_site_fract_z
 _atom_site_occupancy
  Dy  Dy0  1  0.33333300  0.66666700  0.75000100  1
  Dy  Dy1  1  0.66666800  0.33333300  0.25000000  1
  Er  Er2  1  0.16624876  0.33249752  0.25000000  1
  Er  Er3  1  0.66750348  0.83375224  0.25000000  1
  Er  Er4  1  0.16624876  0.83375224  0.25000000  1
  Er  Er5  1  0.83375024  0.66750048  0.75000100  1
  Er  Er6  1  0.33249852  0.16624976  0.75000100  1
  Er  Er7  1  0.83375024  0.16624976  0.75000100  1
