# generated using pymatgen
data_Li2ZnSi
_symmetry_space_group_name_H-M   'P 1'
_cell_length_a   4.22799805
_cell_length_b   4.22898215
_cell_length_c   16.38391926
_cell_angle_alpha   89.99999907
_cell_angle_beta   90.00163658
_cell_angle_gamma   120.00767210
_symmetry_Int_Tables_number   1
_chemical_formula_structural   Li2ZnSi
_chemical_formula_sum   'Li8 Zn4 Si4'
_cell_volume   253.67956273
_cell_formula_units_Z   4
loop_
 _symmetry_equiv_pos_site_id
 _symmetry_equiv_pos_as_xyz
  1  'x, y, z'
loop_
 _atom_site_type_symbol
 _atom_site_label
 _atom_site_symmetry_multiplicity
 _atom_site_fract_x
 _atom_site_fract_y
 _atom_site_fract_z
 _atom_site_occupancy
  Li  Li0  1  0.33332734  0.66666517  0.04175172  1
  Li  Li1  1  0.33334468  0.66667334  0.20904006  1
  Li  Li2  1  0.66669199  0.33334649  0.29210454  1
  Li  Li3  1  0.66667191  0.33333545  0.45882760  1
  Li  Li4  1  0.33332709  0.66666355  0.54117240  1
  Li  Li5  1  0.33330601  0.66665251  0.70789546  1
  Li  Li6  1  0.66665632  0.33332866  0.79095994  1
  Li  Li7  1  0.66667366  0.33333683  0.95824828  1
  Zn  Zn8  1  0.00027705  0.00013703  0.12617274  1
  Zn  Zn9  1  0.99939670  0.99970085  0.37647807  1
  Zn  Zn10  1  0.00060330  0.00030115  0.62352193  1
  Zn  Zn11  1  0.99972295  0.99986197  0.87382826  1
  Si  Si12  1  0.66638997  0.33319348  0.12540659  1
  Si  Si13  1  0.33393725  0.66696962  0.37540622  1
  Si  Si14  1  0.66606175  0.33303238  0.62459378  1
  Si  Si15  1  0.33361003  0.66680452  0.87459341  1
