# generated using pymatgen
data_NdCd3
_symmetry_space_group_name_H-M   'P 1'
_cell_length_a   6.78629317
_cell_length_b   6.78629444
_cell_length_c   5.05589680
_cell_angle_alpha   90.00000000
_cell_angle_beta   90.00000000
_cell_angle_gamma   119.99999900
_symmetry_Int_Tables_number   1
_chemical_formula_structural   NdCd3
_chemical_formula_sum   'Nd2 Cd6'
_cell_volume   201.64810867
_cell_formula_units_Z   2
loop_
 _symmetry_equiv_pos_site_id
 _symmetry_equiv_pos_as_xyz
  1  'x, y, z'
loop_
 _atom_site_type_symbol
 _atom_site_label
 _atom_site_symmetry_multiplicity
 _atom_site_fract_x
 _atom_site_fract_y
 _atom_site_fract_z
 _atom_site_occupancy
  Nd  Nd0  1  0.66666600  0.33333200  0.25000000  1
  Nd  Nd1  1  0.33333300  0.66666700  0.74999900  1
  Cd  Cd2  1  0.83926872  0.16073128  0.74999900  1
  Cd  Cd3  1  0.32146057  0.16073128  0.74999900  1
  Cd  Cd4  1  0.83926872  0.67853743  0.74999900  1
  Cd  Cd5  1  0.16073028  0.83926972  0.25000000  1
  Cd  Cd6  1  0.67853843  0.83926972  0.25000000  1
  Cd  Cd7  1  0.16073128  0.32146157  0.25000000  1
