# generated using pymatgen
data_NdAs2Au
_symmetry_space_group_name_H-M   'P 1'
_cell_length_a   4.09805298
_cell_length_b   4.14066593
_cell_length_c   20.89293066
_cell_angle_alpha   90.00000000
_cell_angle_beta   90.00000000
_cell_angle_gamma   90.00000000
_symmetry_Int_Tables_number   1
_chemical_formula_structural   NdAs2Au
_chemical_formula_sum   'Nd4 As8 Au4'
_cell_volume   354.52521130
_cell_formula_units_Z   4
loop_
 _symmetry_equiv_pos_site_id
 _symmetry_equiv_pos_as_xyz
  1  'x, y, z'
loop_
 _atom_site_type_symbol
 _atom_site_label
 _atom_site_symmetry_multiplicity
 _atom_site_fract_x
 _atom_site_fract_y
 _atom_site_fract_z
 _atom_site_occupancy
  Nd  Nd0  1  0.25000000  0.22725717  0.11824079  1
  Nd  Nd1  1  0.75000000  0.72725717  0.38175921  1
  Nd  Nd2  1  0.25000000  0.27274283  0.61824079  1
  Nd  Nd3  1  0.75000000  0.77274283  0.88175921  1
  As  As4  1  0.25000000  0.70160605  0.00177270  1
  As  As5  1  0.75000000  0.72739794  0.15804533  1
  As  As6  1  0.25000000  0.22739794  0.34195467  1
  As  As7  1  0.75000000  0.20160605  0.49822730  1
  As  As8  1  0.25000000  0.79839395  0.50177270  1
  As  As9  1  0.75000000  0.77260206  0.65804533  1
  As  As10  1  0.25000000  0.27260206  0.84195467  1
  As  As11  1  0.75000000  0.29839395  0.99822830  1
  Au  Au12  1  0.75000000  0.22475219  0.24982840  1
  Au  Au13  1  0.25000000  0.72475119  0.25017160  1
  Au  Au14  1  0.75000000  0.27524781  0.74982840  1
  Au  Au15  1  0.25000000  0.77524781  0.75017160  1
