# generated using pymatgen
data_Ta3CrSe6
_symmetry_space_group_name_H-M   'P 1'
_cell_length_a   6.00964323
_cell_length_b   6.00948837
_cell_length_c   12.90058559
_cell_angle_alpha   90.00020612
_cell_angle_beta   89.99753446
_cell_angle_gamma   119.99614370
_symmetry_Int_Tables_number   1
_chemical_formula_structural   Ta3CrSe6
_chemical_formula_sum   'Ta6 Cr2 Se12'
_cell_volume   403.49961051
_cell_formula_units_Z   2
loop_
 _symmetry_equiv_pos_site_id
 _symmetry_equiv_pos_as_xyz
  1  'x, y, z'
loop_
 _atom_site_type_symbol
 _atom_site_label
 _atom_site_symmetry_multiplicity
 _atom_site_fract_x
 _atom_site_fract_y
 _atom_site_fract_z
 _atom_site_occupancy
  Ta  Ta0  1  0.00005724  0.00009162  0.99993143  1
  Ta  Ta1  1  0.66657900  0.33332741  0.99967427  1
  Ta  Ta2  1  0.33337332  0.66669963  0.49983604  1
  Ta  Ta3  1  0.99996998  0.99995109  0.50006336  1
  Ta  Ta4  1  0.33341203  0.66665786  0.00017622  1
  Ta  Ta5  1  0.66663970  0.33338438  0.50031659  1
  Cr  Cr6  1  0.66662785  0.33332969  0.74999504  1
  Cr  Cr7  1  0.33336789  0.66664819  0.25002403  1
  Se  Se8  1  0.67206048  0.66625305  0.13044458  1
  Se  Se9  1  0.32783460  0.33370929  0.63065977  1
  Se  Se10  1  0.66635351  0.67214567  0.86934025  1
  Se  Se11  1  0.32788223  0.99409227  0.86937683  1
  Se  Se12  1  0.00579176  0.67204144  0.63062633  1
  Se  Se13  1  0.00583798  0.33380292  0.86936082  1
  Se  Se14  1  0.99422564  0.66618899  0.36954992  1
  Se  Se15  1  0.33372767  0.32792732  0.36955203  1
  Se  Se16  1  0.67195389  0.00578924  0.36954018  1
  Se  Se17  1  0.99418716  0.32808071  0.13043803  1
  Se  Se18  1  0.66624898  0.99414393  0.63063321  1
  Se  Se19  1  0.33376911  0.00573731  0.13045909  1
