# generated using pymatgen
data_Yb2In5Au3
_symmetry_space_group_name_H-M   'P 1'
_cell_length_a   3.82049735
_cell_length_b   8.23548558
_cell_length_c   15.17508928
_cell_angle_alpha   90.00000000
_cell_angle_beta   97.23160959
_cell_angle_gamma   90.00000000
_symmetry_Int_Tables_number   1
_chemical_formula_structural   Yb2In5Au3
_chemical_formula_sum   'Yb4 In10 Au6'
_cell_volume   473.66568002
_cell_formula_units_Z   2
loop_
 _symmetry_equiv_pos_site_id
 _symmetry_equiv_pos_as_xyz
  1  'x, y, z'
loop_
 _atom_site_type_symbol
 _atom_site_label
 _atom_site_symmetry_multiplicity
 _atom_site_fract_x
 _atom_site_fract_y
 _atom_site_fract_z
 _atom_site_occupancy
  Yb  Yb0  1  0.82494569  0.28491877  0.64989139  1
  Yb  Yb1  1  0.17505431  0.78491877  0.35010861  1
  Yb  Yb2  1  0.52534499  0.19719380  0.05068999  1
  Yb  Yb3  1  0.47465501  0.69719380  0.94931001  1
  In  In4  1  0.12135511  0.25262292  0.24271021  1
  In  In5  1  0.87864489  0.75262292  0.75728979  1
  In  In6  1  0.70441620  0.07848454  0.40883239  1
  In  In7  1  0.29558380  0.57848454  0.59116761  1
  In  In8  1  0.40067102  0.08957052  0.80134203  1
  In  In9  1  0.59932898  0.58957052  0.19865797  1
  In  In10  1  0.05168904  0.86867755  0.10337809  1
  In  In11  1  0.94831096  0.36867755  0.89662191  1
  In  In12  1  0.70146300  0.48382084  0.40292600  1
  In  In13  1  0.29853700  0.98382084  0.59707400  1
  Au  Au14  1  0.96455660  0.99680775  0.92911321  1
  Au  Au15  1  0.03544340  0.49680775  0.07088679  1
  Au  Au16  1  0.24307633  0.28347024  0.48615267  1
  Au  Au17  1  0.75692367  0.78347024  0.51384733  1
  Au  Au18  1  0.61327234  0.97839306  0.22654467  1
  Au  Au19  1  0.38672766  0.47839306  0.77345533  1
