# generated using pymatgen
data_Tm2Te3
_symmetry_space_group_name_H-M   'P 1'
_cell_length_a   7.46242474
_cell_length_b   7.46242474
_cell_length_c   13.73155861
_cell_angle_alpha   100.48291076
_cell_angle_beta   100.48291076
_cell_angle_gamma   109.29418079
_symmetry_Int_Tables_number   1
_chemical_formula_structural   Tm2Te3
_chemical_formula_sum   'Tm8 Te12'
_cell_volume   685.12173106
_cell_formula_units_Z   4
loop_
 _symmetry_equiv_pos_site_id
 _symmetry_equiv_pos_as_xyz
  1  'x, y, z'
loop_
 _atom_site_type_symbol
 _atom_site_label
 _atom_site_symmetry_multiplicity
 _atom_site_fract_x
 _atom_site_fract_y
 _atom_site_fract_z
 _atom_site_occupancy
  Tm  Tm0  1  0.70761994  0.95761994  0.91523989  1
  Tm  Tm1  1  0.54238006  0.79238006  0.58476011  1
  Tm  Tm2  1  0.29238006  0.04238006  0.08476011  1
  Tm  Tm3  1  0.45761994  0.20761994  0.41523989  1
  Tm  Tm4  1  0.37494185  0.62494185  0.24988370  1
  Tm  Tm5  1  0.87505815  0.12505815  0.25011630  1
  Tm  Tm6  1  0.62505815  0.37505815  0.75011630  1
  Tm  Tm7  1  0.12494185  0.87494185  0.74988370  1
  Te  Te8  1  0.87728456  0.12728456  0.75000000  1
  Te  Te9  1  0.37271544  0.62271544  0.75000000  1
  Te  Te10  1  0.12271544  0.87271544  0.25000000  1
  Te  Te11  1  0.62728456  0.37728456  0.25000000  1
  Te  Te12  1  0.54326772  0.79261406  0.08430615  1
  Te  Te13  1  0.70738594  0.95673228  0.41569385  1
  Te  Te14  1  0.20830791  0.45896157  0.41569385  1
  Te  Te15  1  0.04103843  0.29169209  0.08430615  1
  Te  Te16  1  0.45673228  0.20738594  0.91569385  1
  Te  Te17  1  0.29261406  0.04326772  0.58430615  1
  Te  Te18  1  0.79169209  0.54103843  0.58430615  1
  Te  Te19  1  0.95896157  0.70830791  0.91569385  1
