# generated using pymatgen
data_CsP(HO2)2
_symmetry_space_group_name_H-M   'P 1'
_cell_length_a   4.94548868
_cell_length_b   6.53459690
_cell_length_c   8.04339734
_cell_angle_alpha   90.00000000
_cell_angle_beta   107.89385616
_cell_angle_gamma   90.00000000
_symmetry_Int_Tables_number   1
_chemical_formula_structural   CsP(HO2)2
_chemical_formula_sum   'Cs2 P2 H4 O8'
_cell_volume   247.36283867
_cell_formula_units_Z   2
loop_
 _symmetry_equiv_pos_site_id
 _symmetry_equiv_pos_as_xyz
  1  'x, y, z'
loop_
 _atom_site_type_symbol
 _atom_site_label
 _atom_site_symmetry_multiplicity
 _atom_site_fract_x
 _atom_site_fract_y
 _atom_site_fract_z
 _atom_site_occupancy
  Cs  Cs0  1  0.23262632  0.75159732  0.26429687  1
  Cs  Cs1  1  0.76737368  0.25159732  0.73570313  1
  P  P2  1  0.70593746  0.24101332  0.23866267  1
  P  P3  1  0.29406254  0.74101332  0.76133733  1
  H  H4  1  0.17748942  0.24636709  0.35225745  1
  H  H5  1  0.82251058  0.74636709  0.64774255  1
  H  H6  1  0.46193503  0.98427639  0.97175706  1
  H  H7  1  0.53806497  0.48427639  0.02824294  1
  O  O8  1  0.00045669  0.25042029  0.39174919  1
  O  O9  1  0.99954331  0.75042029  0.60825081  1
  O  O10  1  0.47331402  0.24584891  0.32455812  1
  O  O11  1  0.52668598  0.74584891  0.67544188  1
  O  O12  1  0.70290004  0.05584880  0.12136806  1
  O  O13  1  0.29709996  0.55584880  0.87863194  1
  O  O14  1  0.71376424  0.44832787  0.13465654  1
  O  O15  1  0.28623576  0.94832787  0.86534346  1
