# generated using pymatgen
data_Li3(ZnSn2)2
_symmetry_space_group_name_H-M   'P 1'
_cell_length_a   4.55095715
_cell_length_b   4.55095715
_cell_length_c   22.21838821
_cell_angle_alpha   90.00000000
_cell_angle_beta   90.00000000
_cell_angle_gamma   120.00369120
_symmetry_Int_Tables_number   1
_chemical_formula_structural   Li3(ZnSn2)2
_chemical_formula_sum   'Li6 Zn4 Sn8'
_cell_volume   398.50384921
_cell_formula_units_Z   2
loop_
 _symmetry_equiv_pos_site_id
 _symmetry_equiv_pos_as_xyz
  1  'x, y, z'
loop_
 _atom_site_type_symbol
 _atom_site_label
 _atom_site_symmetry_multiplicity
 _atom_site_fract_x
 _atom_site_fract_y
 _atom_site_fract_z
 _atom_site_occupancy
  Li  Li0  1  0.66670770  0.33329230  0.75000000  1
  Li  Li1  1  0.33329230  0.66670770  0.25000000  1
  Li  Li2  1  0.66669309  0.33330691  0.60773985  1
  Li  Li3  1  0.33330691  0.66669309  0.39226015  1
  Li  Li4  1  0.33330691  0.66669309  0.10773985  1
  Li  Li5  1  0.66669309  0.33330691  0.89226015  1
  Zn  Zn6  1  0.66669588  0.33330412  0.15455298  1
  Zn  Zn7  1  0.33330412  0.66669588  0.84544702  1
  Zn  Zn8  1  0.33330412  0.66669588  0.65455298  1
  Zn  Zn9  1  0.66669588  0.33330412  0.34544702  1
  Sn  Sn10  1  0.66665930  0.33334070  0.02928588  1
  Sn  Sn11  1  0.33334070  0.66665930  0.97071412  1
  Sn  Sn12  1  0.33334070  0.66665930  0.52928588  1
  Sn  Sn13  1  0.66665930  0.33334070  0.47071412  1
  Sn  Sn14  1  0.99999752  0.00000248  0.68340925  1
  Sn  Sn15  1  0.00000248  0.99999752  0.31659075  1
  Sn  Sn16  1  0.00000248  0.99999752  0.18340925  1
  Sn  Sn17  1  0.99999752  0.00000248  0.81659075  1
