# generated using pymatgen
data_Zr5Sn3P
_symmetry_space_group_name_H-M   'P 1'
_cell_length_a   5.97772635
_cell_length_b   8.63653321
_cell_length_c   8.63720937
_cell_angle_alpha   119.99741494
_cell_angle_beta   90.00000000
_cell_angle_gamma   90.00000000
_symmetry_Int_Tables_number   1
_chemical_formula_structural   Zr5Sn3P
_chemical_formula_sum   'Zr10 Sn6 P2'
_cell_volume   386.18096952
_cell_formula_units_Z   2
loop_
 _symmetry_equiv_pos_site_id
 _symmetry_equiv_pos_as_xyz
  1  'x, y, z'
loop_
 _atom_site_type_symbol
 _atom_site_label
 _atom_site_symmetry_multiplicity
 _atom_site_fract_x
 _atom_site_fract_y
 _atom_site_fract_z
 _atom_site_occupancy
  Zr  Zr0  1  0.50000276  0.33332430  0.66664133  1
  Zr  Zr1  1  0.50000276  0.66668296  0.33335867  1
  Zr  Zr2  1  0.00000276  0.66667570  0.33335867  1
  Zr  Zr3  1  0.00000276  0.33331704  0.66664133  1
  Zr  Zr4  1  0.74999474  0.24869109  1.00000000  1
  Zr  Zr5  1  0.75000185  0.75133813  0.75136626  1
  Zr  Zr6  1  0.75000185  0.99997187  0.24863374  1
  Zr  Zr7  1  0.24999474  0.75130891  0.00000000  1
  Zr  Zr8  1  0.25000185  0.24866187  0.24863374  1
  Zr  Zr9  1  0.25000185  0.00002813  0.75136626  1
  Sn  Sn10  1  0.74998918  0.60050581  1.00000000  1
  Sn  Sn11  1  0.75000670  0.39943306  0.39945053  1
  Sn  Sn12  1  0.75000670  0.99998253  0.60054947  1
  Sn  Sn13  1  0.24998918  0.39949419  0.00000000  1
  Sn  Sn14  1  0.25000670  0.60056694  0.60054947  1
  Sn  Sn15  1  0.25000670  0.00001747  0.39945053  1
  P  P16  1  0.49999346  0.00000048  0.00000000  1
  P  P17  1  0.99999346  -0.00000048  1.00000000  1
