# generated using pymatgen
data_V8N
_symmetry_space_group_name_H-M   'P 1'
_cell_length_a   2.98974993
_cell_length_b   8.69833777
_cell_length_c   8.69833777
_cell_angle_alpha   90.00000000
_cell_angle_beta   90.00000000
_cell_angle_gamma   90.00000000
_symmetry_Int_Tables_number   1
_chemical_formula_structural   V8N
_chemical_formula_sum   'V16 N2'
_cell_volume   226.20770852
_cell_formula_units_Z   2
loop_
 _symmetry_equiv_pos_site_id
 _symmetry_equiv_pos_as_xyz
  1  'x, y, z'
loop_
 _atom_site_type_symbol
 _atom_site_label
 _atom_site_symmetry_multiplicity
 _atom_site_fract_x
 _atom_site_fract_y
 _atom_site_fract_z
 _atom_site_occupancy
  V  V0  1  0.50000000  0.34212064  0.65787936  1
  V  V1  1  0.50000000  0.65787936  0.34212064  1
  V  V2  1  -0.00000000  0.15787936  0.15787936  1
  V  V3  1  0.00000000  0.84212064  0.84212064  1
  V  V4  1  0.50000000  0.88740281  0.11259719  1
  V  V5  1  0.50000000  0.11259719  0.88740281  1
  V  V6  1  0.00000000  0.61259719  0.61259719  1
  V  V7  1  0.00000000  0.38740281  0.38740281  1
  V  V8  1  0.50000000  0.38557399  0.12650204  1
  V  V9  1  0.50000000  0.61442601  0.87349796  1
  V  V10  1  -0.00000000  0.11442601  0.62650204  1
  V  V11  1  -0.00000000  0.88557399  0.37349796  1
  V  V12  1  0.50000000  0.12650204  0.38557399  1
  V  V13  1  0.50000000  0.87349796  0.61442601  1
  V  V14  1  0.00000000  0.62650204  0.11442601  1
  V  V15  1  -0.00000000  0.37349796  0.88557399  1
  N  N16  1  0.50000000  0.50000000  0.50000000  1
  N  N17  1  -0.00000000  -0.00000000  0.00000000  1
