# generated using pymatgen
data_Nd(YS2)3
_symmetry_space_group_name_H-M   'P 1'
_cell_length_a   3.99955041
_cell_length_b   11.34608364
_cell_length_c   11.12653801
_cell_angle_alpha   108.87779028
_cell_angle_beta   90.00000000
_cell_angle_gamma   90.00000000
_symmetry_Int_Tables_number   1
_chemical_formula_structural   Nd(YS2)3
_chemical_formula_sum   'Nd2 Y6 S12'
_cell_volume   477.75488314
_cell_formula_units_Z   2
loop_
 _symmetry_equiv_pos_site_id
 _symmetry_equiv_pos_as_xyz
  1  'x, y, z'
loop_
 _atom_site_type_symbol
 _atom_site_label
 _atom_site_symmetry_multiplicity
 _atom_site_fract_x
 _atom_site_fract_y
 _atom_site_fract_z
 _atom_site_occupancy
  Nd  Nd0  1  0.25000000  0.19337748  0.54837363  1
  Nd  Nd1  1  0.75000000  0.80662252  0.45162637  1
  Y  Y2  1  0.25000000  0.00120091  0.18042077  1
  Y  Y3  1  0.75000000  0.99879909  0.81957923  1
  Y  Y4  1  0.25000000  0.33302777  0.93983028  1
  Y  Y5  1  0.75000000  0.66697223  0.06016972  1
  Y  Y6  1  0.25000000  0.58585340  0.66080905  1
  Y  Y7  1  0.75000000  0.41414660  0.33919095  1
  S  S8  1  0.25000000  0.11195932  0.97836198  1
  S  S9  1  0.75000000  0.88804068  0.02163802  1
  S  S10  1  0.25000000  0.25107444  0.30615330  1
  S  S11  1  0.75000000  0.74892556  0.69384670  1
  S  S12  1  0.25000000  0.55947285  0.89471448  1
  S  S13  1  0.75000000  0.44052715  0.10528552  1
  S  S14  1  0.25000000  0.59603615  0.41888001  1
  S  S15  1  0.75000000  0.40396385  0.58111999  1
  S  S16  1  0.25000000  0.77184746  0.23621537  1
  S  S17  1  0.75000000  0.22815254  0.76378463  1
  S  S18  1  0.25000000  0.96320901  0.61630704  1
  S  S19  1  0.75000000  0.03679099  0.38369296  1
