# generated using pymatgen
data_Tb3Ge3Ir2
_symmetry_space_group_name_H-M   'P 1'
_cell_length_a   4.31889938
_cell_length_b   5.69856880
_cell_length_c   14.33182018
_cell_angle_alpha   90.00000000
_cell_angle_beta   90.00000000
_cell_angle_gamma   112.26840897
_symmetry_Int_Tables_number   1
_chemical_formula_structural   Tb3Ge3Ir2
_chemical_formula_sum   'Tb6 Ge6 Ir4'
_cell_volume   326.42134484
_cell_formula_units_Z   2
loop_
 _symmetry_equiv_pos_site_id
 _symmetry_equiv_pos_as_xyz
  1  'x, y, z'
loop_
 _atom_site_type_symbol
 _atom_site_label
 _atom_site_symmetry_multiplicity
 _atom_site_fract_x
 _atom_site_fract_y
 _atom_site_fract_z
 _atom_site_occupancy
  Tb  Tb0  1  0.08333168  0.16666336  0.38925443  1
  Tb  Tb1  1  0.91666832  0.83333664  0.61074557  1
  Tb  Tb2  1  0.08333168  0.16666336  0.11074557  1
  Tb  Tb3  1  0.91666832  0.83333664  0.88925443  1
  Tb  Tb4  1  0.35985697  0.71971394  0.25000000  1
  Tb  Tb5  1  0.64014303  0.28028606  0.75000000  1
  Ge  Ge6  1  0.37671033  0.75342067  0.46490425  1
  Ge  Ge7  1  0.62328967  0.24657933  0.53509575  1
  Ge  Ge8  1  0.37671033  0.75342067  0.03509575  1
  Ge  Ge9  1  0.62328967  0.24657933  0.96490425  1
  Ge  Ge10  1  0.65774578  0.31549156  0.25000000  1
  Ge  Ge11  1  0.34225422  0.68450844  0.75000000  1
  Ir  Ir12  1  0.20081949  0.40163898  0.89844982  1
  Ir  Ir13  1  0.79918051  0.59836102  0.10155018  1
  Ir  Ir14  1  0.20081949  0.40163898  0.60155018  1
  Ir  Ir15  1  0.79918051  0.59836102  0.39844982  1
