# generated using pymatgen
data_Eu2MgIrO6
_symmetry_space_group_name_H-M   'P 1'
_cell_length_a   5.46935807
_cell_length_b   5.70049990
_cell_length_c   7.81733684
_cell_angle_alpha   90.00000000
_cell_angle_beta   90.00805636
_cell_angle_gamma   90.00000000
_symmetry_Int_Tables_number   1
_chemical_formula_structural   Eu2MgIrO6
_chemical_formula_sum   'Eu4 Mg2 Ir2 O12'
_cell_volume   243.72951277
_cell_formula_units_Z   2
loop_
 _symmetry_equiv_pos_site_id
 _symmetry_equiv_pos_as_xyz
  1  'x, y, z'
loop_
 _atom_site_type_symbol
 _atom_site_label
 _atom_site_symmetry_multiplicity
 _atom_site_fract_x
 _atom_site_fract_y
 _atom_site_fract_z
 _atom_site_occupancy
  Eu  Eu0  1  0.01487148  0.55950609  0.24831019  1
  Eu  Eu1  1  0.51487148  0.94049391  0.74831019  1
  Eu  Eu2  1  0.98512852  0.44049391  0.75168981  1
  Eu  Eu3  1  0.48512852  0.05950609  0.25168981  1
  Mg  Mg4  1  0.50000000  0.50000000  0.50000000  1
  Mg  Mg5  1  -0.00000000  0.00000000  0.00000000  1
  Ir  Ir6  1  -0.00000000  0.00000000  0.50000000  1
  Ir  Ir7  1  0.50000000  0.50000000  0.00000000  1
  O  O8  1  0.29439275  0.80199886  0.45469406  1
  O  O9  1  0.79439275  0.69800114  0.95469406  1
  O  O10  1  0.70560725  0.19800114  0.54530594  1
  O  O11  1  0.20560725  0.30199886  0.04530594  1
  O  O12  1  0.90920188  0.97302172  0.25423848  1
  O  O13  1  0.40920188  0.52697828  0.75423848  1
  O  O14  1  0.09079812  0.02697828  0.74576152  1
  O  O15  1  0.59079812  0.47302172  0.24576152  1
  O  O16  1  0.19365121  0.28924814  0.45027883  1
  O  O17  1  0.69365121  0.21075186  0.95027883  1
  O  O18  1  0.80634879  0.71075186  0.54972117  1
  O  O19  1  0.30634879  0.78924814  0.04972117  1
