# generated using pymatgen
data_Ba2P7I
_symmetry_space_group_name_H-M   'P 1'
_cell_length_a   6.46041201
_cell_length_b   7.03890390
_cell_length_c   12.24942603
_cell_angle_alpha   90.00000000
_cell_angle_beta   95.88766022
_cell_angle_gamma   90.00000000
_symmetry_Int_Tables_number   1
_chemical_formula_structural   Ba2P7I
_chemical_formula_sum   'Ba4 P14 I2'
_cell_volume   554.09469793
_cell_formula_units_Z   2
loop_
 _symmetry_equiv_pos_site_id
 _symmetry_equiv_pos_as_xyz
  1  'x, y, z'
loop_
 _atom_site_type_symbol
 _atom_site_label
 _atom_site_symmetry_multiplicity
 _atom_site_fract_x
 _atom_site_fract_y
 _atom_site_fract_z
 _atom_site_occupancy
  Ba  Ba0  1  0.69719929  0.25000000  0.04967220  1
  Ba  Ba1  1  0.30280071  0.75000000  0.95032780  1
  Ba  Ba2  1  0.92475757  0.25000000  0.63885165  1
  Ba  Ba3  1  0.07524243  0.75000000  0.36114835  1
  P  P4  1  0.49909411  0.25000000  0.44658846  1
  P  P5  1  0.50090589  0.75000000  0.55341154  1
  P  P6  1  0.16520808  0.25000000  0.22496452  1
  P  P7  1  0.83479192  0.75000000  0.77503548  1
  P  P8  1  0.16524420  0.25000000  0.40446693  1
  P  P9  1  0.83475580  0.75000000  0.59553307  1
  P  P10  1  0.36778237  0.49270421  0.20038176  1
  P  P11  1  0.63221763  0.99270421  0.79961824  1
  P  P12  1  0.63221763  0.50729579  0.79961824  1
  P  P13  1  0.36778237  0.00729579  0.20038176  1
  P  P14  1  0.63320940  0.41718879  0.31431039  1
  P  P15  1  0.36679060  0.91718879  0.68568961  1
  P  P16  1  0.36679060  0.58281121  0.68568961  1
  P  P17  1  0.63320940  0.08281121  0.31431039  1
  I  I18  1  0.15657913  0.25000000  0.91307744  1
  I  I19  1  0.84342087  0.75000000  0.08692256  1
