# generated using pymatgen
data_LiInS2
_symmetry_space_group_name_H-M   'P 1'
_cell_length_a   6.55523544
_cell_length_b   7.01609329
_cell_length_c   8.15549940
_cell_angle_alpha   90.00000000
_cell_angle_beta   90.00000000
_cell_angle_gamma   90.00000000
_symmetry_Int_Tables_number   1
_chemical_formula_structural   LiInS2
_chemical_formula_sum   'Li4 In4 S8'
_cell_volume   375.08889778
_cell_formula_units_Z   4
loop_
 _symmetry_equiv_pos_site_id
 _symmetry_equiv_pos_as_xyz
  1  'x, y, z'
loop_
 _atom_site_type_symbol
 _atom_site_label
 _atom_site_symmetry_multiplicity
 _atom_site_fract_x
 _atom_site_fract_y
 _atom_site_fract_z
 _atom_site_occupancy
  Li  Li0  1  0.57083472  0.58896555  0.11647050  1
  Li  Li1  1  0.07083472  0.41103445  0.88352950  1
  Li  Li2  1  0.07083472  0.91103445  0.61647050  1
  Li  Li3  1  0.57083472  0.08896555  0.38352950  1
  In  In4  1  0.06274809  0.91873761  0.12431344  1
  In  In5  1  0.56274809  0.08126239  0.87568656  1
  In  In6  1  0.56274809  0.58126239  0.62431344  1
  In  In7  1  0.06274809  0.41873761  0.37568656  1
  S  S8  1  0.19238096  0.08467479  0.37456230  1
  S  S9  1  0.69238096  0.91532521  0.62543770  1
  S  S10  1  0.69238096  0.41532521  0.87456230  1
  S  S11  1  0.19238096  0.58467479  0.12543770  1
  S  S12  1  0.68123623  0.92162102  0.13138389  1
  S  S13  1  0.18123623  0.07837898  0.86861611  1
  S  S14  1  0.18123623  0.57837898  0.63138389  1
  S  S15  1  0.68123623  0.42162102  0.36861611  1
