# generated using pymatgen
data_Ho7PtI12
_symmetry_space_group_name_H-M   'P 1'
_cell_length_a   9.74474507
_cell_length_b   9.74474507
_cell_length_c   9.74474473
_cell_angle_alpha   107.23924372
_cell_angle_beta   107.23924367
_cell_angle_gamma   107.23924731
_symmetry_Int_Tables_number   1
_chemical_formula_structural   Ho7PtI12
_chemical_formula_sum   'Ho7 Pt1 I12'
_cell_volume   765.56472210
_cell_formula_units_Z   1
loop_
 _symmetry_equiv_pos_site_id
 _symmetry_equiv_pos_as_xyz
  1  'x, y, z'
loop_
 _atom_site_type_symbol
 _atom_site_label
 _atom_site_symmetry_multiplicity
 _atom_site_fract_x
 _atom_site_fract_y
 _atom_site_fract_z
 _atom_site_occupancy
  Ho  Ho0  1  0.47102290  0.40062012  0.19732127  1
  Ho  Ho1  1  0.40062012  0.19732127  0.47102290  1
  Ho  Ho2  1  0.19732127  0.47102290  0.40062012  1
  Ho  Ho3  1  0.52897710  0.59937988  0.80267873  1
  Ho  Ho4  1  0.59937988  0.80267873  0.52897710  1
  Ho  Ho5  1  0.80267873  0.52897710  0.59937988  1
  Ho  Ho6  1  -0.00000000  -0.00000000  -0.00000000  1
  Pt  Pt7  1  0.50000000  0.50000000  0.50000000  1
  I  I8  1  0.34276108  0.03385599  0.11197154  1
  I  I9  1  0.03385599  0.11197154  0.34276108  1
  I  I10  1  0.11197154  0.34276108  0.03385599  1
  I  I11  1  0.65723892  0.96614401  0.88802846  1
  I  I12  1  0.96614401  0.88802846  0.65723892  1
  I  I13  1  0.88802846  0.65723892  0.96614401  1
  I  I14  1  0.57483704  0.72588478  0.17723263  1
  I  I15  1  0.72588478  0.17723263  0.57483704  1
  I  I16  1  0.17723263  0.57483704  0.72588478  1
  I  I17  1  0.42516296  0.27411522  0.82276737  1
  I  I18  1  0.27411522  0.82276737  0.42516296  1
  I  I19  1  0.82276737  0.42516296  0.27411522  1
