# generated using pymatgen
data_Ce3Os
_symmetry_space_group_name_H-M   'P 1'
_cell_length_a   6.17377181
_cell_length_b   7.07360510
_cell_length_c   9.68940050
_cell_angle_alpha   90.00000000
_cell_angle_beta   90.00000000
_cell_angle_gamma   90.00000000
_symmetry_Int_Tables_number   1
_chemical_formula_structural   Ce3Os
_chemical_formula_sum   'Ce12 Os4'
_cell_volume   423.14410159
_cell_formula_units_Z   4
loop_
 _symmetry_equiv_pos_site_id
 _symmetry_equiv_pos_as_xyz
  1  'x, y, z'
loop_
 _atom_site_type_symbol
 _atom_site_label
 _atom_site_symmetry_multiplicity
 _atom_site_fract_x
 _atom_site_fract_y
 _atom_site_fract_z
 _atom_site_occupancy
  Ce  Ce0  1  0.34586064  0.66872341  0.05931951  1
  Ce  Ce1  1  0.15413936  0.16872341  0.44068049  1
  Ce  Ce2  1  0.65413936  0.33127659  0.55931951  1
  Ce  Ce3  1  0.84586064  0.83127659  0.94068049  1
  Ce  Ce4  1  0.65413936  0.33127659  0.94068049  1
  Ce  Ce5  1  0.84586064  0.83127659  0.55931951  1
  Ce  Ce6  1  0.34586064  0.66872341  0.44068049  1
  Ce  Ce7  1  0.15413936  0.16872341  0.05931951  1
  Ce  Ce8  1  0.85433390  0.53696957  0.25000000  1
  Ce  Ce9  1  0.64566610  0.03696957  0.25000000  1
  Ce  Ce10  1  0.14566610  0.46303043  0.75000000  1
  Ce  Ce11  1  0.35433390  0.96303043  0.75000000  1
  Os  Os12  1  0.07481794  0.87291465  0.25000000  1
  Os  Os13  1  0.42518206  0.37291465  0.25000000  1
  Os  Os14  1  0.92518206  0.12708535  0.75000000  1
  Os  Os15  1  0.57481794  0.62708535  0.75000000  1
