# generated using pymatgen
data_Na5GaGe2
_symmetry_space_group_name_H-M   'P 1'
_cell_length_a   5.65296242
_cell_length_b   8.33674582
_cell_length_c   9.29834236
_cell_angle_alpha   90.00000000
_cell_angle_beta   90.00000000
_cell_angle_gamma   97.51572192
_symmetry_Int_Tables_number   1
_chemical_formula_structural   Na5GaGe2
_chemical_formula_sum   'Na10 Ga2 Ge4'
_cell_volume   434.44124783
_cell_formula_units_Z   2
loop_
 _symmetry_equiv_pos_site_id
 _symmetry_equiv_pos_as_xyz
  1  'x, y, z'
loop_
 _atom_site_type_symbol
 _atom_site_label
 _atom_site_symmetry_multiplicity
 _atom_site_fract_x
 _atom_site_fract_y
 _atom_site_fract_z
 _atom_site_occupancy
  Na  Na0  1  0.59459302  0.68917672  0.07607772  1
  Na  Na1  1  0.40540698  0.31082328  0.57607772  1
  Na  Na2  1  0.40540698  0.31082328  0.92392228  1
  Na  Na3  1  0.59459302  0.68917672  0.42392228  1
  Na  Na4  1  0.17971259  0.88412949  0.57245125  1
  Na  Na5  1  0.82028741  0.11587051  0.07245125  1
  Na  Na6  1  0.82028741  0.11587051  0.42754875  1
  Na  Na7  1  0.17971259  0.88412949  0.92754875  1
  Na  Na8  1  0.93316323  0.51782872  0.75000000  1
  Na  Na9  1  0.06683677  0.48217128  0.25000000  1
  Ga  Ga10  1  0.69028281  0.90645341  0.75000000  1
  Ga  Ga11  1  0.30971719  0.09354659  0.25000000  1
  Ge  Ge12  1  0.46180123  0.64513248  0.75000000  1
  Ge  Ge13  1  0.53819877  0.35486752  0.25000000  1
  Ge  Ge14  1  0.93166911  0.16147483  0.75000000  1
  Ge  Ge15  1  0.06833089  0.83852517  0.25000000  1
