# generated using pymatgen
data_MgH4(ClO5)2
_symmetry_space_group_name_H-M   'P 1'
_cell_length_a   5.29842438
_cell_length_b   5.53061856
_cell_length_c   7.79768191
_cell_angle_alpha   107.16972065
_cell_angle_beta   109.86125097
_cell_angle_gamma   90.00000000
_symmetry_Int_Tables_number   1
_chemical_formula_structural   MgH4(ClO5)2
_chemical_formula_sum   'Mg1 H4 Cl2 O10'
_cell_volume   204.04787904
_cell_formula_units_Z   1
loop_
 _symmetry_equiv_pos_site_id
 _symmetry_equiv_pos_as_xyz
  1  'x, y, z'
loop_
 _atom_site_type_symbol
 _atom_site_label
 _atom_site_symmetry_multiplicity
 _atom_site_fract_x
 _atom_site_fract_y
 _atom_site_fract_z
 _atom_site_occupancy
  Mg  Mg0  1  0.00000000  0.50000000  0.00000000  1
  H  H1  1  0.98573687  0.57834261  0.67462457  1
  H  H2  1  0.68888769  0.57834261  0.67462457  1
  H  H3  1  0.01426313  0.42165739  0.32537543  1
  H  H4  1  0.31111231  0.42165739  0.32537543  1
  Cl  Cl5  1  0.37900026  0.17093289  0.75800052  1
  Cl  Cl6  1  0.62099974  0.82906711  0.24199948  1
  O  O7  1  0.12144297  0.39226254  0.24288595  1
  O  O8  1  0.87855703  0.60773746  0.75711405  1
  O  O9  1  0.67853401  0.09255587  0.35706802  1
  O  O10  1  0.32146599  0.90744413  0.64293198  1
  O  O11  1  0.21794444  0.22190965  0.88271139  1
  O  O12  1  0.66476696  0.22190965  0.88271139  1
  O  O13  1  0.78205556  0.77809035  0.11728861  1
  O  O14  1  0.33523304  0.77809035  0.11728861  1
  O  O15  1  0.68057915  0.66092045  0.36115829  1
  O  O16  1  0.31942085  0.33907955  0.63884171  1
