# generated using pymatgen
data_Ce2Co3Si5
_symmetry_space_group_name_H-M   'P 1'
_cell_length_a   5.62900198
_cell_length_b   7.94072164
_cell_length_c   7.94072164
_cell_angle_alpha   74.86741274
_cell_angle_beta   69.24094110
_cell_angle_gamma   69.24094110
_symmetry_Int_Tables_number   1
_chemical_formula_structural   Ce2Co3Si5
_chemical_formula_sum   'Ce4 Co6 Si10'
_cell_volume   306.60232690
_cell_formula_units_Z   2
loop_
 _symmetry_equiv_pos_site_id
 _symmetry_equiv_pos_as_xyz
  1  'x, y, z'
loop_
 _atom_site_type_symbol
 _atom_site_label
 _atom_site_symmetry_multiplicity
 _atom_site_fract_x
 _atom_site_fract_y
 _atom_site_fract_z
 _atom_site_occupancy
  Ce  Ce0  1  0.36817974  0.39672823  0.86691229  1
  Ce  Ce1  1  0.63182026  0.60327177  0.13308771  1
  Ce  Ce2  1  0.86817974  0.86691229  0.39672823  1
  Ce  Ce3  1  0.13182026  0.13308771  0.60327177  1
  Co  Co4  1  0.25000000  0.00000000  -0.00000000  1
  Co  Co5  1  0.75000000  0.00000000  -0.00000000  1
  Co  Co6  1  0.13650491  0.47981535  0.24717484  1
  Co  Co7  1  0.86349509  0.52018465  0.75282516  1
  Co  Co8  1  0.63650491  0.24717484  0.47981535  1
  Co  Co9  1  0.36349509  0.75282516  0.52018465  1
  Si  Si10  1  0.25000000  0.50000000  0.50000000  1
  Si  Si11  1  0.75000000  0.50000000  0.50000000  1
  Si  Si12  1  0.01569949  0.23430051  0.23430051  1
  Si  Si13  1  0.48430051  0.76569949  0.76569949  1
  Si  Si14  1  0.98430051  0.76569949  0.76569949  1
  Si  Si15  1  0.51569949  0.23430051  0.23430051  1
  Si  Si16  1  0.10447884  0.74654081  0.04450152  1
  Si  Si17  1  0.89552116  0.25345919  0.95549848  1
  Si  Si18  1  0.60447884  0.04450152  0.74654081  1
  Si  Si19  1  0.39552116  0.95549848  0.25345919  1
