# generated using pymatgen
data_Sc2Co3Si5
_symmetry_space_group_name_H-M   'P 1'
_cell_length_a   5.34718158
_cell_length_b   7.67490808
_cell_length_c   7.67490808
_cell_angle_alpha   93.94394373
_cell_angle_beta   108.70331704
_cell_angle_gamma   108.70331704
_symmetry_Int_Tables_number   1
_chemical_formula_structural   Sc2Co3Si5
_chemical_formula_sum   'Sc4 Co6 Si10'
_cell_volume   277.36608886
_cell_formula_units_Z   2
loop_
 _symmetry_equiv_pos_site_id
 _symmetry_equiv_pos_as_xyz
  1  'x, y, z'
loop_
 _atom_site_type_symbol
 _atom_site_label
 _atom_site_symmetry_multiplicity
 _atom_site_fract_x
 _atom_site_fract_y
 _atom_site_fract_z
 _atom_site_occupancy
  Sc  Sc0  1  0.23521188  0.87119697  0.59378599  1
  Sc  Sc1  1  0.26478812  0.40621401  0.12880303  1
  Sc  Sc2  1  0.76478812  0.12880303  0.40621401  1
  Sc  Sc3  1  0.73521188  0.59378599  0.87119697  1
  Co  Co4  1  0.37336209  0.26272579  0.54253381  1
  Co  Co5  1  0.12663791  0.45746619  0.73727421  1
  Co  Co6  1  0.62663791  0.73727421  0.45746619  1
  Co  Co7  1  0.87336209  0.54253381  0.26272579  1
  Co  Co8  1  0.25000000  0.00293988  0.99706012  1
  Co  Co9  1  0.75000000  0.99706012  0.00293988  1
  Si  Si10  1  0.16992744  0.07224953  0.26547687  1
  Si  Si11  1  0.33007256  0.73452313  0.92775047  1
  Si  Si12  1  0.83007256  0.92775047  0.73452313  1
  Si  Si13  1  0.66992744  0.26547687  0.07224953  1
  Si  Si14  1  0.25000000  0.21056397  0.78943603  1
  Si  Si15  1  0.75000000  0.78943603  0.21056397  1
  Si  Si16  1  0.25000000  0.51326289  0.48673711  1
  Si  Si17  1  0.75000000  0.48673711  0.51326289  1
  Si  Si18  1  0.25000000  0.77276417  0.22723583  1
  Si  Si19  1  0.75000000  0.22723583  0.77276417  1
