# generated using pymatgen
data_NdGaPd2
_symmetry_space_group_name_H-M   'P 1'
_cell_length_a   5.78279633
_cell_length_b   7.15049478
_cell_length_c   7.58460261
_cell_angle_alpha   90.00000000
_cell_angle_beta   90.00000000
_cell_angle_gamma   90.00000000
_symmetry_Int_Tables_number   1
_chemical_formula_structural   NdGaPd2
_chemical_formula_sum   'Nd4 Ga4 Pd8'
_cell_volume   313.62221794
_cell_formula_units_Z   4
loop_
 _symmetry_equiv_pos_site_id
 _symmetry_equiv_pos_as_xyz
  1  'x, y, z'
loop_
 _atom_site_type_symbol
 _atom_site_label
 _atom_site_symmetry_multiplicity
 _atom_site_fract_x
 _atom_site_fract_y
 _atom_site_fract_z
 _atom_site_occupancy
  Nd  Nd0  1  0.15027570  0.75000000  0.46693158  1
  Nd  Nd1  1  0.34972430  0.75000000  0.96693158  1
  Nd  Nd2  1  0.84972430  0.25000000  0.53306842  1
  Nd  Nd3  1  0.65027570  0.25000000  0.03306842  1
  Ga  Ga4  1  0.84846611  0.75000000  0.12034256  1
  Ga  Ga5  1  0.65153389  0.75000000  0.62034256  1
  Ga  Ga6  1  0.15153389  0.25000000  0.87965744  1
  Ga  Ga7  1  0.34846611  0.25000000  0.37965744  1
  Pd  Pd8  1  0.58787986  0.94705024  0.32290561  1
  Pd  Pd9  1  0.91212014  0.55294976  0.82290561  1
  Pd  Pd10  1  0.41212014  0.44705024  0.67709439  1
  Pd  Pd11  1  0.08787986  0.05294976  0.17709439  1
  Pd  Pd12  1  0.41212014  0.05294976  0.67709439  1
  Pd  Pd13  1  0.08787986  0.44705024  0.17709439  1
  Pd  Pd14  1  0.58787986  0.55294976  0.32290561  1
  Pd  Pd15  1  0.91212014  0.94705024  0.82290561  1
