# generated using pymatgen
data_Ba3Ge5
_symmetry_space_group_name_H-M   'P 1'
_cell_length_a   6.77279561
_cell_length_b   6.77279561
_cell_length_c   10.47586734
_cell_angle_alpha   90.00000000
_cell_angle_beta   90.00000000
_cell_angle_gamma   100.33647739
_symmetry_Int_Tables_number   1
_chemical_formula_structural   Ba3Ge5
_chemical_formula_sum   'Ba6 Ge10'
_cell_volume   472.73738345
_cell_formula_units_Z   2
loop_
 _symmetry_equiv_pos_site_id
 _symmetry_equiv_pos_as_xyz
  1  'x, y, z'
loop_
 _atom_site_type_symbol
 _atom_site_label
 _atom_site_symmetry_multiplicity
 _atom_site_fract_x
 _atom_site_fract_y
 _atom_site_fract_z
 _atom_site_occupancy
  Ba  Ba0  1  0.65238614  0.65238614  0.25000000  1
  Ba  Ba1  1  0.34761386  0.34761386  0.75000000  1
  Ba  Ba2  1  0.78989436  0.21010564  0.50000000  1
  Ba  Ba3  1  0.78989436  0.21010564  0.00000000  1
  Ba  Ba4  1  0.21010564  0.78989436  0.50000000  1
  Ba  Ba5  1  0.21010564  0.78989436  0.00000000  1
  Ge  Ge6  1  0.10443574  0.46298601  0.25000000  1
  Ge  Ge7  1  0.53701399  0.89556426  0.75000000  1
  Ge  Ge8  1  0.89556426  0.53701399  0.75000000  1
  Ge  Ge9  1  0.46298601  0.10443574  0.25000000  1
  Ge  Ge10  1  0.06767410  0.06767410  0.25000000  1
  Ge  Ge11  1  0.93232590  0.93232590  0.75000000  1
  Ge  Ge12  1  0.29793136  0.29793136  0.42893855  1
  Ge  Ge13  1  0.70206864  0.70206864  0.57106145  1
  Ge  Ge14  1  0.29793136  0.29793136  0.07106145  1
  Ge  Ge15  1  0.70206864  0.70206864  0.92893855  1
