# generated using pymatgen
data_Sc3P
_symmetry_space_group_name_H-M   'P 1'
_cell_length_a   5.76664483
_cell_length_b   6.79824141
_cell_length_c   8.40918420
_cell_angle_alpha   90.00000000
_cell_angle_beta   90.00000000
_cell_angle_gamma   90.00000000
_symmetry_Int_Tables_number   1
_chemical_formula_structural   Sc3P
_chemical_formula_sum   'Sc12 P4'
_cell_volume   329.66561551
_cell_formula_units_Z   4
loop_
 _symmetry_equiv_pos_site_id
 _symmetry_equiv_pos_as_xyz
  1  'x, y, z'
loop_
 _atom_site_type_symbol
 _atom_site_label
 _atom_site_symmetry_multiplicity
 _atom_site_fract_x
 _atom_site_fract_y
 _atom_site_fract_z
 _atom_site_occupancy
  Sc  Sc0  1  0.35504589  0.67909907  0.05057098  1
  Sc  Sc1  1  0.14495411  0.17909907  0.44942902  1
  Sc  Sc2  1  0.64495411  0.32090093  0.55057098  1
  Sc  Sc3  1  0.85504589  0.82090093  0.94942902  1
  Sc  Sc4  1  0.64495411  0.32090093  0.94942902  1
  Sc  Sc5  1  0.85504589  0.82090093  0.55057098  1
  Sc  Sc6  1  0.35504589  0.67909907  0.44942902  1
  Sc  Sc7  1  0.14495411  0.17909907  0.05057098  1
  Sc  Sc8  1  0.85997259  0.52693870  0.25000000  1
  Sc  Sc9  1  0.64002741  0.02693870  0.25000000  1
  Sc  Sc10  1  0.14002741  0.47306130  0.75000000  1
  Sc  Sc11  1  0.35997259  0.97306130  0.75000000  1
  P  P12  1  0.07263651  0.87564956  0.25000000  1
  P  P13  1  0.42736349  0.37564956  0.25000000  1
  P  P14  1  0.92736349  0.12435044  0.75000000  1
  P  P15  1  0.57263651  0.62435044  0.75000000  1
