# generated using pymatgen
data_Zr5Sb3S
_symmetry_space_group_name_H-M   'P 1'
_cell_length_a   6.14018679
_cell_length_b   8.47824302
_cell_length_c   8.47836099
_cell_angle_alpha   119.99953303
_cell_angle_beta   90.00000000
_cell_angle_gamma   90.00000000
_symmetry_Int_Tables_number   1
_chemical_formula_structural   Zr5Sb3S
_chemical_formula_sum   'Zr10 Sb6 S2'
_cell_volume   382.23638358
_cell_formula_units_Z   2
loop_
 _symmetry_equiv_pos_site_id
 _symmetry_equiv_pos_as_xyz
  1  'x, y, z'
loop_
 _atom_site_type_symbol
 _atom_site_label
 _atom_site_symmetry_multiplicity
 _atom_site_fract_x
 _atom_site_fract_y
 _atom_site_fract_z
 _atom_site_occupancy
  Zr  Zr0  1  0.50000088  0.33330112  0.66666684  1
  Zr  Zr1  1  0.50000088  0.66663427  0.33333316  1
  Zr  Zr2  1  0.00000088  0.66669888  0.33333316  1
  Zr  Zr3  1  0.00000088  0.33336573  0.66666684  1
  Zr  Zr4  1  0.74996415  0.24885048  0.00000000  1
  Zr  Zr5  1  0.75001811  0.75115289  0.75115105  1
  Zr  Zr6  1  0.75001811  0.00000184  0.24884895  1
  Zr  Zr7  1  0.24996415  0.75114952  1.00000000  1
  Zr  Zr8  1  0.25001811  0.24884711  0.24884895  1
  Zr  Zr9  1  0.25001811  -0.00000184  0.75115105  1
  Sb  Sb10  1  0.75000517  0.60060257  1.00000000  1
  Sb  Sb11  1  0.74999736  0.39940336  0.39940926  1
  Sb  Sb12  1  0.74999736  0.99999410  0.60059074  1
  Sb  Sb13  1  0.25000517  0.39939743  0.00000000  1
  Sb  Sb14  1  0.24999736  0.60059664  0.60059074  1
  Sb  Sb15  1  0.24999736  0.00000590  0.39940926  1
  S  S16  1  0.49999797  0.00005606  0.00000000  1
  S  S17  1  0.99999797  0.99994394  1.00000000  1
