# generated using pymatgen
data_Ho5In3
_symmetry_space_group_name_H-M   'P 1'
_cell_length_a   6.12519822
_cell_length_b   9.11267706
_cell_length_c   9.11267706
_cell_angle_alpha   83.51457010
_cell_angle_beta   70.36170364
_cell_angle_gamma   70.36170364
_symmetry_Int_Tables_number   1
_chemical_formula_structural   Ho5In3
_chemical_formula_sum   'Ho10 In6'
_cell_volume   451.19049174
_cell_formula_units_Z   2
loop_
 _symmetry_equiv_pos_site_id
 _symmetry_equiv_pos_as_xyz
  1  'x, y, z'
loop_
 _atom_site_type_symbol
 _atom_site_label
 _atom_site_symmetry_multiplicity
 _atom_site_fract_x
 _atom_site_fract_y
 _atom_site_fract_z
 _atom_site_occupancy
  Ho  Ho0  1  0.71868960  0.86218348  0.70043731  1
  Ho  Ho1  1  0.28131040  0.13781652  0.29956269  1
  Ho  Ho2  1  0.78131040  0.29956269  0.13781652  1
  Ho  Ho3  1  0.21868960  0.70043731  0.86218348  1
  Ho  Ho4  1  0.58087309  0.70043731  0.13781652  1
  Ho  Ho5  1  0.41912691  0.29956269  0.86218348  1
  Ho  Ho6  1  0.08087309  0.13781652  0.70043731  1
  Ho  Ho7  1  0.91912691  0.86218348  0.29956269  1
  Ho  Ho8  1  0.75000000  0.50000000  0.50000000  1
  Ho  Ho9  1  0.25000000  0.50000000  0.50000000  1
  In  In10  1  0.16256620  0.50000000  0.17486760  1
  In  In11  1  0.83743380  0.50000000  0.82513240  1
  In  In12  1  0.33743380  0.82513240  0.50000000  1
  In  In13  1  0.66256620  0.17486760  0.50000000  1
  In  In14  1  0.25000000  -0.00000000  -0.00000000  1
  In  In15  1  0.75000000  -0.00000000  -0.00000000  1
