# generated using pymatgen
data_Pr4Mg7Ge6
_symmetry_space_group_name_H-M   'P 1'
_cell_length_a   4.45390797
_cell_length_b   8.67063251
_cell_length_c   10.99652357
_cell_angle_alpha   78.83222673
_cell_angle_beta   78.31596914
_cell_angle_gamma   75.11743589
_symmetry_Int_Tables_number   1
_chemical_formula_structural   Pr4Mg7Ge6
_chemical_formula_sum   'Pr4 Mg7 Ge6'
_cell_volume   397.38774126
_cell_formula_units_Z   1
loop_
 _symmetry_equiv_pos_site_id
 _symmetry_equiv_pos_as_xyz
  1  'x, y, z'
loop_
 _atom_site_type_symbol
 _atom_site_label
 _atom_site_symmetry_multiplicity
 _atom_site_fract_x
 _atom_site_fract_y
 _atom_site_fract_z
 _atom_site_occupancy
  Pr  Pr0  1  0.26637272  0.85405995  0.61319460  1
  Pr  Pr1  1  0.73362728  0.14594005  0.38680540  1
  Pr  Pr2  1  0.37029355  0.41979775  0.83961515  1
  Pr  Pr3  1  0.62970645  0.58020225  0.16038485  1
  Mg  Mg4  1  0.03954027  0.05947197  0.86144749  1
  Mg  Mg5  1  0.96045973  0.94052803  0.13855251  1
  Mg  Mg6  1  0.06188417  0.27228044  0.60395122  1
  Mg  Mg7  1  0.93811583  0.72771956  0.39604878  1
  Mg  Mg8  1  0.68958192  0.77466397  0.84617219  1
  Mg  Mg9  1  0.31041808  0.22533603  0.15382781  1
  Mg  Mg10  1  0.50000000  0.50000000  0.50000000  1
  Ge  Ge11  1  0.12009609  0.41107773  0.34873008  1
  Ge  Ge12  1  0.87990391  0.58892227  0.65126992  1
  Ge  Ge13  1  0.14946054  0.72562948  0.97544943  1
  Ge  Ge14  1  0.85053946  0.27437052  0.02455057  1
  Ge  Ge15  1  0.60857960  0.09405563  0.68878517  1
  Ge  Ge16  1  0.39142040  0.90594437  0.31121483  1
