# generated using pymatgen
data_Ba2InSbSe5
_symmetry_space_group_name_H-M   'P 1'
_cell_length_a   4.34900528
_cell_length_b   9.93179367
_cell_length_c   13.38214382
_cell_angle_alpha   90.00000000
_cell_angle_beta   90.00000000
_cell_angle_gamma   102.64699603
_symmetry_Int_Tables_number   1
_chemical_formula_structural   Ba2InSbSe5
_chemical_formula_sum   'Ba4 In2 Sb2 Se10'
_cell_volume   563.99637789
_cell_formula_units_Z   2
loop_
 _symmetry_equiv_pos_site_id
 _symmetry_equiv_pos_as_xyz
  1  'x, y, z'
loop_
 _atom_site_type_symbol
 _atom_site_label
 _atom_site_symmetry_multiplicity
 _atom_site_fract_x
 _atom_site_fract_y
 _atom_site_fract_z
 _atom_site_occupancy
  Ba  Ba0  1  0.11395898  0.22791795  0.81307934  1
  Ba  Ba1  1  0.88604102  0.77208205  0.31307934  1
  Ba  Ba2  1  0.12814237  0.25628473  0.19176812  1
  Ba  Ba3  1  0.87185763  0.74371527  0.69176812  1
  In  In4  1  0.43836143  0.87672287  0.05235993  1
  In  In5  1  0.56163857  0.12327713  0.55235993  1
  Sb  Sb6  1  0.21870271  0.43740542  0.47752652  1
  Sb  Sb7  1  0.78129729  0.56259458  0.97752652  1
  Se  Se8  1  0.04572774  0.09145548  0.44096257  1
  Se  Se9  1  0.95427226  0.90854452  0.94096257  1
  Se  Se10  1  0.28250216  0.56500433  0.83669044  1
  Se  Se11  1  0.71749784  0.43499567  0.33669044  1
  Se  Se12  1  0.31003732  0.62007464  0.13008537  1
  Se  Se13  1  0.68996268  0.37992536  0.63008537  1
  Se  Se14  1  0.35495060  0.70990119  0.49965668  1
  Se  Se15  1  0.64504940  0.29009881  -0.00034332  1
  Se  Se16  1  0.50201016  0.00402033  0.22303102  1
  Se  Se17  1  0.49798984  0.99597967  0.72303102  1
