# generated using pymatgen
data_Dy3GaS6
_symmetry_space_group_name_H-M   'P 1'
_cell_length_a   6.47933786
_cell_length_b   8.53510853
_cell_length_c   8.53510853
_cell_angle_alpha   102.44832522
_cell_angle_beta   90.00000000
_cell_angle_gamma   90.00000000
_symmetry_Int_Tables_number   1
_chemical_formula_structural   Dy3GaS6
_chemical_formula_sum   'Dy6 Ga2 S12'
_cell_volume   460.91080071
_cell_formula_units_Z   2
loop_
 _symmetry_equiv_pos_site_id
 _symmetry_equiv_pos_as_xyz
  1  'x, y, z'
loop_
 _atom_site_type_symbol
 _atom_site_label
 _atom_site_symmetry_multiplicity
 _atom_site_fract_x
 _atom_site_fract_y
 _atom_site_fract_z
 _atom_site_occupancy
  Dy  Dy0  1  0.27544069  0.91464978  0.71581063  1
  Dy  Dy1  1  0.27544069  0.28418937  0.08535022  1
  Dy  Dy2  1  0.77544069  0.08535022  0.28418937  1
  Dy  Dy3  1  0.77544069  0.71581063  0.91464978  1
  Dy  Dy4  1  0.35902885  0.40074072  0.59925928  1
  Dy  Dy5  1  0.85902885  0.59925928  0.40074072  1
  Ga  Ga6  1  0.73812356  0.20103711  0.79896289  1
  Ga  Ga7  1  0.23812356  0.79896289  0.20103711  1
  S  S8  1  0.05869849  0.90013646  0.43253795  1
  S  S9  1  0.05869849  0.56746205  0.09986354  1
  S  S10  1  0.55869849  0.09986354  0.56746205  1
  S  S11  1  0.55869849  0.43253795  0.90013646  1
  S  S12  1  0.06725774  0.31044001  0.36550031  1
  S  S13  1  0.06725774  0.63449969  0.68955999  1
  S  S14  1  0.56725774  0.68955999  0.63449969  1
  S  S15  1  0.56725774  0.36550031  0.31044001  1
  S  S16  1  0.08919555  0.21816802  0.78183198  1
  S  S17  1  0.58919555  0.78183198  0.21816802  1
  S  S18  1  0.09585820  0.96035505  0.03964495  1
  S  S19  1  0.59585820  0.03964495  0.96035505  1
