# generated using pymatgen
data_CsCoO2
_symmetry_space_group_name_H-M   'P 1'
_cell_length_a   6.11921671
_cell_length_b   7.06248779
_cell_length_c   8.30818030
_cell_angle_alpha   89.13437594
_cell_angle_beta   88.00154735
_cell_angle_gamma   64.32794235
_symmetry_Int_Tables_number   1
_chemical_formula_structural   CsCoO2
_chemical_formula_sum   'Cs4 Co4 O8'
_cell_volume   323.41414343
_cell_formula_units_Z   4
loop_
 _symmetry_equiv_pos_site_id
 _symmetry_equiv_pos_as_xyz
  1  'x, y, z'
loop_
 _atom_site_type_symbol
 _atom_site_label
 _atom_site_symmetry_multiplicity
 _atom_site_fract_x
 _atom_site_fract_y
 _atom_site_fract_z
 _atom_site_occupancy
  Cs  Cs0  1  0.66608738  0.17471226  0.43033218  1
  Cs  Cs1  1  0.15920037  0.17471226  0.06966782  1
  Cs  Cs2  1  0.33391262  0.82528774  0.56966782  1
  Cs  Cs3  1  0.84079963  0.82528774  0.93033218  1
  Co  Co4  1  0.95502120  0.59188742  0.35635615  1
  Co  Co5  1  0.45309137  0.59188742  0.14364385  1
  Co  Co6  1  0.04497880  0.40811258  0.64364385  1
  Co  Co7  1  0.54690863  0.40811258  0.85635615  1
  O  O8  1  0.59763519  0.30711231  0.07409940  1
  O  O9  1  0.09525250  0.30711231  0.42590059  1
  O  O10  1  0.40236481  0.69288769  0.92590060  1
  O  O11  1  0.90474750  0.69288769  0.57409941  1
  O  O12  1  0.15292310  0.69415379  0.25000000  1
  O  O13  1  0.84707690  0.30584621  0.75000000  1
  O  O14  1  0.67085737  0.65828525  0.25000000  1
  O  O15  1  0.32914263  0.34171475  0.75000000  1
