# generated using pymatgen
data_Tb3Os
_symmetry_space_group_name_H-M   'P 1'
_cell_length_a   6.36212408
_cell_length_b   7.39537980
_cell_length_c   9.14061194
_cell_angle_alpha   90.00000000
_cell_angle_beta   90.00000000
_cell_angle_gamma   90.00000000
_symmetry_Int_Tables_number   1
_chemical_formula_structural   Tb3Os
_chemical_formula_sum   'Tb12 Os4'
_cell_volume   430.06875248
_cell_formula_units_Z   4
loop_
 _symmetry_equiv_pos_site_id
 _symmetry_equiv_pos_as_xyz
  1  'x, y, z'
loop_
 _atom_site_type_symbol
 _atom_site_label
 _atom_site_symmetry_multiplicity
 _atom_site_fract_x
 _atom_site_fract_y
 _atom_site_fract_z
 _atom_site_occupancy
  Tb  Tb0  1  0.33100095  0.67601432  0.06384663  1
  Tb  Tb1  1  0.16899905  0.17601432  0.43615337  1
  Tb  Tb2  1  0.66899905  0.32398568  0.56384663  1
  Tb  Tb3  1  0.83100095  0.82398568  0.93615337  1
  Tb  Tb4  1  0.66899905  0.32398568  0.93615337  1
  Tb  Tb5  1  0.83100095  0.82398568  0.56384663  1
  Tb  Tb6  1  0.33100095  0.67601432  0.43615337  1
  Tb  Tb7  1  0.16899905  0.17601432  0.06384663  1
  Tb  Tb8  1  0.86754225  0.53848705  0.25000000  1
  Tb  Tb9  1  0.63245775  0.03848705  0.25000000  1
  Tb  Tb10  1  0.13245775  0.46151295  0.75000000  1
  Tb  Tb11  1  0.36754225  0.96151295  0.75000000  1
  Os  Os12  1  0.04236077  0.88434822  0.25000000  1
  Os  Os13  1  0.45763923  0.38434822  0.25000000  1
  Os  Os14  1  0.95763923  0.11565178  0.75000000  1
  Os  Os15  1  0.54236077  0.61565178  0.75000000  1
