# generated using pymatgen
data_Nd2AgGe6
_symmetry_space_group_name_H-M   'P 1'
_cell_length_a   4.17431612
_cell_length_b   4.20173502
_cell_length_c   11.44739929
_cell_angle_alpha   90.00000000
_cell_angle_beta   100.50526807
_cell_angle_gamma   90.00000000
_symmetry_Int_Tables_number   1
_chemical_formula_structural   Nd2AgGe6
_chemical_formula_sum   'Nd2 Ag1 Ge6'
_cell_volume   197.41472658
_cell_formula_units_Z   1
loop_
 _symmetry_equiv_pos_site_id
 _symmetry_equiv_pos_as_xyz
  1  'x, y, z'
loop_
 _atom_site_type_symbol
 _atom_site_label
 _atom_site_symmetry_multiplicity
 _atom_site_fract_x
 _atom_site_fract_y
 _atom_site_fract_z
 _atom_site_occupancy
  Nd  Nd0  1  0.77958743  0.50000000  0.55917486  1
  Nd  Nd1  1  0.11696719  0.50000000  0.23393437  1
  Ag  Ag2  1  0.55929523  -0.00000000  0.11859046  1
  Ge  Ge3  1  0.49209842  0.50000000  0.98419685  1
  Ge  Ge4  1  0.38134187  0.50000000  0.76268373  1
  Ge  Ge5  1  0.99145917  -0.00000000  0.98291833  1
  Ge  Ge6  1  0.88029829  0.00000000  0.76059659  1
  Ge  Ge7  1  0.67030315  -0.00000000  0.34060629  1
  Ge  Ge8  1  0.23564926  0.00000000  0.47129851  1
