# generated using pymatgen
data_Tm2Se3
_symmetry_space_group_name_H-M   'P 1'
_cell_length_a   7.01370124
_cell_length_b   7.01370124
_cell_length_c   12.78855572
_cell_angle_alpha   100.68150038
_cell_angle_beta   100.68150038
_cell_angle_gamma   108.90984819
_symmetry_Int_Tables_number   1
_chemical_formula_structural   Tm2Se3
_chemical_formula_sum   'Tm8 Se12'
_cell_volume   564.08303048
_cell_formula_units_Z   4
loop_
 _symmetry_equiv_pos_site_id
 _symmetry_equiv_pos_as_xyz
  1  'x, y, z'
loop_
 _atom_site_type_symbol
 _atom_site_label
 _atom_site_symmetry_multiplicity
 _atom_site_fract_x
 _atom_site_fract_y
 _atom_site_fract_z
 _atom_site_occupancy
  Tm  Tm0  1  0.70855459  0.95855459  0.91710918  1
  Tm  Tm1  1  0.54144541  0.79144541  0.58289082  1
  Tm  Tm2  1  0.29144541  0.04144541  0.08289082  1
  Tm  Tm3  1  0.45855459  0.20855459  0.41710918  1
  Tm  Tm4  1  0.37268012  0.62268012  0.24536024  1
  Tm  Tm5  1  0.87731988  0.12731988  0.25463976  1
  Tm  Tm6  1  0.62731988  0.37731988  0.75463976  1
  Tm  Tm7  1  0.12268012  0.87268012  0.74536024  1
  Se  Se8  1  0.86722742  0.11722742  0.75000000  1
  Se  Se9  1  0.38277258  0.63277258  0.75000000  1
  Se  Se10  1  0.13277258  0.88277258  0.25000000  1
  Se  Se11  1  0.61722742  0.36722742  0.25000000  1
  Se  Se12  1  0.54892116  0.80460803  0.08763050  1
  Se  Se13  1  0.69539197  0.95107884  0.41236950  1
  Se  Se14  1  0.21697753  0.46129066  0.41236950  1
  Se  Se15  1  0.03870934  0.28302247  0.08763050  1
  Se  Se16  1  0.45107884  0.19539197  0.91236950  1
  Se  Se17  1  0.30460803  0.04892116  0.58763050  1
  Se  Se18  1  0.78302247  0.53870934  0.58763050  1
  Se  Se19  1  0.96129066  0.71697753  0.91236950  1
