# generated using pymatgen
data_La3In4Ge
_symmetry_space_group_name_H-M   'P 1'
_cell_length_a   8.66779288
_cell_length_b   8.63062483
_cell_length_c   8.63052616
_cell_angle_alpha   90.58945359
_cell_angle_beta   119.52630043
_cell_angle_gamma   119.52890288
_symmetry_Int_Tables_number   1
_chemical_formula_structural   La3In4Ge
_chemical_formula_sum   'La6 In8 Ge2'
_cell_volume   460.67347100
_cell_formula_units_Z   2
loop_
 _symmetry_equiv_pos_site_id
 _symmetry_equiv_pos_as_xyz
  1  'x, y, z'
loop_
 _atom_site_type_symbol
 _atom_site_label
 _atom_site_symmetry_multiplicity
 _atom_site_fract_x
 _atom_site_fract_y
 _atom_site_fract_z
 _atom_site_occupancy
  La  La0  1  0.00000705  0.74999728  0.75000696  1
  La  La1  1  0.99998992  0.25000372  0.24999172  1
  La  La2  1  0.82600807  0.66302250  0.16299921  1
  La  La3  1  0.17400101  0.33698091  0.83700943  1
  La  La4  1  0.49996251  0.83534857  0.66461935  1
  La  La5  1  0.50002743  0.16464762  0.33537705  1
  In  In6  1  0.21325099  0.04126558  0.54126481  1
  In  In7  1  0.78657778  0.32792124  0.82791968  1
  In  In8  1  0.49995991  0.82703876  0.04164971  1
  In  In9  1  0.49995487  0.54164844  0.32704569  1
  In  In10  1  0.78675002  0.95873302  0.45873502  1
  In  In11  1  0.21342269  0.67207712  0.17207836  1
  In  In12  1  0.50004113  0.17296185  0.95834809  1
  In  In13  1  0.50004785  0.45835314  0.67295671  1
  Ge  Ge14  1  0.99999912  0.49999941  0.49999908  1
  Ge  Ge15  1  0.99999965  0.00000084  0.99999912  1
