# generated using pymatgen
data_Lu2Te3
_symmetry_space_group_name_H-M   'P 1'
_cell_length_a   7.41819380
_cell_length_b   7.41819380
_cell_length_c   13.59378687
_cell_angle_alpha   100.52149493
_cell_angle_beta   100.52149493
_cell_angle_gamma   109.31476154
_symmetry_Int_Tables_number   1
_chemical_formula_structural   Lu2Te3
_chemical_formula_sum   'Lu8 Te12'
_cell_volume   669.86018589
_cell_formula_units_Z   4
loop_
 _symmetry_equiv_pos_site_id
 _symmetry_equiv_pos_as_xyz
  1  'x, y, z'
loop_
 _atom_site_type_symbol
 _atom_site_label
 _atom_site_symmetry_multiplicity
 _atom_site_fract_x
 _atom_site_fract_y
 _atom_site_fract_z
 _atom_site_occupancy
  Lu  Lu0  1  0.70781096  0.95781096  0.91562191  1
  Lu  Lu1  1  0.54218904  0.79218904  0.58437809  1
  Lu  Lu2  1  0.29218904  0.04218904  0.08437809  1
  Lu  Lu3  1  0.45781096  0.20781096  0.41562191  1
  Lu  Lu4  1  0.37502187  0.62502187  0.25004374  1
  Lu  Lu5  1  0.87497813  0.12497813  0.24995626  1
  Lu  Lu6  1  0.62497813  0.37497813  0.74995626  1
  Lu  Lu7  1  0.12502187  0.87502187  0.75004374  1
  Te  Te8  1  0.87807803  0.12807803  0.75000000  1
  Te  Te9  1  0.37192197  0.62192197  0.75000000  1
  Te  Te10  1  0.12192197  0.87192197  0.25000000  1
  Te  Te11  1  0.62807803  0.37807803  0.25000000  1
  Te  Te12  1  0.54304954  0.79201383  0.08421059  1
  Te  Te13  1  0.70798617  0.95695046  0.41578941  1
  Te  Te14  1  0.20780324  0.45883894  0.41578941  1
  Te  Te15  1  0.04116106  0.29219676  0.08421059  1
  Te  Te16  1  0.45695046  0.20798617  0.91578941  1
  Te  Te17  1  0.29201383  0.04304954  0.58421059  1
  Te  Te18  1  0.79219676  0.54116106  0.58421059  1
  Te  Te19  1  0.95883894  0.70780324  0.91578941  1
