# generated using pymatgen
data_NbFeGe
_symmetry_space_group_name_H-M   'P 1'
_cell_length_a   6.56748587
_cell_length_b   7.10823658
_cell_length_c   7.42331895
_cell_angle_alpha   118.60558728
_cell_angle_beta   116.25424203
_cell_angle_gamma   90.00000000
_symmetry_Int_Tables_number   1
_chemical_formula_structural   NbFeGe
_chemical_formula_sum   'Nb6 Fe6 Ge6'
_cell_volume   262.80195967
_cell_formula_units_Z   6
loop_
 _symmetry_equiv_pos_site_id
 _symmetry_equiv_pos_as_xyz
  1  'x, y, z'
loop_
 _atom_site_type_symbol
 _atom_site_label
 _atom_site_symmetry_multiplicity
 _atom_site_fract_x
 _atom_site_fract_y
 _atom_site_fract_z
 _atom_site_occupancy
  Nb  Nb0  1  0.89733306  0.94440974  0.38881948  1
  Nb  Nb1  1  0.50851358  0.05559026  0.61118052  1
  Nb  Nb2  1  0.50633830  0.53258906  0.56517813  1
  Nb  Nb3  1  0.94116017  0.46741094  0.43482187  1
  Nb  Nb4  1  0.09120911  0.74954986  0.99909972  1
  Nb  Nb5  1  0.09210938  0.25045014  0.00090028  1
  Fe  Fe6  1  0.25193313  0.91282417  0.74987989  1
  Fe  Fe7  1  0.50205324  0.08717583  0.25012011  1
  Fe  Fe8  1  0.25193313  0.33705572  0.74987989  1
  Fe  Fe9  1  0.50205324  0.66294428  0.25012011  1
  Fe  Fe10  1  0.75050899  0.50000000  0.00000000  1
  Fe  Fe11  1  0.75050899  0.00000000  0.00000000  1
  Ge  Ge12  1  0.17242044  0.67173144  0.33473093  1
  Ge  Ge13  1  0.83768950  0.32826856  0.66526907  1
  Ge  Ge14  1  0.17242044  0.16299949  0.33473093  1
  Ge  Ge15  1  0.83768950  0.83700051  0.66526907  1
  Ge  Ge16  1  0.46821419  0.72215130  0.94430259  1
  Ge  Ge17  1  0.52391160  0.27784870  0.05569741  1
