# generated using pymatgen
data_Zr5AgSb3
_symmetry_space_group_name_H-M   'P 1'
_cell_length_a   5.89188216
_cell_length_b   8.76261934
_cell_length_c   8.76183875
_cell_angle_alpha   120.00294164
_cell_angle_beta   90.00000000
_cell_angle_gamma   90.00000000
_symmetry_Int_Tables_number   1
_chemical_formula_structural   Zr5AgSb3
_chemical_formula_sum   'Zr10 Ag2 Sb6'
_cell_volume   391.74278957
_cell_formula_units_Z   2
loop_
 _symmetry_equiv_pos_site_id
 _symmetry_equiv_pos_as_xyz
  1  'x, y, z'
loop_
 _atom_site_type_symbol
 _atom_site_label
 _atom_site_symmetry_multiplicity
 _atom_site_fract_x
 _atom_site_fract_y
 _atom_site_fract_z
 _atom_site_occupancy
  Zr  Zr0  1  0.49999965  0.33333191  0.66668064  1
  Zr  Zr1  1  0.49999965  0.66665127  0.33331936  1
  Zr  Zr2  1  -0.00000035  0.66666809  0.33331936  1
  Zr  Zr3  1  -0.00000035  0.33334873  0.66668064  1
  Zr  Zr4  1  0.74999807  0.28196186  0.00000000  1
  Zr  Zr5  1  0.75000153  0.71800897  0.71805024  1
  Zr  Zr6  1  0.75000153  0.99995873  0.28194976  1
  Zr  Zr7  1  0.24999807  0.71803814  1.00000000  1
  Zr  Zr8  1  0.25000153  0.28199103  0.28194976  1
  Zr  Zr9  1  0.25000153  0.00004127  0.71805024  1
  Ag  Ag10  1  0.49999873  0.99999800  -0.00000000  1
  Ag  Ag11  1  0.99999873  0.00000200  0.00000000  1
  Sb  Sb12  1  0.74999439  0.62223616  1.00000000  1
  Sb  Sb13  1  0.75000322  0.37774748  0.37774407  1
  Sb  Sb14  1  0.75000322  0.00000341  0.62225593  1
  Sb  Sb15  1  0.24999439  0.37776384  0.00000000  1
  Sb  Sb16  1  0.25000322  0.62225252  0.62225593  1
  Sb  Sb17  1  0.25000322  0.99999659  0.37774407  1
