# generated using pymatgen
data_Y4Si2NO8
_symmetry_space_group_name_H-M   'P 1'
_cell_length_a   7.70705659
_cell_length_b   10.48062102
_cell_length_c   10.86555944
_cell_angle_alpha   90.00000000
_cell_angle_beta   109.56240229
_cell_angle_gamma   90.00000000
_symmetry_Int_Tables_number   1
_chemical_formula_structural   Y4Si2NO8
_chemical_formula_sum   'Y16 Si8 N4 O32'
_cell_volume   827.00173316
_cell_formula_units_Z   4
loop_
 _symmetry_equiv_pos_site_id
 _symmetry_equiv_pos_as_xyz
  1  'x, y, z'
loop_
 _atom_site_type_symbol
 _atom_site_label
 _atom_site_symmetry_multiplicity
 _atom_site_fract_x
 _atom_site_fract_y
 _atom_site_fract_z
 _atom_site_occupancy
  Y  Y0  1  0.34086961  0.12155196  0.42239325  1
  Y  Y1  1  0.65913039  0.87844804  0.57760675  1
  Y  Y2  1  0.65913039  0.62155196  0.07760675  1
  Y  Y3  1  0.34086961  0.37844804  0.92239325  1
  Y  Y4  1  0.16864803  0.61908537  0.06681282  1
  Y  Y5  1  0.83135197  0.38091463  0.93318718  1
  Y  Y6  1  0.83135197  0.11908537  0.43318718  1
  Y  Y7  1  0.16864803  0.88091463  0.56681282  1
  Y  Y8  1  0.01755222  0.39611090  0.28054695  1
  Y  Y9  1  0.98244778  0.60388910  0.71945305  1
  Y  Y10  1  0.98244778  0.89611090  0.21945305  1
  Y  Y11  1  0.01755222  0.10388910  0.78054695  1
  Y  Y12  1  0.52368204  0.41748546  0.31244975  1
  Y  Y13  1  0.47631796  0.58251454  0.68755025  1
  Y  Y14  1  0.47631796  0.91748546  0.18755025  1
  Y  Y15  1  0.52368204  0.08251454  0.81244975  1
  Si  Si16  1  0.14932893  0.18282904  0.12080508  1
  Si  Si17  1  0.85067107  0.81717096  0.87919492  1
  Si  Si18  1  0.85067107  0.68282904  0.37919492  1
  Si  Si19  1  0.14932893  0.31717096  0.62080508  1
  Si  Si20  1  0.73455427  0.18743858  0.13173726  1
  Si  Si21  1  0.26544573  0.81256142  0.86826274  1
  Si  Si22  1  0.26544573  0.68743858  0.36826274  1
  Si  Si23  1  0.73455427  0.31256142  0.63173726  1
  N  N24  1  0.06326705  0.73306884  0.38701021  1
  N  N25  1  0.93673295  0.26693116  0.61298979  1
  N  N26  1  0.93673295  0.23306884  0.11298979  1
  N  N27  1  0.06326705  0.76693116  0.88701021  1
  O  O28  1  0.19975173  0.03377799  0.17283960  1
  O  O29  1  0.80024827  0.96622201  0.82716040  1
  O  O30  1  0.80024827  0.53377799  0.32716040  1
  O  O31  1  0.19975173  0.46622201  0.67283960  1
  O  O32  1  0.06954637  0.02336215  0.39655253  1
  O  O33  1  0.93045363  0.97663785  0.60344747  1
  O  O34  1  0.93045363  0.52336215  0.10344747  1
  O  O35  1  0.06954637  0.47663785  0.89655253  1
  O  O36  1  0.26706747  0.53831364  0.31928665  1
  O  O37  1  0.73293253  0.46168636  0.68071335  1
  O  O38  1  0.73293253  0.03831364  0.18071335  1
  O  O39  1  0.26706747  0.96168636  0.81928665  1
  O  O40  1  0.42979960  0.49982281  0.10989133  1
  O  O41  1  0.57020040  0.50017719  0.89010867  1
  O  O42  1  0.57020040  0.99982281  0.39010867  1
  O  O43  1  0.42979960  0.00017719  0.60989133  1
  O  O44  1  0.72627332  0.27438906  0.25963267  1
  O  O45  1  0.27372668  0.72561094  0.74036733  1
  O  O46  1  0.27372668  0.77438906  0.24036733  1
  O  O47  1  0.72627332  0.22561094  0.75963267  1
  O  O48  1  0.16692716  0.28841074  0.47677961  1
  O  O49  1  0.83307284  0.71158926  0.52322039  1
  O  O50  1  0.83307284  0.78841074  0.02322039  1
  O  O51  1  0.16692716  0.21158926  0.97677961  1
  O  O52  1  0.57745131  0.27373999  0.49135133  1
  O  O53  1  0.42254869  0.72626001  0.50864867  1
  O  O54  1  0.42254869  0.77373999  0.00864867  1
  O  O55  1  0.57745131  0.22626001  0.99135133  1
  O  O56  1  0.28468607  0.27192569  0.24312335  1
  O  O57  1  0.71531393  0.72807431  0.75687665  1
  O  O58  1  0.71531393  0.77192569  0.25687665  1
  O  O59  1  0.28468607  0.22807431  0.74312335  1
