# generated using pymatgen
data_Er7(TeAu)2
_symmetry_space_group_name_H-M   'P 1'
_cell_length_a   4.00933535
_cell_length_b   9.23619963
_cell_length_c   17.06287298
_cell_angle_alpha   103.98301377
_cell_angle_beta   90.00000000
_cell_angle_gamma   102.53551268
_symmetry_Int_Tables_number   1
_chemical_formula_structural   Er7(TeAu)2
_chemical_formula_sum   'Er14 Te4 Au4'
_cell_volume   597.59797554
_cell_formula_units_Z   2
loop_
 _symmetry_equiv_pos_site_id
 _symmetry_equiv_pos_as_xyz
  1  'x, y, z'
loop_
 _atom_site_type_symbol
 _atom_site_label
 _atom_site_symmetry_multiplicity
 _atom_site_fract_x
 _atom_site_fract_y
 _atom_site_fract_z
 _atom_site_occupancy
  Er  Er0  1  0.00186686  0.00373371  0.33365322  1
  Er  Er1  1  0.99813314  0.99626629  0.66634678  1
  Er  Er2  1  0.17532616  0.35065231  0.53126603  1
  Er  Er3  1  0.82467384  0.64934769  0.46873397  1
  Er  Er4  1  0.19129060  0.38258120  0.31942295  1
  Er  Er5  1  0.80870940  0.61741880  0.68057705  1
  Er  Er6  1  0.33814192  0.67628384  0.01951539  1
  Er  Er7  1  0.66185808  0.32371616  0.98048461  1
  Er  Er8  1  0.57531914  0.15063829  0.17095827  1
  Er  Er9  1  0.42468086  0.84936171  0.82904173  1
  Er  Er10  1  0.78062963  0.56125927  0.19437140  1
  Er  Er11  1  0.21937037  0.43874073  0.80562860  1
  Er  Er12  1  0.50000000  -0.00000000  0.50000000  1
  Er  Er13  1  0.00000000  -0.00000000  -0.00000000  1
  Te  Te14  1  0.06478954  0.12957908  0.84977824  1
  Te  Te15  1  0.93521046  0.87042092  0.15022176  1
  Te  Te16  1  0.36664452  0.73328904  0.33770351  1
  Te  Te17  1  0.63335548  0.26671096  0.66229649  1
  Au  Au18  1  0.17135707  0.34271414  0.11076458  1
  Au  Au19  1  0.82864293  0.65728586  0.88923542  1
  Au  Au20  1  0.38073849  0.76147699  0.60075962  1
  Au  Au21  1  0.61926151  0.23852301  0.39924038  1
