# generated using pymatgen
data_Ba(BrF4)2
_symmetry_space_group_name_H-M   'P 1'
_cell_length_a   8.10010471
_cell_length_b   8.10010471
_cell_length_c   8.10010471
_cell_angle_alpha   104.79695455
_cell_angle_beta   104.79695455
_cell_angle_gamma   119.28875344
_symmetry_Int_Tables_number   1
_chemical_formula_structural   Ba(BrF4)2
_chemical_formula_sum   'Ba2 Br4 F16'
_cell_volume   399.97594095
_cell_formula_units_Z   2
loop_
 _symmetry_equiv_pos_site_id
 _symmetry_equiv_pos_as_xyz
  1  'x, y, z'
loop_
 _atom_site_type_symbol
 _atom_site_label
 _atom_site_symmetry_multiplicity
 _atom_site_fract_x
 _atom_site_fract_y
 _atom_site_fract_z
 _atom_site_occupancy
  Ba  Ba0  1  0.00000000  -0.00000000  0.00000000  1
  Ba  Ba1  1  0.75000000  0.25000000  0.50000000  1
  Br  Br2  1  0.52658465  0.14436533  0.93432236  1
  Br  Br3  1  0.21004297  0.59226229  0.06567764  1
  Br  Br4  1  0.85563467  0.78995703  0.38221932  1
  Br  Br5  1  0.40773771  0.47341535  0.61778068  1
  F  F6  1  0.55617644  0.08831584  0.70386147  1
  F  F7  1  0.38445438  0.85231497  0.29613853  1
  F  F8  1  0.91168416  0.61554562  0.46786060  1
  F  F9  1  0.14768503  0.44382356  0.53213940  1
  F  F10  1  0.90376476  0.71200032  0.16414451  1
  F  F11  1  0.54785581  0.73962025  0.83585549  1
  F  F12  1  0.28799968  0.45214419  0.19176444  1
  F  F13  1  0.26037975  0.09623524  0.80823556  1
  F  F14  1  0.48469011  0.19875203  0.16549323  1
  F  F15  1  0.03325880  0.31919689  0.83450677  1
  F  F16  1  0.80124797  0.96674120  0.28593808  1
  F  F17  1  0.68080311  0.51530989  0.71406192  1
  F  F18  1  0.11660431  0.71408627  0.91944537  1
  F  F19  1  0.79464090  0.19715893  0.08055463  1
  F  F20  1  0.28591373  0.20535910  0.40251803  1
  F  F21  1  0.80284107  0.88339569  0.59748197  1
