# generated using pymatgen
data_Y2Te3
_symmetry_space_group_name_H-M   'P 1'
_cell_length_a   7.55535226
_cell_length_b   7.55535226
_cell_length_c   13.86781148
_cell_angle_alpha   100.49650208
_cell_angle_beta   100.49650208
_cell_angle_gamma   109.34378628
_symmetry_Int_Tables_number   1
_chemical_formula_structural   Y2Te3
_chemical_formula_sum   'Y8 Te12'
_cell_volume   708.89709543
_cell_formula_units_Z   4
loop_
 _symmetry_equiv_pos_site_id
 _symmetry_equiv_pos_as_xyz
  1  'x, y, z'
loop_
 _atom_site_type_symbol
 _atom_site_label
 _atom_site_symmetry_multiplicity
 _atom_site_fract_x
 _atom_site_fract_y
 _atom_site_fract_z
 _atom_site_occupancy
  Y  Y0  1  0.70784059  0.95784059  0.91568118  1
  Y  Y1  1  0.54215941  0.79215941  0.58431882  1
  Y  Y2  1  0.29215941  0.04215941  0.08431882  1
  Y  Y3  1  0.45784059  0.20784059  0.41568118  1
  Y  Y4  1  0.37494747  0.62494747  0.24989494  1
  Y  Y5  1  0.87505253  0.12505253  0.25010506  1
  Y  Y6  1  0.62505253  0.37505253  0.75010506  1
  Y  Y7  1  0.12494747  0.87494747  0.74989494  1
  Te  Te8  1  0.87802205  0.12802205  0.75000000  1
  Te  Te9  1  0.37197795  0.62197795  0.75000000  1
  Te  Te10  1  0.12197795  0.87197795  0.25000000  1
  Te  Te11  1  0.62802205  0.37802205  0.25000000  1
  Te  Te12  1  0.54310028  0.79188438  0.08410961  1
  Te  Te13  1  0.70811562  0.95689972  0.41589039  1
  Te  Te14  1  0.20777478  0.45899067  0.41589039  1
  Te  Te15  1  0.04100933  0.29222522  0.08410961  1
  Te  Te16  1  0.45689972  0.20811562  0.91589039  1
  Te  Te17  1  0.29188438  0.04310028  0.58410961  1
  Te  Te18  1  0.79222522  0.54100933  0.58410961  1
  Te  Te19  1  0.95899067  0.70777478  0.91589039  1
