# generated using pymatgen
data_EuCrTeO6
_symmetry_space_group_name_H-M   'P 1'
_cell_length_a   5.19650219
_cell_length_b   5.19972459
_cell_length_c   10.27903061
_cell_angle_alpha   90.14626648
_cell_angle_beta   89.92682139
_cell_angle_gamma   120.02052091
_symmetry_Int_Tables_number   1
_chemical_formula_structural   EuCrTeO6
_chemical_formula_sum   'Eu2 Cr2 Te2 O12'
_cell_volume   240.48223000
_cell_formula_units_Z   2
loop_
 _symmetry_equiv_pos_site_id
 _symmetry_equiv_pos_as_xyz
  1  'x, y, z'
loop_
 _atom_site_type_symbol
 _atom_site_label
 _atom_site_symmetry_multiplicity
 _atom_site_fract_x
 _atom_site_fract_y
 _atom_site_fract_z
 _atom_site_occupancy
  Eu  Eu0  1  -0.00000000  -0.00000000  -0.00000000  1
  Eu  Eu1  1  -0.00000000  -0.00000000  0.50000000  1
  Cr  Cr2  1  0.33306675  0.66653338  0.25000000  1
  Cr  Cr3  1  0.66693325  0.33346662  0.75000000  1
  Te  Te4  1  0.33276889  0.66638445  0.75000000  1
  Te  Te5  1  0.66723111  0.33361555  0.25000000  1
  O  O6  1  0.37306485  0.36615085  0.14353033  1
  O  O7  1  0.63348524  0.00614068  0.14351185  1
  O  O8  1  0.99353541  0.62686821  0.14355629  1
  O  O9  1  0.62693515  0.63384915  0.85646967  1
  O  O10  1  0.36651476  0.99385932  0.85648815  1
  O  O11  1  0.00646459  0.37313179  0.85644371  1
  O  O12  1  0.63348524  0.62734455  0.35648815  1
  O  O13  1  0.37306485  0.00691400  0.35646967  1
  O  O14  1  0.99353541  0.36666720  0.35644371  1
  O  O15  1  0.36651476  0.37265545  0.64351185  1
  O  O16  1  0.62693515  0.99308600  0.64353033  1
  O  O17  1  0.00646459  0.63333280  0.64355629  1
