# generated using pymatgen
data_LaScS3
_symmetry_space_group_name_H-M   'P 1'
_cell_length_a   6.58694202
_cell_length_b   7.23430931
_cell_length_c   9.65338409
_cell_angle_alpha   90.00000000
_cell_angle_beta   90.00000000
_cell_angle_gamma   90.00000000
_symmetry_Int_Tables_number   1
_chemical_formula_structural   LaScS3
_chemical_formula_sum   'La4 Sc4 S12'
_cell_volume   460.00282678
_cell_formula_units_Z   4
loop_
 _symmetry_equiv_pos_site_id
 _symmetry_equiv_pos_as_xyz
  1  'x, y, z'
loop_
 _atom_site_type_symbol
 _atom_site_label
 _atom_site_symmetry_multiplicity
 _atom_site_fract_x
 _atom_site_fract_y
 _atom_site_fract_z
 _atom_site_occupancy
  La  La0  1  0.53581238  0.40491776  0.99176469  1
  La  La1  1  0.46418762  0.59508224  0.49176469  1
  La  La2  1  0.03581238  0.09508224  0.49176469  1
  La  La3  1  0.96418762  0.90491776  0.99176469  1
  Sc  Sc4  1  0.00073075  0.49676034  0.23963345  1
  Sc  Sc5  1  -0.00073075  0.50323966  0.73963345  1
  Sc  Sc6  1  0.50073075  0.00323966  0.73963345  1
  Sc  Sc7  1  0.49926925  0.99676034  0.23963345  1
  S  S8  1  0.81926978  0.19097272  0.80128482  1
  S  S9  1  0.18073022  0.80902728  0.30128482  1
  S  S10  1  0.31926978  0.30902728  0.30128482  1
  S  S11  1  0.68073022  0.69097272  0.80128482  1
  S  S12  1  0.81757933  0.18711907  0.18199961  1
  S  S13  1  0.18242067  0.81288093  0.68199961  1
  S  S14  1  0.31757933  0.31288093  0.68199961  1
  S  S15  1  0.68242067  0.68711907  0.18199961  1
  S  S16  1  0.87704029  0.46426553  0.49031743  1
  S  S17  1  0.12295971  0.53573447  0.99031743  1
  S  S18  1  0.37704029  0.03573447  0.99031743  1
  S  S19  1  0.62295971  0.96426553  0.49031743  1
