# generated using pymatgen
data_BaHgAs2O7
_symmetry_space_group_name_H-M   'P 1'
_cell_length_a   5.94699640
_cell_length_b   7.62598196
_cell_length_c   7.97607293
_cell_angle_alpha   101.61846010
_cell_angle_beta   90.95418850
_cell_angle_gamma   96.90320841
_symmetry_Int_Tables_number   1
_chemical_formula_structural   BaHgAs2O7
_chemical_formula_sum   'Ba2 Hg2 As4 O14'
_cell_volume   351.43747295
_cell_formula_units_Z   2
loop_
 _symmetry_equiv_pos_site_id
 _symmetry_equiv_pos_as_xyz
  1  'x, y, z'
loop_
 _atom_site_type_symbol
 _atom_site_label
 _atom_site_symmetry_multiplicity
 _atom_site_fract_x
 _atom_site_fract_y
 _atom_site_fract_z
 _atom_site_occupancy
  Ba  Ba0  1  0.70463196  0.27314396  0.93258535  1
  Ba  Ba1  1  0.29536804  0.72685604  0.06741465  1
  Hg  Hg2  1  0.30611054  0.83286691  0.59902284  1
  Hg  Hg3  1  0.69388946  0.16713309  0.40097716  1
  As  As4  1  0.80798279  0.77107313  0.80847536  1
  As  As5  1  0.19201721  0.22892687  0.19152464  1
  As  As6  1  0.78521519  0.66749033  0.39333616  1
  As  As7  1  0.21478481  0.33250967  0.60666384  1
  O  O8  1  0.94725186  0.22961980  0.63132879  1
  O  O9  1  0.05274814  0.77038020  0.36867121  1
  O  O10  1  0.78268874  0.64035842  0.95721797  1
  O  O11  1  0.21731126  0.35964158  0.04278203  1
  O  O12  1  0.78058938  0.61647483  0.60477568  1
  O  O13  1  0.21941062  0.38352517  0.39522432  1
  O  O14  1  0.59157230  0.90334690  0.81864693  1
  O  O15  1  0.40842770  0.09665310  0.18135307  1
  O  O16  1  0.58409208  0.81184329  0.38239244  1
  O  O17  1  0.41590792  0.18815671  0.61760756  1
  O  O18  1  0.28226538  0.53906505  0.73214298  1
  O  O19  1  0.71773462  0.46093495  0.26785702  1
  O  O20  1  0.06968765  0.89734071  0.82693350  1
  O  O21  1  0.93031235  0.10265929  0.17306650  1
