# generated using pymatgen
data_CsHS2O7
_symmetry_space_group_name_H-M   'P 1'
_cell_length_a   5.52479253
_cell_length_b   8.21096980
_cell_length_c   8.89842212
_cell_angle_alpha   94.37072000
_cell_angle_beta   101.94797680
_cell_angle_gamma   105.79043047
_symmetry_Int_Tables_number   1
_chemical_formula_structural   CsHS2O7
_chemical_formula_sum   'Cs2 H2 S4 O14'
_cell_volume   376.23378861
_cell_formula_units_Z   2
loop_
 _symmetry_equiv_pos_site_id
 _symmetry_equiv_pos_as_xyz
  1  'x, y, z'
loop_
 _atom_site_type_symbol
 _atom_site_label
 _atom_site_symmetry_multiplicity
 _atom_site_fract_x
 _atom_site_fract_y
 _atom_site_fract_z
 _atom_site_occupancy
  Cs  Cs0  1  0.80385070  0.19127720  0.86313943  1
  Cs  Cs1  1  0.19614930  0.80872280  0.13686057  1
  H  H2  1  0.18133111  0.38211255  0.35187273  1
  H  H3  1  0.81866889  0.61788745  0.64812727  1
  S  S4  1  0.52152035  0.36263065  0.18650316  1
  S  S5  1  0.47847965  0.63736935  0.81349684  1
  S  S6  1  0.84354984  0.19158118  0.38444109  1
  S  S7  1  0.15645016  0.80841882  0.61555891  1
  O  O8  1  0.61287406  0.28058794  0.35352136  1
  O  O9  1  0.38712594  0.71941206  0.64647864  1
  O  O10  1  0.84313020  0.09658999  0.24130566  1
  O  O11  1  0.15686980  0.90341001  0.75869434  1
  O  O12  1  0.80001113  0.10649000  0.51511980  1
  O  O13  1  0.19998887  0.89351000  0.48488020  1
  O  O14  1  0.09279887  0.34427534  0.43953563  1
  O  O15  1  0.90720113  0.65572466  0.56046437  1
  O  O16  1  0.35909289  0.45714549  0.24160351  1
  O  O17  1  0.64090711  0.54285451  0.75839649  1
  O  O18  1  0.75825706  0.46744697  0.15578556  1
  O  O19  1  0.24174294  0.53255303  0.84421444  1
  O  O20  1  0.38007036  0.21365931  0.07170050  1
  O  O21  1  0.61992964  0.78634069  0.92829950  1
