# generated using pymatgen
data_La3SbO7
_symmetry_space_group_name_H-M   'P 1'
_cell_length_a   6.78452357
_cell_length_b   6.78452357
_cell_length_c   7.83245892
_cell_angle_alpha   90.00000000
_cell_angle_beta   90.00000000
_cell_angle_gamma   110.90810258
_symmetry_Int_Tables_number   1
_chemical_formula_structural   La3SbO7
_chemical_formula_sum   'La6 Sb2 O14'
_cell_volume   336.78700236
_cell_formula_units_Z   2
loop_
 _symmetry_equiv_pos_site_id
 _symmetry_equiv_pos_as_xyz
  1  'x, y, z'
loop_
 _atom_site_type_symbol
 _atom_site_label
 _atom_site_symmetry_multiplicity
 _atom_site_fract_x
 _atom_site_fract_y
 _atom_site_fract_z
 _atom_site_occupancy
  La  La0  1  -0.00000000  0.00000000  0.50000000  1
  La  La1  1  -0.00000000  0.00000000  0.00000000  1
  La  La2  1  0.06601984  0.52301499  0.25000000  1
  La  La3  1  0.47698501  0.93398016  0.75000000  1
  La  La4  1  0.93398016  0.47698501  0.75000000  1
  La  La5  1  0.52301499  0.06601984  0.25000000  1
  Sb  Sb6  1  0.50000000  0.50000000  0.50000000  1
  Sb  Sb7  1  0.50000000  0.50000000  0.00000000  1
  O  O8  1  0.18964672  0.44042380  0.53190556  1
  O  O9  1  0.55957620  0.81035328  0.46809444  1
  O  O10  1  0.18964672  0.44042380  0.96809444  1
  O  O11  1  0.55957620  0.81035328  0.03190556  1
  O  O12  1  0.81035328  0.55957620  0.46809444  1
  O  O13  1  0.44042380  0.18964672  0.53190556  1
  O  O14  1  0.81035328  0.55957620  0.03190556  1
  O  O15  1  0.44042380  0.18964672  0.96809444  1
  O  O16  1  0.89237475  0.15389386  0.25000000  1
  O  O17  1  0.84610614  0.10762525  0.75000000  1
  O  O18  1  0.10762525  0.84610614  0.75000000  1
  O  O19  1  0.15389386  0.89237475  0.25000000  1
  O  O20  1  0.42562303  0.42562303  0.25000000  1
  O  O21  1  0.57437697  0.57437697  0.75000000  1
