# generated using pymatgen
data_Lu2CoTe2(SO7)2
_symmetry_space_group_name_H-M   'P 1'
_cell_length_a   5.42695615
_cell_length_b   8.07561375
_cell_length_c   8.11441015
_cell_angle_alpha   112.83152606
_cell_angle_beta   107.37809117
_cell_angle_gamma   96.63935989
_symmetry_Int_Tables_number   1
_chemical_formula_structural   Lu2CoTe2(SO7)2
_chemical_formula_sum   'Lu2 Co1 Te2 S2 O14'
_cell_volume   301.76885046
_cell_formula_units_Z   1
loop_
 _symmetry_equiv_pos_site_id
 _symmetry_equiv_pos_as_xyz
  1  'x, y, z'
loop_
 _atom_site_type_symbol
 _atom_site_label
 _atom_site_symmetry_multiplicity
 _atom_site_fract_x
 _atom_site_fract_y
 _atom_site_fract_z
 _atom_site_occupancy
  Lu  Lu0  1  0.16155837  0.23262127  0.52636759  1
  Lu  Lu1  1  0.83844163  0.76737873  0.47363241  1
  Co  Co2  1  0.50000000  0.50000000  0.00000000  1
  Te  Te3  1  0.13228309  0.76760598  0.15240295  1
  Te  Te4  1  0.86771691  0.23239402  0.84759705  1
  S  S5  1  0.58125529  0.28216605  0.27382499  1
  S  S6  1  0.41874471  0.71783395  0.72617501  1
  O  O7  1  0.36918134  0.18793968  0.31384559  1
  O  O8  1  0.63081866  0.81206032  0.68615441  1
  O  O9  1  0.29069692  0.52425327  0.57156238  1
  O  O10  1  0.70930308  0.47574673  0.42843762  1
  O  O11  1  0.79120848  0.17835519  0.27183798  1
  O  O12  1  0.20879152  0.82164481  0.72816202  1
  O  O13  1  0.45722895  0.28003415  0.08339801  1
  O  O14  1  0.54277105  0.71996585  0.91660199  1
  O  O15  1  0.90039506  0.57878018  0.16483060  1
  O  O16  1  0.09960494  0.42121982  0.83516940  1
  O  O17  1  0.45432039  0.70170216  0.24123969  1
  O  O18  1  0.54567961  0.29829784  0.75876031  1
  O  O19  1  0.12699370  0.92885197  0.39508033  1
  O  O20  1  0.87300630  0.07114803  0.60491967  1
