# generated using pymatgen
data_Sm2ZnTe2(SO7)2
_symmetry_space_group_name_H-M   'P 1'
_cell_length_a   5.37158662
_cell_length_b   8.02539291
_cell_length_c   8.27299622
_cell_angle_alpha   63.97684805
_cell_angle_beta   73.23065850
_cell_angle_gamma   85.82149578
_symmetry_Int_Tables_number   1
_chemical_formula_structural   Sm2ZnTe2(SO7)2
_chemical_formula_sum   'Sm2 Zn1 Te2 S2 O14'
_cell_volume   306.25637393
_cell_formula_units_Z   1
loop_
 _symmetry_equiv_pos_site_id
 _symmetry_equiv_pos_as_xyz
  1  'x, y, z'
loop_
 _atom_site_type_symbol
 _atom_site_label
 _atom_site_symmetry_multiplicity
 _atom_site_fract_x
 _atom_site_fract_y
 _atom_site_fract_z
 _atom_site_occupancy
  Sm  Sm0  1  0.91248936  0.74769484  0.98558395  1
  Sm  Sm1  1  0.08751064  0.25230516  0.01441605  1
  Zn  Zn2  1  -0.00000000  -0.00000000  0.50000000  1
  Te  Te3  1  0.48088426  0.73319578  0.65826009  1
  Te  Te4  1  0.51911574  0.26680422  0.34173991  1
  S  S5  1  0.23039772  0.75259102  0.25327634  1
  S  S6  1  0.76960228  0.24740898  0.74672366  1
  O  O7  1  0.09711357  0.59420091  0.25797669  1
  O  O8  1  0.90288643  0.40579909  0.74202331  1
  O  O9  1  0.12464233  0.77221935  0.42969723  1
  O  O10  1  0.87535767  0.22778065  0.57030277  1
  O  O11  1  0.51428250  0.72795578  0.22138176  1
  O  O12  1  0.48571750  0.27204422  0.77861824  1
  O  O13  1  0.17813697  0.92114340  0.09044920  1
  O  O14  1  0.82186303  0.07885660  0.90955080  1
  O  O15  1  0.25096480  0.56626827  0.89141890  1
  O  O16  1  0.74903520  0.43373173  0.10858110  1
  O  O17  1  0.71972240  0.80840281  0.74740571  1
  O  O18  1  0.28027760  0.19159719  0.25259429  1
  O  O19  1  0.24940259  0.92613258  0.66264853  1
  O  O20  1  0.75059741  0.07386742  0.33735147  1
