# generated using pymatgen
data_Pr3AsS5Cl2
_symmetry_space_group_name_H-M   'P 1'
_cell_length_a   6.98888054
_cell_length_b   7.11403979
_cell_length_c   11.63505505
_cell_angle_alpha   98.41010340
_cell_angle_beta   107.47785658
_cell_angle_gamma   90.00000000
_symmetry_Int_Tables_number   1
_chemical_formula_structural   Pr3AsS5Cl2
_chemical_formula_sum   'Pr6 As2 S10 Cl4'
_cell_volume   545.25313432
_cell_formula_units_Z   2
loop_
 _symmetry_equiv_pos_site_id
 _symmetry_equiv_pos_as_xyz
  1  'x, y, z'
loop_
 _atom_site_type_symbol
 _atom_site_label
 _atom_site_symmetry_multiplicity
 _atom_site_fract_x
 _atom_site_fract_y
 _atom_site_fract_z
 _atom_site_occupancy
  Pr  Pr0  1  0.70653246  0.49890979  0.99915744  1
  Pr  Pr1  1  0.29262497  0.99890979  0.99915744  1
  Pr  Pr2  1  0.14321227  0.51527873  0.70568371  1
  Pr  Pr3  1  0.56247144  0.01527873  0.70568371  1
  Pr  Pr4  1  0.85448162  0.15163706  0.30554549  1
  Pr  Pr5  1  0.45106387  0.65163706  0.30554549  1
  As  As6  1  0.00750216  0.70718536  0.39762689  1
  As  As7  1  0.39012473  0.20718536  0.39762689  1
  S  S8  1  0.36817923  0.25425409  0.84670068  1
  S  S9  1  0.47852145  0.75425409  0.84670068  1
  S  S10  1  0.63733317  0.82073103  0.15918204  1
  S  S11  1  0.52184887  0.32073103  0.15918204  1
  S  S12  1  0.21331392  0.17769814  0.53294473  1
  S  S13  1  0.31963080  0.67769814  0.53294473  1
  S  S14  1  0.81524391  0.51751273  0.46821484  1
  S  S15  1  0.65297093  0.01751273  0.46821484  1
  S  S16  1  0.04714926  0.48228585  0.24366142  1
  S  S17  1  0.19651216  0.98228585  0.24366142  1
  Cl  Cl18  1  0.96899700  0.88050782  0.73578594  1
  Cl  Cl19  1  0.76678894  0.38050782  0.73578594  1
  Cl  Cl20  1  0.10167101  0.63221941  0.98419684  1
  Cl  Cl21  1  0.88252582  0.13221941  0.98419684  1
