# generated using pymatgen
data_RbDy2Ag3Te5
_symmetry_space_group_name_H-M   'P 1'
_cell_length_a   4.57828362
_cell_length_b   8.47498730
_cell_length_c   18.50149242
_cell_angle_alpha   90.00000000
_cell_angle_beta   90.00000000
_cell_angle_gamma   105.67055273
_symmetry_Int_Tables_number   1
_chemical_formula_structural   RbDy2Ag3Te5
_chemical_formula_sum   'Rb2 Dy4 Ag6 Te10'
_cell_volume   691.19157915
_cell_formula_units_Z   2
loop_
 _symmetry_equiv_pos_site_id
 _symmetry_equiv_pos_as_xyz
  1  'x, y, z'
loop_
 _atom_site_type_symbol
 _atom_site_label
 _atom_site_symmetry_multiplicity
 _atom_site_fract_x
 _atom_site_fract_y
 _atom_site_fract_z
 _atom_site_occupancy
  Rb  Rb0  1  0.44252005  0.88504010  0.25000000  1
  Rb  Rb1  1  0.55747995  0.11495990  0.75000000  1
  Dy  Dy2  1  0.30891507  0.61783014  0.90542723  1
  Dy  Dy3  1  0.69108493  0.38216986  0.09457277  1
  Dy  Dy4  1  0.30891507  0.61783014  0.59457277  1
  Dy  Dy5  1  0.69108493  0.38216986  0.40542723  1
  Ag  Ag6  1  0.16376417  0.32752835  0.25000000  1
  Ag  Ag7  1  0.83623583  0.67247165  0.75000000  1
  Ag  Ag8  1  0.91576981  0.83153962  0.46808109  1
  Ag  Ag9  1  0.08423019  0.16846038  0.53191891  1
  Ag  Ag10  1  0.91576981  0.83153962  0.03191891  1
  Ag  Ag11  1  0.08423019  0.16846038  0.96808109  1
  Te  Te12  1  0.93695797  0.87391594  0.87867617  1
  Te  Te13  1  0.06304203  0.12608406  0.12132383  1
  Te  Te14  1  0.93695797  0.87391594  0.62132383  1
  Te  Te15  1  0.06304203  0.12608406  0.37867617  1
  Te  Te16  1  0.67679481  0.35358963  0.92796537  1
  Te  Te17  1  0.32320519  0.64641037  0.07203463  1
  Te  Te18  1  0.67679481  0.35358963  0.57203463  1
  Te  Te19  1  0.32320519  0.64641037  0.42796537  1
  Te  Te20  1  0.76070263  0.52140525  0.25000000  1
  Te  Te21  1  0.23929737  0.47859475  0.75000000  1
