# generated using pymatgen
data_Ce5Pb3
_symmetry_space_group_name_H-M   'P 1'
_cell_length_a   6.49840109
_cell_length_b   9.48506410
_cell_length_c   9.49462049
_cell_angle_alpha   119.96671167
_cell_angle_beta   90.00000000
_cell_angle_gamma   90.00000000
_symmetry_Int_Tables_number   1
_chemical_formula_structural   Ce5Pb3
_chemical_formula_sum   'Ce10 Pb6'
_cell_volume   506.99141479
_cell_formula_units_Z   2
loop_
 _symmetry_equiv_pos_site_id
 _symmetry_equiv_pos_as_xyz
  1  'x, y, z'
loop_
 _atom_site_type_symbol
 _atom_site_label
 _atom_site_symmetry_multiplicity
 _atom_site_fract_x
 _atom_site_fract_y
 _atom_site_fract_z
 _atom_site_occupancy
  Ce  Ce0  1  0.50001025  0.33323438  0.66650607  1
  Ce  Ce1  1  0.50001025  0.66672831  0.33349393  1
  Ce  Ce2  1  0.00001025  0.66676562  0.33349393  1
  Ce  Ce3  1  0.00001025  0.33327169  0.66650607  1
  Ce  Ce4  1  0.75002120  0.25395450  0.00000000  1
  Ce  Ce5  1  0.74996956  0.74594098  0.74576909  1
  Ce  Ce6  1  0.74996956  0.00017189  0.25423091  1
  Ce  Ce7  1  0.25002120  0.74604550  1.00000000  1
  Ce  Ce8  1  0.24996956  0.25405902  0.25423091  1
  Ce  Ce9  1  0.24996956  0.99982811  0.74576909  1
  Pb  Pb10  1  0.75000312  0.61260417  1.00000000  1
  Pb  Pb11  1  0.75000802  0.38771656  0.38762950  1
  Pb  Pb12  1  0.75000802  0.00008706  0.61237050  1
  Pb  Pb13  1  0.25000312  0.38739583  0.00000000  1
  Pb  Pb14  1  0.25000802  0.61228344  0.61237050  1
  Pb  Pb15  1  0.25000802  0.99991294  0.38762950  1
