# generated using pymatgen
data_Ba3Zn3Te(PO7)2
_symmetry_space_group_name_H-M   'P 1'
_cell_length_a   5.35532071
_cell_length_b   8.61338479
_cell_length_c   8.61337562
_cell_angle_alpha   119.99993926
_cell_angle_beta   90.00003525
_cell_angle_gamma   89.99942814
_symmetry_Int_Tables_number   1
_chemical_formula_structural   Ba3Zn3Te(PO7)2
_chemical_formula_sum   'Ba3 Zn3 Te1 P2 O14'
_cell_volume   344.08331784
_cell_formula_units_Z   1
loop_
 _symmetry_equiv_pos_site_id
 _symmetry_equiv_pos_as_xyz
  1  'x, y, z'
loop_
 _atom_site_type_symbol
 _atom_site_label
 _atom_site_symmetry_multiplicity
 _atom_site_fract_x
 _atom_site_fract_y
 _atom_site_fract_z
 _atom_site_occupancy
  Ba  Ba0  1  -0.00000110  -0.00000034  0.43604308  1
  Ba  Ba1  1  0.00000081  0.56395700  0.56395749  1
  Ba  Ba2  1  0.00000097  0.43604132  -0.00000010  1
  Zn  Zn3  1  0.50000065  0.23501436  0.23501843  1
  Zn  Zn4  1  0.49999958  0.76498544  0.00000370  1
  Zn  Zn5  1  0.49999997  -0.00000039  0.76497767  1
  Te  Te6  1  -0.00000001  -0.00000010  0.00000103  1
  P  P7  1  0.53495189  0.33336122  0.66667868  1
  P  P8  1  0.46504898  0.66663816  0.33331759  1
  O  O9  1  0.24639021  0.33338323  0.66669114  1
  O  O10  1  0.75360914  0.66661716  0.33330849  1
  O  O11  1  0.79267307  0.21654115  0.09711015  1
  O  O12  1  0.79267380  0.90289095  0.11943516  1
  O  O13  1  0.79267272  0.88057044  0.78345547  1
  O  O14  1  0.20732700  0.78345946  0.88056940  1
  O  O15  1  0.20732624  0.11943041  0.90288503  1
  O  O16  1  0.20732647  0.09711020  0.21654544  1
  O  O17  1  0.64527348  0.29363840  0.48219027  1
  O  O18  1  0.64529581  0.51782805  0.81145180  1
  O  O19  1  0.64526253  0.18856307  0.70637386  1
  O  O20  1  0.35472615  0.70636096  0.18855076  1
  O  O21  1  0.35473674  0.81143696  0.51781135  1
  O  O22  1  0.35470490  0.48217289  0.29362409  1
