# generated using pymatgen
data_Sr2HoCu2(BiO4)2
_symmetry_space_group_name_H-M   'P 1'
_cell_length_a   3.77794008
_cell_length_b   3.77794008
_cell_length_c   15.54074555
_cell_angle_alpha   96.98153777
_cell_angle_beta   96.98153777
_cell_angle_gamma   90.00000000
_symmetry_Int_Tables_number   1
_chemical_formula_structural   Sr2HoCu2(BiO4)2
_chemical_formula_sum   'Sr2 Ho1 Cu2 Bi2 O8'
_cell_volume   218.50877559
_cell_formula_units_Z   1
loop_
 _symmetry_equiv_pos_site_id
 _symmetry_equiv_pos_as_xyz
  1  'x, y, z'
loop_
 _atom_site_type_symbol
 _atom_site_label
 _atom_site_symmetry_multiplicity
 _atom_site_fract_x
 _atom_site_fract_y
 _atom_site_fract_z
 _atom_site_occupancy
  Sr  Sr0  1  0.11484768  0.11484768  0.22969535  1
  Sr  Sr1  1  0.88515232  0.88515232  0.77030465  1
  Ho  Ho2  1  0.00000000  0.00000000  0.00000000  1
  Cu  Cu3  1  0.44885440  0.44885440  0.89770881  1
  Cu  Cu4  1  0.55114560  0.55114560  0.10229119  1
  Bi  Bi5  1  0.29549533  0.29549533  0.59099065  1
  Bi  Bi6  1  0.70450467  0.70450467  0.40900935  1
  O  O7  1  0.04802757  0.54802757  0.09605514  1
  O  O8  1  0.95197243  0.45197243  0.90394486  1
  O  O9  1  0.54802757  0.04802757  0.09605514  1
  O  O10  1  0.45197243  0.95197243  0.90394486  1
  O  O11  1  0.19952791  0.19952791  0.39905582  1
  O  O12  1  0.80047209  0.80047209  0.60094418  1
  O  O13  1  0.36501252  0.36501252  0.73002504  1
  O  O14  1  0.63498748  0.63498748  0.26997496  1
