# generated using pymatgen
data_HCNO
_symmetry_space_group_name_H-M   'P 1'
_cell_length_a   5.58669252
_cell_length_b   5.58669252
_cell_length_c   9.84661708
_cell_angle_alpha   82.67797817
_cell_angle_beta   82.67797817
_cell_angle_gamma   76.40672830
_symmetry_Int_Tables_number   1
_chemical_formula_structural   HCNO
_chemical_formula_sum   'H6 C6 N6 O6'
_cell_volume   294.76077403
_cell_formula_units_Z   6
loop_
 _symmetry_equiv_pos_site_id
 _symmetry_equiv_pos_as_xyz
  1  'x, y, z'
loop_
 _atom_site_type_symbol
 _atom_site_label
 _atom_site_symmetry_multiplicity
 _atom_site_fract_x
 _atom_site_fract_y
 _atom_site_fract_z
 _atom_site_occupancy
  H  H0  1  0.55005823  0.78485174  0.07563871  1
  H  H1  1  0.21514826  0.44994177  0.42436129  1
  H  H2  1  0.44994177  0.21514826  0.92436129  1
  H  H3  1  0.78485174  0.55005823  0.57563871  1
  H  H4  1  0.86860684  0.13139316  0.25000000  1
  H  H5  1  0.13139316  0.86860684  0.75000000  1
  C  C6  1  0.41830255  0.58169745  0.25000000  1
  C  C7  1  0.58169745  0.41830255  0.75000000  1
  C  C8  1  0.01218636  0.79049969  0.35311736  1
  C  C9  1  0.20950031  0.98781364  0.14688264  1
  C  C10  1  0.98781364  0.20950031  0.64688264  1
  C  C11  1  0.79049969  0.01218636  0.85311736  1
  N  N12  1  0.01774255  0.98225745  0.25000000  1
  N  N13  1  0.98225745  0.01774255  0.75000000  1
  N  N14  1  0.40297504  0.78261998  0.15143713  1
  N  N15  1  0.21738002  0.59702496  0.34856287  1
  N  N16  1  0.59702496  0.21738002  0.84856287  1
  N  N17  1  0.78261998  0.40297504  0.65143713  1
  O  O18  1  0.59670432  0.40329568  0.25000000  1
  O  O19  1  0.40329568  0.59670432  0.75000000  1
  O  O20  1  0.79278970  0.83534890  0.94274978  1
  O  O21  1  0.16465110  0.20721030  0.55725022  1
  O  O22  1  0.20721030  0.16465110  0.05725022  1
  O  O23  1  0.83534890  0.79278970  0.44274978  1
