# generated using pymatgen
data_NaGaCl4
_symmetry_space_group_name_H-M   'P 1'
_cell_length_a   6.33805165
_cell_length_b   10.07279777
_cell_length_c   10.51048767
_cell_angle_alpha   90.00000000
_cell_angle_beta   90.00000000
_cell_angle_gamma   90.00000000
_symmetry_Int_Tables_number   1
_chemical_formula_structural   NaGaCl4
_chemical_formula_sum   'Na4 Ga4 Cl16'
_cell_volume   671.00963444
_cell_formula_units_Z   4
loop_
 _symmetry_equiv_pos_site_id
 _symmetry_equiv_pos_as_xyz
  1  'x, y, z'
loop_
 _atom_site_type_symbol
 _atom_site_label
 _atom_site_symmetry_multiplicity
 _atom_site_fract_x
 _atom_site_fract_y
 _atom_site_fract_z
 _atom_site_occupancy
  Na  Na0  1  0.94079563  0.96230372  0.37173288  1
  Na  Na1  1  0.55920437  0.03769628  0.87173288  1
  Na  Na2  1  0.44079563  0.53769628  0.62826712  1
  Na  Na3  1  0.05920437  0.46230372  0.12826712  1
  Ga  Ga4  1  0.03675925  0.76428034  0.78757110  1
  Ga  Ga5  1  0.46324075  0.23571966  0.28757110  1
  Ga  Ga6  1  0.53675925  0.73571966  0.21242890  1
  Ga  Ga7  1  0.96324075  0.26428034  0.71242890  1
  Cl  Cl8  1  0.17136153  0.77152015  0.59354279  1
  Cl  Cl9  1  0.32863847  0.22847985  0.09354279  1
  Cl  Cl10  1  0.67136153  0.72847985  0.40645721  1
  Cl  Cl11  1  0.82863847  0.27152015  0.90645721  1
  Cl  Cl12  1  0.13598854  0.93765145  0.89999667  1
  Cl  Cl13  1  0.36401146  0.06234855  0.39999667  1
  Cl  Cl14  1  0.63598854  0.56234855  0.10000333  1
  Cl  Cl15  1  0.86401146  0.43765145  0.60000333  1
  Cl  Cl16  1  0.68890422  0.75863140  0.78346603  1
  Cl  Cl17  1  0.81109578  0.24136860  0.28346603  1
  Cl  Cl18  1  0.18890422  0.74136860  0.21653397  1
  Cl  Cl19  1  0.31109578  0.25863140  0.71653397  1
  Cl  Cl20  1  0.17374855  0.58213106  0.87248037  1
  Cl  Cl21  1  0.32625145  0.41786894  0.37248037  1
  Cl  Cl22  1  0.67374855  0.91786894  0.12751963  1
  Cl  Cl23  1  0.82625145  0.08213106  0.62751963  1
