# generated using pymatgen
data_AgAs(SeF2)3
_symmetry_space_group_name_H-M   'P 1'
_cell_length_a   5.44222796
_cell_length_b   9.30593575
_cell_length_c   9.30593575
_cell_angle_alpha   118.70510600
_cell_angle_beta   91.33431016
_cell_angle_gamma   91.33431016
_symmetry_Int_Tables_number   1
_chemical_formula_structural   AgAs(SeF2)3
_chemical_formula_sum   'Ag2 As2 Se6 F12'
_cell_volume   412.94670270
_cell_formula_units_Z   2
loop_
 _symmetry_equiv_pos_site_id
 _symmetry_equiv_pos_as_xyz
  1  'x, y, z'
loop_
 _atom_site_type_symbol
 _atom_site_label
 _atom_site_symmetry_multiplicity
 _atom_site_fract_x
 _atom_site_fract_y
 _atom_site_fract_z
 _atom_site_occupancy
  Ag  Ag0  1  0.00000000  0.50000000  0.50000000  1
  Ag  Ag1  1  0.50000000  0.00000000  0.00000000  1
  As  As2  1  0.00000000  0.82582433  0.17417567  1
  As  As3  1  0.00000000  0.17417567  0.82582433  1
  Se  Se4  1  0.38532291  0.27768695  0.27768695  1
  Se  Se5  1  0.61467709  0.72231305  0.72231305  1
  Se  Se6  1  0.60156841  0.27889811  0.50646973  1
  Se  Se7  1  0.60156841  0.50646973  0.27889811  1
  Se  Se8  1  0.39843159  0.72110189  0.49353027  1
  Se  Se9  1  0.39843159  0.49353027  0.72110189  1
  F  F10  1  0.88373600  0.01793806  0.20537651  1
  F  F11  1  0.88373600  0.20537651  0.01793806  1
  F  F12  1  0.11626400  0.98206194  0.79462349  1
  F  F13  1  0.11626400  0.79462349  0.98206194  1
  F  F14  1  0.28116087  0.93090017  0.27194724  1
  F  F15  1  0.28116087  0.27194724  0.93090017  1
  F  F16  1  0.71883913  0.06909983  0.72805276  1
  F  F17  1  0.71883913  0.72805276  0.06909983  1
  F  F18  1  0.11809254  0.63884110  0.14289005  1
  F  F19  1  0.11809254  0.14289005  0.63884110  1
  F  F20  1  0.88190746  0.36115890  0.85710995  1
  F  F21  1  0.88190746  0.85710995  0.36115890  1
