# generated using pymatgen
data_RbSm2Br5
_symmetry_space_group_name_H-M   'P 1'
_cell_length_a   7.30849186
_cell_length_b   10.27254058
_cell_length_c   14.17125883
_cell_angle_alpha   85.45248430
_cell_angle_beta   90.00000000
_cell_angle_gamma   90.00000000
_symmetry_Int_Tables_number   1
_chemical_formula_structural   RbSm2Br5
_chemical_formula_sum   'Rb4 Sm8 Br20'
_cell_volume   1060.58313005
_cell_formula_units_Z   4
loop_
 _symmetry_equiv_pos_site_id
 _symmetry_equiv_pos_as_xyz
  1  'x, y, z'
loop_
 _atom_site_type_symbol
 _atom_site_label
 _atom_site_symmetry_multiplicity
 _atom_site_fract_x
 _atom_site_fract_y
 _atom_site_fract_z
 _atom_site_occupancy
  Rb  Rb0  1  0.91489184  0.50113203  0.66117202  1
  Rb  Rb1  1  0.08510816  0.49886797  0.33882798  1
  Rb  Rb2  1  0.41489184  0.49886797  0.83882798  1
  Rb  Rb3  1  0.58510816  0.50113203  0.16117202  1
  Sm  Sm4  1  0.88237611  0.00985949  0.65259021  1
  Sm  Sm5  1  0.11762389  0.99014051  0.34740979  1
  Sm  Sm6  1  0.38237611  0.99014051  0.84740979  1
  Sm  Sm7  1  0.61762389  0.00985949  0.15259021  1
  Sm  Sm8  1  0.97528054  0.82908587  0.01058940  1
  Sm  Sm9  1  0.02471946  0.17091413  0.98941060  1
  Sm  Sm10  1  0.47528054  0.17091413  0.48941060  1
  Sm  Sm11  1  0.52471946  0.82908587  0.51058940  1
  Br  Br12  1  0.84139976  0.41755536  0.91511741  1
  Br  Br13  1  0.15860024  0.58244464  0.08488259  1
  Br  Br14  1  0.34139976  0.58244464  0.58488259  1
  Br  Br15  1  0.65860024  0.41755536  0.41511741  1
  Br  Br16  1  0.14150613  0.76844651  0.83005775  1
  Br  Br17  1  0.85849387  0.23155349  0.16994225  1
  Br  Br18  1  0.64150613  0.23155349  0.66994225  1
  Br  Br19  1  0.35849387  0.76844651  0.33005775  1
  Br  Br20  1  0.66582134  0.77996547  0.71558728  1
  Br  Br21  1  0.33417866  0.22003453  0.28441272  1
  Br  Br22  1  0.16582134  0.22003453  0.78441272  1
  Br  Br23  1  0.83417866  0.77996547  0.21558728  1
  Br  Br24  1  0.55762612  0.80756531  0.00685519  1
  Br  Br25  1  0.44237388  0.19243469  0.99314481  1
  Br  Br26  1  0.05762612  0.19243469  0.49314481  1
  Br  Br27  1  0.94237388  0.80756531  0.50685519  1
  Br  Br28  1  0.29930376  0.97540769  0.63888915  1
  Br  Br29  1  0.70069624  0.02459231  0.36111085  1
  Br  Br30  1  0.79930376  0.02459231  0.86111085  1
  Br  Br31  1  0.20069624  0.97540769  0.13888915  1
