# generated using pymatgen
data_Na3TiF8
_symmetry_space_group_name_H-M   'P 1'
_cell_length_a   6.67643518
_cell_length_b   7.33037099
_cell_length_c   7.85214511
_cell_angle_alpha   117.82516534
_cell_angle_beta   90.00000000
_cell_angle_gamma   90.00000000
_symmetry_Int_Tables_number   1
_chemical_formula_structural   Na3TiF8
_chemical_formula_sum   'Na6 Ti2 F16'
_cell_volume   339.85673346
_cell_formula_units_Z   2
loop_
 _symmetry_equiv_pos_site_id
 _symmetry_equiv_pos_as_xyz
  1  'x, y, z'
loop_
 _atom_site_type_symbol
 _atom_site_label
 _atom_site_symmetry_multiplicity
 _atom_site_fract_x
 _atom_site_fract_y
 _atom_site_fract_z
 _atom_site_occupancy
  Na  Na0  1  0.75000000  0.68049630  0.36099260  1
  Na  Na1  1  0.25000000  0.31950370  0.63900740  1
  Na  Na2  1  0.75000000  0.64495785  0.80093419  1
  Na  Na3  1  0.25000000  0.84402366  0.19906581  1
  Na  Na4  1  0.25000000  0.35504215  0.19906581  1
  Na  Na5  1  0.75000000  0.15597634  0.80093419  1
  Ti  Ti6  1  0.75000000  0.14649096  0.29298192  1
  Ti  Ti7  1  0.25000000  0.85350904  0.70701808  1
  F  F8  1  0.75000000  0.23364229  0.10555434  1
  F  F9  1  0.25000000  0.12808796  0.89444566  1
  F  F10  1  0.25000000  0.76635771  0.89444566  1
  F  F11  1  0.75000000  0.87191204  0.10555434  1
  F  F12  1  0.75000000  0.43017985  0.48146001  1
  F  F13  1  0.25000000  0.94871984  0.51853999  1
  F  F14  1  0.25000000  0.56982015  0.51853999  1
  F  F15  1  0.75000000  0.05128016  0.48146001  1
  F  F16  1  0.46369613  0.15000586  0.30001172  1
  F  F17  1  0.53630387  0.84999414  0.69998828  1
  F  F18  1  0.03630387  0.15000586  0.30001172  1
  F  F19  1  0.96369613  0.84999414  0.69998828  1
  F  F20  1  0.52505783  0.42763981  0.85527961  1
  F  F21  1  0.47494217  0.57236019  0.14472039  1
  F  F22  1  0.97494217  0.42763981  0.85527961  1
  F  F23  1  0.02505783  0.57236019  0.14472039  1
