# generated using pymatgen
data_ErH3
_symmetry_space_group_name_H-M   'P 1'
_cell_length_a   6.24443652
_cell_length_b   6.24456209
_cell_length_c   6.53921906
_cell_angle_alpha   89.99956476
_cell_angle_beta   89.99978833
_cell_angle_gamma   120.00194943
_symmetry_Int_Tables_number   1
_chemical_formula_structural   ErH3
_chemical_formula_sum   'Er6 H18'
_cell_volume   220.82245308
_cell_formula_units_Z   6
loop_
 _symmetry_equiv_pos_site_id
 _symmetry_equiv_pos_as_xyz
  1  'x, y, z'
loop_
 _atom_site_type_symbol
 _atom_site_label
 _atom_site_symmetry_multiplicity
 _atom_site_fract_x
 _atom_site_fract_y
 _atom_site_fract_z
 _atom_site_occupancy
  Er  Er0  1  0.33748698  0.33744455  0.75002816  1
  Er  Er1  1  0.66256500  0.00001091  0.74997346  1
  Er  Er2  1  0.00001516  0.66257747  0.75000226  1
  Er  Er3  1  0.33743500  0.99998909  0.25002654  1
  Er  Er4  1  -0.00001516  0.33742253  0.24999774  1
  Er  Er5  1  0.66251302  0.66255545  0.24997184  1
  H  H6  1  0.67841236  0.64894639  0.59191995  1
  H  H7  1  0.35105251  0.02945913  0.59191691  1
  H  H8  1  0.97054165  0.32159890  0.59191790  1
  H  H9  1  0.67841529  0.02946692  0.09192060  1
  H  H10  1  0.97054783  0.64894161  0.09191750  1
  H  H11  1  0.35104817  0.32159626  0.09192021  1
  H  H12  1  0.32158764  0.35105361  0.40808005  1
  H  H13  1  0.64894749  0.97054087  0.40808309  1
  H  H14  1  0.02945835  0.67840110  0.40808210  1
  H  H15  1  0.32158471  0.97053308  0.90807940  1
  H  H16  1  0.02945217  0.35105839  0.90808250  1
  H  H17  1  0.64895183  0.67840374  0.90807979  1
  H  H18  1  0.33333600  0.66667384  0.68511219  1
  H  H19  1  0.33333413  0.66665876  0.18510661  1
  H  H20  1  0.66666400  0.33332616  0.31488781  1
  H  H21  1  0.66666587  0.33334124  0.81489339  1
  H  H22  1  0.00000236  0.99999496  0.74999827  1
  H  H23  1  -0.00000236  0.00000504  0.25000173  1
