# generated using pymatgen
data_Yb2CoTe2(SO7)2
_symmetry_space_group_name_H-M   'P 1'
_cell_length_a   5.33861931
_cell_length_b   7.92993374
_cell_length_c   8.23347035
_cell_angle_alpha   112.60836459
_cell_angle_beta   108.63010163
_cell_angle_gamma   94.34587637
_symmetry_Int_Tables_number   1
_chemical_formula_structural   Yb2CoTe2(SO7)2
_chemical_formula_sum   'Yb2 Co1 Te2 S2 O14'
_cell_volume   296.95577396
_cell_formula_units_Z   1
loop_
 _symmetry_equiv_pos_site_id
 _symmetry_equiv_pos_as_xyz
  1  'x, y, z'
loop_
 _atom_site_type_symbol
 _atom_site_label
 _atom_site_symmetry_multiplicity
 _atom_site_fract_x
 _atom_site_fract_y
 _atom_site_fract_z
 _atom_site_occupancy
  Yb  Yb0  1  0.15825612  0.23344030  0.51374323  1
  Yb  Yb1  1  0.84174388  0.76655970  0.48625677  1
  Co  Co2  1  0.50000000  0.50000000  -0.00000000  1
  Te  Te3  1  0.10787976  0.77033075  0.14195761  1
  Te  Te4  1  0.89212024  0.22966925  0.85804239  1
  S  S5  1  0.57381270  0.27151941  0.26072707  1
  S  S6  1  0.42618730  0.72848059  0.73927293  1
  O  O7  1  0.35434528  0.17347299  0.28804281  1
  O  O8  1  0.64565472  0.82652701  0.71195719  1
  O  O9  1  0.29508874  0.54237274  0.58008009  1
  O  O10  1  0.70491126  0.45762726  0.41991991  1
  O  O11  1  0.77897240  0.15969970  0.23771083  1
  O  O12  1  0.22102760  0.84030030  0.76228917  1
  O  O13  1  0.43891829  0.29025184  0.07626177  1
  O  O14  1  0.56108171  0.70974816  0.92373823  1
  O  O15  1  0.87169102  0.56317257  0.14188549  1
  O  O16  1  0.12830898  0.43682743  0.85811451  1
  O  O17  1  0.43457658  0.67823517  0.21293929  1
  O  O18  1  0.56542342  0.32176483  0.78706071  1
  O  O19  1  0.13461678  0.91071323  0.38849824  1
  O  O20  1  0.86538322  0.08928677  0.61150176  1
