# generated using pymatgen
data_Er2Mn12P7
_symmetry_space_group_name_H-M   'P 1'
_cell_length_a   3.58311685
_cell_length_b   9.28328521
_cell_length_c   9.28373624
_cell_angle_alpha   119.98536123
_cell_angle_beta   90.00000000
_cell_angle_gamma   90.00000000
_symmetry_Int_Tables_number   1
_chemical_formula_structural   Er2Mn12P7
_chemical_formula_sum   'Er2 Mn12 P7'
_cell_volume   267.47311383
_cell_formula_units_Z   1
loop_
 _symmetry_equiv_pos_site_id
 _symmetry_equiv_pos_as_xyz
  1  'x, y, z'
loop_
 _atom_site_type_symbol
 _atom_site_label
 _atom_site_symmetry_multiplicity
 _atom_site_fract_x
 _atom_site_fract_y
 _atom_site_fract_z
 _atom_site_occupancy
  Er  Er0  1  0.00000000  0.66667585  0.33344288  1
  Er  Er1  1  0.50000000  0.33319879  0.66659706  1
  Mn  Mn2  1  0.00000000  0.37707748  0.95043035  1
  Mn  Mn3  1  0.00000000  0.04959771  0.42651825  1
  Mn  Mn4  1  -0.00000000  0.57366783  0.62303959  1
  Mn  Mn5  1  0.00000000  0.88048481  0.72375396  1
  Mn  Mn6  1  0.00000000  0.27619177  0.15644149  1
  Mn  Mn7  1  -0.00000000  0.84331128  0.11981630  1
  Mn  Mn8  1  0.50000000  0.95460468  0.56320791  1
  Mn  Mn9  1  0.50000000  0.43649422  0.39112501  1
  Mn  Mn10  1  0.50000000  0.60866593  0.04553714  1
  Mn  Mn11  1  0.50000000  0.12459447  0.89655323  1
  Mn  Mn12  1  0.50000000  0.10316104  0.22749545  1
  Mn  Mn13  1  0.50000000  0.77214635  0.87562835  1
  P  P14  1  -0.00000000  0.12105125  0.70933214  1
  P  P15  1  0.00000000  0.29052429  0.41125463  1
  P  P16  1  0.00000000  0.58866305  0.87931541  1
  P  P17  1  0.50000000  0.71786469  0.59088485  1
  P  P18  1  0.50000000  0.40938799  0.12697681  1
  P  P19  1  0.50000000  0.87297851  0.28267114  1
  P  P20  1  0.00000000  0.99965803  -0.00002193  1
