# generated using pymatgen
data_Y2Si3Rh
_symmetry_space_group_name_H-M   'P 1'
_cell_length_a   7.94254955
_cell_length_b   8.18014088
_cell_length_c   8.18014088
_cell_angle_alpha   119.99442742
_cell_angle_beta   90.00000000
_cell_angle_gamma   90.00000000
_symmetry_Int_Tables_number   1
_chemical_formula_structural   Y2Si3Rh
_chemical_formula_sum   'Y8 Si12 Rh4'
_cell_volume   460.29527334
_cell_formula_units_Z   4
loop_
 _symmetry_equiv_pos_site_id
 _symmetry_equiv_pos_as_xyz
  1  'x, y, z'
loop_
 _atom_site_type_symbol
 _atom_site_label
 _atom_site_symmetry_multiplicity
 _atom_site_fract_x
 _atom_site_fract_y
 _atom_site_fract_z
 _atom_site_occupancy
  Y  Y0  1  0.75000000  0.00000229  0.99999771  1
  Y  Y1  1  0.25000000  0.99999771  0.00000229  1
  Y  Y2  1  0.75000000  0.49139262  0.98280372  1
  Y  Y3  1  0.75000000  0.49140946  0.50859054  1
  Y  Y4  1  0.75000000  0.01719628  0.50860738  1
  Y  Y5  1  0.25000000  0.50860738  0.01719628  1
  Y  Y6  1  0.25000000  0.50859054  0.49140946  1
  Y  Y7  1  0.25000000  0.98280372  0.49139262  1
  Si  Si8  1  0.50053169  0.83304129  0.66611529  1
  Si  Si9  1  0.50053947  0.83304881  0.16695119  1
  Si  Si10  1  0.50053169  0.33388471  0.16695871  1
  Si  Si11  1  0.49946831  0.16695871  0.33388471  1
  Si  Si12  1  0.49946053  0.16695119  0.83304881  1
  Si  Si13  1  0.49946831  0.66611529  0.83304129  1
  Si  Si14  1  0.00053169  0.16695871  0.33388471  1
  Si  Si15  1  0.00053947  0.16695119  0.83304881  1
  Si  Si16  1  0.00053169  0.66611529  0.83304129  1
  Si  Si17  1  0.99946831  0.83304129  0.66611529  1
  Si  Si18  1  0.99946053  0.83304881  0.16695119  1
  Si  Si19  1  0.99946831  0.33388471  0.16695871  1
  Rh  Rh20  1  0.53189219  0.66667543  0.33332457  1
  Rh  Rh21  1  0.46810781  0.33332457  0.66667543  1
  Rh  Rh22  1  0.03189219  0.33332457  0.66667543  1
  Rh  Rh23  1  0.96810781  0.66667543  0.33332457  1
