# generated using pymatgen
data_Li8Nd7Ge10
_symmetry_space_group_name_H-M   'P 1'
_cell_length_a   4.43765123
_cell_length_b   6.92669295
_cell_length_c   17.13085421
_cell_angle_alpha   101.66388921
_cell_angle_beta   90.00000000
_cell_angle_gamma   90.00000000
_symmetry_Int_Tables_number   1
_chemical_formula_structural   Li8Nd7Ge10
_chemical_formula_sum   'Li8 Nd7 Ge10'
_cell_volume   515.69893843
_cell_formula_units_Z   1
loop_
 _symmetry_equiv_pos_site_id
 _symmetry_equiv_pos_as_xyz
  1  'x, y, z'
loop_
 _atom_site_type_symbol
 _atom_site_label
 _atom_site_symmetry_multiplicity
 _atom_site_fract_x
 _atom_site_fract_y
 _atom_site_fract_z
 _atom_site_occupancy
  Li  Li0  1  0.50000000  0.11637750  0.85108145  1
  Li  Li1  1  0.50000000  0.88362250  0.14891855  1
  Li  Li2  1  0.50000000  0.26529605  0.14891855  1
  Li  Li3  1  0.50000000  0.73470395  0.85108145  1
  Li  Li4  1  -0.00000000  0.16911165  0.71288225  1
  Li  Li5  1  0.00000000  0.83088835  0.28711775  1
  Li  Li6  1  -0.00000000  0.45622940  0.28711775  1
  Li  Li7  1  0.00000000  0.54377060  0.71288225  1
  Nd  Nd8  1  0.50000000  0.83913025  0.67826051  1
  Nd  Nd9  1  0.50000000  0.16086975  0.32173949  1
  Nd  Nd10  1  0.50000000  0.72092578  0.44185157  1
  Nd  Nd11  1  0.50000000  0.27907422  0.55814843  1
  Nd  Nd12  1  -0.00000000  0.55739929  0.11479857  1
  Nd  Nd13  1  0.00000000  0.44260071  0.88520143  1
  Nd  Nd14  1  0.00000000  0.00000000  -0.00000000  1
  Ge  Ge15  1  -0.00000000  0.96712609  0.56928108  1
  Ge  Ge16  1  -0.00000000  0.03287391  0.43071892  1
  Ge  Ge17  1  0.00000000  0.39784501  0.43071892  1
  Ge  Ge18  1  0.00000000  0.60215499  0.56928108  1
  Ge  Ge19  1  0.50000000  0.62668965  0.25337930  1
  Ge  Ge20  1  0.50000000  0.37331035  0.74662070  1
  Ge  Ge21  1  0.00000000  0.90601565  0.81203129  1
  Ge  Ge22  1  -0.00000000  0.09398435  0.18796871  1
  Ge  Ge23  1  0.50000000  0.31566264  0.00000000  1
  Ge  Ge24  1  0.50000000  0.68433736  -0.00000000  1
