# generated using pymatgen
data_Dy2Ni12As7
_symmetry_space_group_name_H-M   'P 1'
_cell_length_a   3.83173459
_cell_length_b   9.36323137
_cell_length_c   9.36106097
_cell_angle_alpha   119.97534501
_cell_angle_beta   90.00000000
_cell_angle_gamma   90.00000000
_symmetry_Int_Tables_number   1
_chemical_formula_structural   Dy2Ni12As7
_chemical_formula_sum   'Dy2 Ni12 As7'
_cell_volume   290.92746523
_cell_formula_units_Z   1
loop_
 _symmetry_equiv_pos_site_id
 _symmetry_equiv_pos_as_xyz
  1  'x, y, z'
loop_
 _atom_site_type_symbol
 _atom_site_label
 _atom_site_symmetry_multiplicity
 _atom_site_fract_x
 _atom_site_fract_y
 _atom_site_fract_z
 _atom_site_occupancy
  Dy  Dy0  1  0.00000000  0.66638770  0.33309168  1
  Dy  Dy1  1  0.50000000  0.33360030  0.66689984  1
  Ni  Ni2  1  -0.00000000  0.38091811  0.94325392  1
  Ni  Ni3  1  0.00000000  0.05679967  0.43788869  1
  Ni  Ni4  1  0.00000000  0.56197645  0.61875399  1
  Ni  Ni5  1  -0.00000000  0.87243367  0.72051384  1
  Ni  Ni6  1  0.00000000  0.27939805  0.15200915  1
  Ni  Ni7  1  0.00000000  0.84821045  0.12760279  1
  Ni  Ni8  1  0.50000000  0.95231668  0.57393511  1
  Ni  Ni9  1  0.50000000  0.42620705  0.37860700  1
  Ni  Ni10  1  0.50000000  0.62178523  0.04759284  1
  Ni  Ni11  1  0.50000000  0.11567051  0.90455442  1
  Ni  Ni12  1  0.50000000  0.09542706  0.21100829  1
  Ni  Ni13  1  0.50000000  0.78910344  0.88444935  1
  As  As14  1  0.00000000  0.11719650  0.71256749  1
  As  As15  1  0.00000000  0.28729918  0.40464492  1
  As  As16  1  0.00000000  0.59531472  0.88282193  1
  As  As17  1  0.50000000  0.70323080  0.59324064  1
  As  As18  1  0.50000000  0.40686573  0.10987750  1
  As  As19  1  0.50000000  0.88985421  0.29673623  1
  As  As20  1  0.00000000  0.00000450  -0.00004961  1
