# generated using pymatgen
data_K2H3CO4F
_symmetry_space_group_name_H-M   'P 1'
_cell_length_a   5.42467090
_cell_length_b   7.38765267
_cell_length_c   7.56309862
_cell_angle_alpha   90.00000000
_cell_angle_beta   104.49659300
_cell_angle_gamma   90.00000000
_symmetry_Int_Tables_number   1
_chemical_formula_structural   K2H3CO4F
_chemical_formula_sum   'K4 H6 C2 O8 F2'
_cell_volume   293.44579963
_cell_formula_units_Z   2
loop_
 _symmetry_equiv_pos_site_id
 _symmetry_equiv_pos_as_xyz
  1  'x, y, z'
loop_
 _atom_site_type_symbol
 _atom_site_label
 _atom_site_symmetry_multiplicity
 _atom_site_fract_x
 _atom_site_fract_y
 _atom_site_fract_z
 _atom_site_occupancy
  K  K0  1  0.78693944  0.99747605  0.23285764  1
  K  K1  1  0.21306056  0.49747605  0.76714236  1
  K  K2  1  0.21306056  0.00252395  0.76714236  1
  K  K3  1  0.78693944  0.50252395  0.23285764  1
  H  H4  1  0.28073420  0.25000000  0.35568606  1
  H  H5  1  0.71926580  0.75000000  0.64431394  1
  H  H6  1  0.28649093  0.25000000  0.14721353  1
  H  H7  1  0.71350907  0.75000000  0.85278647  1
  H  H8  1  0.68907933  0.25000000  0.88459707  1
  H  H9  1  0.31092067  0.75000000  0.11540293  1
  C  C10  1  0.69038403  0.25000000  0.62337355  1
  C  C11  1  0.30961597  0.75000000  0.37662645  1
  O  O12  1  0.16928201  0.25000000  0.22822637  1
  O  O13  1  0.83071799  0.75000000  0.77177363  1
  O  O14  1  0.44848512  0.25000000  0.58373450  1
  O  O15  1  0.55151488  0.75000000  0.41626550  1
  O  O16  1  0.83431047  0.25000000  0.51495333  1
  O  O17  1  0.16568953  0.75000000  0.48504667  1
  O  O18  1  0.81728351  0.25000000  0.80627763  1
  O  O19  1  0.18271649  0.75000000  0.19372237  1
  F  F20  1  0.49493925  0.75000000  0.99023083  1
  F  F21  1  0.50506075  0.25000000  0.00976917  1
