# generated using pymatgen
data_Tl4CuTeO6
_symmetry_space_group_name_H-M   'P 1'
_cell_length_a   6.04776331
_cell_length_b   8.93121947
_cell_length_c   9.43939553
_cell_angle_alpha   67.36970515
_cell_angle_beta   73.23763048
_cell_angle_gamma   80.61260685
_symmetry_Int_Tables_number   1
_chemical_formula_structural   Tl4CuTeO6
_chemical_formula_sum   'Tl8 Cu2 Te2 O12'
_cell_volume   449.82190373
_cell_formula_units_Z   2
loop_
 _symmetry_equiv_pos_site_id
 _symmetry_equiv_pos_as_xyz
  1  'x, y, z'
loop_
 _atom_site_type_symbol
 _atom_site_label
 _atom_site_symmetry_multiplicity
 _atom_site_fract_x
 _atom_site_fract_y
 _atom_site_fract_z
 _atom_site_occupancy
  Tl  Tl0  1  0.92043562  0.11772292  0.80135957  1
  Tl  Tl1  1  0.07956438  0.88227708  0.19864043  1
  Tl  Tl2  1  0.86280574  0.26174094  0.33152694  1
  Tl  Tl3  1  0.13719426  0.73825906  0.66847306  1
  Tl  Tl4  1  0.26765539  0.39278188  0.47612092  1
  Tl  Tl5  1  0.73234461  0.60721812  0.52387908  1
  Tl  Tl6  1  0.51435207  0.92882659  0.77120649  1
  Tl  Tl7  1  0.48564793  0.07117341  0.22879351  1
  Cu  Cu8  1  0.77258469  0.44884428  0.94191454  1
  Cu  Cu9  1  0.22741531  0.55115572  0.05808546  1
  Te  Te10  1  0.34059239  0.33477709  0.86658568  1
  Te  Te11  1  0.65940761  0.66522291  0.13341432  1
  O  O12  1  0.26518262  0.11489510  0.92092727  1
  O  O13  1  0.73481738  0.88510490  0.07907273  1
  O  O14  1  0.52870790  0.35403845  0.65651306  1
  O  O15  1  0.47129210  0.64596155  0.34348694  1
  O  O16  1  0.83648638  0.66605621  0.92061320  1
  O  O17  1  0.16351362  0.33394379  0.07938680  1
  O  O18  1  0.93460290  0.57208137  0.22278910  1
  O  O19  1  0.06539710  0.42791863  0.77721090  1
  O  O20  1  0.40644390  0.55720851  0.83920938  1
  O  O21  1  0.59355610  0.44279149  0.16079062  1
  O  O22  1  0.62737258  0.26079777  0.95110296  1
  O  O23  1  0.37262742  0.73920223  0.04889704  1
