# generated using pymatgen
data_Rb2Cd5As4
_symmetry_space_group_name_H-M   'P 1'
_cell_length_a   7.43205645
_cell_length_b   7.43205645
_cell_length_c   12.74813253
_cell_angle_alpha   90.00000000
_cell_angle_beta   90.00000000
_cell_angle_gamma   116.85062709
_symmetry_Int_Tables_number   1
_chemical_formula_structural   Rb2Cd5As4
_chemical_formula_sum   'Rb4 Cd10 As8'
_cell_volume   628.23263604
_cell_formula_units_Z   2
loop_
 _symmetry_equiv_pos_site_id
 _symmetry_equiv_pos_as_xyz
  1  'x, y, z'
loop_
 _atom_site_type_symbol
 _atom_site_label
 _atom_site_symmetry_multiplicity
 _atom_site_fract_x
 _atom_site_fract_y
 _atom_site_fract_z
 _atom_site_occupancy
  Rb  Rb0  1  0.79134536  0.20865464  0.50000000  1
  Rb  Rb1  1  0.79134536  0.20865464  -0.00000000  1
  Rb  Rb2  1  0.20865464  0.79134536  0.50000000  1
  Rb  Rb3  1  0.20865464  0.79134536  -0.00000000  1
  Cd  Cd4  1  0.23434844  0.52746084  0.25000000  1
  Cd  Cd5  1  0.47253916  0.76565156  0.75000000  1
  Cd  Cd6  1  0.76565156  0.47253916  0.75000000  1
  Cd  Cd7  1  0.52746084  0.23434844  0.25000000  1
  Cd  Cd8  1  0.65027304  0.65027304  0.39404605  1
  Cd  Cd9  1  0.34972696  0.34972696  0.60595395  1
  Cd  Cd10  1  0.65027304  0.65027304  0.10595395  1
  Cd  Cd11  1  0.34972696  0.34972696  0.89404605  1
  Cd  Cd12  1  0.00694427  0.00694427  0.25000000  1
  Cd  Cd13  1  0.99305573  0.99305573  0.75000000  1
  As  As14  1  0.90877958  0.59713910  0.25000000  1
  As  As15  1  0.40286090  0.09122042  0.75000000  1
  As  As16  1  0.09122042  0.40286090  0.75000000  1
  As  As17  1  0.59713910  0.90877958  0.25000000  1
  As  As18  1  0.27581975  0.27581975  0.40019861  1
  As  As19  1  0.72418025  0.72418025  0.59980139  1
  As  As20  1  0.27581975  0.27581975  0.09980139  1
  As  As21  1  0.72418025  0.72418025  0.90019861  1
