# generated using pymatgen
data_La2Si3Rh
_symmetry_space_group_name_H-M   'P 1'
_cell_length_a   8.33680863
_cell_length_b   8.33680863
_cell_length_c   8.60907124
_cell_angle_alpha   90.00000000
_cell_angle_beta   90.00000000
_cell_angle_gamma   119.99800846
_symmetry_Int_Tables_number   1
_chemical_formula_structural   La2Si3Rh
_chemical_formula_sum   'La8 Si12 Rh4'
_cell_volume   518.19749929
_cell_formula_units_Z   4
loop_
 _symmetry_equiv_pos_site_id
 _symmetry_equiv_pos_as_xyz
  1  'x, y, z'
loop_
 _atom_site_type_symbol
 _atom_site_label
 _atom_site_symmetry_multiplicity
 _atom_site_fract_x
 _atom_site_fract_y
 _atom_site_fract_z
 _atom_site_occupancy
  La  La0  1  -0.00000638  0.00000638  0.75000000  1
  La  La1  1  0.00000638  -0.00000638  0.25000000  1
  La  La2  1  0.49872050  0.99739498  0.75000000  1
  La  La3  1  0.49867384  0.50132616  0.75000000  1
  La  La4  1  0.00260502  0.50127950  0.75000000  1
  La  La5  1  0.50127950  0.00260502  0.25000000  1
  La  La6  1  0.50132616  0.49867384  0.25000000  1
  La  La7  1  0.99739498  0.49872050  0.25000000  1
  Si  Si8  1  0.83411453  0.66821775  0.49871980  1
  Si  Si9  1  0.83406947  0.16593053  0.49870501  1
  Si  Si10  1  0.33178225  0.16588547  0.49871980  1
  Si  Si11  1  0.16588547  0.33178225  0.50128020  1
  Si  Si12  1  0.16593053  0.83406947  0.50129499  1
  Si  Si13  1  0.66821775  0.83411453  0.50128020  1
  Si  Si14  1  0.16588547  0.33178225  0.99871980  1
  Si  Si15  1  0.16593053  0.83406947  0.99870501  1
  Si  Si16  1  0.66821775  0.83411453  0.99871980  1
  Si  Si17  1  0.83411453  0.66821775  0.00128020  1
  Si  Si18  1  0.83406947  0.16593053  0.00129499  1
  Si  Si19  1  0.33178225  0.16588547  0.00128020  1
  Rh  Rh20  1  0.66665141  0.33334859  0.50514690  1
  Rh  Rh21  1  0.33334859  0.66665141  0.49485310  1
  Rh  Rh22  1  0.33334859  0.66665141  0.00514690  1
  Rh  Rh23  1  0.66665141  0.33334859  0.99485310  1
