# generated using pymatgen
data_PuAsO4
_symmetry_space_group_name_H-M   'P 1'
_cell_length_a   6.72347247
_cell_length_b   7.02438526
_cell_length_c   7.21208059
_cell_angle_alpha   90.00000000
_cell_angle_beta   90.00000000
_cell_angle_gamma   105.65671264
_symmetry_Int_Tables_number   1
_chemical_formula_structural   PuAsO4
_chemical_formula_sum   'Pu4 As4 O16'
_cell_volume   327.97585151
_cell_formula_units_Z   4
loop_
 _symmetry_equiv_pos_site_id
 _symmetry_equiv_pos_as_xyz
  1  'x, y, z'
loop_
 _atom_site_type_symbol
 _atom_site_label
 _atom_site_symmetry_multiplicity
 _atom_site_fract_x
 _atom_site_fract_y
 _atom_site_fract_z
 _atom_site_occupancy
  Pu  Pu0  1  0.90295699  0.71457661  0.65625299  1
  Pu  Pu1  1  0.09704301  0.28542339  0.34374701  1
  Pu  Pu2  1  0.59704301  0.78542339  0.15625299  1
  Pu  Pu3  1  0.40295699  0.21457661  0.84374701  1
  As  As4  1  0.11049952  0.80373274  0.16427212  1
  As  As5  1  0.88950048  0.19626726  0.83572788  1
  As  As6  1  0.38950048  0.69626726  0.66427212  1
  As  As7  1  0.61049952  0.30373274  0.33572788  1
  O  O8  1  0.91898540  0.74916885  0.99597703  1
  O  O9  1  0.08101460  0.25083115  0.00402297  1
  O  O10  1  0.58101460  0.75083115  0.49597703  1
  O  O11  1  0.41898540  0.24916885  0.50402297  1
  O  O12  1  0.33371515  0.98338085  0.10682769  1
  O  O13  1  0.66628485  0.01661915  0.89317231  1
  O  O14  1  0.16628485  0.51661915  0.60682769  1
  O  O15  1  0.83371515  0.48338085  0.39317231  1
  O  O16  1  0.99205878  0.89425938  0.34405840  1
  O  O17  1  0.00794122  0.10574062  0.65594160  1
  O  O18  1  0.50794122  0.60574062  0.84405840  1
  O  O19  1  0.49205878  0.39425938  0.15594160  1
  O  O20  1  0.22700089  0.61917099  0.21740163  1
  O  O21  1  0.77299911  0.38082901  0.78259837  1
  O  O22  1  0.27299911  0.88082901  0.71740163  1
  O  O23  1  0.72700089  0.11917099  0.28259837  1
