# generated using pymatgen
data_BaBPd4
_symmetry_space_group_name_H-M   'P 1'
_cell_length_a   5.70780333
_cell_length_b   6.25780570
_cell_length_c   12.14817633
_cell_angle_alpha   90.00000000
_cell_angle_beta   90.00000000
_cell_angle_gamma   90.00000000
_symmetry_Int_Tables_number   1
_chemical_formula_structural   BaBPd4
_chemical_formula_sum   'Ba4 B4 Pd16'
_cell_volume   433.91250075
_cell_formula_units_Z   4
loop_
 _symmetry_equiv_pos_site_id
 _symmetry_equiv_pos_as_xyz
  1  'x, y, z'
loop_
 _atom_site_type_symbol
 _atom_site_label
 _atom_site_symmetry_multiplicity
 _atom_site_fract_x
 _atom_site_fract_y
 _atom_site_fract_z
 _atom_site_occupancy
  Ba  Ba0  1  0.75000000  0.31452934  0.16422922  1
  Ba  Ba1  1  0.75000000  0.81452934  0.33577078  1
  Ba  Ba2  1  0.25000000  0.68547066  0.83577078  1
  Ba  Ba3  1  0.25000000  0.18547066  0.66422922  1
  B  B4  1  0.75000000  0.40076709  0.55150503  1
  B  B5  1  0.75000000  0.90076709  0.94849497  1
  B  B6  1  0.25000000  0.59923291  0.44849497  1
  B  B7  1  0.25000000  0.09923291  0.05150503  1
  Pd  Pd8  1  0.75000000  0.38946099  0.73177873  1
  Pd  Pd9  1  0.75000000  0.88946099  0.76822127  1
  Pd  Pd10  1  0.25000000  0.61053901  0.26822127  1
  Pd  Pd11  1  0.25000000  0.11053901  0.23177873  1
  Pd  Pd12  1  0.75000000  0.06350736  0.55905817  1
  Pd  Pd13  1  0.75000000  0.56350736  0.94094183  1
  Pd  Pd14  1  0.25000000  0.93649264  0.44094183  1
  Pd  Pd15  1  0.25000000  0.43649264  0.05905817  1
  Pd  Pd16  1  0.99401364  0.16529333  0.91840428  1
  Pd  Pd17  1  0.50598636  0.66529333  0.58159572  1
  Pd  Pd18  1  0.49401364  0.83470667  0.08159572  1
  Pd  Pd19  1  0.00598636  0.33470667  0.41840428  1
  Pd  Pd20  1  0.00598636  0.83470667  0.08159572  1
  Pd  Pd21  1  0.49401364  0.33470667  0.41840428  1
  Pd  Pd22  1  0.50598636  0.16529333  0.91840428  1
  Pd  Pd23  1  0.99401364  0.66529333  0.58159572  1
