# generated using pymatgen
data_Zn2TeMoO7
_symmetry_space_group_name_H-M   'P 1'
_cell_length_a   5.24801157
_cell_length_b   7.35766110
_cell_length_c   8.57617881
_cell_angle_alpha   90.00000000
_cell_angle_beta   90.00000000
_cell_angle_gamma   99.52720005
_symmetry_Int_Tables_number   1
_chemical_formula_structural   Zn2TeMoO7
_chemical_formula_sum   'Zn4 Te2 Mo2 O14'
_cell_volume   326.58522428
_cell_formula_units_Z   2
loop_
 _symmetry_equiv_pos_site_id
 _symmetry_equiv_pos_as_xyz
  1  'x, y, z'
loop_
 _atom_site_type_symbol
 _atom_site_label
 _atom_site_symmetry_multiplicity
 _atom_site_fract_x
 _atom_site_fract_y
 _atom_site_fract_z
 _atom_site_occupancy
  Zn  Zn0  1  0.94722814  0.48758570  0.96148496  1
  Zn  Zn1  1  0.05277186  0.51241430  0.46148496  1
  Zn  Zn2  1  0.52299383  0.76111931  0.13980793  1
  Zn  Zn3  1  0.47700617  0.23888069  0.63980793  1
  Te  Te4  1  0.51494327  0.35534029  0.25124860  1
  Te  Te5  1  0.48505673  0.64465971  0.75124860  1
  Mo  Mo6  1  0.07802124  0.01565600  0.96911080  1
  Mo  Mo7  1  0.92197876  0.98434400  0.46911080  1
  O  O8  1  0.70608386  0.36682766  0.44205387  1
  O  O9  1  0.29391614  0.63317234  0.94205387  1
  O  O10  1  0.75245231  0.54619844  0.15057361  1
  O  O11  1  0.24754769  0.45380156  0.65057361  1
  O  O12  1  0.78925599  0.84225354  0.94517024  1
  O  O13  1  0.21074401  0.15774646  0.44517024  1
  O  O14  1  0.31191512  0.54394417  0.29148686  1
  O  O15  1  0.68808488  0.45605583  0.79148686  1
  O  O16  1  0.27867366  0.94894631  0.12090713  1
  O  O17  1  0.72132634  0.05105369  0.62090713  1
  O  O18  1  0.25779710  0.05162447  0.79146460  1
  O  O19  1  0.74220290  0.94837553  0.29146460  1
  O  O20  1  0.99431533  0.23364356  0.02705140  1
  O  O21  1  0.00568467  0.76635644  0.52705140  1
