# generated using pymatgen
data_Er3ReB7
_symmetry_space_group_name_H-M   'P 1'
_cell_length_a   3.51317395
_cell_length_b   8.03334997
_cell_length_c   9.28720755
_cell_angle_alpha   90.00000000
_cell_angle_beta   90.00000000
_cell_angle_gamma   102.63044781
_symmetry_Int_Tables_number   1
_chemical_formula_structural   Er3ReB7
_chemical_formula_sum   'Er6 Re2 B14'
_cell_volume   255.76588572
_cell_formula_units_Z   2
loop_
 _symmetry_equiv_pos_site_id
 _symmetry_equiv_pos_as_xyz
  1  'x, y, z'
loop_
 _atom_site_type_symbol
 _atom_site_label
 _atom_site_symmetry_multiplicity
 _atom_site_fract_x
 _atom_site_fract_y
 _atom_site_fract_z
 _atom_site_occupancy
  Er  Er0  1  0.10545369  0.21090739  0.44048351  1
  Er  Er1  1  0.89454631  0.78909261  0.55951649  1
  Er  Er2  1  0.10545369  0.21090739  0.05951649  1
  Er  Er3  1  0.89454631  0.78909261  0.94048351  1
  Er  Er4  1  0.75773899  0.51547799  0.25000000  1
  Er  Er5  1  0.24226101  0.48452201  0.75000000  1
  Re  Re6  1  0.94720908  0.89441816  0.25000000  1
  Re  Re7  1  0.05279092  0.10558184  0.75000000  1
  B  B8  1  0.27281682  0.54563365  0.46646354  1
  B  B9  1  0.72718318  0.45436635  0.53353646  1
  B  B10  1  0.27281682  0.54563365  0.03353646  1
  B  B11  1  0.72718318  0.45436635  0.96646354  1
  B  B12  1  0.36776769  0.73553538  0.15010500  1
  B  B13  1  0.63223231  0.26446462  0.84989500  1
  B  B14  1  0.36776769  0.73553538  0.34989500  1
  B  B15  1  0.63223231  0.26446462  0.65010500  1
  B  B16  1  0.47983031  0.95966063  0.09502761  1
  B  B17  1  0.52016969  0.04033937  0.90497239  1
  B  B18  1  0.47983031  0.95966063  0.40497239  1
  B  B19  1  0.52016969  0.04033937  0.59502761  1
  B  B20  1  0.54400517  0.08801033  0.25000000  1
  B  B21  1  0.45599483  0.91198967  0.75000000  1
