# generated using pymatgen
data_DyFeB4
_symmetry_space_group_name_H-M   'P 1'
_cell_length_a   3.37999105
_cell_length_b   5.88645850
_cell_length_c   11.38496870
_cell_angle_alpha   90.00000000
_cell_angle_beta   90.00000000
_cell_angle_gamma   90.00000000
_symmetry_Int_Tables_number   1
_chemical_formula_structural   DyFeB4
_chemical_formula_sum   'Dy4 Fe4 B16'
_cell_volume   226.51735292
_cell_formula_units_Z   4
loop_
 _symmetry_equiv_pos_site_id
 _symmetry_equiv_pos_as_xyz
  1  'x, y, z'
loop_
 _atom_site_type_symbol
 _atom_site_label
 _atom_site_symmetry_multiplicity
 _atom_site_fract_x
 _atom_site_fract_y
 _atom_site_fract_z
 _atom_site_occupancy
  Dy  Dy0  1  -0.00000000  0.62751730  0.34959745  1
  Dy  Dy1  1  -0.00000000  0.37248270  0.65040255  1
  Dy  Dy2  1  0.00000000  0.12751730  0.15040255  1
  Dy  Dy3  1  0.00000000  0.87248270  0.84959745  1
  Fe  Fe4  1  0.00000000  0.63415013  0.08841674  1
  Fe  Fe5  1  0.00000000  0.36584987  0.91158326  1
  Fe  Fe6  1  0.00000000  0.13415013  0.41158326  1
  Fe  Fe7  1  -0.00000000  0.86584987  0.58841674  1
  B  B8  1  0.50000000  0.78332068  0.18370752  1
  B  B9  1  0.50000000  0.21667932  0.81629248  1
  B  B10  1  0.50000000  0.28332068  0.31629248  1
  B  B11  1  0.50000000  0.71667932  0.68370752  1
  B  B12  1  0.50000000  0.86130525  0.03207179  1
  B  B13  1  0.50000000  0.13869475  0.96792821  1
  B  B14  1  0.50000000  0.36130525  0.46792821  1
  B  B15  1  0.50000000  0.63869475  0.53207179  1
  B  B16  1  0.50000000  0.88885993  0.45431755  1
  B  B17  1  0.50000000  0.11114007  0.54568245  1
  B  B18  1  0.50000000  0.38885993  0.04568245  1
  B  B19  1  0.50000000  0.61114007  0.95431755  1
  B  B20  1  0.50000000  0.97708298  0.31018338  1
  B  B21  1  0.50000000  0.02291702  0.68981662  1
  B  B22  1  0.50000000  0.47708298  0.18981662  1
  B  B23  1  0.50000000  0.52291702  0.81018338  1
