# generated using pymatgen
data_Sb2Te3(SeF4)3
_symmetry_space_group_name_H-M   'P 1'
_cell_length_a   8.94097980
_cell_length_b   12.63167235
_cell_length_c   16.21529654
_cell_angle_alpha   90.00000000
_cell_angle_beta   90.00000000
_cell_angle_gamma   90.00000000
_symmetry_Int_Tables_number   1
_chemical_formula_structural   Sb2Te3(SeF4)3
_chemical_formula_sum   'Sb8 Te12 Se12 F48'
_cell_volume   1831.34792661
_cell_formula_units_Z   4
loop_
 _symmetry_equiv_pos_site_id
 _symmetry_equiv_pos_as_xyz
  1  'x, y, z'
loop_
 _atom_site_type_symbol
 _atom_site_label
 _atom_site_symmetry_multiplicity
 _atom_site_fract_x
 _atom_site_fract_y
 _atom_site_fract_z
 _atom_site_occupancy
  Sb  Sb0  1  0.01956090  0.04743375  0.05467063  1
  Sb  Sb1  1  0.48043910  0.95256625  0.55467063  1
  Sb  Sb2  1  0.98043910  0.54743375  0.44532937  1
  Sb  Sb3  1  0.51956090  0.45256625  0.94532937  1
  Sb  Sb4  1  0.54259520  0.21668374  0.23204562  1
  Sb  Sb5  1  0.95740480  0.78331626  0.73204562  1
  Sb  Sb6  1  0.45740480  0.71668374  0.26795438  1
  Sb  Sb7  1  0.04259520  0.28331626  0.76795438  1
  Te  Te8  1  0.14710793  0.66510424  0.05411236  1
  Te  Te9  1  0.35289207  0.33489576  0.55411236  1
  Te  Te10  1  0.85289207  0.16510424  0.44588764  1
  Te  Te11  1  0.64710793  0.83489576  0.94588764  1
  Te  Te12  1  0.53664998  0.61153620  0.54593680  1
  Te  Te13  1  0.96335002  0.38846380  0.04593680  1
  Te  Te14  1  0.46335002  0.11153620  0.95406320  1
  Te  Te15  1  0.03664998  0.88846380  0.45406320  1
  Te  Te16  1  0.13399482  0.00568342  0.31250795  1
  Te  Te17  1  0.36600518  0.99431658  0.81250795  1
  Te  Te18  1  0.86600518  0.50568342  0.18749205  1
  Te  Te19  1  0.63399482  0.49431658  0.68749205  1
  Se  Se20  1  0.09459337  0.19696752  0.36919196  1
  Se  Se21  1  0.40540663  0.80303248  0.86919196  1
  Se  Se22  1  0.90540663  0.69696752  0.13080804  1
  Se  Se23  1  0.59459337  0.30303248  0.63080804  1
  Se  Se24  1  0.13101760  0.43465595  0.16746455  1
  Se  Se25  1  0.36898240  0.56534405  0.66746455  1
  Se  Se26  1  0.86898240  0.93465595  0.33253545  1
  Se  Se27  1  0.63101760  0.06534405  0.83253545  1
  Se  Se28  1  0.48479666  0.44703163  0.45065145  1
  Se  Se29  1  0.01520334  0.55296837  0.95065145  1
  Se  Se30  1  0.51520334  0.94703163  0.04934855  1
  Se  Se31  1  0.98479666  0.05296837  0.54934855  1
  F  F32  1  0.49257398  0.18739610  0.11858217  1
  F  F33  1  0.00742602  0.81260390  0.61858217  1
  F  F34  1  0.50742602  0.68739610  0.38141783  1
  F  F35  1  0.99257398  0.31260390  0.88141783  1
  F  F36  1  0.65188702  0.08737253  0.23751361  1
  F  F37  1  0.84811298  0.91262747  0.73751361  1
  F  F38  1  0.34811298  0.58737253  0.26248639  1
  F  F39  1  0.15188702  0.41262747  0.76248639  1
  F  F40  1  0.32450741  0.02636143  0.61349053  1
  F  F41  1  0.17549259  0.97363857  0.11349053  1
  F  F42  1  0.67549259  0.52636143  0.88650947  1
  F  F43  1  0.82450741  0.47363857  0.38650947  1
  F  F44  1  0.97163039  0.11614017  0.15705791  1
  F  F45  1  0.52836961  0.88385983  0.65705791  1
  F  F46  1  0.02836961  0.61614017  0.34294209  1
  F  F47  1  0.47163039  0.38385983  0.84294209  1
  F  F48  1  0.11451871  0.43134588  0.42226649  1
  F  F49  1  0.38548129  0.56865412  0.92226649  1
  F  F50  1  0.88548129  0.93134588  0.07773351  1
  F  F51  1  0.61451871  0.06865412  0.57773351  1
  F  F52  1  0.42759323  0.34415213  0.22746117  1
  F  F53  1  0.07240677  0.65584787  0.72746117  1
  F  F54  1  0.57240677  0.84415213  0.27253883  1
  F  F55  1  0.92759323  0.15584787  0.77253883  1
  F  F56  1  0.59095597  0.24490925  0.34584125  1
  F  F57  1  0.90904403  0.75509075  0.84584125  1
  F  F58  1  0.40904403  0.74490925  0.15415875  1
  F  F59  1  0.09095597  0.25509075  0.65415875  1
  F  F60  1  0.57944972  0.51913007  0.04652134  1
  F  F61  1  0.92055028  0.48086993  0.54652134  1
  F  F62  1  0.42055028  0.01913007  0.45347866  1
  F  F63  1  0.07944972  0.98086993  0.95347866  1
  F  F64  1  0.71906557  0.29350831  0.19789620  1
  F  F65  1  0.78093443  0.70649169  0.69789620  1
  F  F66  1  0.28093443  0.79350831  0.30210380  1
  F  F67  1  0.21906557  0.20649169  0.80210380  1
  F  F68  1  0.36242934  0.14159715  0.26627197  1
  F  F69  1  0.13757066  0.85840285  0.76627197  1
  F  F70  1  0.63757066  0.64159715  0.23372803  1
  F  F71  1  0.86242934  0.35840285  0.73372803  1
  F  F72  1  0.36090934  0.37761585  0.99967694  1
  F  F73  1  0.13909066  0.62238415  0.49967694  1
  F  F74  1  0.63909066  0.87761585  0.50032306  1
  F  F75  1  0.86090934  0.12238415  0.00032306  1
  F  F76  1  0.15656272  0.16236094  0.03087779  1
  F  F77  1  0.34343728  0.83763906  0.53087779  1
  F  F78  1  0.84343728  0.66236094  0.46912221  1
  F  F79  1  0.65656272  0.33763906  0.96912221  1
