# generated using pymatgen
data_NdBN2
_symmetry_space_group_name_H-M   'P 1'
_cell_length_a   7.01296935
_cell_length_b   7.39649389
_cell_length_c   7.39649369
_cell_angle_alpha   110.49766452
_cell_angle_beta   108.42417166
_cell_angle_gamma   108.42417121
_symmetry_Int_Tables_number   1
_chemical_formula_structural   NdBN2
_chemical_formula_sum   'Nd6 B6 N12'
_cell_volume   299.07584276
_cell_formula_units_Z   6
loop_
 _symmetry_equiv_pos_site_id
 _symmetry_equiv_pos_as_xyz
  1  'x, y, z'
loop_
 _atom_site_type_symbol
 _atom_site_label
 _atom_site_symmetry_multiplicity
 _atom_site_fract_x
 _atom_site_fract_y
 _atom_site_fract_z
 _atom_site_occupancy
  Nd  Nd0  1  0.24911457  0.54579907  0.45457075  1
  Nd  Nd1  1  0.79454382  0.54542925  0.09122832  1
  Nd  Nd2  1  0.70331550  0.90877168  0.45420093  1
  Nd  Nd3  1  0.74911457  0.45457075  0.54579907  1
  Nd  Nd4  1  0.20331550  0.45420093  0.90877168  1
  Nd  Nd5  1  0.29454382  0.09122832  0.54542925  1
  B  B6  1  0.86668342  0.12033923  0.23948781  1
  B  B7  1  0.62719562  0.76051219  0.88085143  1
  B  B8  1  0.74634419  0.11914857  0.87966077  1
  B  B9  1  0.36668342  0.23948781  0.12033923  1
  B  B10  1  0.24634419  0.87966077  0.11914857  1
  B  B11  1  0.12719562  0.88085143  0.76051219  1
  N  N12  1  0.86836997  0.24477190  0.12183957  1
  N  N13  1  0.74653040  0.87816043  0.12293233  1
  N  N14  1  0.62359807  0.87706767  0.75522810  1
  N  N15  1  0.36836997  0.12183957  0.24477190  1
  N  N16  1  0.12359807  0.75522810  0.87706767  1
  N  N17  1  0.24653040  0.12293233  0.87816043  1
  N  N18  1  0.50752265  0.51714019  0.75912331  1
  N  N19  1  0.74839934  0.24087669  0.75801688  1
  N  N20  1  0.99038246  0.24198312  0.48285981  1
  N  N21  1  0.00752265  0.75912331  0.51714019  1
  N  N22  1  0.49038246  0.48285981  0.24198312  1
  N  N23  1  0.24839934  0.75801688  0.24087669  1
