# generated using pymatgen
data_TbReB4
_symmetry_space_group_name_H-M   'P 1'
_cell_length_a   3.62962047
_cell_length_b   5.98549433
_cell_length_c   11.58566029
_cell_angle_alpha   90.00000000
_cell_angle_beta   90.00000000
_cell_angle_gamma   90.00000000
_symmetry_Int_Tables_number   1
_chemical_formula_structural   TbReB4
_chemical_formula_sum   'Tb4 Re4 B16'
_cell_volume   251.69931258
_cell_formula_units_Z   4
loop_
 _symmetry_equiv_pos_site_id
 _symmetry_equiv_pos_as_xyz
  1  'x, y, z'
loop_
 _atom_site_type_symbol
 _atom_site_label
 _atom_site_symmetry_multiplicity
 _atom_site_fract_x
 _atom_site_fract_y
 _atom_site_fract_z
 _atom_site_occupancy
  Tb  Tb0  1  -0.00000000  0.62599308  0.34967505  1
  Tb  Tb1  1  -0.00000000  0.37400692  0.65032495  1
  Tb  Tb2  1  0.00000000  0.12599308  0.15032495  1
  Tb  Tb3  1  0.00000000  0.87400692  0.84967505  1
  Re  Re4  1  -0.00000000  0.63200283  0.08725695  1
  Re  Re5  1  -0.00000000  0.36799717  0.91274305  1
  Re  Re6  1  0.00000000  0.13200283  0.41274305  1
  Re  Re7  1  0.00000000  0.86799717  0.58725695  1
  B  B8  1  0.50000000  0.78697400  0.18451947  1
  B  B9  1  0.50000000  0.21302600  0.81548053  1
  B  B10  1  0.50000000  0.28697400  0.31548053  1
  B  B11  1  0.50000000  0.71302600  0.68451947  1
  B  B12  1  0.50000000  0.86335646  0.03153856  1
  B  B13  1  0.50000000  0.13664354  0.96846144  1
  B  B14  1  0.50000000  0.36335646  0.46846144  1
  B  B15  1  0.50000000  0.63664354  0.53153856  1
  B  B16  1  0.50000000  0.88652440  0.45297910  1
  B  B17  1  0.50000000  0.11347560  0.54702090  1
  B  B18  1  0.50000000  0.38652440  0.04702090  1
  B  B19  1  0.50000000  0.61347560  0.95297910  1
  B  B20  1  0.50000000  0.97736186  0.30826697  1
  B  B21  1  0.50000000  0.02263814  0.69173303  1
  B  B22  1  0.50000000  0.47736186  0.19173303  1
  B  B23  1  0.50000000  0.52263814  0.80826697  1
