# generated using pymatgen
data_HoNiB4
_symmetry_space_group_name_H-M   'P 1'
_cell_length_a   6.80182359
_cell_length_b   6.80182359
_cell_length_c   6.80182359
_cell_angle_alpha   102.69401262
_cell_angle_beta   112.96245607
_cell_angle_gamma   112.96245607
_symmetry_Int_Tables_number   1
_chemical_formula_structural   HoNiB4
_chemical_formula_sum   'Ho4 Ni4 B16'
_cell_volume   239.74434041
_cell_formula_units_Z   4
loop_
 _symmetry_equiv_pos_site_id
 _symmetry_equiv_pos_as_xyz
  1  'x, y, z'
loop_
 _atom_site_type_symbol
 _atom_site_label
 _atom_site_symmetry_multiplicity
 _atom_site_fract_x
 _atom_site_fract_y
 _atom_site_fract_z
 _atom_site_occupancy
  Ho  Ho0  1  0.00000000  0.20259255  0.20259255  1
  Ho  Ho1  1  -0.00000000  0.79740745  0.79740745  1
  Ho  Ho2  1  0.50000000  0.75000000  0.25000000  1
  Ho  Ho3  1  0.50000000  0.25000000  0.75000000  1
  Ni  Ni4  1  0.22857664  0.50000000  0.72857664  1
  Ni  Ni5  1  0.77142336  0.50000000  0.27142336  1
  Ni  Ni6  1  0.77142336  0.27142336  0.50000000  1
  Ni  Ni7  1  0.22857664  0.72857664  0.50000000  1
  B  B8  1  0.61322576  0.88843882  0.72478694  1
  B  B9  1  0.38677424  0.11156118  0.27521306  1
  B  B10  1  0.83634812  0.11156118  0.72478694  1
  B  B11  1  0.16365188  0.88843882  0.27521306  1
  B  B12  1  0.16365188  0.27521306  0.88843882  1
  B  B13  1  0.83634812  0.72478694  0.11156118  1
  B  B14  1  0.61322576  0.72478694  0.88843882  1
  B  B15  1  0.38677424  0.27521306  0.11156118  1
  B  B16  1  0.46665816  0.88612079  0.88612079  1
  B  B17  1  0.53334184  0.41946262  0.41946262  1
  B  B18  1  -0.00000000  0.41946262  0.88612079  1
  B  B19  1  -0.00000000  0.88612079  0.41946262  1
  B  B20  1  0.53334184  0.11387921  0.11387921  1
  B  B21  1  0.46665816  0.58053738  0.58053738  1
  B  B22  1  0.00000000  0.58053738  0.11387921  1
  B  B23  1  0.00000000  0.11387921  0.58053738  1
