# generated using pymatgen
data_Rb2Zn5As4
_symmetry_space_group_name_H-M   'P 1'
_cell_length_a   6.92716491
_cell_length_b   6.92716491
_cell_length_c   11.88844402
_cell_angle_alpha   90.00000000
_cell_angle_beta   90.00000000
_cell_angle_gamma   116.86811169
_symmetry_Int_Tables_number   1
_chemical_formula_structural   Rb2Zn5As4
_chemical_formula_sum   'Rb4 Zn10 As8'
_cell_volume   508.89112582
_cell_formula_units_Z   2
loop_
 _symmetry_equiv_pos_site_id
 _symmetry_equiv_pos_as_xyz
  1  'x, y, z'
loop_
 _atom_site_type_symbol
 _atom_site_label
 _atom_site_symmetry_multiplicity
 _atom_site_fract_x
 _atom_site_fract_y
 _atom_site_fract_z
 _atom_site_occupancy
  Rb  Rb0  1  0.78318840  0.21681160  0.50000000  1
  Rb  Rb1  1  0.78318840  0.21681160  -0.00000000  1
  Rb  Rb2  1  0.21681160  0.78318840  0.50000000  1
  Rb  Rb3  1  0.21681160  0.78318840  -0.00000000  1
  Zn  Zn4  1  0.23906904  0.52598035  0.25000000  1
  Zn  Zn5  1  0.47401965  0.76093096  0.75000000  1
  Zn  Zn6  1  0.76093096  0.47401965  0.75000000  1
  Zn  Zn7  1  0.52598035  0.23906904  0.25000000  1
  Zn  Zn8  1  0.65374883  0.65374883  0.39146320  1
  Zn  Zn9  1  0.34625117  0.34625117  0.60853680  1
  Zn  Zn10  1  0.65374883  0.65374883  0.10853680  1
  Zn  Zn11  1  0.34625117  0.34625117  0.89146320  1
  Zn  Zn12  1  0.00904162  0.00904162  0.25000000  1
  Zn  Zn13  1  0.99095838  0.99095838  0.75000000  1
  As  As14  1  0.91289889  0.60209869  0.25000000  1
  As  As15  1  0.39790131  0.08710111  0.75000000  1
  As  As16  1  0.08710111  0.39790131  0.75000000  1
  As  As17  1  0.60209869  0.91289889  0.25000000  1
  As  As18  1  0.28237742  0.28237742  0.40009260  1
  As  As19  1  0.71762258  0.71762258  0.59990740  1
  As  As20  1  0.28237742  0.28237742  0.09990740  1
  As  As21  1  0.71762258  0.71762258  0.90009260  1
