# generated using pymatgen
data_Dy3Te3N
_symmetry_space_group_name_H-M   'P 1'
_cell_length_a   8.13186797
_cell_length_b   8.67831353
_cell_length_c   12.00969079
_cell_angle_alpha   90.00000000
_cell_angle_beta   90.00000000
_cell_angle_gamma   109.02649956
_symmetry_Int_Tables_number   1
_chemical_formula_structural   Dy3Te3N
_chemical_formula_sum   'Dy12 Te12 N4'
_cell_volume   801.23208401
_cell_formula_units_Z   4
loop_
 _symmetry_equiv_pos_site_id
 _symmetry_equiv_pos_as_xyz
  1  'x, y, z'
loop_
 _atom_site_type_symbol
 _atom_site_label
 _atom_site_symmetry_multiplicity
 _atom_site_fract_x
 _atom_site_fract_y
 _atom_site_fract_z
 _atom_site_occupancy
  Dy  Dy0  1  0.60270422  0.36254978  0.52234641  1
  Dy  Dy1  1  0.39729578  0.13745022  0.02234641  1
  Dy  Dy2  1  0.39729578  0.63745022  0.47765359  1
  Dy  Dy3  1  0.60270422  0.86254978  0.97765359  1
  Dy  Dy4  1  0.83925006  0.29497049  0.91123849  1
  Dy  Dy5  1  0.16074994  0.20502951  0.41123849  1
  Dy  Dy6  1  0.16074994  0.70502951  0.08876151  1
  Dy  Dy7  1  0.83925006  0.79497049  0.58876151  1
  Dy  Dy8  1  0.76679511  0.15726086  0.20867533  1
  Dy  Dy9  1  0.23320489  0.34273914  0.70867533  1
  Dy  Dy10  1  0.23320489  0.84273914  0.79132467  1
  Dy  Dy11  1  0.76679511  0.65726086  0.29132467  1
  Te  Te12  1  0.77608001  0.08477016  0.47881131  1
  Te  Te13  1  0.22391999  0.41522984  0.97881131  1
  Te  Te14  1  0.22391999  0.91522984  0.52118869  1
  Te  Te15  1  0.77608001  0.58477016  0.02118869  1
  Te  Te16  1  0.50820201  0.18477148  0.76553851  1
  Te  Te17  1  0.49179799  0.31522852  0.26553851  1
  Te  Te18  1  0.49179799  0.81522852  0.23446149  1
  Te  Te19  1  0.50820201  0.68477148  0.73446149  1
  Te  Te20  1  0.95470186  0.01524782  0.81043454  1
  Te  Te21  1  0.04529814  0.48475218  0.31043454  1
  Te  Te22  1  0.04529814  0.98475218  0.18956546  1
  Te  Te23  1  0.95470186  0.51524782  0.68956546  1
  N  N24  1  0.67251284  0.12348507  0.03431424  1
  N  N25  1  0.32748716  0.37651493  0.53431424  1
  N  N26  1  0.32748716  0.87651493  0.96568576  1
  N  N27  1  0.67251284  0.62348507  0.46568576  1
