# generated using pymatgen
data_Ba(ErS2)2
_symmetry_space_group_name_H-M   'P 1'
_cell_length_a   4.02101179
_cell_length_b   12.25524985
_cell_length_c   14.47669245
_cell_angle_alpha   90.00000000
_cell_angle_beta   90.00000000
_cell_angle_gamma   90.00000000
_symmetry_Int_Tables_number   1
_chemical_formula_structural   Ba(ErS2)2
_chemical_formula_sum   'Ba4 Er8 S16'
_cell_volume   713.38974878
_cell_formula_units_Z   4
loop_
 _symmetry_equiv_pos_site_id
 _symmetry_equiv_pos_as_xyz
  1  'x, y, z'
loop_
 _atom_site_type_symbol
 _atom_site_label
 _atom_site_symmetry_multiplicity
 _atom_site_fract_x
 _atom_site_fract_y
 _atom_site_fract_z
 _atom_site_occupancy
  Ba  Ba0  1  0.75000000  0.25816545  0.16262212  1
  Ba  Ba1  1  0.75000000  0.75816545  0.33737788  1
  Ba  Ba2  1  0.25000000  0.74183455  0.83737788  1
  Ba  Ba3  1  0.25000000  0.24183455  0.66262212  1
  Er  Er4  1  0.75000000  0.42119931  0.89890619  1
  Er  Er5  1  0.75000000  0.92119931  0.60109381  1
  Er  Er6  1  0.25000000  0.57880069  0.10109381  1
  Er  Er7  1  0.25000000  0.07880069  0.39890619  1
  Er  Er8  1  0.75000000  0.93370550  0.10833835  1
  Er  Er9  1  0.75000000  0.43370550  0.39166165  1
  Er  Er10  1  0.25000000  0.06629450  0.89166165  1
  Er  Er11  1  0.25000000  0.56629450  0.60833835  1
  S  S12  1  0.75000000  0.41874285  0.57649276  1
  S  S13  1  0.75000000  0.91874285  0.92350724  1
  S  S14  1  0.25000000  0.58125715  0.42350724  1
  S  S15  1  0.25000000  0.08125715  0.07649276  1
  S  S16  1  0.75000000  0.20675688  0.83844364  1
  S  S17  1  0.75000000  0.70675688  0.66155636  1
  S  S18  1  0.25000000  0.79324312  0.16155636  1
  S  S19  1  0.25000000  0.29324312  0.33844364  1
  S  S20  1  0.75000000  0.12364661  0.52310825  1
  S  S21  1  0.75000000  0.62364661  0.97689175  1
  S  S22  1  0.25000000  0.87635339  0.47689175  1
  S  S23  1  0.25000000  0.37635339  0.02310825  1
  S  S24  1  0.75000000  0.02295749  0.28326099  1
  S  S25  1  0.75000000  0.52295749  0.21673901  1
  S  S26  1  0.25000000  0.97704251  0.71673901  1
  S  S27  1  0.25000000  0.47704251  0.78326099  1
