# generated using pymatgen
data_SrGdCuS3
_symmetry_space_group_name_H-M   'P 1'
_cell_length_a   3.96044004
_cell_length_b   10.36220158
_cell_length_c   12.97143336
_cell_angle_alpha   90.00000000
_cell_angle_beta   90.00000000
_cell_angle_gamma   90.00000000
_symmetry_Int_Tables_number   1
_chemical_formula_structural   SrGdCuS3
_chemical_formula_sum   'Sr4 Gd4 Cu4 S12'
_cell_volume   532.33307166
_cell_formula_units_Z   4
loop_
 _symmetry_equiv_pos_site_id
 _symmetry_equiv_pos_as_xyz
  1  'x, y, z'
loop_
 _atom_site_type_symbol
 _atom_site_label
 _atom_site_symmetry_multiplicity
 _atom_site_fract_x
 _atom_site_fract_y
 _atom_site_fract_z
 _atom_site_occupancy
  Sr  Sr0  1  0.75000000  0.72360494  0.99846288  1
  Sr  Sr1  1  0.75000000  0.22360494  0.50153712  1
  Sr  Sr2  1  0.25000000  0.27639506  0.00153712  1
  Sr  Sr3  1  0.25000000  0.77639506  0.49846288  1
  Gd  Gd4  1  0.75000000  0.98606878  0.24011664  1
  Gd  Gd5  1  0.75000000  0.48606878  0.25988336  1
  Gd  Gd6  1  0.25000000  0.01393122  0.75988336  1
  Gd  Gd7  1  0.25000000  0.51393122  0.74011664  1
  Cu  Cu8  1  0.75000000  0.76347576  0.72152812  1
  Cu  Cu9  1  0.75000000  0.26347576  0.77847188  1
  Cu  Cu10  1  0.25000000  0.23652424  0.27847188  1
  Cu  Cu11  1  0.25000000  0.73652424  0.22152812  1
  S  S12  1  0.75000000  0.94685046  0.61830522  1
  S  S13  1  0.75000000  0.44685046  0.88169478  1
  S  S14  1  0.25000000  0.05314954  0.38169478  1
  S  S15  1  0.25000000  0.55314954  0.11830522  1
  S  S16  1  0.75000000  0.74079694  0.32603426  1
  S  S17  1  0.75000000  0.24079694  0.17396574  1
  S  S18  1  0.25000000  0.25920306  0.67396574  1
  S  S19  1  0.25000000  0.75920306  0.82603426  1
  S  S20  1  0.75000000  0.59141692  0.60744706  1
  S  S21  1  0.75000000  0.09141692  0.89255294  1
  S  S22  1  0.25000000  0.40858308  0.39255294  1
  S  S23  1  0.25000000  0.90858308  0.10744706  1
