# generated using pymatgen
data_RbInTe3O8
_symmetry_space_group_name_H-M   'P 1'
_cell_length_a   5.87332679
_cell_length_b   7.75314151
_cell_length_c   11.34230058
_cell_angle_alpha   79.40213885
_cell_angle_beta   89.41499014
_cell_angle_gamma   70.49061438
_symmetry_Int_Tables_number   1
_chemical_formula_structural   RbInTe3O8
_chemical_formula_sum   'Rb2 In2 Te6 O16'
_cell_volume   477.80200019
_cell_formula_units_Z   2
loop_
 _symmetry_equiv_pos_site_id
 _symmetry_equiv_pos_as_xyz
  1  'x, y, z'
loop_
 _atom_site_type_symbol
 _atom_site_label
 _atom_site_symmetry_multiplicity
 _atom_site_fract_x
 _atom_site_fract_y
 _atom_site_fract_z
 _atom_site_occupancy
  Rb  Rb0  1  0.16092223  0.11930255  0.83311499  1
  Rb  Rb1  1  0.83907777  0.88069745  0.16688501  1
  In  In2  1  0.50000000  0.50000000  -0.00000000  1
  In  In3  1  0.00000000  0.50000000  0.50000000  1
  Te  Te4  1  0.77783662  0.99209934  0.58117330  1
  Te  Te5  1  0.22216338  0.00790066  0.41882670  1
  Te  Te6  1  0.93016904  0.67722538  0.85044765  1
  Te  Te7  1  0.06983096  0.32277462  0.14955235  1
  Te  Te8  1  0.48347682  0.52602904  0.66470704  1
  Te  Te9  1  0.51652318  0.47397096  0.33529296  1
  O  O10  1  0.81387012  0.73890783  0.58331619  1
  O  O11  1  0.18612988  0.26109217  0.41668381  1
  O  O12  1  0.76002444  0.93262468  0.76990542  1
  O  O13  1  0.23997556  0.06737532  0.23009458  1
  O  O14  1  0.11237888  0.96922654  0.60385338  1
  O  O15  1  0.88762112  0.03077346  0.39614662  1
  O  O16  1  0.72960214  0.67903261  0.98289845  1
  O  O17  1  0.27039786  0.32096739  0.01710155  1
  O  O18  1  0.17733935  0.73586817  0.92299693  1
  O  O19  1  0.82266065  0.26413183  0.07700307  1
  O  O20  1  0.60989606  0.42626206  0.82582564  1
  O  O21  1  0.39010394  0.57373794  0.17417436  1
  O  O22  1  0.75127840  0.37001226  0.59265786  1
  O  O23  1  0.24872160  0.62998774  0.40734214  1
  O  O24  1  0.26982285  0.39055873  0.65479060  1
  O  O25  1  0.73017715  0.60944127  0.34520940  1
