# generated using pymatgen
data_Na5Sm4Si4O16F
_symmetry_space_group_name_H-M   'P 1'
_cell_length_a   5.48954892
_cell_length_b   8.85475800
_cell_length_c   8.85475800
_cell_angle_alpha   84.48617530
_cell_angle_beta   71.94213762
_cell_angle_gamma   71.94213762
_symmetry_Int_Tables_number   1
_chemical_formula_structural   Na5Sm4Si4O16F
_chemical_formula_sum   'Na5 Sm4 Si4 O16 F1'
_cell_volume   389.06055392
_cell_formula_units_Z   1
loop_
 _symmetry_equiv_pos_site_id
 _symmetry_equiv_pos_as_xyz
  1  'x, y, z'
loop_
 _atom_site_type_symbol
 _atom_site_label
 _atom_site_symmetry_multiplicity
 _atom_site_fract_x
 _atom_site_fract_y
 _atom_site_fract_z
 _atom_site_occupancy
  Na  Na0  1  0.59756908  0.30567283  0.51544487  1
  Na  Na1  1  0.41868677  0.69432717  0.48455513  1
  Na  Na2  1  0.09675809  0.48455513  0.30567283  1
  Na  Na3  1  0.88698606  0.51544487  0.69432717  1
  Na  Na4  1  -0.00000000  0.00000000  -0.00000000  1
  Sm  Sm5  1  0.63664720  0.69955301  0.06724837  1
  Sm  Sm6  1  0.40344857  0.30044699  0.93275163  1
  Sm  Sm7  1  0.66379980  0.93275163  0.69955301  1
  Sm  Sm8  1  0.29610443  0.06724837  0.30044699  1
  Si  Si9  1  0.74333894  0.34978621  0.14470107  1
  Si  Si10  1  0.23782622  0.65021379  0.85529893  1
  Si  Si11  1  0.90687485  0.85529893  0.34978621  1
  Si  Si12  1  0.11195998  0.14470107  0.65021379  1
  O  O13  1  0.62963069  0.49269625  0.27800562  1
  O  O14  1  0.40033255  0.50730375  0.72199438  1
  O  O15  1  0.87767307  0.72199438  0.49269625  1
  O  O16  1  0.09236370  0.27800562  0.50730375  1
  O  O17  1  0.04408671  0.23664051  0.14160399  1
  O  O18  1  0.42233122  0.76335949  0.85839601  1
  O  O19  1  0.71927277  0.85839601  0.23664051  1
  O  O20  1  0.81430930  0.14160399  0.76335949  1
  O  O21  1  0.53626350  0.24305704  0.17258534  1
  O  O22  1  0.95190588  0.75694296  0.82741466  1
  O  O23  1  0.22067946  0.82741466  0.24305704  1
  O  O24  1  0.29115116  0.17258534  0.75694296  1
  O  O25  1  0.74363695  0.43488047  0.96946543  1
  O  O26  1  0.14798284  0.56511953  0.03053457  1
  O  O27  1  0.82148258  0.03053457  0.43488047  1
  O  O28  1  0.28689762  0.96946543  0.56511953  1
  F  F29  1  0.50000000  0.00000000  -0.00000000  1
