# generated using pymatgen
data_Ba4Li2(CdAs2)3
_symmetry_space_group_name_H-M   'P 1'
_cell_length_a   4.66433480
_cell_length_b   10.57847861
_cell_length_c   17.37455123
_cell_angle_alpha   90.00000000
_cell_angle_beta   90.00000000
_cell_angle_gamma   102.73624959
_symmetry_Int_Tables_number   1
_chemical_formula_structural   Ba4Li2(CdAs2)3
_chemical_formula_sum   'Ba8 Li4 Cd6 As12'
_cell_volume   836.19422510
_cell_formula_units_Z   2
loop_
 _symmetry_equiv_pos_site_id
 _symmetry_equiv_pos_as_xyz
  1  'x, y, z'
loop_
 _atom_site_type_symbol
 _atom_site_label
 _atom_site_symmetry_multiplicity
 _atom_site_fract_x
 _atom_site_fract_y
 _atom_site_fract_z
 _atom_site_occupancy
  Ba  Ba0  1  0.01662715  0.03325430  0.37839332  1
  Ba  Ba1  1  0.98337285  0.96674570  0.62160668  1
  Ba  Ba2  1  0.01662715  0.03325430  0.12160668  1
  Ba  Ba3  1  0.98337285  0.96674570  0.87839332  1
  Ba  Ba4  1  0.17323948  0.34647897  0.93025886  1
  Ba  Ba5  1  0.82676052  0.65352103  0.06974114  1
  Ba  Ba6  1  0.17323948  0.34647897  0.56974114  1
  Ba  Ba7  1  0.82676052  0.65352103  0.43025886  1
  Li  Li8  1  0.14907367  0.29814734  0.25000000  1
  Li  Li9  1  0.85092633  0.70185266  0.75000000  1
  Li  Li10  1  0.43605848  0.87211696  0.25000000  1
  Li  Li11  1  0.56394152  0.12788304  0.75000000  1
  Cd  Cd12  1  0.64899764  0.29799527  0.37656042  1
  Cd  Cd13  1  0.35100236  0.70200473  0.62343958  1
  Cd  Cd14  1  0.64899764  0.29799527  0.12343958  1
  Cd  Cd15  1  0.35100236  0.70200473  0.87656042  1
  Cd  Cd16  1  0.29611066  0.59222133  0.25000000  1
  Cd  Cd17  1  0.70388934  0.40777867  0.75000000  1
  As  As18  1  0.21956086  0.43912172  0.38239065  1
  As  As19  1  0.78043914  0.56087828  0.61760935  1
  As  As20  1  0.21956086  0.43912172  0.11760935  1
  As  As21  1  0.78043914  0.56087828  0.88239065  1
  As  As22  1  0.43973399  0.87946797  0.48668346  1
  As  As23  1  0.56026601  0.12053203  0.51331654  1
  As  As24  1  0.43973399  0.87946797  0.01331654  1
  As  As25  1  0.56026601  0.12053203  0.98668346  1
  As  As26  1  0.56809917  0.13619833  0.25000000  1
  As  As27  1  0.43190083  0.86380167  0.75000000  1
  As  As28  1  0.88052315  0.76104630  0.25000000  1
  As  As29  1  0.11947685  0.23895370  0.75000000  1
