# generated using pymatgen
data_Yb(Al5Os)2
_symmetry_space_group_name_H-M   'P 1'
_cell_length_a   6.90064460
_cell_length_b   6.90064460
_cell_length_c   9.13906517
_cell_angle_alpha   90.00000000
_cell_angle_beta   90.00000000
_cell_angle_gamma   96.34483284
_symmetry_Int_Tables_number   1
_chemical_formula_structural   Yb(Al5Os)2
_chemical_formula_sum   'Yb2 Al20 Os4'
_cell_volume   432.52654721
_cell_formula_units_Z   2
loop_
 _symmetry_equiv_pos_site_id
 _symmetry_equiv_pos_as_xyz
  1  'x, y, z'
loop_
 _atom_site_type_symbol
 _atom_site_label
 _atom_site_symmetry_multiplicity
 _atom_site_fract_x
 _atom_site_fract_y
 _atom_site_fract_z
 _atom_site_occupancy
  Yb  Yb0  1  0.62617779  0.37382221  0.75000000  1
  Yb  Yb1  1  0.37382221  0.62617779  0.25000000  1
  Al  Al2  1  0.97728133  0.71731426  0.75000000  1
  Al  Al3  1  0.71731426  0.97728133  0.25000000  1
  Al  Al4  1  0.02271867  0.28268574  0.25000000  1
  Al  Al5  1  0.28268574  0.02271867  0.75000000  1
  Al  Al6  1  0.87647037  0.12352963  0.54451834  1
  Al  Al7  1  0.12352963  0.87647037  0.45548166  1
  Al  Al8  1  0.87647037  0.12352963  0.95548166  1
  Al  Al9  1  0.12352963  0.87647037  0.04451834  1
  Al  Al10  1  0.08413517  0.35641759  0.75000000  1
  Al  Al11  1  0.35641759  0.08413517  0.25000000  1
  Al  Al12  1  0.91586483  0.64358241  0.25000000  1
  Al  Al13  1  0.64358241  0.91586483  0.75000000  1
  Al  Al14  1  0.34469818  0.65530182  0.59956193  1
  Al  Al15  1  0.65530182  0.34469818  0.40043807  1
  Al  Al16  1  0.34469818  0.65530182  0.90043807  1
  Al  Al17  1  0.65530182  0.34469818  0.09956193  1
  Al  Al18  1  0.27674593  0.27674593  0.50000000  1
  Al  Al19  1  0.27674593  0.27674593  0.00000000  1
  Al  Al20  1  0.72325407  0.72325407  0.50000000  1
  Al  Al21  1  0.72325407  0.72325407  0.00000000  1
  Os  Os22  1  0.00000000  0.50000000  0.50000000  1
  Os  Os23  1  0.50000000  0.00000000  0.50000000  1
  Os  Os24  1  0.00000000  0.50000000  -0.00000000  1
  Os  Os25  1  0.50000000  0.00000000  -0.00000000  1
