# generated using pymatgen
data_RbLi2CdC2O6F
_symmetry_space_group_name_H-M   'P 1'
_cell_length_a   4.98844780
_cell_length_b   4.98840346
_cell_length_c   15.62404813
_cell_angle_alpha   90.00000000
_cell_angle_beta   90.00000000
_cell_angle_gamma   120.00241607
_symmetry_Int_Tables_number   1
_chemical_formula_structural   RbLi2CdC2O6F
_chemical_formula_sum   'Rb2 Li4 Cd2 C4 O12 F2'
_cell_volume   336.69807258
_cell_formula_units_Z   2
loop_
 _symmetry_equiv_pos_site_id
 _symmetry_equiv_pos_as_xyz
  1  'x, y, z'
loop_
 _atom_site_type_symbol
 _atom_site_label
 _atom_site_symmetry_multiplicity
 _atom_site_fract_x
 _atom_site_fract_y
 _atom_site_fract_z
 _atom_site_occupancy
  Rb  Rb0  1  0.00001185  0.00000495  0.75000000  1
  Rb  Rb1  1  0.99998815  0.99999505  0.25000000  1
  Li  Li2  1  0.33336141  0.66667922  0.63049064  1
  Li  Li3  1  0.66663859  0.33332078  0.13049064  1
  Li  Li4  1  0.66663859  0.33332078  0.36950936  1
  Li  Li5  1  0.33336141  0.66667922  0.86950936  1
  Cd  Cd6  1  -0.00000000  0.00000000  0.50000000  1
  Cd  Cd7  1  -0.00000000  0.00000000  -0.00000000  1
  C  C8  1  0.66663537  0.33331715  0.59020239  1
  C  C9  1  0.33336463  0.66668285  0.09020239  1
  C  C10  1  0.33336463  0.66668285  0.40979761  1
  C  C11  1  0.66663537  0.33331715  0.90979761  1
  O  O12  1  0.66678910  0.59432645  0.59081711  1
  O  O13  1  0.40567116  0.07246543  0.59081860  1
  O  O14  1  0.92754383  0.33321004  0.59082081  1
  O  O15  1  0.33321090  0.40567355  0.09081711  1
  O  O16  1  0.59432884  0.92753457  0.09081860  1
  O  O17  1  0.07245617  0.66678996  0.09082081  1
  O  O18  1  0.33321090  0.40567355  0.40918289  1
  O  O19  1  0.59432884  0.92753457  0.40918140  1
  O  O20  1  0.07245617  0.66678996  0.40917919  1
  O  O21  1  0.66678910  0.59432645  0.90918289  1
  O  O22  1  0.40567116  0.07246543  0.90918140  1
  O  O23  1  0.92754383  0.33321004  0.90917919  1
  F  F24  1  0.33339756  0.66669742  0.75000000  1
  F  F25  1  0.66660244  0.33330258  0.25000000  1
