# generated using pymatgen
data_Lu5(In2Pd)2
_symmetry_space_group_name_H-M   'P 1'
_cell_length_a   3.55587105
_cell_length_b   8.04662233
_cell_length_c   18.02112974
_cell_angle_alpha   90.00000000
_cell_angle_beta   90.00000000
_cell_angle_gamma   90.00000000
_symmetry_Int_Tables_number   1
_chemical_formula_structural   Lu5(In2Pd)2
_chemical_formula_sum   'Lu10 In8 Pd4'
_cell_volume   515.63410508
_cell_formula_units_Z   2
loop_
 _symmetry_equiv_pos_site_id
 _symmetry_equiv_pos_as_xyz
  1  'x, y, z'
loop_
 _atom_site_type_symbol
 _atom_site_label
 _atom_site_symmetry_multiplicity
 _atom_site_fract_x
 _atom_site_fract_y
 _atom_site_fract_z
 _atom_site_occupancy
  Lu  Lu0  1  0.00000000  0.50000000  0.50000000  1
  Lu  Lu1  1  0.00000000  0.00000000  -0.00000000  1
  Lu  Lu2  1  0.00000000  0.73813716  0.27970211  1
  Lu  Lu3  1  0.00000000  0.26186284  0.72029789  1
  Lu  Lu4  1  0.00000000  0.76186284  0.77970211  1
  Lu  Lu5  1  0.00000000  0.23813716  0.22029789  1
  Lu  Lu6  1  0.00000000  0.61086120  0.08278393  1
  Lu  Lu7  1  0.00000000  0.38913880  0.91721607  1
  Lu  Lu8  1  0.00000000  0.88913880  0.58278393  1
  Lu  Lu9  1  0.00000000  0.11086120  0.41721607  1
  In  In10  1  0.50000000  0.71419280  0.93172767  1
  In  In11  1  0.50000000  0.28580720  0.06827233  1
  In  In12  1  0.50000000  0.78580720  0.43172767  1
  In  In13  1  0.50000000  0.21419280  0.56827233  1
  In  In14  1  0.50000000  0.58439714  0.64850980  1
  In  In15  1  0.50000000  0.41560286  0.35149020  1
  In  In16  1  0.50000000  0.91560286  0.14850980  1
  In  In17  1  0.50000000  0.08439714  0.85149020  1
  Pd  Pd18  1  0.50000000  0.52200408  0.19653175  1
  Pd  Pd19  1  0.50000000  0.47799592  0.80346825  1
  Pd  Pd20  1  0.50000000  0.97799592  0.69653175  1
  Pd  Pd21  1  0.50000000  0.02200408  0.30346825  1
