# generated using pymatgen
data_CuRe2(H2O3)4
_symmetry_space_group_name_H-M   'P 1'
_cell_length_a   6.86377433
_cell_length_b   7.11783208
_cell_length_c   7.40394254
_cell_angle_alpha   60.27985125
_cell_angle_beta   68.95296476
_cell_angle_gamma   71.53333283
_symmetry_Int_Tables_number   1
_chemical_formula_structural   CuRe2(H2O3)4
_chemical_formula_sum   'Cu1 Re2 H8 O12'
_cell_volume   288.85667452
_cell_formula_units_Z   1
loop_
 _symmetry_equiv_pos_site_id
 _symmetry_equiv_pos_as_xyz
  1  'x, y, z'
loop_
 _atom_site_type_symbol
 _atom_site_label
 _atom_site_symmetry_multiplicity
 _atom_site_fract_x
 _atom_site_fract_y
 _atom_site_fract_z
 _atom_site_occupancy
  Cu  Cu0  1  0.50000000  0.00000000  -0.00000000  1
  Re  Re1  1  0.93635807  0.67106618  0.68809056  1
  Re  Re2  1  0.06364193  0.32893382  0.31190944  1
  H  H3  1  0.73245578  0.19360212  0.03872889  1
  H  H4  1  0.26754422  0.80639788  0.96127111  1
  H  H5  1  0.74814400  0.94885254  0.23061037  1
  H  H6  1  0.25185600  0.05114746  0.76938963  1
  H  H7  1  0.60763216  0.58722692  0.26443613  1
  H  H8  1  0.39236784  0.41277308  0.73556387  1
  H  H9  1  0.37925735  0.68976269  0.36955164  1
  H  H10  1  0.62074265  0.31023731  0.63044836  1
  O  O11  1  0.21762169  0.62866242  0.61752834  1
  O  O12  1  0.78237831  0.37133758  0.38247166  1
  O  O13  1  0.84734735  0.74038431  0.46573572  1
  O  O14  1  0.15265265  0.25961569  0.53426428  1
  O  O15  1  0.84983815  0.43150649  0.90271759  1
  O  O16  1  0.15016185  0.56849351  0.09728241  1
  O  O17  1  0.83508605  0.88394786  0.76821040  1
  O  O18  1  0.16491395  0.11605214  0.23178960  1
  O  O19  1  0.65834909  0.06561135  0.13478936  1
  O  O20  1  0.34165091  0.93438865  0.86521064  1
  O  O21  1  0.47960414  0.70075185  0.22930709  1
  O  O22  1  0.52039586  0.29924815  0.77069291  1
