# generated using pymatgen
data_Nb2Pt
_symmetry_space_group_name_H-M   'P 1'
_cell_length_a   5.18531822
_cell_length_b   10.02034412
_cell_length_c   10.02034412
_cell_angle_alpha   90.00000000
_cell_angle_beta   90.00000000
_cell_angle_gamma   90.00000000
_symmetry_Int_Tables_number   1
_chemical_formula_structural   Nb2Pt
_chemical_formula_sum   'Nb20 Pt10'
_cell_volume   520.64378284
_cell_formula_units_Z   10
loop_
 _symmetry_equiv_pos_site_id
 _symmetry_equiv_pos_as_xyz
  1  'x, y, z'
loop_
 _atom_site_type_symbol
 _atom_site_label
 _atom_site_symmetry_multiplicity
 _atom_site_fract_x
 _atom_site_fract_y
 _atom_site_fract_z
 _atom_site_occupancy
  Nb  Nb0  1  0.50000000  0.10538726  0.89461274  1
  Nb  Nb1  1  0.50000000  0.89461274  0.10538726  1
  Nb  Nb2  1  0.00000000  0.39461274  0.39461274  1
  Nb  Nb3  1  -0.00000000  0.60538726  0.60538726  1
  Nb  Nb4  1  0.50000000  0.37421449  0.96284522  1
  Nb  Nb5  1  0.50000000  0.62578551  0.03715478  1
  Nb  Nb6  1  0.00000000  0.12578551  0.46284522  1
  Nb  Nb7  1  0.00000000  0.87421449  0.53715478  1
  Nb  Nb8  1  0.50000000  0.96284522  0.37421449  1
  Nb  Nb9  1  0.50000000  0.03715478  0.62578551  1
  Nb  Nb10  1  -0.00000000  0.46284522  0.12578551  1
  Nb  Nb11  1  -0.00000000  0.53715478  0.87421449  1
  Nb  Nb12  1  0.24779900  0.31897885  0.68102115  1
  Nb  Nb13  1  0.24779900  0.68102115  0.31897885  1
  Nb  Nb14  1  0.74779900  0.18102115  0.18102115  1
  Nb  Nb15  1  0.74779900  0.81897885  0.81897885  1
  Nb  Nb16  1  0.75220100  0.68102115  0.31897885  1
  Nb  Nb17  1  0.75220100  0.31897885  0.68102115  1
  Nb  Nb18  1  0.25220100  0.81897885  0.81897885  1
  Nb  Nb19  1  0.25220100  0.18102115  0.18102115  1
  Pt  Pt20  1  0.50000000  0.50000000  0.50000000  1
  Pt  Pt21  1  -0.00000000  -0.00000000  0.00000000  1
  Pt  Pt22  1  0.50000000  0.43259489  0.23727955  1
  Pt  Pt23  1  0.50000000  0.56740511  0.76272045  1
  Pt  Pt24  1  0.00000000  0.06740511  0.73727955  1
  Pt  Pt25  1  -0.00000000  0.93259489  0.26272045  1
  Pt  Pt26  1  0.50000000  0.23727955  0.43259489  1
  Pt  Pt27  1  0.50000000  0.76272045  0.56740511  1
  Pt  Pt28  1  0.00000000  0.73727955  0.06740511  1
  Pt  Pt29  1  0.00000000  0.26272045  0.93259489  1
