# generated using pymatgen
data_KZn2CdB2O6F
_symmetry_space_group_name_H-M   'P 1'
_cell_length_a   5.09252376
_cell_length_b   5.09254334
_cell_length_c   15.41325318
_cell_angle_alpha   89.99974763
_cell_angle_beta   90.00012613
_cell_angle_gamma   120.00012800
_symmetry_Int_Tables_number   1
_chemical_formula_structural   KZn2CdB2O6F
_chemical_formula_sum   'K2 Zn4 Cd2 B4 O12 F2'
_cell_volume   346.17219503
_cell_formula_units_Z   2
loop_
 _symmetry_equiv_pos_site_id
 _symmetry_equiv_pos_as_xyz
  1  'x, y, z'
loop_
 _atom_site_type_symbol
 _atom_site_label
 _atom_site_symmetry_multiplicity
 _atom_site_fract_x
 _atom_site_fract_y
 _atom_site_fract_z
 _atom_site_occupancy
  K  K0  1  0.99999667  0.99999834  0.75000000  1
  K  K1  1  0.00000333  0.00000166  0.25000000  1
  Zn  Zn2  1  0.66666311  0.33333407  0.88374170  1
  Zn  Zn3  1  0.33333689  0.66667096  0.38374170  1
  Zn  Zn4  1  0.33333689  0.66666593  0.11625830  1
  Zn  Zn5  1  0.66666311  0.33332904  0.61625830  1
  Cd  Cd6  1  -0.00000000  -0.00000000  -0.00000000  1
  Cd  Cd7  1  -0.00000000  -0.00000000  0.50000000  1
  B  B8  1  0.33331635  0.66666336  0.90485808  1
  B  B9  1  0.66668365  0.33334702  0.40485808  1
  B  B10  1  0.66668365  0.33333664  0.09514192  1
  B  B11  1  0.33331635  0.66665298  0.59514192  1
  O  O12  1  0.06829742  0.38685450  0.90445465  1
  O  O13  1  0.61316442  0.68144485  0.90445625  1
  O  O14  1  0.31855485  0.93169353  0.90445844  1
  O  O15  1  0.93170258  0.31855708  0.40445465  1
  O  O16  1  0.68144515  0.61313868  0.40445844  1
  O  O17  1  0.38683558  0.06828043  0.40445625  1
  O  O18  1  0.93170258  0.61314550  0.09554535  1
  O  O19  1  0.38683558  0.31855515  0.09554375  1
  O  O20  1  0.68144515  0.06830647  0.09554156  1
  O  O21  1  0.06829742  0.68144292  0.59554535  1
  O  O22  1  0.31855485  0.38686132  0.59554156  1
  O  O23  1  0.61316442  0.93171957  0.59554375  1
  F  F24  1  0.66659925  0.33329963  0.75000000  1
  F  F25  1  0.33340075  0.66670037  0.25000000  1
