# generated using pymatgen
data_Sc4Co4Ge7
_symmetry_space_group_name_H-M   'P 1'
_cell_length_a   5.22941702
_cell_length_b   9.73376240
_cell_length_c   9.73376240
_cell_angle_alpha   85.86204929
_cell_angle_beta   74.41768037
_cell_angle_gamma   74.41768037
_symmetry_Int_Tables_number   1
_chemical_formula_structural   Sc4Co4Ge7
_chemical_formula_sum   'Sc8 Co8 Ge14'
_cell_volume   459.71506854
_cell_formula_units_Z   2
loop_
 _symmetry_equiv_pos_site_id
 _symmetry_equiv_pos_as_xyz
  1  'x, y, z'
loop_
 _atom_site_type_symbol
 _atom_site_label
 _atom_site_symmetry_multiplicity
 _atom_site_fract_x
 _atom_site_fract_y
 _atom_site_fract_z
 _atom_site_occupancy
  Sc  Sc0  1  0.13973238  0.00000000  0.72053524  1
  Sc  Sc1  1  0.86026762  -0.00000000  0.27946476  1
  Sc  Sc2  1  0.86026762  0.27946476  -0.00000000  1
  Sc  Sc3  1  0.13973238  0.72053524  -0.00000000  1
  Sc  Sc4  1  0.50000000  0.19613536  0.80386464  1
  Sc  Sc5  1  0.50000000  0.80386464  0.19613536  1
  Sc  Sc6  1  0.30386464  0.19613536  0.19613536  1
  Sc  Sc7  1  0.69613536  0.80386464  0.80386464  1
  Co  Co8  1  0.39811500  0.50000000  0.20376999  1
  Co  Co9  1  0.10188500  0.50000000  0.79623001  1
  Co  Co10  1  0.10188500  0.79623001  0.50000000  1
  Co  Co11  1  0.39811500  0.20376999  0.50000000  1
  Co  Co12  1  0.60188500  0.79623001  0.50000000  1
  Co  Co13  1  0.89811500  0.20376999  0.50000000  1
  Co  Co14  1  0.89811500  0.50000000  0.20376999  1
  Co  Co15  1  0.60188500  0.50000000  0.79623001  1
  Ge  Ge16  1  0.29304986  0.00000000  0.41390029  1
  Ge  Ge17  1  0.70695014  0.00000000  0.58609971  1
  Ge  Ge18  1  0.70695014  0.58609971  -0.00000000  1
  Ge  Ge19  1  0.29304986  0.41390029  0.00000000  1
  Ge  Ge20  1  0.00000000  0.29130586  0.70869414  1
  Ge  Ge21  1  -0.00000000  0.70869414  0.29130586  1
  Ge  Ge22  1  0.70869414  0.29130586  0.29130586  1
  Ge  Ge23  1  0.29130586  0.70869414  0.70869414  1
  Ge  Ge24  1  0.50000000  0.40618857  0.59381143  1
  Ge  Ge25  1  0.50000000  0.59381143  0.40618857  1
  Ge  Ge26  1  0.09381143  0.40618857  0.40618857  1
  Ge  Ge27  1  0.90618857  0.59381143  0.59381143  1
  Ge  Ge28  1  0.74760105  0.00000000  -0.00000000  1
  Ge  Ge29  1  0.25239895  0.00000000  -0.00000000  1
