# generated using pymatgen
data_Rb3In(IO3)6
_symmetry_space_group_name_H-M   'P 1'
_cell_length_a   7.21728973
_cell_length_b   7.22675045
_cell_length_c   10.94885704
_cell_angle_alpha   87.86541229
_cell_angle_beta   71.75409307
_cell_angle_gamma   72.64074617
_symmetry_Int_Tables_number   1
_chemical_formula_structural   Rb3In(IO3)6
_chemical_formula_sum   'Rb3 In1 I6 O18'
_cell_volume   516.65580152
_cell_formula_units_Z   1
loop_
 _symmetry_equiv_pos_site_id
 _symmetry_equiv_pos_as_xyz
  1  'x, y, z'
loop_
 _atom_site_type_symbol
 _atom_site_label
 _atom_site_symmetry_multiplicity
 _atom_site_fract_x
 _atom_site_fract_y
 _atom_site_fract_z
 _atom_site_occupancy
  Rb  Rb0  1  -0.00000000  0.00000000  -0.00000000  1
  Rb  Rb1  1  0.83178962  0.97656250  0.39885343  1
  Rb  Rb2  1  0.16821038  0.02343750  0.60114657  1
  In  In3  1  0.50000000  0.50000000  -0.00000000  1
  I  I4  1  0.02554344  0.52800305  0.81101856  1
  I  I5  1  0.97445656  0.47199695  0.18898144  1
  I  I6  1  0.55545624  0.04434530  0.81046803  1
  I  I7  1  0.44454376  0.95565470  0.18953197  1
  I  I8  1  0.41396025  0.44742669  0.36015407  1
  I  I9  1  0.58603975  0.55257331  0.63984593  1
  O  O10  1  0.82949200  0.46006303  0.94962251  1
  O  O11  1  0.17050800  0.53993697  0.05037749  1
  O  O12  1  0.95700619  0.44979846  0.67917381  1
  O  O13  1  0.04299381  0.55020154  0.32082619  1
  O  O14  1  0.91718100  0.79224543  0.81572380  1
  O  O15  1  0.08281900  0.20775457  0.18427620  1
  O  O16  1  0.56965941  0.18731797  0.94511901  1
  O  O17  1  0.43034059  0.81268203  0.05488099  1
  O  O18  1  0.29039320  0.15591840  0.81369885  1
  O  O19  1  0.70960680  0.84408160  0.18630115  1
  O  O20  1  0.69265650  0.15660924  0.67382967  1
  O  O21  1  0.30734350  0.84339076  0.32617033  1
  O  O22  1  0.52735384  0.39513168  0.18255296  1
  O  O23  1  0.47264616  0.60486832  0.81744704  1
  O  O24  1  0.66240690  0.42981016  0.38234774  1
  O  O25  1  0.33759310  0.57018984  0.61765226  1
  O  O26  1  0.40782092  0.20069420  0.39627137  1
  O  O27  1  0.59217908  0.79930580  0.60372863  1
