# generated using pymatgen
data_Ta4Co4Si7
_symmetry_space_group_name_H-M   'P 1'
_cell_length_a   4.97966540
_cell_length_b   9.21484433
_cell_length_c   9.21484433
_cell_angle_alpha   85.81328387
_cell_angle_beta   74.32394941
_cell_angle_gamma   74.32394941
_symmetry_Int_Tables_number   1
_chemical_formula_structural   Ta4Co4Si7
_chemical_formula_sum   'Ta8 Co8 Si14'
_cell_volume   391.96982581
_cell_formula_units_Z   2
loop_
 _symmetry_equiv_pos_site_id
 _symmetry_equiv_pos_as_xyz
  1  'x, y, z'
loop_
 _atom_site_type_symbol
 _atom_site_label
 _atom_site_symmetry_multiplicity
 _atom_site_fract_x
 _atom_site_fract_y
 _atom_site_fract_z
 _atom_site_occupancy
  Ta  Ta0  1  0.13373315  -0.00000000  0.73253370  1
  Ta  Ta1  1  0.86626685  0.00000000  0.26746630  1
  Ta  Ta2  1  0.86626685  0.26746630  -0.00000000  1
  Ta  Ta3  1  0.13373315  0.73253370  0.00000000  1
  Ta  Ta4  1  0.50000000  0.81013494  0.18986506  1
  Ta  Ta5  1  0.50000000  0.18986506  0.81013494  1
  Ta  Ta6  1  0.68986506  0.81013494  0.81013494  1
  Ta  Ta7  1  0.31013494  0.18986506  0.18986506  1
  Co  Co8  1  0.39864185  0.50000000  0.20271630  1
  Co  Co9  1  0.10135815  0.50000000  0.79728370  1
  Co  Co10  1  0.10135815  0.79728370  0.50000000  1
  Co  Co11  1  0.39864185  0.20271630  0.50000000  1
  Co  Co12  1  0.60135815  0.79728370  0.50000000  1
  Co  Co13  1  0.89864185  0.20271630  0.50000000  1
  Co  Co14  1  0.89864185  0.50000000  0.20271630  1
  Co  Co15  1  0.60135815  0.50000000  0.79728370  1
  Si  Si16  1  0.50000000  0.59455043  0.40544957  1
  Si  Si17  1  0.50000000  0.40544957  0.59455043  1
  Si  Si18  1  0.90544957  0.59455043  0.59455043  1
  Si  Si19  1  0.09455043  0.40544957  0.40544957  1
  Si  Si20  1  0.75115663  -0.00000000  -0.00000000  1
  Si  Si21  1  0.24884337  -0.00000000  -0.00000000  1
  Si  Si22  1  0.29109409  -0.00000000  0.41781183  1
  Si  Si23  1  0.70890591  0.00000000  0.58218817  1
  Si  Si24  1  0.70890591  0.58218817  -0.00000000  1
  Si  Si25  1  0.29109409  0.41781183  -0.00000000  1
  Si  Si26  1  -0.00000000  0.29648349  0.70351651  1
  Si  Si27  1  0.00000000  0.70351651  0.29648349  1
  Si  Si28  1  0.70351651  0.29648349  0.29648349  1
  Si  Si29  1  0.29648349  0.70351651  0.70351651  1
