# generated using pymatgen
data_NdMoBrO4
_symmetry_space_group_name_H-M   'P 1'
_cell_length_a   7.05219818
_cell_length_b   7.51724370
_cell_length_c   11.34637129
_cell_angle_alpha   106.19939077
_cell_angle_beta   106.71945774
_cell_angle_gamma   92.45064605
_symmetry_Int_Tables_number   1
_chemical_formula_structural   NdMoBrO4
_chemical_formula_sum   'Nd4 Mo4 Br4 O16'
_cell_volume   548.23413770
_cell_formula_units_Z   4
loop_
 _symmetry_equiv_pos_site_id
 _symmetry_equiv_pos_as_xyz
  1  'x, y, z'
loop_
 _atom_site_type_symbol
 _atom_site_label
 _atom_site_symmetry_multiplicity
 _atom_site_fract_x
 _atom_site_fract_y
 _atom_site_fract_z
 _atom_site_occupancy
  Nd  Nd0  1  0.64428364  0.12653888  0.73030861  1
  Nd  Nd1  1  0.35571636  0.87346112  0.26969139  1
  Nd  Nd2  1  0.39524356  0.64586237  0.76890843  1
  Nd  Nd3  1  0.60475644  0.35413763  0.23109157  1
  Mo  Mo4  1  0.73453752  0.81740296  0.13406314  1
  Mo  Mo5  1  0.26546248  0.18259704  0.86593686  1
  Mo  Mo6  1  0.77563657  0.59273680  0.63060450  1
  Mo  Mo7  1  0.22436343  0.40726320  0.36939550  1
  Br  Br8  1  0.25709379  0.96879528  0.51824103  1
  Br  Br9  1  0.74290621  0.03120472  0.48175897  1
  Br  Br10  1  0.19462424  0.71224858  0.98063313  1
  Br  Br11  1  0.80537576  0.28775142  0.01936687  1
  O  O12  1  0.67538635  0.73220822  0.96339950  1
  O  O13  1  0.32461365  0.26779178  0.03660050  1
  O  O14  1  0.99785130  0.86680102  0.20655655  1
  O  O15  1  0.00214870  0.13319898  0.79344345  1
  O  O16  1  0.62376432  0.65865220  0.19957805  1
  O  O17  1  0.37623568  0.34134780  0.80042195  1
  O  O18  1  0.39191184  0.98000206  0.82045865  1
  O  O19  1  0.60808816  0.01999794  0.17954135  1
  O  O20  1  0.03982171  0.63911496  0.67715900  1
  O  O21  1  0.96017829  0.36088504  0.32284100  1
  O  O22  1  0.69749003  0.42934411  0.70298391  1
  O  O23  1  0.30250997  0.57065589  0.29701609  1
  O  O24  1  0.68125296  0.51039757  0.45873466  1
  O  O25  1  0.31874704  0.48960243  0.54126534  1
  O  O26  1  0.66154881  0.79566947  0.69721774  1
  O  O27  1  0.33845119  0.20433053  0.30278226  1
