# generated using pymatgen
data_Sr(ErSe2)2
_symmetry_space_group_name_H-M   'P 1'
_cell_length_a   4.13357256
_cell_length_b   12.58320635
_cell_length_c   14.91932528
_cell_angle_alpha   90.00000000
_cell_angle_beta   90.00000000
_cell_angle_gamma   90.00000000
_symmetry_Int_Tables_number   1
_chemical_formula_structural   Sr(ErSe2)2
_chemical_formula_sum   'Sr4 Er8 Se16'
_cell_volume   776.00776495
_cell_formula_units_Z   4
loop_
 _symmetry_equiv_pos_site_id
 _symmetry_equiv_pos_as_xyz
  1  'x, y, z'
loop_
 _atom_site_type_symbol
 _atom_site_label
 _atom_site_symmetry_multiplicity
 _atom_site_fract_x
 _atom_site_fract_y
 _atom_site_fract_z
 _atom_site_occupancy
  Sr  Sr0  1  0.75000000  0.74084168  0.16509354  1
  Sr  Sr1  1  0.75000000  0.24084168  0.33490646  1
  Sr  Sr2  1  0.25000000  0.25915832  0.83490646  1
  Sr  Sr3  1  0.25000000  0.75915832  0.66509354  1
  Er  Er4  1  0.75000000  0.06348251  0.11055828  1
  Er  Er5  1  0.75000000  0.56348251  0.38944172  1
  Er  Er6  1  0.25000000  0.93651749  0.88944172  1
  Er  Er7  1  0.25000000  0.43651749  0.61055828  1
  Er  Er8  1  0.75000000  0.08231735  0.59815715  1
  Er  Er9  1  0.75000000  0.58231735  0.90184285  1
  Er  Er10  1  0.25000000  0.91768265  0.40184285  1
  Er  Er11  1  0.25000000  0.41768265  0.09815715  1
  Se  Se12  1  0.75000000  0.29451914  0.67185945  1
  Se  Se13  1  0.75000000  0.79451914  0.82814055  1
  Se  Se14  1  0.25000000  0.70548086  0.32814055  1
  Se  Se15  1  0.25000000  0.20548086  0.17185945  1
  Se  Se16  1  0.75000000  0.37043018  0.97051066  1
  Se  Se17  1  0.75000000  0.87043018  0.52948934  1
  Se  Se18  1  0.25000000  0.62956982  0.02948934  1
  Se  Se19  1  0.25000000  0.12956982  0.47051066  1
  Se  Se20  1  0.75000000  0.47362450  0.21554855  1
  Se  Se21  1  0.75000000  0.97362450  0.28445145  1
  Se  Se22  1  0.25000000  0.52637550  0.78445145  1
  Se  Se23  1  0.25000000  0.02637550  0.71554855  1
  Se  Se24  1  0.75000000  0.08892393  0.92250997  1
  Se  Se25  1  0.75000000  0.58892393  0.57749003  1
  Se  Se26  1  0.25000000  0.91107607  0.07749003  1
  Se  Se27  1  0.25000000  0.41107607  0.42250997  1
