# generated using pymatgen
data_Sc6Ga16Ir7
_symmetry_space_group_name_H-M   'P 1'
_cell_length_a   8.83912762
_cell_length_b   8.83912762
_cell_length_c   8.83912762
_cell_angle_alpha   60.00000000
_cell_angle_beta   60.00000000
_cell_angle_gamma   60.00000000
_symmetry_Int_Tables_number   1
_chemical_formula_structural   Sc6Ga16Ir7
_chemical_formula_sum   'Sc6 Ga16 Ir7'
_cell_volume   488.32978598
_cell_formula_units_Z   1
loop_
 _symmetry_equiv_pos_site_id
 _symmetry_equiv_pos_as_xyz
  1  'x, y, z'
loop_
 _atom_site_type_symbol
 _atom_site_label
 _atom_site_symmetry_multiplicity
 _atom_site_fract_x
 _atom_site_fract_y
 _atom_site_fract_z
 _atom_site_occupancy
  Sc  Sc0  1  0.71230578  0.28769422  0.28769422  1
  Sc  Sc1  1  0.71230578  0.28769422  0.71230578  1
  Sc  Sc2  1  0.71230578  0.71230578  0.28769422  1
  Sc  Sc3  1  0.28769422  0.71230578  0.71230578  1
  Sc  Sc4  1  0.28769422  0.71230578  0.28769422  1
  Sc  Sc5  1  0.28769422  0.28769422  0.71230578  1
  Ga  Ga6  1  0.63365179  0.12211607  0.12211607  1
  Ga  Ga7  1  0.12211607  0.63365179  0.12211607  1
  Ga  Ga8  1  0.12211607  0.12211607  0.63365179  1
  Ga  Ga9  1  0.12211607  0.12211607  0.12211607  1
  Ga  Ga10  1  0.36634821  0.87788393  0.87788393  1
  Ga  Ga11  1  0.87788393  0.36634821  0.87788393  1
  Ga  Ga12  1  0.87788393  0.87788393  0.36634821  1
  Ga  Ga13  1  0.87788393  0.87788393  0.87788393  1
  Ga  Ga14  1  0.97334263  0.34221912  0.34221912  1
  Ga  Ga15  1  0.34221912  0.97334263  0.34221912  1
  Ga  Ga16  1  0.34221912  0.34221912  0.97334263  1
  Ga  Ga17  1  0.34221912  0.34221912  0.34221912  1
  Ga  Ga18  1  0.02665737  0.65778088  0.65778088  1
  Ga  Ga19  1  0.65778088  0.02665737  0.65778088  1
  Ga  Ga20  1  0.65778088  0.65778088  0.02665737  1
  Ga  Ga21  1  0.65778088  0.65778088  0.65778088  1
  Ir  Ir22  1  -0.00000000  -0.00000000  0.00000000  1
  Ir  Ir23  1  0.50000000  -0.00000000  0.00000000  1
  Ir  Ir24  1  0.50000000  -0.00000000  0.50000000  1
  Ir  Ir25  1  0.50000000  0.50000000  0.00000000  1
  Ir  Ir26  1  -0.00000000  0.50000000  0.50000000  1
  Ir  Ir27  1  -0.00000000  0.50000000  0.00000000  1
  Ir  Ir28  1  -0.00000000  -0.00000000  0.50000000  1
