# generated using pymatgen
data_Cu2PbSe2(ClO3)2
_symmetry_space_group_name_H-M   'P 1'
_cell_length_a   6.98999457
_cell_length_b   8.23224264
_cell_length_c   8.23224264
_cell_angle_alpha   72.83619383
_cell_angle_beta   90.95310281
_cell_angle_gamma   90.95310281
_symmetry_Int_Tables_number   1
_chemical_formula_structural   Cu2PbSe2(ClO3)2
_chemical_formula_sum   'Cu4 Pb2 Se4 Cl4 O12'
_cell_volume   452.51723930
_cell_formula_units_Z   2
loop_
 _symmetry_equiv_pos_site_id
 _symmetry_equiv_pos_as_xyz
  1  'x, y, z'
loop_
 _atom_site_type_symbol
 _atom_site_label
 _atom_site_symmetry_multiplicity
 _atom_site_fract_x
 _atom_site_fract_y
 _atom_site_fract_z
 _atom_site_occupancy
  Cu  Cu0  1  0.75000000  0.88854355  0.11145645  1
  Cu  Cu1  1  0.25000000  0.11145645  0.88854355  1
  Cu  Cu2  1  0.50000000  -0.00000000  0.50000000  1
  Cu  Cu3  1  -0.00000000  0.50000000  0.00000000  1
  Pb  Pb4  1  0.25000000  0.65737178  0.34262822  1
  Pb  Pb5  1  0.75000000  0.34262822  0.65737178  1
  Se  Se6  1  0.41170498  0.73180838  0.93260236  1
  Se  Se7  1  0.08829502  0.06739764  0.26819162  1
  Se  Se8  1  0.58829502  0.26819162  0.06739764  1
  Se  Se9  1  0.91170498  0.93260236  0.73180838  1
  Cl  Cl10  1  0.38134064  0.27099768  0.47663059  1
  Cl  Cl11  1  0.11865936  0.52336941  0.72900232  1
  Cl  Cl12  1  0.61865936  0.72900232  0.52336941  1
  Cl  Cl13  1  0.88134064  0.47663059  0.27099768  1
  O  O14  1  0.49321317  0.79814937  0.10616599  1
  O  O15  1  0.00678683  0.89383401  0.20185063  1
  O  O16  1  0.50678683  0.20185063  0.89383401  1
  O  O17  1  0.99321317  0.10616599  0.79814937  1
  O  O18  1  0.28332611  0.94644378  0.37497120  1
  O  O19  1  0.21667389  0.62502880  0.05355622  1
  O  O20  1  0.71667389  0.05355622  0.62502880  1
  O  O21  1  0.78332611  0.37497120  0.94644378  1
  O  O22  1  0.32167569  0.91705880  0.79841161  1
  O  O23  1  0.17832431  0.20158839  0.08294120  1
  O  O24  1  0.67832431  0.08294120  0.20158839  1
  O  O25  1  0.82167569  0.79841161  0.91705880  1
