# generated using pymatgen
data_Co(SbO2)2
_symmetry_space_group_name_H-M   'P 1'
_cell_length_a   6.09866194
_cell_length_b   8.59136433
_cell_length_c   8.59136433
_cell_angle_alpha   90.00000000
_cell_angle_beta   90.00000000
_cell_angle_gamma   90.00000000
_symmetry_Int_Tables_number   1
_chemical_formula_structural   Co(SbO2)2
_chemical_formula_sum   'Co4 Sb8 O16'
_cell_volume   450.15163614
_cell_formula_units_Z   4
loop_
 _symmetry_equiv_pos_site_id
 _symmetry_equiv_pos_as_xyz
  1  'x, y, z'
loop_
 _atom_site_type_symbol
 _atom_site_label
 _atom_site_symmetry_multiplicity
 _atom_site_fract_x
 _atom_site_fract_y
 _atom_site_fract_z
 _atom_site_occupancy
  Co  Co0  1  0.75000000  0.00000000  0.50000000  1
  Co  Co1  1  0.25000000  0.50000000  0.00000000  1
  Co  Co2  1  0.75000000  0.50000000  0.00000000  1
  Co  Co3  1  0.25000000  0.00000000  0.50000000  1
  Sb  Sb4  1  0.50000000  0.33384347  0.32403536  1
  Sb  Sb5  1  0.00000000  0.32403536  0.66615653  1
  Sb  Sb6  1  0.50000000  0.16615653  0.82403536  1
  Sb  Sb7  1  0.00000000  0.82403536  0.83384347  1
  Sb  Sb8  1  0.50000000  0.66615653  0.67596464  1
  Sb  Sb9  1  0.00000000  0.67596464  0.33384347  1
  Sb  Sb10  1  0.50000000  0.83384347  0.17596464  1
  Sb  Sb11  1  0.00000000  0.17596464  0.16615653  1
  O  O12  1  0.50000000  0.86133577  0.40337517  1
  O  O13  1  0.00000000  0.40337517  0.13866423  1
  O  O14  1  0.50000000  0.63866423  0.90337517  1
  O  O15  1  0.00000000  0.90337517  0.36133577  1
  O  O16  1  0.50000000  0.13866423  0.59662483  1
  O  O17  1  0.00000000  0.59662483  0.86133577  1
  O  O18  1  0.50000000  0.36133577  0.09662483  1
  O  O19  1  0.00000000  0.09662483  0.63866423  1
  O  O20  1  0.75000000  0.32245078  0.82245078  1
  O  O21  1  0.25000000  0.82245078  0.67754922  1
  O  O22  1  0.75000000  0.17754922  0.32245078  1
  O  O23  1  0.25000000  0.32245078  0.82245078  1
  O  O24  1  0.75000000  0.82245078  0.67754922  1
  O  O25  1  0.25000000  0.17754922  0.32245078  1
  O  O26  1  0.25000000  0.67754922  0.17754922  1
  O  O27  1  0.75000000  0.67754922  0.17754922  1
