# generated using pymatgen
data_Cs3AlTe3
_symmetry_space_group_name_H-M   'P 1'
_cell_length_a   9.27374313
_cell_length_b   9.96379107
_cell_length_c   14.76065001
_cell_angle_alpha   90.00000000
_cell_angle_beta   90.00000000
_cell_angle_gamma   101.97758901
_symmetry_Int_Tables_number   1
_chemical_formula_structural   Cs3AlTe3
_chemical_formula_sum   'Cs12 Al4 Te12'
_cell_volume   1334.21440079
_cell_formula_units_Z   4
loop_
 _symmetry_equiv_pos_site_id
 _symmetry_equiv_pos_as_xyz
  1  'x, y, z'
loop_
 _atom_site_type_symbol
 _atom_site_label
 _atom_site_symmetry_multiplicity
 _atom_site_fract_x
 _atom_site_fract_y
 _atom_site_fract_z
 _atom_site_occupancy
  Cs  Cs0  1  0.24059151  0.88760650  0.41835226  1
  Cs  Cs1  1  0.25940849  0.61239350  0.91835226  1
  Cs  Cs2  1  0.75940849  0.11239350  0.58164774  1
  Cs  Cs3  1  0.74059151  0.38760650  0.08164774  1
  Cs  Cs4  1  0.21312017  0.08652528  0.68918061  1
  Cs  Cs5  1  0.28687983  0.41347472  0.18918061  1
  Cs  Cs6  1  0.78687983  0.91347472  0.31081939  1
  Cs  Cs7  1  0.71312017  0.58652528  0.81081939  1
  Cs  Cs8  1  0.36254364  0.98553128  0.12487272  1
  Cs  Cs9  1  0.13745636  0.51446872  0.62487272  1
  Cs  Cs10  1  0.63745636  0.01446872  0.87512728  1
  Cs  Cs11  1  0.86254364  0.48553128  0.37512728  1
  Al  Al12  1  0.40842514  0.34133071  0.44078799  1
  Al  Al13  1  0.09157486  0.15866929  0.94078799  1
  Al  Al14  1  0.59157486  0.65866929  0.55921201  1
  Al  Al15  1  0.90842514  0.84133071  0.05921201  1
  Te  Te16  1  0.03024124  0.88825756  0.89335042  1
  Te  Te17  1  0.46975876  0.61174244  0.39335042  1
  Te  Te18  1  0.96975876  0.11174244  0.10664958  1
  Te  Te19  1  0.53024124  0.38825756  0.60664958  1
  Te  Te20  1  0.04529974  0.69409234  0.16584438  1
  Te  Te21  1  0.45470026  0.80590766  0.66584438  1
  Te  Te22  1  0.95470026  0.30590766  0.83415562  1
  Te  Te23  1  0.54529974  0.19409234  0.33415562  1
  Te  Te24  1  0.37644166  0.26295309  0.94247278  1
  Te  Te25  1  0.12355834  0.23704691  0.44247278  1
  Te  Te26  1  0.62355834  0.73704691  0.05752722  1
  Te  Te27  1  0.87644166  0.76295309  0.55752722  1
