# generated using pymatgen
data_Zn3(SnRu)2
_symmetry_space_group_name_H-M   'P 1'
_cell_length_a   4.21009812
_cell_length_b   8.30855932
_cell_length_c   13.90244422
_cell_angle_alpha   90.00000000
_cell_angle_beta   90.00000000
_cell_angle_gamma   90.00000000
_symmetry_Int_Tables_number   1
_chemical_formula_structural   Zn3(SnRu)2
_chemical_formula_sum   'Zn12 Sn8 Ru8'
_cell_volume   486.30541307
_cell_formula_units_Z   4
loop_
 _symmetry_equiv_pos_site_id
 _symmetry_equiv_pos_as_xyz
  1  'x, y, z'
loop_
 _atom_site_type_symbol
 _atom_site_label
 _atom_site_symmetry_multiplicity
 _atom_site_fract_x
 _atom_site_fract_y
 _atom_site_fract_z
 _atom_site_occupancy
  Zn  Zn0  1  0.75000000  0.46517105  0.95902758  1
  Zn  Zn1  1  0.75000000  0.96517105  0.54097242  1
  Zn  Zn2  1  0.25000000  0.53482895  0.04097242  1
  Zn  Zn3  1  0.25000000  0.03482895  0.45902758  1
  Zn  Zn4  1  0.75000000  0.15747539  0.87045920  1
  Zn  Zn5  1  0.75000000  0.65747539  0.62954080  1
  Zn  Zn6  1  0.25000000  0.84252461  0.12954080  1
  Zn  Zn7  1  0.25000000  0.34252461  0.37045920  1
  Zn  Zn8  1  0.75000000  0.90977620  0.74425733  1
  Zn  Zn9  1  0.75000000  0.40977620  0.75574267  1
  Zn  Zn10  1  0.25000000  0.09022380  0.25574267  1
  Zn  Zn11  1  0.25000000  0.59022380  0.24425733  1
  Sn  Sn12  1  0.75000000  0.34630258  0.19625471  1
  Sn  Sn13  1  0.75000000  0.84630258  0.30374529  1
  Sn  Sn14  1  0.25000000  0.65369742  0.80374529  1
  Sn  Sn15  1  0.25000000  0.15369742  0.69625471  1
  Sn  Sn16  1  0.75000000  0.85108542  0.97617592  1
  Sn  Sn17  1  0.75000000  0.35108542  0.52382408  1
  Sn  Sn18  1  0.25000000  0.14891458  0.02382408  1
  Sn  Sn19  1  0.25000000  0.64891458  0.47617592  1
  Ru  Ru20  1  0.75000000  0.04249842  0.14358124  1
  Ru  Ru21  1  0.75000000  0.54249842  0.35641876  1
  Ru  Ru22  1  0.25000000  0.95750158  0.85641876  1
  Ru  Ru23  1  0.25000000  0.45750158  0.64358124  1
  Ru  Ru24  1  0.75000000  0.65034333  0.13179489  1
  Ru  Ru25  1  0.75000000  0.15034333  0.36820511  1
  Ru  Ru26  1  0.25000000  0.34965667  0.86820511  1
  Ru  Ru27  1  0.25000000  0.84965667  0.63179489  1
