# generated using pymatgen
data_Ba(DyS2)2
_symmetry_space_group_name_H-M   'P 1'
_cell_length_a   4.06368377
_cell_length_b   12.34609158
_cell_length_c   14.58909590
_cell_angle_alpha   90.00000000
_cell_angle_beta   90.00000000
_cell_angle_gamma   90.00000000
_symmetry_Int_Tables_number   1
_chemical_formula_structural   Ba(DyS2)2
_chemical_formula_sum   'Ba4 Dy8 S16'
_cell_volume   731.94386949
_cell_formula_units_Z   4
loop_
 _symmetry_equiv_pos_site_id
 _symmetry_equiv_pos_as_xyz
  1  'x, y, z'
loop_
 _atom_site_type_symbol
 _atom_site_label
 _atom_site_symmetry_multiplicity
 _atom_site_fract_x
 _atom_site_fract_y
 _atom_site_fract_z
 _atom_site_occupancy
  Ba  Ba0  1  0.75000000  0.74100065  0.16281847  1
  Ba  Ba1  1  0.75000000  0.24100065  0.33718153  1
  Ba  Ba2  1  0.25000000  0.25899935  0.83718153  1
  Ba  Ba3  1  0.25000000  0.75899935  0.66281847  1
  Dy  Dy4  1  0.75000000  0.06471462  0.10910430  1
  Dy  Dy5  1  0.75000000  0.56471462  0.39089570  1
  Dy  Dy6  1  0.25000000  0.93528538  0.89089570  1
  Dy  Dy7  1  0.25000000  0.43528538  0.60910430  1
  Dy  Dy8  1  0.75000000  0.08045293  0.60104104  1
  Dy  Dy9  1  0.75000000  0.58045293  0.89895896  1
  Dy  Dy10  1  0.25000000  0.91954707  0.39895896  1
  Dy  Dy11  1  0.25000000  0.41954707  0.10104104  1
  S  S12  1  0.75000000  0.29473260  0.66260605  1
  S  S13  1  0.75000000  0.79473260  0.83739395  1
  S  S14  1  0.25000000  0.70526740  0.33739395  1
  S  S15  1  0.25000000  0.20526740  0.16260605  1
  S  S16  1  0.75000000  0.37721903  0.97573116  1
  S  S17  1  0.75000000  0.87721903  0.52426884  1
  S  S18  1  0.25000000  0.62278097  0.02426884  1
  S  S19  1  0.25000000  0.12278097  0.47573116  1
  S  S20  1  0.75000000  0.97494592  0.28350336  1
  S  S21  1  0.75000000  0.47494592  0.21649664  1
  S  S22  1  0.25000000  0.02505408  0.71649664  1
  S  S23  1  0.25000000  0.52505408  0.78350336  1
  S  S24  1  0.75000000  0.08189973  0.92370512  1
  S  S25  1  0.75000000  0.58189973  0.57629488  1
  S  S26  1  0.25000000  0.91810027  0.07629488  1
  S  S27  1  0.25000000  0.41810027  0.42370512  1
