# generated using pymatgen
data_Na3YbCl6
_symmetry_space_group_name_H-M   'P 1'
_cell_length_a   7.14351284
_cell_length_b   7.47804676
_cell_length_c   9.65014895
_cell_angle_alpha   90.00000000
_cell_angle_beta   90.23623289
_cell_angle_gamma   90.00000000
_symmetry_Int_Tables_number   1
_chemical_formula_structural   Na3YbCl6
_chemical_formula_sum   'Na6 Yb2 Cl12'
_cell_volume   515.50197267
_cell_formula_units_Z   2
loop_
 _symmetry_equiv_pos_site_id
 _symmetry_equiv_pos_as_xyz
  1  'x, y, z'
loop_
 _atom_site_type_symbol
 _atom_site_label
 _atom_site_symmetry_multiplicity
 _atom_site_fract_x
 _atom_site_fract_y
 _atom_site_fract_z
 _atom_site_occupancy
  Na  Na0  1  -0.00000000  -0.00000000  0.50000000  1
  Na  Na1  1  0.50000000  0.50000000  -0.00000000  1
  Na  Na2  1  0.99363046  0.57345106  0.26077191  1
  Na  Na3  1  0.00636954  0.42654894  0.73922809  1
  Na  Na4  1  0.50636954  0.07345106  0.23922809  1
  Na  Na5  1  0.49363046  0.92654894  0.76077191  1
  Yb  Yb6  1  -0.00000000  -0.00000000  -0.00000000  1
  Yb  Yb7  1  0.50000000  0.50000000  0.50000000  1
  Cl  Cl8  1  0.82426701  0.30421658  0.08982186  1
  Cl  Cl9  1  0.17573299  0.69578342  0.91017814  1
  Cl  Cl10  1  0.67573299  0.80421658  0.41017814  1
  Cl  Cl11  1  0.32426701  0.19578342  0.58982186  1
  Cl  Cl12  1  0.15539338  0.91191980  0.24481384  1
  Cl  Cl13  1  0.84460662  0.08808020  0.75518616  1
  Cl  Cl14  1  0.34460662  0.41191980  0.25518616  1
  Cl  Cl15  1  0.65539338  0.58808020  0.74481384  1
  Cl  Cl16  1  0.68735028  0.81646558  0.07336538  1
  Cl  Cl17  1  0.31264972  0.18353442  0.92663462  1
  Cl  Cl18  1  0.81264972  0.31646558  0.42663462  1
  Cl  Cl19  1  0.18735028  0.68353442  0.57336538  1
