# generated using pymatgen
data_Te2P2O9
_symmetry_space_group_name_H-M   'P 1'
_cell_length_a   5.43156070
_cell_length_b   7.44928784
_cell_length_c   9.71702399
_cell_angle_alpha   85.16466508
_cell_angle_beta   76.63161264
_cell_angle_gamma   68.61893266
_symmetry_Int_Tables_number   1
_chemical_formula_structural   Te2P2O9
_chemical_formula_sum   'Te4 P4 O18'
_cell_volume   356.18399932
_cell_formula_units_Z   2
loop_
 _symmetry_equiv_pos_site_id
 _symmetry_equiv_pos_as_xyz
  1  'x, y, z'
loop_
 _atom_site_type_symbol
 _atom_site_label
 _atom_site_symmetry_multiplicity
 _atom_site_fract_x
 _atom_site_fract_y
 _atom_site_fract_z
 _atom_site_occupancy
  Te  Te0  1  0.05134419  0.57964858  0.43570123  1
  Te  Te1  1  0.63099277  0.42035142  0.93570123  1
  Te  Te2  1  0.54103458  0.06207155  0.19713664  1
  Te  Te3  1  0.60310613  0.93792845  0.69713663  1
  P  P4  1  0.19537592  0.80635253  0.14045967  1
  P  P5  1  0.00172845  0.19364747  0.64045967  1
  P  P6  1  0.85467327  0.36620118  0.23271122  1
  P  P7  1  0.22087445  0.63379882  0.73271122  1
  O  O8  1  0.29844584  0.59344947  0.09209729  1
  O  O9  1  0.89189531  0.40655053  0.59209729  1
  O  O10  1  0.77280775  0.56559596  0.30317248  1
  O  O11  1  0.33840371  0.43440404  0.80317248  1
  O  O12  1  0.27855075  0.61770257  0.56856485  1
  O  O13  1  0.89625332  0.38229743  0.06856485  1
  O  O14  1  0.12080674  0.81359047  0.30533084  1
  O  O15  1  0.93439721  0.18640953  0.80533084  1
  O  O16  1  0.72827602  0.78446248  0.52640617  1
  O  O17  1  0.51273849  0.21553752  0.02640617  1
  O  O18  1  0.12337362  0.23318292  0.27400327  1
  O  O19  1  0.35655655  0.76681708  0.77400327  1
  O  O20  1  0.42150534  0.89204510  0.08098902  1
  O  O21  1  0.31355044  0.10795490  0.58098902  1
  O  O22  1  0.93947752  0.92776355  0.08291934  1
  O  O23  1  0.86724107  0.07223645  0.58291934  1
  O  O24  1  0.62661544  0.28179969  0.28952799  1
  O  O25  1  0.90841513  0.71820031  0.78952799  1
