# generated using pymatgen
data_Ba2H4Pd
_symmetry_space_group_name_H-M   'P 1'
_cell_length_a   5.81347596
_cell_length_b   8.14331497
_cell_length_c   10.28488867
_cell_angle_alpha   90.00000000
_cell_angle_beta   90.00000000
_cell_angle_gamma   90.00000000
_symmetry_Int_Tables_number   1
_chemical_formula_structural   Ba2H4Pd
_chemical_formula_sum   'Ba8 H16 Pd4'
_cell_volume   486.89656291
_cell_formula_units_Z   4
loop_
 _symmetry_equiv_pos_site_id
 _symmetry_equiv_pos_as_xyz
  1  'x, y, z'
loop_
 _atom_site_type_symbol
 _atom_site_label
 _atom_site_symmetry_multiplicity
 _atom_site_fract_x
 _atom_site_fract_y
 _atom_site_fract_z
 _atom_site_occupancy
  Ba  Ba0  1  0.75000000  0.64670668  0.09459515  1
  Ba  Ba1  1  0.75000000  0.14670668  0.40540485  1
  Ba  Ba2  1  0.25000000  0.35329332  0.90540485  1
  Ba  Ba3  1  0.25000000  0.85329332  0.59459515  1
  Ba  Ba4  1  0.75000000  0.48910021  0.66733972  1
  Ba  Ba5  1  0.75000000  0.98910021  0.83266028  1
  Ba  Ba6  1  0.25000000  0.51089979  0.33266028  1
  Ba  Ba7  1  0.25000000  0.01089979  0.16733972  1
  H  H8  1  0.75000000  0.32539955  0.92042538  1
  H  H9  1  0.75000000  0.82539955  0.57957462  1
  H  H10  1  0.25000000  0.67460045  0.07957462  1
  H  H11  1  0.25000000  0.17460045  0.42042538  1
  H  H12  1  0.75000000  0.02398673  0.10765312  1
  H  H13  1  0.75000000  0.52398673  0.39234688  1
  H  H14  1  0.25000000  0.97601327  0.89234688  1
  H  H15  1  0.25000000  0.47601327  0.60765312  1
  H  H16  1  0.00601285  0.32073777  0.15554685  1
  H  H17  1  0.49398715  0.82073777  0.34445315  1
  H  H18  1  0.50601285  0.67926223  0.84445315  1
  H  H19  1  0.99398715  0.17926223  0.65554685  1
  H  H20  1  0.99398715  0.67926223  0.84445315  1
  H  H21  1  0.50601285  0.17926223  0.65554685  1
  H  H22  1  0.49398715  0.32073777  0.15554685  1
  H  H23  1  0.00601285  0.82073777  0.34445315  1
  Pd  Pd24  1  0.75000000  0.24161508  0.08252026  1
  Pd  Pd25  1  0.75000000  0.74161508  0.41747974  1
  Pd  Pd26  1  0.25000000  0.75838492  0.91747974  1
  Pd  Pd27  1  0.25000000  0.25838492  0.58252026  1
