# generated using pymatgen
data_Eu(DyS2)2
_symmetry_space_group_name_H-M   'P 1'
_cell_length_a   3.97083918
_cell_length_b   11.89585310
_cell_length_c   14.29208490
_cell_angle_alpha   90.00000000
_cell_angle_beta   90.00000000
_cell_angle_gamma   90.00000000
_symmetry_Int_Tables_number   1
_chemical_formula_structural   Eu(DyS2)2
_chemical_formula_sum   'Eu4 Dy8 S16'
_cell_volume   675.10834806
_cell_formula_units_Z   4
loop_
 _symmetry_equiv_pos_site_id
 _symmetry_equiv_pos_as_xyz
  1  'x, y, z'
loop_
 _atom_site_type_symbol
 _atom_site_label
 _atom_site_symmetry_multiplicity
 _atom_site_fract_x
 _atom_site_fract_y
 _atom_site_fract_z
 _atom_site_occupancy
  Eu  Eu0  1  0.75000000  0.74286556  0.16259074  1
  Eu  Eu1  1  0.75000000  0.24286556  0.33740926  1
  Eu  Eu2  1  0.25000000  0.25713444  0.83740926  1
  Eu  Eu3  1  0.25000000  0.75713444  0.66259074  1
  Dy  Dy4  1  0.75000000  0.06973252  0.10995571  1
  Dy  Dy5  1  0.75000000  0.56973252  0.39004429  1
  Dy  Dy6  1  0.25000000  0.93026748  0.89004429  1
  Dy  Dy7  1  0.25000000  0.43026748  0.60995571  1
  Dy  Dy8  1  0.75000000  0.08070513  0.60049145  1
  Dy  Dy9  1  0.75000000  0.58070513  0.89950855  1
  Dy  Dy10  1  0.25000000  0.91929487  0.39950855  1
  Dy  Dy11  1  0.25000000  0.41929487  0.10049145  1
  S  S12  1  0.75000000  0.29175580  0.67892886  1
  S  S13  1  0.75000000  0.79175580  0.82107114  1
  S  S14  1  0.25000000  0.70824420  0.32107114  1
  S  S15  1  0.25000000  0.20824420  0.17892886  1
  S  S16  1  0.75000000  0.36627216  0.97181580  1
  S  S17  1  0.75000000  0.86627216  0.52818420  1
  S  S18  1  0.25000000  0.63372784  0.02818420  1
  S  S19  1  0.25000000  0.13372784  0.47181580  1
  S  S20  1  0.75000000  0.47887728  0.21582476  1
  S  S21  1  0.75000000  0.97887728  0.28417524  1
  S  S22  1  0.25000000  0.52112272  0.78417524  1
  S  S23  1  0.25000000  0.02112272  0.71582476  1
  S  S24  1  0.75000000  0.08643084  0.91956600  1
  S  S25  1  0.75000000  0.58643084  0.58043400  1
  S  S26  1  0.25000000  0.91356916  0.08043400  1
  S  S27  1  0.25000000  0.41356916  0.41956600  1
