# generated using pymatgen
data_Sr2Ni(SeO3)3
_symmetry_space_group_name_H-M   'P 1'
_cell_length_a   7.41812130
_cell_length_b   7.70594657
_cell_length_c   8.85589548
_cell_angle_alpha   102.93461228
_cell_angle_beta   105.54301597
_cell_angle_gamma   95.32819460
_symmetry_Int_Tables_number   1
_chemical_formula_structural   Sr2Ni(SeO3)3
_chemical_formula_sum   'Sr4 Ni2 Se6 O18'
_cell_volume   469.00722902
_cell_formula_units_Z   2
loop_
 _symmetry_equiv_pos_site_id
 _symmetry_equiv_pos_as_xyz
  1  'x, y, z'
loop_
 _atom_site_type_symbol
 _atom_site_label
 _atom_site_symmetry_multiplicity
 _atom_site_fract_x
 _atom_site_fract_y
 _atom_site_fract_z
 _atom_site_occupancy
  Sr  Sr0  1  0.74484493  0.08579753  0.88939446  1
  Sr  Sr1  1  0.25515507  0.91420247  0.11060554  1
  Sr  Sr2  1  0.87053229  0.51770368  0.69348343  1
  Sr  Sr3  1  0.12946771  0.48229632  0.30651657  1
  Ni  Ni4  1  0.59414001  0.33609935  0.25242581  1
  Ni  Ni5  1  0.40585999  0.66390065  0.74757419  1
  Se  Se6  1  0.59593944  0.78870754  0.45570545  1
  Se  Se7  1  0.40406056  0.21129246  0.54429455  1
  Se  Se8  1  0.86048605  0.08314573  0.29607533  1
  Se  Se9  1  0.13951395  0.91685427  0.70392467  1
  Se  Se10  1  0.73420549  0.63765581  0.08815537  1
  Se  Se11  1  0.26579451  0.36234419  0.91184463  1
  O  O12  1  0.86358869  0.30314507  0.40204076  1
  O  O13  1  0.13641131  0.69685493  0.59795924  1
  O  O14  1  0.00757447  0.12166749  0.18164656  1
  O  O15  1  0.99242553  0.87833251  0.81835344  1
  O  O16  1  0.97534398  0.70198362  0.14657426  1
  O  O17  1  0.02465602  0.29801638  0.85342574  1
  O  O18  1  0.64111728  0.05448352  0.15134193  1
  O  O19  1  0.35888272  0.94551648  0.84865807  1
  O  O20  1  0.56732899  0.81049423  0.64526863  1
  O  O21  1  0.43267101  0.18950577  0.35473137  1
  O  O22  1  0.67363540  0.64066575  0.88594703  1
  O  O23  1  0.32636460  0.35933425  0.11405297  1
  O  O24  1  0.72562528  0.40943686  0.08854168  1
  O  O25  1  0.27437472  0.59056314  0.91145832  1
  O  O26  1  0.33317419  0.42121645  0.57627267  1
  O  O27  1  0.66682581  0.57878355  0.42372733  1
  O  O28  1  0.62960622  0.24734940  0.67158907  1
  O  O29  1  0.37039378  0.75265060  0.32841093  1
