# generated using pymatgen
data_CsTbSiS4
_symmetry_space_group_name_H-M   'P 1'
_cell_length_a   6.39746164
_cell_length_b   6.74206922
_cell_length_c   17.84203964
_cell_angle_alpha   90.00000000
_cell_angle_beta   90.00000000
_cell_angle_gamma   90.00000000
_symmetry_Int_Tables_number   1
_chemical_formula_structural   CsTbSiS4
_chemical_formula_sum   'Cs4 Tb4 Si4 S16'
_cell_volume   769.56515911
_cell_formula_units_Z   4
loop_
 _symmetry_equiv_pos_site_id
 _symmetry_equiv_pos_as_xyz
  1  'x, y, z'
loop_
 _atom_site_type_symbol
 _atom_site_label
 _atom_site_symmetry_multiplicity
 _atom_site_fract_x
 _atom_site_fract_y
 _atom_site_fract_z
 _atom_site_occupancy
  Cs  Cs0  1  0.50256826  0.49265739  0.96788586  1
  Cs  Cs1  1  0.99743174  0.50734261  0.46788586  1
  Cs  Cs2  1  0.00256826  0.00734261  0.03211414  1
  Cs  Cs3  1  0.49743174  0.99265739  0.53211414  1
  Tb  Tb4  1  0.29250540  0.48203127  0.22823348  1
  Tb  Tb5  1  0.20749460  0.51796873  0.72823348  1
  Tb  Tb6  1  0.79250540  0.01796873  0.77176652  1
  Tb  Tb7  1  0.70749460  0.98203127  0.27176652  1
  Si  Si8  1  0.78988992  0.51649589  0.16676339  1
  Si  Si9  1  0.71011008  0.48350411  0.66676339  1
  Si  Si10  1  0.28988992  0.98350411  0.83323661  1
  Si  Si11  1  0.21011008  0.01649589  0.33323661  1
  S  S12  1  0.05426085  0.51214448  0.09575310  1
  S  S13  1  0.44573915  0.48785552  0.59575310  1
  S  S14  1  0.55426085  0.98785552  0.90424690  1
  S  S15  1  0.94573915  0.01214448  0.40424690  1
  S  S16  1  0.61037495  0.43032269  0.77939833  1
  S  S17  1  0.88962505  0.56967731  0.27939833  1
  S  S18  1  0.11037495  0.06967731  0.22060167  1
  S  S19  1  0.38962505  0.93032269  0.72060167  1
  S  S20  1  0.56989360  0.74968223  0.14656601  1
  S  S21  1  0.93010640  0.25031777  0.64656601  1
  S  S22  1  0.06989360  0.75031777  0.85343399  1
  S  S23  1  0.43010640  0.24968223  0.35343399  1
  S  S24  1  0.60314699  0.25399867  0.15469031  1
  S  S25  1  0.89685301  0.74600133  0.65469031  1
  S  S26  1  0.10314699  0.24600133  0.84530969  1
  S  S27  1  0.39685301  0.75399867  0.34530969  1
