# generated using pymatgen
data_VAgOF4
_symmetry_space_group_name_H-M   'P 1'
_cell_length_a   5.18452540
_cell_length_b   5.73497816
_cell_length_c   14.09550350
_cell_angle_alpha   99.61734419
_cell_angle_beta   90.00000000
_cell_angle_gamma   90.00000000
_symmetry_Int_Tables_number   1
_chemical_formula_structural   VAgOF4
_chemical_formula_sum   'V4 Ag4 O4 F16'
_cell_volume   413.21329067
_cell_formula_units_Z   4
loop_
 _symmetry_equiv_pos_site_id
 _symmetry_equiv_pos_as_xyz
  1  'x, y, z'
loop_
 _atom_site_type_symbol
 _atom_site_label
 _atom_site_symmetry_multiplicity
 _atom_site_fract_x
 _atom_site_fract_y
 _atom_site_fract_z
 _atom_site_occupancy
  V  V0  1  0.44435216  0.17688191  0.35748456  1
  V  V1  1  0.94435216  0.82311809  0.14251544  1
  V  V2  1  0.55564784  0.82311809  0.64251544  1
  V  V3  1  0.05564784  0.17688191  0.85748456  1
  Ag  Ag4  1  0.93435128  0.65379066  0.38763037  1
  Ag  Ag5  1  0.43435128  0.34620934  0.11236963  1
  Ag  Ag6  1  0.06564872  0.34620934  0.61236963  1
  Ag  Ag7  1  0.56564872  0.65379066  0.88763037  1
  O  O8  1  0.65418347  0.35101954  0.41810435  1
  O  O9  1  0.15418347  0.64898046  0.08189565  1
  O  O10  1  0.34581653  0.64898046  0.58189565  1
  O  O11  1  0.84581653  0.35101954  0.91810435  1
  F  F12  1  0.53367154  0.88626166  0.38388860  1
  F  F13  1  0.03367154  0.11373834  0.11611140  1
  F  F14  1  0.46632846  0.11373834  0.61611140  1
  F  F15  1  0.96632846  0.88626166  0.88388860  1
  F  F16  1  0.25400377  0.39151606  0.30060292  1
  F  F17  1  0.75400377  0.60848394  0.19939708  1
  F  F18  1  0.74599623  0.60848394  0.69939708  1
  F  F19  1  0.24599623  0.39151606  0.80060292  1
  F  F20  1  0.17298882  0.17964003  0.44214445  1
  F  F21  1  0.67298882  0.82035997  0.05785555  1
  F  F22  1  0.82701118  0.82035997  0.55785555  1
  F  F23  1  0.32701118  0.17964003  0.94214445  1
  F  F24  1  0.60556675  0.09873777  0.23808240  1
  F  F25  1  0.10556675  0.90126223  0.26191760  1
  F  F26  1  0.39443325  0.90126223  0.76191760  1
  F  F27  1  0.89443325  0.09873777  0.73808240  1
