# generated using pymatgen
data_K3NaOs2O9
_symmetry_space_group_name_H-M   'P 1'
_cell_length_a   6.07052317
_cell_length_b   6.06936522
_cell_length_c   14.50561593
_cell_angle_alpha   90.00000000
_cell_angle_beta   90.00000000
_cell_angle_gamma   120.01154675
_symmetry_Int_Tables_number   1
_chemical_formula_structural   K3NaOs2O9
_chemical_formula_sum   'K6 Na2 Os4 O18'
_cell_volume   462.79180059
_cell_formula_units_Z   2
loop_
 _symmetry_equiv_pos_site_id
 _symmetry_equiv_pos_as_xyz
  1  'x, y, z'
loop_
 _atom_site_type_symbol
 _atom_site_label
 _atom_site_symmetry_multiplicity
 _atom_site_fract_x
 _atom_site_fract_y
 _atom_site_fract_z
 _atom_site_occupancy
  K  K0  1  0.00000281  0.00001626  0.75000000  1
  K  K1  1  0.99999719  0.99998374  0.25000000  1
  K  K2  1  0.66669541  0.33332481  0.60915165  1
  K  K3  1  0.33330459  0.66667519  0.39084835  1
  K  K4  1  0.33330459  0.66667519  0.10915165  1
  K  K5  1  0.66669541  0.33332481  0.89084835  1
  Na  Na6  1  -0.00000000  0.00000000  0.50000000  1
  Na  Na7  1  -0.00000000  0.00000000  0.00000000  1
  Os  Os8  1  0.33336892  0.66675372  0.64931408  1
  Os  Os9  1  0.66663108  0.33324628  0.35068592  1
  Os  Os10  1  0.66663108  0.33324628  0.14931408  1
  Os  Os11  1  0.33336892  0.66675372  0.85068592  1
  O  O12  1  0.46811262  0.93622088  0.75000000  1
  O  O13  1  0.46805309  0.53194156  0.75000000  1
  O  O14  1  0.06384282  0.53194364  0.75000000  1
  O  O15  1  0.53188738  0.06377912  0.25000000  1
  O  O16  1  0.53194691  0.46805844  0.25000000  1
  O  O17  1  0.93615718  0.46805636  0.25000000  1
  O  O18  1  0.63637274  0.81811996  0.59056218  1
  O  O19  1  0.18173926  0.36359334  0.59054302  1
  O  O20  1  0.18182760  0.81820981  0.59056766  1
  O  O21  1  0.36362726  0.18188004  0.40943782  1
  O  O22  1  0.81826074  0.63640666  0.40945698  1
  O  O23  1  0.81817240  0.18179019  0.40943234  1
  O  O24  1  0.36362726  0.18188004  0.09056218  1
  O  O25  1  0.81826074  0.63640666  0.09054302  1
  O  O26  1  0.81817240  0.18179019  0.09056766  1
  O  O27  1  0.63637274  0.81811996  0.90943782  1
  O  O28  1  0.18173926  0.36359334  0.90945698  1
  O  O29  1  0.18182760  0.81820981  0.90943234  1
