# generated using pymatgen
data_Na3Y(CO3)3
_symmetry_space_group_name_H-M   'P 1'
_cell_length_a   6.56876597
_cell_length_b   6.56876597
_cell_length_c   9.98047806
_cell_angle_alpha   90.00000000
_cell_angle_beta   90.00000000
_cell_angle_gamma   114.22648642
_symmetry_Int_Tables_number   1
_chemical_formula_structural   Na3Y(CO3)3
_chemical_formula_sum   'Na6 Y2 C6 O18'
_cell_volume   392.71787915
_cell_formula_units_Z   2
loop_
 _symmetry_equiv_pos_site_id
 _symmetry_equiv_pos_as_xyz
  1  'x, y, z'
loop_
 _atom_site_type_symbol
 _atom_site_label
 _atom_site_symmetry_multiplicity
 _atom_site_fract_x
 _atom_site_fract_y
 _atom_site_fract_z
 _atom_site_occupancy
  Na  Na0  1  0.36812865  0.40491617  0.25000000  1
  Na  Na1  1  0.40491617  0.36812865  0.75000000  1
  Na  Na2  1  0.20554661  0.79689025  0.25000000  1
  Na  Na3  1  0.79689025  0.20554661  0.75000000  1
  Na  Na4  1  0.06868487  0.06868487  -0.00000000  1
  Na  Na5  1  0.06868487  0.06868487  0.50000000  1
  Y  Y6  1  0.77141193  0.22625599  0.25000000  1
  Y  Y7  1  0.22625599  0.77141193  0.75000000  1
  C  C8  1  0.76164808  0.78558180  0.25000000  1
  C  C9  1  0.78558180  0.76164808  0.75000000  1
  C  C10  1  0.53305190  0.11979341  0.00121038  1
  C  C11  1  0.11979341  0.53305190  0.99878962  1
  C  C12  1  0.53305190  0.11979341  0.49878962  1
  C  C13  1  0.11979341  0.53305190  0.50121038  1
  O  O14  1  0.76761934  0.59173085  0.25000000  1
  O  O15  1  0.59173085  0.76761934  0.75000000  1
  O  O16  1  0.57582233  0.81012785  0.25000000  1
  O  O17  1  0.81012785  0.57582233  0.75000000  1
  O  O18  1  0.72237563  0.10619552  0.01220683  1
  O  O19  1  0.10619552  0.72237563  0.98779317  1
  O  O20  1  0.72237563  0.10619552  0.48779317  1
  O  O21  1  0.10619552  0.72237563  0.51220683  1
  O  O22  1  0.94767596  0.96965527  0.25000000  1
  O  O23  1  0.96965527  0.94767596  0.75000000  1
  O  O24  1  0.09885497  0.43377551  0.11339736  1
  O  O25  1  0.43377551  0.09885497  0.88660264  1
  O  O26  1  0.09885497  0.43377551  0.38660264  1
  O  O27  1  0.43377551  0.09885497  0.61339736  1
  O  O28  1  0.44551263  0.16118002  0.10979225  1
  O  O29  1  0.16118002  0.44551263  0.89020775  1
  O  O30  1  0.44551263  0.16118002  0.39020775  1
  O  O31  1  0.16118002  0.44551263  0.60979225  1
