# generated using pymatgen
data_RbY(TeO3)2
_symmetry_space_group_name_H-M   'P 1'
_cell_length_a   6.14459175
_cell_length_b   8.81386699
_cell_length_c   14.00441481
_cell_angle_alpha   90.00000000
_cell_angle_beta   90.00000000
_cell_angle_gamma   90.00000000
_symmetry_Int_Tables_number   1
_chemical_formula_structural   RbY(TeO3)2
_chemical_formula_sum   'Rb4 Y4 Te8 O24'
_cell_volume   758.44569707
_cell_formula_units_Z   4
loop_
 _symmetry_equiv_pos_site_id
 _symmetry_equiv_pos_as_xyz
  1  'x, y, z'
loop_
 _atom_site_type_symbol
 _atom_site_label
 _atom_site_symmetry_multiplicity
 _atom_site_fract_x
 _atom_site_fract_y
 _atom_site_fract_z
 _atom_site_occupancy
  Rb  Rb0  1  0.25000000  0.00603573  0.63442975  1
  Rb  Rb1  1  0.25000000  0.49396427  0.13442975  1
  Rb  Rb2  1  0.75000000  0.99396427  0.36557025  1
  Rb  Rb3  1  0.75000000  0.50603573  0.86557025  1
  Y  Y4  1  0.25000000  0.78841505  0.90759510  1
  Y  Y5  1  0.25000000  0.71158495  0.40759510  1
  Y  Y6  1  0.75000000  0.21158495  0.09240490  1
  Y  Y7  1  0.75000000  0.28841505  0.59240490  1
  Te  Te8  1  0.75000000  0.00451356  0.80465444  1
  Te  Te9  1  0.75000000  0.49548644  0.30465444  1
  Te  Te10  1  0.25000000  0.99548644  0.19534556  1
  Te  Te11  1  0.25000000  0.50451356  0.69534556  1
  Te  Te12  1  0.75000000  0.71652269  0.57625577  1
  Te  Te13  1  0.75000000  0.78347731  0.07625577  1
  Te  Te14  1  0.25000000  0.28347731  0.42374423  1
  Te  Te15  1  0.25000000  0.21652269  0.92374423  1
  O  O16  1  0.98726247  0.86808830  0.80191327  1
  O  O17  1  0.51273753  0.63191170  0.30191327  1
  O  O18  1  0.48726247  0.13191170  0.19808673  1
  O  O19  1  0.01273753  0.36808830  0.69808673  1
  O  O20  1  0.01273753  0.13191170  0.19808673  1
  O  O21  1  0.48726247  0.36808830  0.69808673  1
  O  O22  1  0.51273753  0.86808830  0.80191327  1
  O  O23  1  0.98726247  0.63191170  0.30191327  1
  O  O24  1  0.75000000  0.05851857  0.67331809  1
  O  O25  1  0.75000000  0.44148143  0.17331809  1
  O  O26  1  0.25000000  0.94148143  0.32668191  1
  O  O27  1  0.25000000  0.55851857  0.82668191  1
  O  O28  1  0.98729206  0.80002972  0.50829786  1
  O  O29  1  0.51270794  0.69997028  0.00829786  1
  O  O30  1  0.48729206  0.19997028  0.49170214  1
  O  O31  1  0.01270794  0.30002972  0.99170214  1
  O  O32  1  0.01270794  0.19997028  0.49170214  1
  O  O33  1  0.48729206  0.30002972  0.99170214  1
  O  O34  1  0.51270794  0.80002972  0.50829786  1
  O  O35  1  0.98729206  0.69997028  0.00829786  1
  O  O36  1  0.75000000  0.52024477  0.52323585  1
  O  O37  1  0.75000000  0.97975523  0.02323585  1
  O  O38  1  0.25000000  0.47975523  0.47676415  1
  O  O39  1  0.25000000  0.02024477  0.97676415  1
