# generated using pymatgen
data_Mg3(SiO3)4
_symmetry_space_group_name_H-M   'P 1'
_cell_length_a   5.38226977
_cell_length_b   5.33036214
_cell_length_c   9.68497597
_cell_angle_alpha   85.86577153
_cell_angle_beta   81.49148847
_cell_angle_gamma   60.41958489
_symmetry_Int_Tables_number   1
_chemical_formula_structural   Mg3(SiO3)4
_chemical_formula_sum   'Mg3 Si4 O12'
_cell_volume   238.98212878
_cell_formula_units_Z   1
loop_
 _symmetry_equiv_pos_site_id
 _symmetry_equiv_pos_as_xyz
  1  'x, y, z'
loop_
 _atom_site_type_symbol
 _atom_site_label
 _atom_site_symmetry_multiplicity
 _atom_site_fract_x
 _atom_site_fract_y
 _atom_site_fract_z
 _atom_site_occupancy
  Mg  Mg0  1  0.14489229  0.67758499  0.00011850  1
  Mg  Mg1  1  0.85510771  0.32241501  0.99988150  1
  Mg  Mg2  1  0.50000000  -0.00000000  -0.00000000  1
  Si  Si3  1  0.08994309  0.32743330  0.29114678  1
  Si  Si4  1  0.91005691  0.67256670  0.70885322  1
  Si  Si5  1  0.24541419  0.00452235  0.70891393  1
  Si  Si6  1  0.75458581  0.99547765  0.29108607  1
  O  O7  1  0.47717177  0.64736549  0.08702041  1
  O  O8  1  0.52282823  0.35263451  0.91297959  1
  O  O9  1  0.40760462  0.14526084  0.34586533  1
  O  O10  1  0.59239538  0.85473916  0.65413467  1
  O  O11  1  0.13465519  0.32672485  0.11882297  1
  O  O12  1  0.86534481  0.67327515  0.88117703  1
  O  O13  1  0.19756515  0.00688390  0.88115867  1
  O  O14  1  0.80243485  0.99311610  0.11884133  1
  O  O15  1  0.07777245  0.33811432  0.65263329  1
  O  O16  1  0.92222755  0.66188568  0.34736671  1
  O  O17  1  0.89204479  0.17689797  0.34784846  1
  O  O18  1  0.10795521  0.82310203  0.65215154  1
