# generated using pymatgen
data_Ca21(Zn2As9)2
_symmetry_space_group_name_H-M   'P 1'
_cell_length_a   11.37066911
_cell_length_b   11.37066911
_cell_length_c   16.27504699
_cell_angle_alpha   88.38906544
_cell_angle_beta   88.38906544
_cell_angle_gamma   87.22799650
_symmetry_Int_Tables_number   1
_chemical_formula_structural   Ca21(Zn2As9)2
_chemical_formula_sum   'Ca42 Zn8 As36'
_cell_volume   2100.18805173
_cell_formula_units_Z   2
loop_
 _symmetry_equiv_pos_site_id
 _symmetry_equiv_pos_as_xyz
  1  'x, y, z'
loop_
 _atom_site_type_symbol
 _atom_site_label
 _atom_site_symmetry_multiplicity
 _atom_site_fract_x
 _atom_site_fract_y
 _atom_site_fract_z
 _atom_site_occupancy
  Ca  Ca0  1  0.07240800  0.76442233  0.35030036  1
  Ca  Ca1  1  0.76442233  0.07240800  0.35030036  1
  Ca  Ca2  1  0.92759200  0.23557767  0.64969964  1
  Ca  Ca3  1  0.23557767  0.92759200  0.64969964  1
  Ca  Ca4  1  0.07817437  0.75204837  0.14461873  1
  Ca  Ca5  1  0.75204837  0.07817437  0.14461873  1
  Ca  Ca6  1  0.92182563  0.24795163  0.85538127  1
  Ca  Ca7  1  0.24795163  0.92182563  0.85538127  1
  Ca  Ca8  1  0.01024619  0.77002819  0.57696193  1
  Ca  Ca9  1  0.77002819  0.01024619  0.57696193  1
  Ca  Ca10  1  0.98975381  0.22997181  0.42303807  1
  Ca  Ca11  1  0.22997181  0.98975381  0.42303807  1
  Ca  Ca12  1  0.25483435  0.50810981  0.05576772  1
  Ca  Ca13  1  0.50810981  0.25483435  0.05576772  1
  Ca  Ca14  1  0.74516565  0.49189019  0.94423228  1
  Ca  Ca15  1  0.49189019  0.74516565  0.94423228  1
  Ca  Ca16  1  0.18087066  0.50303715  0.43657519  1
  Ca  Ca17  1  0.50303715  0.18087066  0.43657519  1
  Ca  Ca18  1  0.81912934  0.49696285  0.56342481  1
  Ca  Ca19  1  0.49696285  0.81912934  0.56342481  1
  Ca  Ca20  1  0.06740813  0.42516144  0.24346291  1
  Ca  Ca21  1  0.42516144  0.06740813  0.24346291  1
  Ca  Ca22  1  0.93259187  0.57483856  0.75653709  1
  Ca  Ca23  1  0.57483856  0.93259187  0.75653709  1
  Ca  Ca24  1  0.00224627  0.26529708  0.05927149  1
  Ca  Ca25  1  0.26529708  0.00224627  0.05927149  1
  Ca  Ca26  1  0.99775373  0.73470292  0.94072851  1
  Ca  Ca27  1  0.73470292  0.99775373  0.94072851  1
  Ca  Ca28  1  0.73600132  0.40398019  0.15772019  1
  Ca  Ca29  1  0.40398019  0.73600132  0.15772019  1
  Ca  Ca30  1  0.26399868  0.59601981  0.84227981  1
  Ca  Ca31  1  0.59601981  0.26399868  0.84227981  1
  Ca  Ca32  1  0.67958183  0.42825282  0.38158130  1
  Ca  Ca33  1  0.42825282  0.67958183  0.38158130  1
  Ca  Ca34  1  0.32041817  0.57174718  0.61841870  1
  Ca  Ca35  1  0.57174718  0.32041817  0.61841870  1
  Ca  Ca36  1  0.74951569  0.74951569  0.41914898  1
  Ca  Ca37  1  0.25048431  0.25048431  0.58085102  1
  Ca  Ca38  1  0.73748983  0.73748983  0.09362767  1
  Ca  Ca39  1  0.26251017  0.26251017  0.90637233  1
  Ca  Ca40  1  0.40281593  0.40281593  0.25678102  1
  Ca  Ca41  1  0.59718407  0.59718407  0.74321898  1
  Zn  Zn42  1  0.85048574  0.62048364  0.25152450  1
  Zn  Zn43  1  0.62048364  0.85048574  0.25152450  1
  Zn  Zn44  1  0.14951426  0.37951636  0.74847550  1
  Zn  Zn45  1  0.37951636  0.14951426  0.74847550  1
  Zn  Zn46  1  0.99943817  0.99943817  0.79493358  1
  Zn  Zn47  1  0.00056183  0.00056183  0.20506642  1
  Zn  Zn48  1  0.84103476  0.84103476  0.75592565  1
  Zn  Zn49  1  0.15896524  0.15896524  0.24407435  1
  As  As50  1  0.95508208  0.95508208  0.43983368  1
  As  As51  1  0.04491792  0.04491792  0.56016632  1
  As  As52  1  0.94568114  0.94568114  0.05613099  1
  As  As53  1  0.05431886  0.05431886  0.94386901  1
  As  As54  1  0.56938799  0.56938799  0.53222685  1
  As  As55  1  0.43061201  0.43061201  0.46777315  1
  As  As56  1  0.53373136  0.53373136  0.06987303  1
  As  As57  1  0.46626864  0.46626864  0.93012697  1
  As  As58  1  0.23795848  0.60152757  0.25676060  1
  As  As59  1  0.60152757  0.23795848  0.25676060  1
  As  As60  1  0.76204152  0.39847243  0.74323940  1
  As  As61  1  0.39847243  0.76204152  0.74323940  1
  As  As62  1  0.93601277  0.54840999  0.10347250  1
  As  As63  1  0.54840999  0.93601277  0.10347250  1
  As  As64  1  0.06398723  0.45159001  0.89652750  1
  As  As65  1  0.45159001  0.06398723  0.89652750  1
  As  As66  1  0.92624518  0.53962623  0.38945743  1
  As  As67  1  0.53962623  0.92624518  0.38945743  1
  As  As68  1  0.07375482  0.46037377  0.61054257  1
  As  As69  1  0.46037377  0.07375482  0.61054257  1
  As  As70  1  0.93328430  0.21056264  0.23954525  1
  As  As71  1  0.21056264  0.93328430  0.23954525  1
  As  As72  1  0.06671570  0.78943736  0.76045475  1
  As  As73  1  0.78943736  0.06671570  0.76045475  1
  As  As74  1  0.84991296  0.84991296  0.25199353  1
  As  As75  1  0.15008704  0.15008704  0.74800647  1
  As  As76  1  0.75400894  0.75400894  0.62521569  1
  As  As77  1  0.24599106  0.24599106  0.37478431  1
  As  As78  1  0.62076741  0.62076741  0.25841137  1
  As  As79  1  0.37923259  0.37923259  0.74158863  1
  As  As80  1  0.25922132  0.25922132  0.11555572  1
  As  As81  1  0.74077868  0.74077868  0.88444428  1
  As  As82  1  0.24557856  0.75442144  0.50000000  1
  As  As83  1  0.75442144  0.24557856  0.50000000  1
  As  As84  1  0.24603616  0.75396384  -0.00000000  1
  As  As85  1  0.75396384  0.24603616  -0.00000000  1
