# generated using pymatgen
data_Pr5Si2Se3O17F
_symmetry_space_group_name_H-M   'P 1'
_cell_length_a   7.10735373
_cell_length_b   9.96133273
_cell_length_c   13.04682436
_cell_angle_alpha   70.58199063
_cell_angle_beta   76.90767276
_cell_angle_gamma   69.40081750
_symmetry_Int_Tables_number   1
_chemical_formula_structural   Pr5Si2Se3O17F
_chemical_formula_sum   'Pr10 Si4 Se6 O34 F2'
_cell_volume   809.15583594
_cell_formula_units_Z   2
loop_
 _symmetry_equiv_pos_site_id
 _symmetry_equiv_pos_as_xyz
  1  'x, y, z'
loop_
 _atom_site_type_symbol
 _atom_site_label
 _atom_site_symmetry_multiplicity
 _atom_site_fract_x
 _atom_site_fract_y
 _atom_site_fract_z
 _atom_site_occupancy
  Pr  Pr0  1  0.79963166  0.91844205  0.62275292  1
  Pr  Pr1  1  0.20036834  0.08155795  0.37724708  1
  Pr  Pr2  1  0.85117167  0.97099887  0.26030390  1
  Pr  Pr3  1  0.14882833  0.02900113  0.73969610  1
  Pr  Pr4  1  0.59577083  0.63675885  0.39640137  1
  Pr  Pr5  1  0.40422917  0.36324115  0.60359863  1
  Pr  Pr6  1  0.80974123  0.42049953  0.14374552  1
  Pr  Pr7  1  0.19025877  0.57950047  0.85625448  1
  Pr  Pr8  1  0.79774654  0.47489620  0.73370844  1
  Pr  Pr9  1  0.20225346  0.52510380  0.26629156  1
  Si  Si10  1  0.38171916  0.77835423  0.61647923  1
  Si  Si11  1  0.61828084  0.22164577  0.38352077  1
  Si  Si12  1  0.97867111  0.29346991  0.52853448  1
  Si  Si13  1  0.02132889  0.70653009  0.47146552  1
  Se  Se14  1  0.58513842  0.12808870  0.83846239  1
  Se  Se15  1  0.41486158  0.87191130  0.16153761  1
  Se  Se16  1  0.96502986  0.79437961  0.02575720  1
  Se  Se17  1  0.03497014  0.20562039  0.97424280  1
  Se  Se18  1  0.58719041  0.72586737  0.89144756  1
  Se  Se19  1  0.41280959  0.27413263  0.10855244  1
  O  O20  1  0.40898930  0.83782536  0.48134861  1
  O  O21  1  0.59101070  0.16217464  0.51865139  1
  O  O22  1  0.48105823  0.59578763  0.65481028  1
  O  O23  1  0.51894177  0.40421237  0.34518972  1
  O  O24  1  0.47065269  0.87508178  0.66577067  1
  O  O25  1  0.52934731  0.12491822  0.33422933  1
  O  O26  1  0.14582285  0.81034616  0.68194523  1
  O  O27  1  0.85417715  0.18965384  0.31805477  1
  O  O28  1  0.74553451  0.40579355  0.52574480  1
  O  O29  1  0.25446549  0.59420645  0.47425520  1
  O  O30  1  0.87774204  0.67072503  0.58757462  1
  O  O31  1  0.12225796  0.32927497  0.41242538  1
  O  O32  1  0.92677564  0.69777839  0.36923656  1
  O  O33  1  0.07322436  0.30222161  0.63076344  1
  O  O34  1  0.98905896  0.88878885  0.44217609  1
  O  O35  1  0.01094104  0.11121115  0.55782391  1
  O  O36  1  0.59211893  0.30456935  0.76013644  1
  O  O37  1  0.40788107  0.69543065  0.23986356  1
  O  O38  1  0.79602019  0.01551994  0.77899674  1
  O  O39  1  0.20397981  0.98448006  0.22100326  1
  O  O40  1  0.59669831  0.87869552  0.22760524  1
  O  O41  1  0.40330169  0.12130448  0.77239476  1
  O  O42  1  0.93936337  0.19127601  0.86999960  1
  O  O43  1  0.06063663  0.80872399  0.13000040  1
  O  O44  1  0.14163241  0.82759008  0.91098316  1
  O  O45  1  0.85836759  0.17240992  0.08901684  1
  O  O46  1  0.95287112  0.39840392  0.95120797  1
  O  O47  1  0.04712888  0.60159608  0.04879203  1
  O  O48  1  0.35767110  0.33989191  0.97736424  1
  O  O49  1  0.64232890  0.66010809  0.02263576  1
  O  O50  1  0.52405324  0.58476156  0.87014892  1
  O  O51  1  0.47594676  0.41523844  0.12985108  1
  O  O52  1  0.82562399  0.69538519  0.81067855  1
  O  O53  1  0.17437601  0.30461481  0.18932145  1
  F  F54  1  0.84650446  0.54643274  0.25729939  1
  F  F55  1  0.15349554  0.45356726  0.74270061  1
