# generated using pymatgen
data_Ce2ZrSe5
_symmetry_space_group_name_H-M   'P 1'
_cell_length_a   7.72037201
_cell_length_b   8.46080593
_cell_length_c   12.03560838
_cell_angle_alpha   90.00000000
_cell_angle_beta   90.00000000
_cell_angle_gamma   90.00000000
_symmetry_Int_Tables_number   1
_chemical_formula_structural   Ce2ZrSe5
_chemical_formula_sum   'Ce8 Zr4 Se20'
_cell_volume   786.17279106
_cell_formula_units_Z   4
loop_
 _symmetry_equiv_pos_site_id
 _symmetry_equiv_pos_as_xyz
  1  'x, y, z'
loop_
 _atom_site_type_symbol
 _atom_site_label
 _atom_site_symmetry_multiplicity
 _atom_site_fract_x
 _atom_site_fract_y
 _atom_site_fract_z
 _atom_site_occupancy
  Ce  Ce0  1  0.04859396  0.00149858  0.32552185  1
  Ce  Ce1  1  0.45140604  0.49850142  0.82552185  1
  Ce  Ce2  1  0.95140604  0.50149858  0.67447815  1
  Ce  Ce3  1  0.54859396  0.99850142  0.17447815  1
  Ce  Ce4  1  0.95140604  0.99850142  0.67447815  1
  Ce  Ce5  1  0.54859396  0.50149858  0.17447815  1
  Ce  Ce6  1  0.04859396  0.49850142  0.32552185  1
  Ce  Ce7  1  0.45140604  0.00149858  0.82552185  1
  Zr  Zr8  1  0.57797790  0.75000000  0.49086959  1
  Zr  Zr9  1  0.92202210  0.75000000  0.99086959  1
  Zr  Zr10  1  0.42202210  0.25000000  0.50913041  1
  Zr  Zr11  1  0.07797790  0.25000000  0.00913041  1
  Se  Se12  1  0.34896245  0.75000000  0.30997925  1
  Se  Se13  1  0.15103755  0.75000000  0.80997925  1
  Se  Se14  1  0.65103755  0.25000000  0.69002075  1
  Se  Se15  1  0.84896245  0.25000000  0.19002075  1
  Se  Se16  1  0.82990594  0.75000000  0.21046175  1
  Se  Se17  1  0.67009406  0.75000000  0.71046175  1
  Se  Se18  1  0.17009406  0.25000000  0.78953825  1
  Se  Se19  1  0.32990594  0.25000000  0.28953825  1
  Se  Se20  1  0.94813277  0.75000000  0.49562325  1
  Se  Se21  1  0.55186723  0.75000000  0.99562325  1
  Se  Se22  1  0.05186723  0.25000000  0.50437675  1
  Se  Se23  1  0.44813277  0.25000000  0.00437675  1
  Se  Se24  1  0.67539141  0.03828304  0.42022751  1
  Se  Se25  1  0.82460859  0.46171696  0.92022751  1
  Se  Se26  1  0.32460859  0.53828304  0.57977249  1
  Se  Se27  1  0.17539141  0.96171696  0.07977249  1
  Se  Se28  1  0.32460859  0.96171696  0.57977249  1
  Se  Se29  1  0.17539141  0.53828304  0.07977249  1
  Se  Se30  1  0.67539141  0.46171696  0.42022751  1
  Se  Se31  1  0.82460859  0.03828304  0.92022751  1
