# generated using pymatgen
data_RbUF5
_symmetry_space_group_name_H-M   'P 1'
_cell_length_a   8.30925130
_cell_length_b   8.42100504
_cell_length_c   13.86983765
_cell_angle_alpha   90.00000000
_cell_angle_beta   90.00000000
_cell_angle_gamma   102.59604654
_symmetry_Int_Tables_number   1
_chemical_formula_structural   RbUF5
_chemical_formula_sum   'Rb8 U8 F40'
_cell_volume   947.14544033
_cell_formula_units_Z   8
loop_
 _symmetry_equiv_pos_site_id
 _symmetry_equiv_pos_as_xyz
  1  'x, y, z'
loop_
 _atom_site_type_symbol
 _atom_site_label
 _atom_site_symmetry_multiplicity
 _atom_site_fract_x
 _atom_site_fract_y
 _atom_site_fract_z
 _atom_site_occupancy
  Rb  Rb0  1  0.72907772  0.72957176  0.01910043  1
  Rb  Rb1  1  0.27092228  0.77042824  0.51910043  1
  Rb  Rb2  1  0.27092228  0.27042824  0.98089957  1
  Rb  Rb3  1  0.72907772  0.22957176  0.48089957  1
  Rb  Rb4  1  0.77959398  0.20656263  0.01848509  1
  Rb  Rb5  1  0.22040602  0.29343737  0.51848509  1
  Rb  Rb6  1  0.22040602  0.79343737  0.98151491  1
  Rb  Rb7  1  0.77959398  0.70656263  0.48151491  1
  U  U8  1  0.94608755  0.95748298  0.74652213  1
  U  U9  1  0.05391245  0.54251702  0.24652213  1
  U  U10  1  0.05391245  0.04251702  0.25347787  1
  U  U11  1  0.94608755  0.45748298  0.75347787  1
  U  U12  1  0.51670305  0.09077120  0.74526674  1
  U  U13  1  0.48329695  0.40922880  0.24526674  1
  U  U14  1  0.48329695  0.90922880  0.25473326  1
  U  U15  1  0.51670305  0.59077120  0.75473326  1
  F  F16  1  0.67592799  0.85202649  0.81807084  1
  F  F17  1  0.32407201  0.64797351  0.31807084  1
  F  F18  1  0.32407201  0.14797351  0.18192916  1
  F  F19  1  0.67592799  0.35202649  0.68192916  1
  F  F20  1  0.98064122  0.00429110  0.90004128  1
  F  F21  1  0.01935878  0.49570890  0.40004128  1
  F  F22  1  0.01935878  0.99570890  0.09995872  1
  F  F23  1  0.98064122  0.50429110  0.59995872  1
  F  F24  1  0.22930180  0.02369308  0.76445811  1
  F  F25  1  0.77069820  0.47630692  0.26445811  1
  F  F26  1  0.77069820  0.97630692  0.23554189  1
  F  F27  1  0.22930180  0.52369308  0.73554189  1
  F  F28  1  0.02822369  0.91925303  0.60238117  1
  F  F29  1  0.97177631  0.58074697  0.10238117  1
  F  F30  1  0.97177631  0.08074697  0.39761883  1
  F  F31  1  0.02822369  0.41925303  0.89761883  1
  F  F32  1  0.03111369  0.22682663  0.69572513  1
  F  F33  1  0.96888631  0.27317337  0.19572513  1
  F  F34  1  0.96888631  0.77317337  0.30427487  1
  F  F35  1  0.03111369  0.72682663  0.80427487  1
  F  F36  1  0.72574915  0.01259375  0.65039179  1
  F  F37  1  0.27425085  0.48740625  0.15039179  1
  F  F38  1  0.27425085  0.98740625  0.34960821  1
  F  F39  1  0.72574915  0.51259375  0.84960821  1
  F  F40  1  0.78672201  0.18592512  0.81077587  1
  F  F41  1  0.21327799  0.31407488  0.31077587  1
  F  F42  1  0.21327799  0.81407488  0.18922413  1
  F  F43  1  0.78672201  0.68592512  0.68922413  1
  F  F44  1  0.48182536  0.06059447  0.90042173  1
  F  F45  1  0.51817464  0.43940553  0.40042173  1
  F  F46  1  0.51817464  0.93940553  0.09957827  1
  F  F47  1  0.48182536  0.56059447  0.59957827  1
  F  F48  1  0.43395584  0.10969161  0.59806948  1
  F  F49  1  0.56604416  0.39030839  0.09806948  1
  F  F50  1  0.56604416  0.89030839  0.40193052  1
  F  F51  1  0.43395584  0.60969161  0.90193052  1
  F  F52  1  0.42047808  0.81821436  0.70920235  1
  F  F53  1  0.57952192  0.68178564  0.20920235  1
  F  F54  1  0.57952192  0.18178564  0.29079765  1
  F  F55  1  0.42047808  0.31821436  0.79079765  1
