# generated using pymatgen
data_HoP4HO12
_symmetry_space_group_name_H-M   'P 1'
_cell_length_a   7.18724344
_cell_length_b   9.78077362
_cell_length_c   13.77947682
_cell_angle_alpha   101.16507197
_cell_angle_beta   90.00000000
_cell_angle_gamma   90.00000000
_symmetry_Int_Tables_number   1
_chemical_formula_structural   HoP4HO12
_chemical_formula_sum   'Ho4 P16 H4 O48'
_cell_volume   950.31981106
_cell_formula_units_Z   4
loop_
 _symmetry_equiv_pos_site_id
 _symmetry_equiv_pos_as_xyz
  1  'x, y, z'
loop_
 _atom_site_type_symbol
 _atom_site_label
 _atom_site_symmetry_multiplicity
 _atom_site_fract_x
 _atom_site_fract_y
 _atom_site_fract_z
 _atom_site_occupancy
  Ho  Ho0  1  0.44434199  0.55870122  0.72973259  1
  Ho  Ho1  1  0.94434199  0.94129878  0.27026741  1
  Ho  Ho2  1  0.55565801  0.44129878  0.27026741  1
  Ho  Ho3  1  0.05565801  0.05870122  0.72973259  1
  P  P4  1  0.82535433  0.62510339  0.90114762  1
  P  P5  1  0.32535433  0.87489661  0.09885238  1
  P  P6  1  0.17464567  0.37489661  0.09885238  1
  P  P7  1  0.67464567  0.12510339  0.90114762  1
  P  P8  1  0.34540513  0.31137692  0.89752222  1
  P  P9  1  0.84540513  0.18862308  0.10247778  1
  P  P10  1  0.65459487  0.68862308  0.10247778  1
  P  P11  1  0.15459487  0.81137692  0.89752222  1
  P  P12  1  0.21243864  0.70669823  0.38638951  1
  P  P13  1  0.71243864  0.79330177  0.61361049  1
  P  P14  1  0.78756136  0.29330177  0.61361049  1
  P  P15  1  0.28756136  0.20669823  0.38638951  1
  P  P16  1  0.10363450  0.71269231  0.59516198  1
  P  P17  1  0.60363450  0.78730769  0.40483802  1
  P  P18  1  0.89636550  0.28730769  0.40483802  1
  P  P19  1  0.39636550  0.21269231  0.59516198  1
  H  H20  1  0.86841994  0.44303571  0.79258206  1
  H  H21  1  0.36841994  0.05696429  0.20741794  1
  H  H22  1  0.13158006  0.55696429  0.20741794  1
  H  H23  1  0.63158006  0.94303571  0.79258206  1
  O  O24  1  0.52252968  0.23884731  0.94211948  1
  O  O25  1  0.02252968  0.26115269  0.05788052  1
  O  O26  1  0.47747032  0.76115269  0.05788052  1
  O  O27  1  0.97747032  0.73884731  0.94211948  1
  O  O28  1  0.73377926  0.59634300  0.00049230  1
  O  O29  1  0.23377926  0.90365700  0.99950770  1
  O  O30  1  0.26622074  0.40365700  0.99950770  1
  O  O31  1  0.76622074  0.09634300  0.00049230  1
  O  O32  1  0.38184728  0.81351945  0.41642424  1
  O  O33  1  0.88184728  0.68648055  0.58357576  1
  O  O34  1  0.61815272  0.18648055  0.58357576  1
  O  O35  1  0.11815272  0.31351945  0.41642424  1
  O  O36  1  0.17475892  0.64643440  0.48495059  1
  O  O37  1  0.67475892  0.85356560  0.51504941  1
  O  O38  1  0.82524108  0.35356560  0.51504941  1
  O  O39  1  0.32524108  0.14643440  0.48495059  1
  O  O40  1  0.68758330  0.66908131  0.83249713  1
  O  O41  1  0.18758330  0.83091869  0.16750287  1
  O  O42  1  0.31241670  0.33091869  0.16750287  1
  O  O43  1  0.81241670  0.16908131  0.83249713  1
  O  O44  1  0.41737488  0.41239703  0.83835693  1
  O  O45  1  0.91737488  0.08760297  0.16164307  1
  O  O46  1  0.58262512  0.58760297  0.16164307  1
  O  O47  1  0.08262512  0.91239703  0.83835693  1
  O  O48  1  0.29269949  0.70212486  0.85570000  1
  O  O49  1  0.79269949  0.79787514  0.14430000  1
  O  O50  1  0.70730051  0.29787514  0.14430000  1
  O  O51  1  0.20730051  0.20212486  0.85570000  1
  O  O52  1  0.55049831  0.70822664  0.63680857  1
  O  O53  1  0.05049831  0.79177336  0.36319143  1
  O  O54  1  0.44950169  0.29177336  0.36319143  1
  O  O55  1  0.94950169  0.20822664  0.63680857  1
  O  O56  1  0.72960731  0.41676820  0.69204491  1
  O  O57  1  0.22960731  0.08323180  0.30795509  1
  O  O58  1  0.27039269  0.58323180  0.30795509  1
  O  O59  1  0.77039269  0.91676820  0.69204491  1
  O  O60  1  0.35999390  0.36703036  0.61842764  1
  O  O61  1  0.85999390  0.13296964  0.38157236  1
  O  O62  1  0.64000610  0.63296964  0.38157236  1
  O  O63  1  0.14000610  0.86703036  0.61842764  1
  O  O64  1  0.17478704  0.62072608  0.66165214  1
  O  O65  1  0.67478704  0.87927392  0.33834786  1
  O  O66  1  0.82521296  0.37927392  0.33834786  1
  O  O67  1  0.32521296  0.12072608  0.66165214  1
  O  O68  1  0.93009813  0.48738440  0.85743268  1
  O  O69  1  0.43009813  0.01261560  0.14256732  1
  O  O70  1  0.06990187  0.51261560  0.14256732  1
  O  O71  1  0.56990187  0.98738440  0.85743268  1
