# generated using pymatgen
data_Na12Mn3S6(O3F)8
_symmetry_space_group_name_H-M   'P 1'
_cell_length_a   9.67550524
_cell_length_b   9.70788966
_cell_length_c   9.79659786
_cell_angle_alpha   113.80104816
_cell_angle_beta   105.20619827
_cell_angle_gamma   109.00670370
_symmetry_Int_Tables_number   1
_chemical_formula_structural   Na12Mn3S6(O3F)8
_chemical_formula_sum   'Na12 Mn3 S6 O24 F8'
_cell_volume   708.79455535
_cell_formula_units_Z   1
loop_
 _symmetry_equiv_pos_site_id
 _symmetry_equiv_pos_as_xyz
  1  'x, y, z'
loop_
 _atom_site_type_symbol
 _atom_site_label
 _atom_site_symmetry_multiplicity
 _atom_site_fract_x
 _atom_site_fract_y
 _atom_site_fract_z
 _atom_site_occupancy
  Na  Na0  1  0.69568521  0.05030720  0.20416333  1
  Na  Na1  1  0.30431479  0.94969280  0.79583667  1
  Na  Na2  1  0.15459888  0.14478043  0.44080039  1
  Na  Na3  1  0.84540112  0.85521957  0.55919961  1
  Na  Na4  1  0.11185477  0.67939485  0.98490052  1
  Na  Na5  1  0.88814523  0.32060515  0.01509948  1
  Na  Na6  1  0.66043088  0.42520463  0.21452017  1
  Na  Na7  1  0.33956912  0.57479537  0.78547983  1
  Na  Na8  1  0.67173687  0.50010675  0.63375982  1
  Na  Na9  1  0.32826313  0.49989325  0.36624018  1
  Na  Na10  1  0.78111954  0.71678047  0.08255642  1
  Na  Na11  1  0.21888046  0.28321953  0.91744358  1
  Mn  Mn12  1  -0.00000000  0.50000000  0.50000000  1
  Mn  Mn13  1  -0.00000000  -0.00000000  -0.00000000  1
  Mn  Mn14  1  0.50000000  -0.00000000  0.50000000  1
  S  S15  1  0.09034541  0.76231011  0.35687260  1
  S  S16  1  0.90965459  0.23768989  0.64312740  1
  S  S17  1  0.53573637  0.33457697  0.81644953  1
  S  S18  1  0.46426363  0.66542303  0.18355047  1
  S  S19  1  0.39463468  0.12677601  0.22757699  1
  S  S20  1  0.60536532  0.87322399  0.77242301  1
  O  O21  1  0.67420888  0.38951562  0.97255648  1
  O  O22  1  0.32579112  0.61048438  0.02744352  1
  O  O23  1  0.56916852  0.25705167  0.67035441  1
  O  O24  1  0.43083148  0.74294833  0.32964559  1
  O  O25  1  0.94792880  0.79054437  0.35819955  1
  O  O26  1  0.05207120  0.20945563  0.64180045  1
  O  O27  1  0.41948212  0.29044366  0.36234997  1
  O  O28  1  0.58051788  0.70955634  0.63765003  1
  O  O29  1  0.53238656  0.49153203  0.82777302  1
  O  O30  1  0.46761344  0.50846797  0.17222698  1
  O  O31  1  0.37764302  0.21117877  0.78943250  1
  O  O32  1  0.62235698  0.78882123  0.21056750  1
  O  O33  1  0.23439834  0.93047599  0.42113829  1
  O  O34  1  0.76560166  0.06952401  0.57886171  1
  O  O35  1  0.45073028  0.15236412  0.10793207  1
  O  O36  1  0.54926972  0.84763588  0.89206793  1
  O  O37  1  0.04730383  0.63198867  0.18453801  1
  O  O38  1  0.95269617  0.36801133  0.81546199  1
  O  O39  1  0.13692928  0.70368605  0.47393659  1
  O  O40  1  0.86307072  0.29631395  0.52606341  1
  O  O41  1  0.48791469  0.05723852  0.30068966  1
  O  O42  1  0.51208531  0.94276148  0.69931034  1
  O  O43  1  0.21521375  0.99473417  0.13392225  1
  O  O44  1  0.78478625  0.00526583  0.86607775  1
  F  F45  1  0.83420958  0.57103604  0.50518440  1
  F  F46  1  0.16579042  0.42896396  0.49481560  1
  F  F47  1  0.93784622  0.01722135  0.17458850  1
  F  F48  1  0.06215378  0.98277865  0.82541150  1
  F  F49  1  0.86375859  0.34340623  0.26519837  1
  F  F50  1  0.13624141  0.65659377  0.73480163  1
  F  F51  1  0.89583558  0.75553615  0.90255917  1
  F  F52  1  0.10416442  0.24446385  0.09744083  1
