# generated using pymatgen
data_RbSr(BH4)3
_symmetry_space_group_name_H-M   'P 1'
_cell_length_a   8.45537947
_cell_length_b   8.69049831
_cell_length_c   12.34583046
_cell_angle_alpha   90.00000000
_cell_angle_beta   90.00000000
_cell_angle_gamma   90.00000000
_symmetry_Int_Tables_number   1
_chemical_formula_structural   RbSr(BH4)3
_chemical_formula_sum   'Rb4 Sr4 B12 H48'
_cell_volume   907.18965939
_cell_formula_units_Z   4
loop_
 _symmetry_equiv_pos_site_id
 _symmetry_equiv_pos_as_xyz
  1  'x, y, z'
loop_
 _atom_site_type_symbol
 _atom_site_label
 _atom_site_symmetry_multiplicity
 _atom_site_fract_x
 _atom_site_fract_y
 _atom_site_fract_z
 _atom_site_occupancy
  Rb  Rb0  1  0.45662830  0.03191701  0.27269442  1
  Rb  Rb1  1  0.54337170  0.96808299  0.77269442  1
  Rb  Rb2  1  0.04337170  0.53191701  0.77269442  1
  Rb  Rb3  1  0.95662830  0.46808299  0.27269442  1
  Sr  Sr4  1  0.50440110  0.47977659  0.99940869  1
  Sr  Sr5  1  0.49559890  0.52022341  0.49940869  1
  Sr  Sr6  1  0.99559890  0.97977659  0.49940869  1
  Sr  Sr7  1  0.00440110  0.02022341  0.99940869  1
  B  B8  1  0.77147829  0.78833845  0.96833138  1
  B  B9  1  0.22852171  0.21166155  0.46833138  1
  B  B10  1  0.72852171  0.28833845  0.46833138  1
  B  B11  1  0.27147829  0.71166155  0.96833138  1
  B  B12  1  0.30864068  0.19805139  0.98928392  1
  B  B13  1  0.69135932  0.80194861  0.48928392  1
  B  B14  1  0.19135932  0.69805139  0.48928392  1
  B  B15  1  0.80864068  0.30194861  0.98928392  1
  B  B16  1  0.43076775  0.48074604  0.72176092  1
  B  B17  1  0.56923225  0.51925396  0.22176092  1
  B  B18  1  0.06923225  0.98074604  0.22176092  1
  B  B19  1  0.93076775  0.01925396  0.72176092  1
  H  H20  1  0.73318209  0.92463628  0.95704562  1
  H  H21  1  0.26681791  0.07536372  0.45704562  1
  H  H22  1  0.76681791  0.42463628  0.45704562  1
  H  H23  1  0.23318209  0.57536372  0.95704562  1
  H  H24  1  0.84647197  0.74661022  0.88897017  1
  H  H25  1  0.15352803  0.25338978  0.38897017  1
  H  H26  1  0.65352803  0.24661022  0.38897017  1
  H  H27  1  0.34647197  0.75338978  0.88897017  1
  H  H28  1  0.64794642  0.71781491  0.97760247  1
  H  H29  1  0.35205358  0.28218509  0.47760247  1
  H  H30  1  0.85205358  0.21781491  0.47760247  1
  H  H31  1  0.14794642  0.78218509  0.97760247  1
  H  H32  1  0.85145141  0.77454703  0.05071133  1
  H  H33  1  0.14854859  0.22545297  0.55071133  1
  H  H34  1  0.64854859  0.27454703  0.55071133  1
  H  H35  1  0.35145141  0.72545297  0.05071133  1
  H  H36  1  0.34389543  0.26071631  0.07551410  1
  H  H37  1  0.65610457  0.73928369  0.57551410  1
  H  H38  1  0.15610457  0.76071631  0.57551410  1
  H  H39  1  0.84389543  0.23928369  0.07551410  1
  H  H40  1  0.40481844  0.22787042  0.91785074  1
  H  H41  1  0.59518156  0.77212958  0.41785074  1
  H  H42  1  0.09518156  0.72787042  0.41785074  1
  H  H43  1  0.90481844  0.27212958  0.91785074  1
  H  H44  1  0.17981761  0.24945118  0.96020096  1
  H  H45  1  0.82018239  0.75054882  0.46020096  1
  H  H46  1  0.32018239  0.74945118  0.46020096  1
  H  H47  1  0.67981761  0.25054882  0.96020096  1
  H  H48  1  0.30743417  0.05890239  0.00335764  1
  H  H49  1  0.69256583  0.94109761  0.50335764  1
  H  H50  1  0.19256583  0.55890239  0.50335764  1
  H  H51  1  0.80743417  0.44109761  0.00335764  1
  H  H52  1  0.57527950  0.48242370  0.70802152  1
  H  H53  1  0.42472050  0.51757630  0.20802152  1
  H  H54  1  0.92472050  0.98242370  0.20802152  1
  H  H55  1  0.07527950  0.01757630  0.70802152  1
  H  H56  1  0.36810289  0.39662553  0.65429398  1
  H  H57  1  0.63189711  0.60337447  0.15429398  1
  H  H58  1  0.13189711  0.89662553  0.15429398  1
  H  H59  1  0.86810289  0.10337447  0.65429398  1
  H  H60  1  0.37832606  0.61197259  0.71259006  1
  H  H61  1  0.62167394  0.38802741  0.21259006  1
  H  H62  1  0.12167394  0.11197259  0.21259006  1
  H  H63  1  0.87832606  0.88802741  0.71259006  1
  H  H64  1  0.39595680  0.42456776  0.80892207  1
  H  H65  1  0.60404320  0.57543224  0.30892207  1
  H  H66  1  0.10404320  0.92456776  0.30892207  1
  H  H67  1  0.89595680  0.07543224  0.80892207  1
