# generated using pymatgen
data_Tb2SeOF2
_symmetry_space_group_name_H-M   'P 1'
_cell_length_a   3.76726784
_cell_length_b   13.48720072
_cell_length_c   13.48720073
_cell_angle_alpha   120.00000263
_cell_angle_beta   90.00000000
_cell_angle_gamma   90.00000000
_symmetry_Int_Tables_number   1
_chemical_formula_structural   Tb2SeOF2
_chemical_formula_sum   'Tb12 Se6 O6 F12'
_cell_volume   593.47271971
_cell_formula_units_Z   6
loop_
 _symmetry_equiv_pos_site_id
 _symmetry_equiv_pos_as_xyz
  1  'x, y, z'
loop_
 _atom_site_type_symbol
 _atom_site_label
 _atom_site_symmetry_multiplicity
 _atom_site_fract_x
 _atom_site_fract_y
 _atom_site_fract_z
 _atom_site_occupancy
  Tb  Tb0  1  0.75000000  0.60239322  0.48533574  1
  Tb  Tb1  1  0.75000000  0.51466426  0.11705748  1
  Tb  Tb2  1  0.75000000  0.88294252  0.39760678  1
  Tb  Tb3  1  0.25000000  0.39760678  0.51466426  1
  Tb  Tb4  1  0.25000000  0.48533574  0.88294252  1
  Tb  Tb5  1  0.25000000  0.11705748  0.60239322  1
  Tb  Tb6  1  0.75000000  0.94495405  0.71130414  1
  Tb  Tb7  1  0.75000000  0.28869586  0.23364992  1
  Tb  Tb8  1  0.75000000  0.76635008  0.05504595  1
  Tb  Tb9  1  0.25000000  0.05504595  0.28869586  1
  Tb  Tb10  1  0.25000000  0.71130414  0.76635008  1
  Tb  Tb11  1  0.25000000  0.23364992  0.94495405  1
  Se  Se12  1  0.75000000  0.28090273  0.79384847  1
  Se  Se13  1  0.75000000  0.20615153  0.48705426  1
  Se  Se14  1  0.75000000  0.51294574  0.71909727  1
  Se  Se15  1  0.25000000  0.71909727  0.20615153  1
  Se  Se16  1  0.25000000  0.79384847  0.51294574  1
  Se  Se17  1  0.25000000  0.48705426  0.28090273  1
  O  O18  1  0.75000000  0.01438738  0.58778230  1
  O  O19  1  0.75000000  0.41221770  0.42660508  1
  O  O20  1  0.75000000  0.57339492  0.98561262  1
  O  O21  1  0.25000000  0.98561262  0.41221770  1
  O  O22  1  0.25000000  0.58778230  0.57339492  1
  O  O23  1  0.25000000  0.42660508  0.01438738  1
  F  F24  1  0.75000000  0.10616899  0.89915499  1
  F  F25  1  0.75000000  0.10084501  0.20701400  1
  F  F26  1  0.75000000  0.79298600  0.89383101  1
  F  F27  1  0.25000000  0.89383101  0.10084501  1
  F  F28  1  0.25000000  0.89915499  0.79298600  1
  F  F29  1  0.25000000  0.20701400  0.10616899  1
  F  F30  1  0.75000000  0.75273613  0.68580834  1
  F  F31  1  0.75000000  0.31419166  0.06692778  1
  F  F32  1  0.75000000  0.93307222  0.24726387  1
  F  F33  1  0.25000000  0.24726387  0.31419166  1
  F  F34  1  0.25000000  0.68580834  0.93307222  1
  F  F35  1  0.25000000  0.06692778  0.75273613  1
