# generated using pymatgen
data_Na3VS2(O4F)2
_symmetry_space_group_name_H-M   'P 1'
_cell_length_a   6.75612124
_cell_length_b   9.01049240
_cell_length_c   14.19045037
_cell_angle_alpha   90.00000000
_cell_angle_beta   90.00000000
_cell_angle_gamma   90.00000000
_symmetry_Int_Tables_number   1
_chemical_formula_structural   Na3VS2(O4F)2
_chemical_formula_sum   'Na12 V4 S8 O32 F8'
_cell_volume   863.85755995
_cell_formula_units_Z   4
loop_
 _symmetry_equiv_pos_site_id
 _symmetry_equiv_pos_as_xyz
  1  'x, y, z'
loop_
 _atom_site_type_symbol
 _atom_site_label
 _atom_site_symmetry_multiplicity
 _atom_site_fract_x
 _atom_site_fract_y
 _atom_site_fract_z
 _atom_site_occupancy
  Na  Na0  1  0.51816065  0.66702770  0.90335395  1
  Na  Na1  1  0.01816065  0.83297230  0.59664605  1
  Na  Na2  1  0.48183935  0.16702770  0.59664605  1
  Na  Na3  1  0.98183935  0.33297230  0.90335395  1
  Na  Na4  1  0.48183935  0.33297230  0.09664605  1
  Na  Na5  1  0.98183935  0.16702770  0.40335395  1
  Na  Na6  1  0.51816065  0.83297230  0.40335395  1
  Na  Na7  1  0.01816065  0.66702770  0.09664605  1
  Na  Na8  1  0.75000000  -0.00000000  0.04917336  1
  Na  Na9  1  0.25000000  0.50000000  0.45082664  1
  Na  Na10  1  0.25000000  0.00000000  0.95082664  1
  Na  Na11  1  0.75000000  0.50000000  0.54917336  1
  V  V12  1  0.75000000  -0.00000000  0.80207308  1
  V  V13  1  0.25000000  0.50000000  0.69792692  1
  V  V14  1  0.25000000  -0.00000000  0.19792692  1
  V  V15  1  0.75000000  0.50000000  0.30207308  1
  S  S16  1  0.00148765  0.69373521  0.85731283  1
  S  S17  1  0.50148765  0.80626479  0.64268717  1
  S  S18  1  0.99851235  0.19373521  0.64268717  1
  S  S19  1  0.49851235  0.30626479  0.85731283  1
  S  S20  1  0.99851235  0.30626479  0.14268717  1
  S  S21  1  0.49851235  0.19373521  0.35731283  1
  S  S22  1  0.00148765  0.80626479  0.35731283  1
  S  S23  1  0.50148765  0.69373521  0.14268717  1
  O  O24  1  0.44701162  0.44389638  0.79972198  1
  O  O25  1  0.94701162  0.05610362  0.70027802  1
  O  O26  1  0.55298838  0.94389638  0.70027802  1
  O  O27  1  0.05298838  0.55610362  0.79972198  1
  O  O28  1  0.55298838  0.55610362  0.20027802  1
  O  O29  1  0.05298838  0.94389638  0.29972198  1
  O  O30  1  0.44701162  0.05610362  0.29972198  1
  O  O31  1  0.94701162  0.44389638  0.20027802  1
  O  O32  1  0.18381121  0.76648293  0.88942417  1
  O  O33  1  0.68381121  0.73351707  0.61057583  1
  O  O34  1  0.81618879  0.26648293  0.61057583  1
  O  O35  1  0.31618879  0.23351707  0.88942417  1
  O  O36  1  0.81618879  0.23351707  0.11057583  1
  O  O37  1  0.31618879  0.26648293  0.38942417  1
  O  O38  1  0.18381121  0.73351707  0.38942417  1
  O  O39  1  0.68381121  0.76648293  0.11057583  1
  O  O40  1  0.87775816  0.64251467  0.93643458  1
  O  O41  1  0.37775816  0.85748533  0.56356542  1
  O  O42  1  0.12224184  0.14251467  0.56356542  1
  O  O43  1  0.62224184  0.35748533  0.93643458  1
  O  O44  1  0.12224184  0.35748533  0.06356542  1
  O  O45  1  0.62224184  0.14251467  0.43643458  1
  O  O46  1  0.87775816  0.85748533  0.43643458  1
  O  O47  1  0.37775816  0.64251467  0.06356542  1
  O  O48  1  0.38353564  0.70812565  0.70687224  1
  O  O49  1  0.88353564  0.79187435  0.79312776  1
  O  O50  1  0.61646436  0.20812565  0.79312776  1
  O  O51  1  0.11646436  0.29187435  0.70687224  1
  O  O52  1  0.61646436  0.29187435  0.29312776  1
  O  O53  1  0.11646436  0.20812565  0.20687224  1
  O  O54  1  0.38353564  0.79187435  0.20687224  1
  O  O55  1  0.88353564  0.70812565  0.29312776  1
  F  F56  1  0.57595173  0.93046058  0.90204171  1
  F  F57  1  0.07595173  0.56953942  0.59795829  1
  F  F58  1  0.42404827  0.43046058  0.59795829  1
  F  F59  1  0.92404827  0.06953942  0.90204171  1
  F  F60  1  0.42404827  0.06953942  0.09795829  1
  F  F61  1  0.92404827  0.43046058  0.40204171  1
  F  F62  1  0.57595173  0.56953942  0.40204171  1
  F  F63  1  0.07595173  0.93046058  0.09795829  1
