# generated using pymatgen
data_CeTl(PSe3)2
_symmetry_space_group_name_H-M   'P 1'
_cell_length_a   7.86523602
_cell_length_b   12.00814182
_cell_length_c   12.50621763
_cell_angle_alpha   109.69141135
_cell_angle_beta   90.00000000
_cell_angle_gamma   90.00000000
_symmetry_Int_Tables_number   1
_chemical_formula_structural   CeTl(PSe3)2
_chemical_formula_sum   'Ce4 Tl4 P8 Se24'
_cell_volume   1112.09935936
_cell_formula_units_Z   4
loop_
 _symmetry_equiv_pos_site_id
 _symmetry_equiv_pos_as_xyz
  1  'x, y, z'
loop_
 _atom_site_type_symbol
 _atom_site_label
 _atom_site_symmetry_multiplicity
 _atom_site_fract_x
 _atom_site_fract_y
 _atom_site_fract_z
 _atom_site_occupancy
  Ce  Ce0  1  0.10416338  0.59462394  0.34924452  1
  Ce  Ce1  1  0.60416338  0.90537606  0.65075548  1
  Ce  Ce2  1  0.89583662  0.40537606  0.65075548  1
  Ce  Ce3  1  0.39583662  0.09462394  0.34924452  1
  Tl  Tl4  1  0.91024449  0.87522166  0.12820469  1
  Tl  Tl5  1  0.41024449  0.62477834  0.87179531  1
  Tl  Tl6  1  0.08975551  0.12477834  0.87179531  1
  Tl  Tl7  1  0.58975551  0.37522166  0.12820469  1
  P  P8  1  0.09738408  0.74612110  0.67776324  1
  P  P9  1  0.59738408  0.75387890  0.32223676  1
  P  P10  1  0.90261592  0.25387890  0.32223676  1
  P  P11  1  0.40261592  0.24612110  0.67776324  1
  P  P12  1  0.38184669  0.76780539  0.20806666  1
  P  P13  1  0.88184669  0.73219461  0.79193334  1
  P  P14  1  0.61815331  0.23219461  0.79193334  1
  P  P15  1  0.11815331  0.26780539  0.20806666  1
  Se  Se16  1  0.28511166  0.58499187  0.12755463  1
  Se  Se17  1  0.78511166  0.91500813  0.87244537  1
  Se  Se18  1  0.71488834  0.41500813  0.87244537  1
  Se  Se19  1  0.21488834  0.08499187  0.12755463  1
  Se  Se20  1  0.18597148  0.86826499  0.32966891  1
  Se  Se21  1  0.68597148  0.63173501  0.67033109  1
  Se  Se22  1  0.81402852  0.13173501  0.67033109  1
  Se  Se23  1  0.31402852  0.36826499  0.32966891  1
  Se  Se24  1  0.79198339  0.63803966  0.21110726  1
  Se  Se25  1  0.29198339  0.86196034  0.78889274  1
  Se  Se26  1  0.20801661  0.36196034  0.78889274  1
  Se  Se27  1  0.70801661  0.13803966  0.21110726  1
  Se  Se28  1  0.47312911  0.68479676  0.44759036  1
  Se  Se29  1  0.97312911  0.81520324  0.55240964  1
  Se  Se30  1  0.52687089  0.31520324  0.55240964  1
  Se  Se31  1  0.02687089  0.18479676  0.44759036  1
  Se  Se32  1  0.19216132  0.56401525  0.58998153  1
  Se  Se33  1  0.69216132  0.93598475  0.41001847  1
  Se  Se34  1  0.80783868  0.43598475  0.41001847  1
  Se  Se35  1  0.30783868  0.06401525  0.58998153  1
  Se  Se36  1  0.48098543  0.87207691  0.10883939  1
  Se  Se37  1  0.98098543  0.62792309  0.89116061  1
  Se  Se38  1  0.51901457  0.12792309  0.89116061  1
  Se  Se39  1  0.01901457  0.37207691  0.10883939  1
