# generated using pymatgen
data_RbZr2(AsO4)3
_symmetry_space_group_name_H-M   'P 1'
_cell_length_a   9.15421443
_cell_length_b   9.15421443
_cell_length_c   10.04064149
_cell_angle_alpha   62.87984140
_cell_angle_beta   62.87984140
_cell_angle_gamma   59.99999764
_symmetry_Int_Tables_number   1
_chemical_formula_structural   RbZr2(AsO4)3
_chemical_formula_sum   'Rb2 Zr4 As6 O24'
_cell_volume   619.55623165
_cell_formula_units_Z   2
loop_
 _symmetry_equiv_pos_site_id
 _symmetry_equiv_pos_as_xyz
  1  'x, y, z'
loop_
 _atom_site_type_symbol
 _atom_site_label
 _atom_site_symmetry_multiplicity
 _atom_site_fract_x
 _atom_site_fract_y
 _atom_site_fract_z
 _atom_site_occupancy
  Rb  Rb0  1  0.50000000  0.50000000  0.50000000  1
  Rb  Rb1  1  -0.00000000  -0.00000000  0.00000000  1
  Zr  Zr2  1  0.65031199  0.65031199  0.04906404  1
  Zr  Zr3  1  0.15031199  0.15031199  0.54906404  1
  Zr  Zr4  1  0.34968801  0.34968801  0.95093596  1
  Zr  Zr5  1  0.84968801  0.84968801  0.45093596  1
  As  As6  1  0.46882877  0.03117123  0.75000000  1
  As  As7  1  0.03117123  0.75000000  0.75000000  1
  As  As8  1  0.75000000  0.46882877  0.75000000  1
  As  As9  1  0.96882877  0.25000000  0.25000000  1
  As  As10  1  0.25000000  0.53117123  0.25000000  1
  As  As11  1  0.53117123  0.96882877  0.25000000  1
  O  O12  1  0.48616993  0.84568660  0.90739765  1
  O  O13  1  0.84568660  0.76074582  0.90739765  1
  O  O14  1  0.76074582  0.48616993  0.90739765  1
  O  O15  1  0.98616993  0.26074582  0.40739765  1
  O  O16  1  0.26074582  0.34568660  0.40739765  1
  O  O17  1  0.34568660  0.98616993  0.40739765  1
  O  O18  1  0.51383007  0.15431340  0.09260235  1
  O  O19  1  0.15431340  0.23925418  0.09260235  1
  O  O20  1  0.23925418  0.51383007  0.09260235  1
  O  O21  1  0.01383007  0.73925418  0.59260235  1
  O  O22  1  0.73925418  0.65431340  0.59260235  1
  O  O23  1  0.65431340  0.01383007  0.59260235  1
  O  O24  1  0.57146601  0.79366160  0.20073421  1
  O  O25  1  0.79366160  0.43413818  0.20073421  1
  O  O26  1  0.43413818  0.57146601  0.20073421  1
  O  O27  1  0.07146601  0.93413818  0.70073421  1
  O  O28  1  0.93413818  0.29366160  0.70073421  1
  O  O29  1  0.29366160  0.07146601  0.70073421  1
  O  O30  1  0.42853399  0.20633840  0.79926579  1
  O  O31  1  0.20633840  0.56586182  0.79926579  1
  O  O32  1  0.56586182  0.42853399  0.79926579  1
  O  O33  1  0.92853399  0.06586182  0.29926579  1
  O  O34  1  0.06586182  0.70633840  0.29926579  1
  O  O35  1  0.70633840  0.92853399  0.29926579  1
