# generated using pymatgen
data_Ta7BiO19
_symmetry_space_group_name_H-M   'P 1'
_cell_length_a   6.27304961
_cell_length_b   6.27302938
_cell_length_c   20.21733037
_cell_angle_alpha   90.00000000
_cell_angle_beta   90.00000000
_cell_angle_gamma   119.99949941
_symmetry_Int_Tables_number   1
_chemical_formula_structural   Ta7BiO19
_chemical_formula_sum   'Ta14 Bi2 O38'
_cell_volume   688.98961208
_cell_formula_units_Z   2
loop_
 _symmetry_equiv_pos_site_id
 _symmetry_equiv_pos_as_xyz
  1  'x, y, z'
loop_
 _atom_site_type_symbol
 _atom_site_label
 _atom_site_symmetry_multiplicity
 _atom_site_fract_x
 _atom_site_fract_y
 _atom_site_fract_z
 _atom_site_occupancy
  Ta  Ta0  1  0.33333358  0.66667227  -0.00000027  1
  Ta  Ta1  1  0.33333358  0.66667227  0.50000027  1
  Ta  Ta2  1  0.63974066  0.99940339  0.15627480  1
  Ta  Ta3  1  0.35966417  0.36025829  0.15627245  1
  Ta  Ta4  1  0.00058996  0.64033519  0.15627393  1
  Ta  Ta5  1  0.63974066  0.99940339  0.34372520  1
  Ta  Ta6  1  0.35966417  0.36025829  0.34372755  1
  Ta  Ta7  1  0.00058996  0.64033519  0.34372607  1
  Ta  Ta8  1  0.35966078  0.99940295  0.65627546  1
  Ta  Ta9  1  0.00059273  0.36025735  0.65627470  1
  Ta  Ta10  1  0.63974505  0.64033506  0.65627257  1
  Ta  Ta11  1  0.35966078  0.99940295  0.84372454  1
  Ta  Ta12  1  0.00059273  0.36025735  0.84372530  1
  Ta  Ta13  1  0.63974505  0.64033506  0.84372743  1
  Bi  Bi14  1  0.66668448  0.33331418  0.00000005  1
  Bi  Bi15  1  0.66668448  0.33331418  0.49999995  1
  O  O16  1  0.24707080  0.99984714  0.15344304  1
  O  O17  1  0.75276068  0.75292099  0.15344323  1
  O  O18  1  0.00016751  0.24723171  0.15344471  1
  O  O19  1  0.24707080  0.99984714  0.34655696  1
  O  O20  1  0.75276068  0.75292099  0.34655677  1
  O  O21  1  0.00016751  0.24723171  0.34655529  1
  O  O22  1  0.75277803  0.99985216  0.65344283  1
  O  O23  1  0.00016124  0.75291988  0.65344275  1
  O  O24  1  0.24706139  0.24723030  0.65344433  1
  O  O25  1  0.75277803  0.99985216  0.84655717  1
  O  O26  1  0.00016124  0.75291988  0.84655725  1
  O  O27  1  0.24706139  0.24723030  0.84655567  1
  O  O28  1  0.33332840  0.66667608  0.16716288  1
  O  O29  1  0.33332840  0.66667608  0.33283712  1
  O  O30  1  0.33334487  0.66667438  0.66716240  1
  O  O31  1  0.33334487  0.66667438  0.83283760  1
  O  O32  1  0.66667633  0.33332728  0.13365429  1
  O  O33  1  0.66667633  0.33332728  0.36634571  1
  O  O34  1  0.66665368  0.33332634  0.63365428  1
  O  O35  1  0.66665368  0.33332634  0.86634572  1
  O  O36  1  0.62546334  0.04155461  0.25000000  1
  O  O37  1  0.41609432  0.37454479  0.25000000  1
  O  O38  1  0.95843824  0.58390443  0.25000000  1
  O  O39  1  0.41609171  0.04155663  0.75000000  1
  O  O40  1  0.95844833  0.37454376  0.75000000  1
  O  O41  1  0.62546442  0.58390629  0.75000000  1
  O  O42  1  0.57169412  0.95064443  0.05647813  1
  O  O43  1  0.37895294  0.42831394  0.05647930  1
  O  O44  1  0.04935265  0.62105034  0.05647731  1
  O  O45  1  0.57169412  0.95064443  0.44352187  1
  O  O46  1  0.37895294  0.42831394  0.44352070  1
  O  O47  1  0.04935265  0.62105034  0.44352269  1
  O  O48  1  0.37894762  0.95064374  0.55647787  1
  O  O49  1  0.04935175  0.42830700  0.55647845  1
  O  O50  1  0.57168642  0.62105036  0.55647714  1
  O  O51  1  0.37894762  0.95064374  0.94352213  1
  O  O52  1  0.04935175  0.42830700  0.94352155  1
  O  O53  1  0.57168642  0.62105036  0.94352286  1
