# generated using pymatgen
data_Ba3Ta2Se9
_symmetry_space_group_name_H-M   'P 1'
_cell_length_a   7.46231122
_cell_length_b   12.57914308
_cell_length_c   17.85808434
_cell_angle_alpha   90.00000000
_cell_angle_beta   97.56600548
_cell_angle_gamma   90.00000000
_symmetry_Int_Tables_number   1
_chemical_formula_structural   Ba3Ta2Se9
_chemical_formula_sum   'Ba12 Ta8 Se36'
_cell_volume   1661.73470363
_cell_formula_units_Z   4
loop_
 _symmetry_equiv_pos_site_id
 _symmetry_equiv_pos_as_xyz
  1  'x, y, z'
loop_
 _atom_site_type_symbol
 _atom_site_label
 _atom_site_symmetry_multiplicity
 _atom_site_fract_x
 _atom_site_fract_y
 _atom_site_fract_z
 _atom_site_occupancy
  Ba  Ba0  1  0.76251123  0.58811547  0.91655925  1
  Ba  Ba1  1  0.23748877  0.08811547  0.58344075  1
  Ba  Ba2  1  0.23748877  0.41188453  0.08344075  1
  Ba  Ba3  1  0.76251123  0.91188453  0.41655925  1
  Ba  Ba4  1  0.75443602  0.25683481  0.75300329  1
  Ba  Ba5  1  0.24556398  0.75683481  0.74699671  1
  Ba  Ba6  1  0.24556398  0.74316519  0.24699671  1
  Ba  Ba7  1  0.75443602  0.24316519  0.25300329  1
  Ba  Ba8  1  0.24331889  0.06906030  0.92081951  1
  Ba  Ba9  1  0.75668111  0.56906030  0.57918049  1
  Ba  Ba10  1  0.75668111  0.93093970  0.07918049  1
  Ba  Ba11  1  0.24331889  0.43093970  0.42081951  1
  Ta  Ta12  1  0.21789762  0.44315960  0.84985030  1
  Ta  Ta13  1  0.78210238  0.94315960  0.65014970  1
  Ta  Ta14  1  0.78210238  0.55684040  0.15014970  1
  Ta  Ta15  1  0.21789762  0.05684040  0.34985030  1
  Ta  Ta16  1  0.27740014  0.43387679  0.65445540  1
  Ta  Ta17  1  0.72259986  0.93387679  0.84554460  1
  Ta  Ta18  1  0.72259986  0.56612321  0.34554460  1
  Ta  Ta19  1  0.27740014  0.06612321  0.15445540  1
  Se  Se20  1  0.25314815  0.27308372  0.75759109  1
  Se  Se21  1  0.74685185  0.77308372  0.74240891  1
  Se  Se22  1  0.74685185  0.72691628  0.24240891  1
  Se  Se23  1  0.25314815  0.22691628  0.25759109  1
  Se  Se24  1  0.46375891  0.29527171  0.88021996  1
  Se  Se25  1  0.53624109  0.79527171  0.61978004  1
  Se  Se26  1  0.53624109  0.70472829  0.11978004  1
  Se  Se27  1  0.46375891  0.20472829  0.38021996  1
  Se  Se28  1  0.49515405  0.34376555  0.58533948  1
  Se  Se29  1  0.50484595  0.84376555  0.91466052  1
  Se  Se30  1  0.50484595  0.65623445  0.41466052  1
  Se  Se31  1  0.49515405  0.15623445  0.08533948  1
  Se  Se32  1  0.48838219  0.51699531  0.75989146  1
  Se  Se33  1  0.51161781  0.01699531  0.74010854  1
  Se  Se34  1  0.51161781  0.48300469  0.24010854  1
  Se  Se35  1  0.48838219  0.98300469  0.25989146  1
  Se  Se36  1  0.31537785  0.58182855  0.93922989  1
  Se  Se37  1  0.68462215  0.08182855  0.56077011  1
  Se  Se38  1  0.68462215  0.41817145  0.06077011  1
  Se  Se39  1  0.31537785  0.91817145  0.43922989  1
  Se  Se40  1  0.00007235  0.52506726  0.74913847  1
  Se  Se41  1  -0.00007235  0.02506726  0.75086153  1
  Se  Se42  1  -0.00007235  0.47493274  0.25086153  1
  Se  Se43  1  0.00007235  0.97493274  0.24913847  1
  Se  Se44  1  0.99820376  0.34946498  0.91751774  1
  Se  Se45  1  0.00179624  0.84946498  0.58248226  1
  Se  Se46  1  0.00179624  0.65053502  0.08248226  1
  Se  Se47  1  0.99820376  0.15053502  0.41751774  1
  Se  Se48  1  0.01428630  0.30934801  0.61806014  1
  Se  Se49  1  0.98571370  0.80934801  0.88193986  1
  Se  Se50  1  0.98571370  0.69065199  0.38193986  1
  Se  Se51  1  0.01428630  0.19065199  0.11806014  1
  Se  Se52  1  0.19886925  0.58473231  0.57147681  1
  Se  Se53  1  0.80113075  0.08473231  0.92852319  1
  Se  Se54  1  0.80113075  0.41526769  0.42852319  1
  Se  Se55  1  0.19886925  0.91526769  0.07147681  1
