# generated using pymatgen
data_Na11(CoO2)13
_symmetry_space_group_name_H-M   'P 1'
_cell_length_a   10.74584671
_cell_length_b   10.74584672
_cell_length_c   11.00938277
_cell_angle_alpha   90.00000000
_cell_angle_beta   90.00000000
_cell_angle_gamma   120.00000002
_symmetry_Int_Tables_number   1
_chemical_formula_structural   Na11(CoO2)13
_chemical_formula_sum   'Na22 Co26 O52'
_cell_volume   1100.96847938
_cell_formula_units_Z   2
loop_
 _symmetry_equiv_pos_site_id
 _symmetry_equiv_pos_as_xyz
  1  'x, y, z'
loop_
 _atom_site_type_symbol
 _atom_site_label
 _atom_site_symmetry_multiplicity
 _atom_site_fract_x
 _atom_site_fract_y
 _atom_site_fract_z
 _atom_site_occupancy
  Na  Na0  1  0.09366721  0.35572651  0.84343731  1
  Na  Na1  1  0.64427349  0.73794070  0.84343731  1
  Na  Na2  1  0.26205930  0.90633279  0.84343731  1
  Na  Na3  1  0.46409723  0.60833716  0.34320053  1
  Na  Na4  1  0.39166284  0.85575907  0.34320053  1
  Na  Na5  1  0.14424093  0.53590277  0.34320053  1
  Na  Na6  1  0.33057401  0.09307671  0.34303841  1
  Na  Na7  1  0.90692329  0.23749730  0.34303841  1
  Na  Na8  1  0.76250270  0.66942599  0.34303841  1
  Na  Na9  1  0.18909033  0.13075060  0.84351242  1
  Na  Na10  1  0.86924940  0.05833973  0.84351242  1
  Na  Na11  1  0.94166027  0.81090967  0.84351242  1
  Na  Na12  1  0.42640934  0.42927610  0.84360193  1
  Na  Na13  1  0.57072390  0.99713324  0.84360193  1
  Na  Na14  1  0.00286676  0.57359066  0.84360193  1
  Na  Na15  1  0.66666700  0.33333300  0.34053476  1
  Na  Na16  1  0.33333300  0.66666700  0.84306513  1
  Na  Na17  1  0.23972304  0.31101462  0.34330218  1
  Na  Na18  1  0.68898538  0.92870842  0.34330218  1
  Na  Na19  1  0.07129158  0.76027696  0.34330218  1
  Na  Na20  1  -0.00000000  -0.00000000  0.34355140  1
  Na  Na21  1  0.66666700  0.33333300  0.84602527  1
  Co  Co22  1  0.27885864  0.48732412  0.09096667  1
  Co  Co23  1  0.51267588  0.79153452  0.09096667  1
  Co  Co24  1  0.20846548  0.72114136  0.09096667  1
  Co  Co25  1  0.36163853  0.25776219  0.09292183  1
  Co  Co26  1  0.74223781  0.10387634  0.09292183  1
  Co  Co27  1  0.89612366  0.63836147  0.09292183  1
  Co  Co28  1  0.43732973  0.02846101  0.09367548  1
  Co  Co29  1  0.97153899  0.40886871  0.09367548  1
  Co  Co30  1  0.59113129  0.56267027  0.09367548  1
  Co  Co31  1  0.66666700  0.33333300  0.09331141  1
  Co  Co32  1  0.05452971  0.17951096  0.09570945  1
  Co  Co33  1  0.82048904  0.87501875  0.09570945  1
  Co  Co34  1  0.12498125  0.94547029  0.09570945  1
  Co  Co35  1  0.36046438  0.25704829  0.59304647  1
  Co  Co36  1  0.74295171  0.10341609  0.59304647  1
  Co  Co37  1  0.89658391  0.63953562  0.59304647  1
  Co  Co38  1  0.43638110  0.02689302  0.59351322  1
  Co  Co39  1  0.97310698  0.40948808  0.59351322  1
  Co  Co40  1  0.59051192  0.56361890  0.59351322  1
  Co  Co41  1  0.05254525  0.17869715  0.59150538  1
  Co  Co42  1  0.82130285  0.87384810  0.59150538  1
  Co  Co43  1  0.12615190  0.94745475  0.59150538  1
  Co  Co44  1  0.20721578  0.71966663  0.59526825  1
  Co  Co45  1  0.28033337  0.48754814  0.59526825  1
  Co  Co46  1  0.51245186  0.79278422  0.59526825  1
  Co  Co47  1  0.66666700  0.33333300  0.59320100  1
  O  O48  1  0.15453783  0.53470554  0.99342312  1
  O  O49  1  0.46529446  0.61983129  0.99342312  1
  O  O50  1  0.38016871  0.84546217  0.99342312  1
  O  O51  1  0.23264006  0.30736473  0.99341947  1
  O  O52  1  0.69263527  0.92527533  0.99341947  1
  O  O53  1  0.07472467  0.76735994  0.99341947  1
  O  O54  1  0.46533305  0.62064863  0.69339508  1
  O  O55  1  0.37935137  0.84468341  0.69339508  1
  O  O56  1  0.15531659  0.53466695  0.69339508  1
  O  O57  1  0.49408669  0.21266426  0.50285844  1
  O  O58  1  0.78733574  0.28142243  0.50285844  1
  O  O59  1  0.71857757  0.50591331  0.50285844  1
  O  O60  1  0.30484014  0.07499411  0.00198626  1
  O  O61  1  0.92500589  0.22984603  0.00198626  1
  O  O62  1  0.77015397  0.69515986  0.00198626  1
  O  O63  1  0.30006559  0.07156949  0.68582036  1
  O  O64  1  0.92843051  0.22849611  0.68582036  1
  O  O65  1  0.77150389  0.69993441  0.68582036  1
  O  O66  1  0.07350950  0.76500996  0.69258313  1
  O  O67  1  0.23499004  0.30849954  0.69258313  1
  O  O68  1  0.69150046  0.92649050  0.69258313  1
  O  O69  1  0.33333300  0.66666700  0.49600317  1
  O  O70  1  0.09886799  0.35844993  0.49373303  1
  O  O71  1  0.64155007  0.74041806  0.49373303  1
  O  O72  1  0.25958194  0.90113201  0.49373303  1
  O  O73  1  0.17834455  0.13237603  0.49328025  1
  O  O74  1  0.86762397  0.04596852  0.49328025  1
  O  O75  1  0.95403148  0.82165545  0.49328025  1
  O  O76  1  -0.00000000  -0.00000000  0.69150095  1
  O  O77  1  0.03307045  0.59451620  0.50096158  1
  O  O78  1  0.40548380  0.43855425  0.50096158  1
  O  O79  1  0.56144575  0.96692955  0.50096158  1
  O  O80  1  0.17889161  0.13186712  0.19321544  1
  O  O81  1  0.86813288  0.04702449  0.19321544  1
  O  O82  1  0.95297551  0.82110839  0.19321544  1
  O  O83  1  0.10067140  0.35923754  0.19307984  1
  O  O84  1  0.64076246  0.74143385  0.19307984  1
  O  O85  1  0.25856615  0.89932860  0.19307984  1
  O  O86  1  0.54601526  0.38306927  0.00234710  1
  O  O87  1  0.61693073  0.16294599  0.00234710  1
  O  O88  1  0.83705401  0.45398474  0.00234710  1
  O  O89  1  0.02859365  0.59160404  0.18466073  1
  O  O90  1  0.40839596  0.43698961  0.18466073  1
  O  O91  1  0.56301039  0.97140635  0.18466073  1
  O  O92  1  -0.00000000  -0.00000000  0.99526566  1
  O  O93  1  0.33333300  0.66666700  0.19166986  1
  O  O94  1  0.78724042  0.28361696  0.18439975  1
  O  O95  1  0.71638304  0.50362346  0.18439975  1
  O  O96  1  0.49637654  0.21275958  0.18439975  1
  O  O97  1  0.54552835  0.38478170  0.68363801  1
  O  O98  1  0.61521830  0.16074665  0.68363801  1
  O  O99  1  0.83925335  0.45447165  0.68363801  1
