# generated using pymatgen
data_SrTh(PS4)2
_symmetry_space_group_name_H-M   'P 1'
_cell_length_a   9.76439340
_cell_length_b   11.24240269
_cell_length_c   11.24240269
_cell_angle_alpha   90.00000000
_cell_angle_beta   90.00000000
_cell_angle_gamma   90.00000000
_symmetry_Int_Tables_number   1
_chemical_formula_structural   SrTh(PS4)2
_chemical_formula_sum   'Sr4 Th4 P8 S32'
_cell_volume   1234.13748300
_cell_formula_units_Z   4
loop_
 _symmetry_equiv_pos_site_id
 _symmetry_equiv_pos_as_xyz
  1  'x, y, z'
loop_
 _atom_site_type_symbol
 _atom_site_label
 _atom_site_symmetry_multiplicity
 _atom_site_fract_x
 _atom_site_fract_y
 _atom_site_fract_z
 _atom_site_occupancy
  Sr  Sr0  1  0.75000000  -0.00000000  0.50000000  1
  Sr  Sr1  1  0.25000000  0.50000000  0.00000000  1
  Sr  Sr2  1  0.75000000  0.50000000  0.00000000  1
  Sr  Sr3  1  0.25000000  -0.00000000  0.50000000  1
  Th  Th4  1  0.75000000  0.50000000  0.50000000  1
  Th  Th5  1  0.25000000  0.50000000  0.50000000  1
  Th  Th6  1  0.75000000  -0.00000000  0.00000000  1
  Th  Th7  1  0.25000000  -0.00000000  0.00000000  1
  P  P8  1  0.50000000  0.25924426  0.46471078  1
  P  P9  1  -0.00000000  0.46471078  0.74075574  1
  P  P10  1  0.50000000  0.24075574  0.96471078  1
  P  P11  1  -0.00000000  0.96471078  0.75924426  1
  P  P12  1  0.50000000  0.74075574  0.53528922  1
  P  P13  1  -0.00000000  0.53528922  0.25924426  1
  P  P14  1  0.50000000  0.75924426  0.03528922  1
  P  P15  1  -0.00000000  0.03528922  0.24075574  1
  S  S16  1  0.82705864  0.43068779  0.26585262  1
  S  S17  1  0.32705864  0.26585262  0.56931221  1
  S  S18  1  0.82705864  0.06931221  0.76585262  1
  S  S19  1  0.32705864  0.76585262  0.93068779  1
  S  S20  1  0.17294136  0.43068779  0.26585262  1
  S  S21  1  0.67294136  0.26585262  0.56931221  1
  S  S22  1  0.17294136  0.06931221  0.76585262  1
  S  S23  1  0.67294136  0.76585262  0.93068779  1
  S  S24  1  0.17294136  0.56931221  0.73414738  1
  S  S25  1  0.67294136  0.73414738  0.43068779  1
  S  S26  1  0.17294136  0.93068779  0.23414738  1
  S  S27  1  0.67294136  0.23414738  0.06931221  1
  S  S28  1  0.82705864  0.56931221  0.73414738  1
  S  S29  1  0.32705864  0.73414738  0.43068779  1
  S  S30  1  0.82705864  0.93068779  0.23414738  1
  S  S31  1  0.32705864  0.23414738  0.06931221  1
  S  S32  1  0.50000000  0.41666665  0.36671169  1
  S  S33  1  -0.00000000  0.36671169  0.58333335  1
  S  S34  1  0.50000000  0.08333335  0.86671169  1
  S  S35  1  -0.00000000  0.86671169  0.91666665  1
  S  S36  1  0.50000000  0.58333335  0.63328831  1
  S  S37  1  -0.00000000  0.63328831  0.41666665  1
  S  S38  1  0.50000000  0.91666665  0.13328831  1
  S  S39  1  -0.00000000  0.13328831  0.08333335  1
  S  S40  1  0.50000000  0.11019432  0.36579659  1
  S  S41  1  -0.00000000  0.36579659  0.88980568  1
  S  S42  1  0.50000000  0.38980568  0.86579659  1
  S  S43  1  -0.00000000  0.86579659  0.61019432  1
  S  S44  1  0.50000000  0.88980568  0.63420341  1
  S  S45  1  -0.00000000  0.63420341  0.11019432  1
  S  S46  1  0.50000000  0.61019432  0.13420341  1
  S  S47  1  -0.00000000  0.13420341  0.38980568  1
