# generated using pymatgen
data_Pr2ZrSe5
_symmetry_space_group_name_H-M   'P 1'
_cell_length_a   7.78303119
_cell_length_b   8.46226654
_cell_length_c   12.17619112
_cell_angle_alpha   90.00000000
_cell_angle_beta   90.00000000
_cell_angle_gamma   90.00000000
_symmetry_Int_Tables_number   1
_chemical_formula_structural   Pr2ZrSe5
_chemical_formula_sum   'Pr8 Zr4 Se20'
_cell_volume   801.94932745
_cell_formula_units_Z   4
loop_
 _symmetry_equiv_pos_site_id
 _symmetry_equiv_pos_as_xyz
  1  'x, y, z'
loop_
 _atom_site_type_symbol
 _atom_site_label
 _atom_site_symmetry_multiplicity
 _atom_site_fract_x
 _atom_site_fract_y
 _atom_site_fract_z
 _atom_site_occupancy
  Pr  Pr0  1  0.04548470  0.00250431  0.32470318  1
  Pr  Pr1  1  0.45451530  0.49749569  0.82470318  1
  Pr  Pr2  1  0.95451530  0.50250431  0.67529682  1
  Pr  Pr3  1  0.54548470  0.99749569  0.17529682  1
  Pr  Pr4  1  0.95451530  0.99749569  0.67529682  1
  Pr  Pr5  1  0.54548470  0.50250431  0.17529682  1
  Pr  Pr6  1  0.04548470  0.49749569  0.32470318  1
  Pr  Pr7  1  0.45451530  0.00250431  0.82470318  1
  Zr  Zr8  1  0.57813737  0.75000000  0.49076230  1
  Zr  Zr9  1  0.92186263  0.75000000  0.99076230  1
  Zr  Zr10  1  0.42186263  0.25000000  0.50923770  1
  Zr  Zr11  1  0.07813737  0.25000000  0.00923770  1
  Se  Se12  1  0.34792111  0.75000000  0.31297074  1
  Se  Se13  1  0.15207889  0.75000000  0.81297074  1
  Se  Se14  1  0.65207889  0.25000000  0.68702926  1
  Se  Se15  1  0.84792111  0.25000000  0.18702926  1
  Se  Se16  1  0.82925434  0.75000000  0.20848732  1
  Se  Se17  1  0.67074566  0.75000000  0.70848732  1
  Se  Se18  1  0.17074566  0.25000000  0.79151268  1
  Se  Se19  1  0.32925434  0.25000000  0.29151268  1
  Se  Se20  1  0.94499543  0.75000000  0.49566006  1
  Se  Se21  1  0.55500457  0.75000000  0.99566006  1
  Se  Se22  1  0.05500457  0.25000000  0.50433994  1
  Se  Se23  1  0.44499543  0.25000000  0.00433994  1
  Se  Se24  1  0.67166988  0.03687722  0.41938409  1
  Se  Se25  1  0.82833012  0.46312278  0.91938409  1
  Se  Se26  1  0.32833012  0.53687722  0.58061591  1
  Se  Se27  1  0.17166988  0.96312278  0.08061591  1
  Se  Se28  1  0.32833012  0.96312278  0.58061591  1
  Se  Se29  1  0.17166988  0.53687722  0.08061591  1
  Se  Se30  1  0.67166988  0.46312278  0.41938409  1
  Se  Se31  1  0.82833012  0.03687722  0.91938409  1
