# generated using pymatgen
data_CsSr(BH4)3
_symmetry_space_group_name_H-M   'P 1'
_cell_length_a   6.21185154
_cell_length_b   8.40765059
_cell_length_c   8.37824335
_cell_angle_alpha   90.00000000
_cell_angle_beta   90.00000000
_cell_angle_gamma   90.00000000
_symmetry_Int_Tables_number   1
_chemical_formula_structural   CsSr(BH4)3
_chemical_formula_sum   'Cs2 Sr2 B6 H24'
_cell_volume   437.57116279
_cell_formula_units_Z   2
loop_
 _symmetry_equiv_pos_site_id
 _symmetry_equiv_pos_as_xyz
  1  'x, y, z'
loop_
 _atom_site_type_symbol
 _atom_site_label
 _atom_site_symmetry_multiplicity
 _atom_site_fract_x
 _atom_site_fract_y
 _atom_site_fract_z
 _atom_site_occupancy
  Cs  Cs0  1  0.51085016  0.50000000  -0.00000000  1
  Cs  Cs1  1  0.48914984  0.00000000  0.50000000  1
  Sr  Sr2  1  0.98490645  0.50000000  0.50000000  1
  Sr  Sr3  1  0.01509355  0.00000000  -0.00000000  1
  B  B4  1  0.00861180  0.69706029  0.79757257  1
  B  B5  1  0.00861180  0.30293971  0.20242743  1
  B  B6  1  0.99138820  0.19706029  0.70242743  1
  B  B7  1  0.99138820  0.80293971  0.29757257  1
  B  B8  1  0.51577508  0.00000000  0.00000000  1
  B  B9  1  0.48422492  0.50000000  0.50000000  1
  H  H10  1  0.03925528  0.55309630  0.80508644  1
  H  H11  1  0.03925528  0.44690370  0.19491356  1
  H  H12  1  0.96074472  0.05309630  0.69491356  1
  H  H13  1  0.96074472  0.94690370  0.30508644  1
  H  H14  1  0.98750238  0.74476134  0.65944088  1
  H  H15  1  0.98750238  0.25523866  0.34055912  1
  H  H16  1  0.01249762  0.24476134  0.84055912  1
  H  H17  1  0.01249762  0.75523866  0.15944088  1
  H  H18  1  0.84776787  0.73245163  0.87445971  1
  H  H19  1  0.84776787  0.26754837  0.12554029  1
  H  H20  1  0.15223213  0.23245163  0.62554029  1
  H  H21  1  0.15223213  0.76754837  0.37445971  1
  H  H22  1  0.16815705  0.76300871  0.85142298  1
  H  H23  1  0.16815705  0.23699129  0.14857702  1
  H  H24  1  0.83184295  0.26300871  0.64857702  1
  H  H25  1  0.83184295  0.73699129  0.35142298  1
  H  H26  1  0.62587480  0.93819971  0.10489494  1
  H  H27  1  0.62587480  0.06180029  0.89510506  1
  H  H28  1  0.37412520  0.43819971  0.39510506  1
  H  H29  1  0.37412520  0.56180029  0.60489494  1
  H  H30  1  0.40455610  0.89604645  0.93878288  1
  H  H31  1  0.40455610  0.10395355  0.06121712  1
  H  H32  1  0.59544390  0.39604645  0.56121712  1
  H  H33  1  0.59544390  0.60395355  0.43878288  1
