# generated using pymatgen
data_Zr3Sb7Pd
_symmetry_space_group_name_H-M   'P 1'
_cell_length_a   3.99083612
_cell_length_b   14.72707437
_cell_length_c   17.79303439
_cell_angle_alpha   90.00000000
_cell_angle_beta   90.00000000
_cell_angle_gamma   90.00000000
_symmetry_Int_Tables_number   1
_chemical_formula_structural   Zr3Sb7Pd
_chemical_formula_sum   'Zr12 Sb28 Pd4'
_cell_volume   1045.75606584
_cell_formula_units_Z   4
loop_
 _symmetry_equiv_pos_site_id
 _symmetry_equiv_pos_as_xyz
  1  'x, y, z'
loop_
 _atom_site_type_symbol
 _atom_site_label
 _atom_site_symmetry_multiplicity
 _atom_site_fract_x
 _atom_site_fract_y
 _atom_site_fract_z
 _atom_site_occupancy
  Zr  Zr0  1  0.25000000  0.31063401  0.84647492  1
  Zr  Zr1  1  0.25000000  0.18936599  0.34647492  1
  Zr  Zr2  1  0.75000000  0.68936599  0.15352508  1
  Zr  Zr3  1  0.75000000  0.81063401  0.65352508  1
  Zr  Zr4  1  0.25000000  0.02935896  0.86937366  1
  Zr  Zr5  1  0.25000000  0.47064104  0.36937366  1
  Zr  Zr6  1  0.75000000  0.97064104  0.13062634  1
  Zr  Zr7  1  0.75000000  0.52935896  0.63062634  1
  Zr  Zr8  1  0.25000000  0.58883117  0.89180339  1
  Zr  Zr9  1  0.25000000  0.91116883  0.39180339  1
  Zr  Zr10  1  0.75000000  0.41116883  0.10819661  1
  Zr  Zr11  1  0.75000000  0.08883117  0.60819661  1
  Sb  Sb12  1  0.25000000  0.19524189  0.51870623  1
  Sb  Sb13  1  0.25000000  0.30475811  0.01870623  1
  Sb  Sb14  1  0.75000000  0.80475811  0.48129377  1
  Sb  Sb15  1  0.75000000  0.69524189  0.98129377  1
  Sb  Sb16  1  0.25000000  0.42988945  0.53604159  1
  Sb  Sb17  1  0.25000000  0.07011055  0.03604159  1
  Sb  Sb18  1  0.75000000  0.57011055  0.46395841  1
  Sb  Sb19  1  0.75000000  0.92988945  0.96395841  1
  Sb  Sb20  1  0.25000000  0.93939826  0.57131344  1
  Sb  Sb21  1  0.25000000  0.56060174  0.07131344  1
  Sb  Sb22  1  0.75000000  0.06060174  0.42868656  1
  Sb  Sb23  1  0.75000000  0.43939826  0.92868656  1
  Sb  Sb24  1  0.25000000  0.67613525  0.59297627  1
  Sb  Sb25  1  0.25000000  0.82386475  0.09297627  1
  Sb  Sb26  1  0.75000000  0.32386475  0.40702373  1
  Sb  Sb27  1  0.75000000  0.17613525  0.90702373  1
  Sb  Sb28  1  0.25000000  0.14707536  0.72795673  1
  Sb  Sb29  1  0.25000000  0.35292464  0.22795673  1
  Sb  Sb30  1  0.75000000  0.85292464  0.27204327  1
  Sb  Sb31  1  0.75000000  0.64707536  0.77204327  1
  Sb  Sb32  1  0.25000000  0.48057626  0.74872279  1
  Sb  Sb33  1  0.25000000  0.01942374  0.24872279  1
  Sb  Sb34  1  0.75000000  0.51942374  0.25127721  1
  Sb  Sb35  1  0.75000000  0.98057626  0.75127721  1
  Sb  Sb36  1  0.25000000  0.81989114  0.78376084  1
  Sb  Sb37  1  0.25000000  0.68010886  0.28376084  1
  Sb  Sb38  1  0.75000000  0.18010886  0.21623916  1
  Sb  Sb39  1  0.75000000  0.31989114  0.71623916  1
  Pd  Pd40  1  0.25000000  0.80970279  0.93439928  1
  Pd  Pd41  1  0.25000000  0.69029721  0.43439928  1
  Pd  Pd42  1  0.75000000  0.19029721  0.06560072  1
  Pd  Pd43  1  0.75000000  0.30970279  0.56560072  1
