# generated using pymatgen
data_CsSb(SO4)2
_symmetry_space_group_name_H-M   'P 1'
_cell_length_a   5.33639507
_cell_length_b   9.82409581
_cell_length_c   15.45447721
_cell_angle_alpha   90.00000000
_cell_angle_beta   90.00000000
_cell_angle_gamma   90.00000000
_symmetry_Int_Tables_number   1
_chemical_formula_structural   CsSb(SO4)2
_chemical_formula_sum   'Cs4 Sb4 S8 O32'
_cell_volume   810.20493100
_cell_formula_units_Z   4
loop_
 _symmetry_equiv_pos_site_id
 _symmetry_equiv_pos_as_xyz
  1  'x, y, z'
loop_
 _atom_site_type_symbol
 _atom_site_label
 _atom_site_symmetry_multiplicity
 _atom_site_fract_x
 _atom_site_fract_y
 _atom_site_fract_z
 _atom_site_occupancy
  Cs  Cs0  1  0.76252857  0.33826045  0.76116431  1
  Cs  Cs1  1  0.73747143  0.66173955  0.26116431  1
  Cs  Cs2  1  0.26252857  0.16173955  0.23883569  1
  Cs  Cs3  1  0.23747143  0.83826045  0.73883569  1
  Sb  Sb4  1  0.79357827  0.98722336  0.97883722  1
  Sb  Sb5  1  0.70642173  0.01277664  0.47883722  1
  Sb  Sb6  1  0.29357827  0.51277664  0.02116278  1
  Sb  Sb7  1  0.20642173  0.48722336  0.52116278  1
  S  S8  1  0.73686088  0.65490420  0.58376276  1
  S  S9  1  0.76313912  0.34509580  0.08376276  1
  S  S10  1  0.23686088  0.84509580  0.41623724  1
  S  S11  1  0.26313912  0.15490420  0.91623724  1
  S  S12  1  0.72803464  0.67201130  0.90243610  1
  S  S13  1  0.77196536  0.32798870  0.40243610  1
  S  S14  1  0.22803464  0.82798870  0.09756390  1
  S  S15  1  0.27196536  0.17201130  0.59756390  1
  O  O16  1  0.74027169  0.78123102  0.63280748  1
  O  O17  1  0.75972831  0.21876898  0.13280748  1
  O  O18  1  0.24027169  0.71876898  0.36719252  1
  O  O19  1  0.25972831  0.28123102  0.86719252  1
  O  O20  1  0.74252766  0.33150353  0.98965683  1
  O  O21  1  0.75747234  0.66849647  0.48965683  1
  O  O22  1  0.24252766  0.16849647  0.01034317  1
  O  O23  1  0.25747234  0.83150353  0.51034317  1
  O  O24  1  0.51043357  0.57057709  0.60934402  1
  O  O25  1  0.98956643  0.42942291  0.10934402  1
  O  O26  1  0.01043357  0.92942291  0.39065598  1
  O  O27  1  0.48956643  0.07057709  0.89065598  1
  O  O28  1  0.96789004  0.56858551  0.61624478  1
  O  O29  1  0.53210996  0.43141449  0.11624478  1
  O  O30  1  0.46789004  0.93141449  0.38375522  1
  O  O31  1  0.03210996  0.06858551  0.88375522  1
  O  O32  1  0.98639850  0.62421859  0.89236998  1
  O  O33  1  0.51360150  0.37578141  0.39236998  1
  O  O34  1  0.48639850  0.87578141  0.10763002  1
  O  O35  1  0.01360150  0.12421859  0.60763002  1
  O  O36  1  0.55398430  0.61998772  0.83796698  1
  O  O37  1  0.94601570  0.38001228  0.33796698  1
  O  O38  1  0.05398430  0.88001228  0.16203302  1
  O  O39  1  0.44601570  0.11998772  0.66203302  1
  O  O40  1  0.63657724  0.64470539  0.99349002  1
  O  O41  1  0.86342276  0.35529461  0.49349002  1
  O  O42  1  0.13657724  0.85529461  0.00650998  1
  O  O43  1  0.36342276  0.14470539  0.50650998  1
  O  O44  1  0.72468644  0.83063427  0.89141682  1
  O  O45  1  0.77531356  0.16936573  0.39141682  1
  O  O46  1  0.22468644  0.66936573  0.10858318  1
  O  O47  1  0.27531356  0.33063427  0.60858318  1
