# generated using pymatgen
data_Na4Cd3H2(C2O7)2
_symmetry_space_group_name_H-M   'P 1'
_cell_length_a   3.49912608
_cell_length_b   9.45290570
_cell_length_c   19.41301037
_cell_angle_alpha   99.14492403
_cell_angle_beta   90.00000000
_cell_angle_gamma   90.00000000
_symmetry_Int_Tables_number   1
_chemical_formula_structural   Na4Cd3H2(C2O7)2
_chemical_formula_sum   'Na8 Cd6 H4 C8 O28'
_cell_volume   633.96067608
_cell_formula_units_Z   2
loop_
 _symmetry_equiv_pos_site_id
 _symmetry_equiv_pos_as_xyz
  1  'x, y, z'
loop_
 _atom_site_type_symbol
 _atom_site_label
 _atom_site_symmetry_multiplicity
 _atom_site_fract_x
 _atom_site_fract_y
 _atom_site_fract_z
 _atom_site_occupancy
  Na  Na0  1  0.45188562  0.54227738  0.32622421  1
  Na  Na1  1  0.95188562  0.45772262  0.17377579  1
  Na  Na2  1  0.54811438  0.45772262  0.67377579  1
  Na  Na3  1  0.04811438  0.54227738  0.82622421  1
  Na  Na4  1  0.24377412  0.64303381  0.05005833  1
  Na  Na5  1  0.74377412  0.35696619  0.44994167  1
  Na  Na6  1  0.75622588  0.35696619  0.94994167  1
  Na  Na7  1  0.25622588  0.64303381  0.55005833  1
  Cd  Cd8  1  0.50000000  -0.00000000  0.50000000  1
  Cd  Cd9  1  -0.00000000  -0.00000000  -0.00000000  1
  Cd  Cd10  1  0.05763384  0.91814314  0.32008058  1
  Cd  Cd11  1  0.55763384  0.08185686  0.17991942  1
  Cd  Cd12  1  0.94236616  0.08185686  0.67991942  1
  Cd  Cd13  1  0.44236616  0.91814314  0.82008058  1
  H  H14  1  0.47766802  0.11558541  0.37943664  1
  H  H15  1  0.97766802  0.88441459  0.12056336  1
  H  H16  1  0.52233198  0.88441459  0.62056336  1
  H  H17  1  0.02233198  0.11558541  0.87943664  1
  C  C18  1  0.89639834  0.71367129  0.43365586  1
  C  C19  1  0.39639834  0.28632871  0.06634414  1
  C  C20  1  0.10360166  0.28632871  0.56634414  1
  C  C21  1  0.60360166  0.71367129  0.93365586  1
  C  C22  1  0.58045205  0.73183123  0.19574692  1
  C  C23  1  0.08045205  0.26816877  0.30425308  1
  C  C24  1  0.41954795  0.26816877  0.80425308  1
  C  C25  1  0.91954795  0.73183123  0.69574692  1
  O  O26  1  0.44345986  0.62375788  0.21930326  1
  O  O27  1  0.94345986  0.37624212  0.28069674  1
  O  O28  1  0.55654014  0.37624212  0.78069674  1
  O  O29  1  0.05654014  0.62375788  0.71930326  1
  O  O30  1  0.99428086  0.82348364  0.48110555  1
  O  O31  1  0.49428086  0.17651636  0.01889445  1
  O  O32  1  0.00571914  0.17651636  0.51889445  1
  O  O33  1  0.50571914  0.82348364  0.98110555  1
  O  O34  1  0.55466167  0.86236002  0.23488047  1
  O  O35  1  0.05466167  0.13763998  0.26511953  1
  O  O36  1  0.44533833  0.13763998  0.76511953  1
  O  O37  1  0.94533833  0.86236002  0.73488047  1
  O  O38  1  0.55098756  0.01732219  0.38681749  1
  O  O39  1  0.05098756  0.98267781  0.11318251  1
  O  O40  1  0.44901244  0.98267781  0.61318251  1
  O  O41  1  0.94901244  0.01732219  0.88681749  1
  O  O42  1  0.95859125  0.71343291  0.36772189  1
  O  O43  1  0.45859125  0.28656709  0.13227811  1
  O  O44  1  0.04140875  0.28656709  0.63227811  1
  O  O45  1  0.54140875  0.71343291  0.86772189  1
  O  O46  1  0.73735166  0.60406822  0.45395566  1
  O  O47  1  0.23735166  0.39593178  0.04604434  1
  O  O48  1  0.26264834  0.39593178  0.54604434  1
  O  O49  1  0.76264834  0.60406822  0.95395566  1
  O  O50  1  0.74501392  0.72031536  0.13552767  1
  O  O51  1  0.24501392  0.27968464  0.36447233  1
  O  O52  1  0.25498608  0.27968464  0.86447233  1
  O  O53  1  0.75498608  0.72031536  0.63552767  1
