# generated using pymatgen
data_Ba4GaB10H7O24
_symmetry_space_group_name_H-M   'P 1'
_cell_length_a   7.09895141
_cell_length_b   7.11976963
_cell_length_c   22.96519776
_cell_angle_alpha   86.91061196
_cell_angle_beta   83.79397844
_cell_angle_gamma   60.09667548
_symmetry_Int_Tables_number   1
_chemical_formula_structural   Ba4GaB10H7O24
_chemical_formula_sum   'Ba8 Ga2 B20 H14 O48'
_cell_volume   1000.30075088
_cell_formula_units_Z   2
loop_
 _symmetry_equiv_pos_site_id
 _symmetry_equiv_pos_as_xyz
  1  'x, y, z'
loop_
 _atom_site_type_symbol
 _atom_site_label
 _atom_site_symmetry_multiplicity
 _atom_site_fract_x
 _atom_site_fract_y
 _atom_site_fract_z
 _atom_site_occupancy
  Ba  Ba0  1  0.60468928  0.17541981  0.07380755  1
  Ba  Ba1  1  0.78010909  0.82458019  0.57380755  1
  Ba  Ba2  1  0.25815693  0.84236886  0.18707242  1
  Ba  Ba3  1  0.10052579  0.15763114  0.68707242  1
  Ba  Ba4  1  0.41303773  0.38988806  0.43961105  1
  Ba  Ba5  1  0.80292579  0.61011194  0.93961105  1
  Ba  Ba6  1  0.93897872  0.47453148  0.30554821  1
  Ba  Ba7  1  0.41351020  0.52546852  0.80554821  1
  Ga  Ga8  1  0.13526724  0.95147517  0.95569965  1
  Ga  Ga9  1  0.08674241  0.04852483  0.45569965  1
  B  B10  1  0.08712634  0.19034009  0.06153387  1
  B  B11  1  0.27746643  0.80965991  0.56153387  1
  B  B12  1  0.07954643  0.40988659  0.14653483  1
  B  B13  1  0.48943302  0.59011341  0.64653483  1
  B  B14  1  0.77228779  0.56031682  0.09043879  1
  B  B15  1  0.33260462  0.43968318  0.59043879  1
  B  B16  1  0.75031115  0.36987115  0.18794272  1
  B  B17  1  0.12018230  0.63012885  0.68794272  1
  B  B18  1  0.68129026  0.04472500  0.21685864  1
  B  B19  1  0.72601527  0.95527500  0.71685864  1
  B  B20  1  0.52241197  0.35440378  0.28148893  1
  B  B21  1  0.87681575  0.64559622  0.78148893  1
  B  B22  1  0.80879760  0.99672002  0.31625211  1
  B  B23  1  0.80551762  0.00327998  0.81625211  1
  B  B24  1  0.82248167  0.87881931  0.42453465  1
  B  B25  1  0.70130099  0.12118069  0.92453465  1
  B  B26  1  0.53174789  0.78674679  0.41853231  1
  B  B27  1  0.31849468  0.21325321  0.91853231  1
  B  B28  1  0.88793247  0.50065700  0.45343576  1
  B  B29  1  0.38858947  0.49934300  0.95343576  1
  H  H30  1  0.32978557  0.35135936  0.19677564  1
  H  H31  1  0.68114493  0.64864064  0.69677564  1
  H  H32  1  0.47949356  0.79884388  0.05470128  1
  H  H33  1  0.27833744  0.20115612  0.55470128  1
  H  H34  1  0.74984866  0.79271162  0.16177912  1
  H  H35  1  0.54256028  0.20728838  0.66177912  1
  H  H36  1  0.29059182  0.64611612  0.32332931  1
  H  H37  1  0.93670795  0.35388388  0.82332931  1
  H  H38  1  0.88436117  0.34156817  0.53395021  1
  H  H39  1  0.22592934  0.65843183  0.03395021  1
  H  H40  1  0.27212629  0.95454611  0.33916750  1
  H  H41  1  0.22667239  0.04545389  0.83916750  1
  H  H42  1  0.35354116  0.06153159  0.28555240  1
  H  H43  1  0.41507275  0.93846841  0.78555240  1
  O  O44  1  0.17463729  0.99130409  0.03366055  1
  O  O45  1  0.16594138  0.00869591  0.53366055  1
  O  O46  1  0.19612787  0.20345726  0.10603892  1
  O  O47  1  0.39958514  0.79654274  0.60603892  1
  O  O48  1  0.89123468  0.36467421  0.04728520  1
  O  O49  1  0.25590889  0.63532579  0.54728520  1
  O  O50  1  0.93243313  0.59712858  0.11384606  1
  O  O51  1  0.52956171  0.40287142  0.61384606  1
  O  O52  1  0.24648958  0.45085326  0.16500572  1
  O  O53  1  0.69734284  0.54914674  0.66500572  1
  O  O54  1  0.63350998  0.75568164  0.05589132  1
  O  O55  1  0.38919162  0.24431836  0.55589132  1
  O  O56  1  0.64530772  0.50808005  0.13627421  1
  O  O57  1  0.15338776  0.49191995  0.63627421  1
  O  O58  1  0.96365295  0.35431136  0.19546201  1
  O  O59  1  0.31796431  0.64568864  0.69546201  1
  O  O60  1  0.78619351  0.14669817  0.17876289  1
  O  O61  1  0.93289168  0.85330183  0.67876289  1
  O  O62  1  0.59937364  0.47389455  0.24207452  1
  O  O63  1  0.07326819  0.52610545  0.74207452  1
  O  O64  1  0.62133261  0.91849510  0.18292229  1
  O  O65  1  0.53982771  0.08150490  0.68292229  1
  O  O66  1  0.47769706  0.20650679  0.25037520  1
  O  O67  1  0.68420385  0.79349321  0.75037520  1
  O  O68  1  0.31526014  0.50123721  0.31640729  1
  O  O69  1  0.81649735  0.49876279  0.81640729  1
  O  O70  1  0.83735583  0.90169297  0.26203163  1
  O  O71  1  0.73904880  0.09830703  0.76203163  1
  O  O72  1  0.68921615  0.21827274  0.32457657  1
  O  O73  1  0.90748889  0.78172726  0.82457657  1
  O  O74  1  0.90260468  0.85387001  0.36079286  1
  O  O75  1  0.75647470  0.14612999  0.86079286  1
  O  O76  1  0.83022409  0.04829204  0.45473585  1
  O  O77  1  0.87851613  0.95170796  0.95473585  1
  O  O78  1  0.57982815  0.94560363  0.42800328  1
  O  O79  1  0.52543177  0.05439637  0.92800328  1
  O  O80  1  0.32348689  0.83053807  0.40923901  1
  O  O81  1  0.15402496  0.16946193  0.90923901  1
  O  O82  1  0.94482904  0.67132534  0.45297383  1
  O  O83  1  0.61615438  0.32867466  0.95297383  1
  O  O84  1  0.69388942  0.57149780  0.41621125  1
  O  O85  1  0.26538723  0.42850220  0.91621125  1
  O  O86  1  0.07081394  0.30291006  0.42816884  1
  O  O87  1  0.37372400  0.69708994  0.92816884  1
  O  O88  1  0.80584223  0.48072131  0.51447388  1
  O  O89  1  0.28656354  0.51927869  0.01447388  1
  O  O90  1  0.24506995  0.01352248  0.29851085  1
  O  O91  1  0.25859243  0.98647752  0.79851085  1
