# generated using pymatgen
data_Ir2(Se3Br2)3
_symmetry_space_group_name_H-M   'P 1'
_cell_length_a   12.76684133
_cell_length_b   12.76684133
_cell_length_c   15.58432858
_cell_angle_alpha   114.18003300
_cell_angle_beta   114.18003300
_cell_angle_gamma   90.00000000
_symmetry_Int_Tables_number   1
_chemical_formula_structural   Ir2(Se3Br2)3
_chemical_formula_sum   'Ir8 Se36 Br24'
_cell_volume   2070.54785645
_cell_formula_units_Z   4
loop_
 _symmetry_equiv_pos_site_id
 _symmetry_equiv_pos_as_xyz
  1  'x, y, z'
loop_
 _atom_site_type_symbol
 _atom_site_label
 _atom_site_symmetry_multiplicity
 _atom_site_fract_x
 _atom_site_fract_y
 _atom_site_fract_z
 _atom_site_occupancy
  Ir  Ir0  1  0.02984229  0.24859141  0.78386689  1
  Ir  Ir1  1  0.75402460  0.03527548  0.78386689  1
  Ir  Ir2  1  0.74859141  0.25402460  0.28386689  1
  Ir  Ir3  1  0.53527548  0.52984229  0.28386689  1
  Ir  Ir4  1  0.97015771  0.75140859  0.21613311  1
  Ir  Ir5  1  0.24597540  0.96472452  0.21613311  1
  Ir  Ir6  1  0.25140859  0.74597540  0.71613311  1
  Ir  Ir7  1  0.46472452  0.47015771  0.71613311  1
  Se  Se8  1  0.00499242  0.31393434  0.94213631  1
  Se  Se9  1  0.93714389  0.12820198  0.94213631  1
  Se  Se10  1  0.81393434  0.43714389  0.44213631  1
  Se  Se11  1  0.62820198  0.50499242  0.44213631  1
  Se  Se12  1  0.99500758  0.68606566  0.05786369  1
  Se  Se13  1  0.06285611  0.87179802  0.05786369  1
  Se  Se14  1  0.18606566  0.56285611  0.55786369  1
  Se  Se15  1  0.37179802  0.49500758  0.55786369  1
  Se  Se16  1  0.81781698  0.37267822  0.91370338  1
  Se  Se17  1  0.09588640  0.04102515  0.91370338  1
  Se  Se18  1  0.87267822  0.59588640  0.41370338  1
  Se  Se19  1  0.54102515  0.31781698  0.41370338  1
  Se  Se20  1  0.18218302  0.62732178  0.08629662  1
  Se  Se21  1  0.90411360  0.95897485  0.08629662  1
  Se  Se22  1  0.12732178  0.40411360  0.58629662  1
  Se  Se23  1  0.45897485  0.68218302  0.58629662  1
  Se  Se24  1  0.70715672  0.20208622  0.75108569  1
  Se  Se25  1  0.04392897  0.04899947  0.75108569  1
  Se  Se26  1  0.70208622  0.54392897  0.25108569  1
  Se  Se27  1  0.54899947  0.20715672  0.25108569  1
  Se  Se28  1  0.29284328  0.79791378  0.24891431  1
  Se  Se29  1  0.95607103  0.95100053  0.24891431  1
  Se  Se30  1  0.29791378  0.45607103  0.74891431  1
  Se  Se31  1  0.45100053  0.79284328  0.74891431  1
  Se  Se32  1  0.82943774  0.22005451  0.65971934  1
  Se  Se33  1  0.83028160  0.93966484  0.65971934  1
  Se  Se34  1  0.72005451  0.33028160  0.15971934  1
  Se  Se35  1  0.43966484  0.32943774  0.15971934  1
  Se  Se36  1  0.17056226  0.77994549  0.34028066  1
  Se  Se37  1  0.16971840  0.06033516  0.34028066  1
  Se  Se38  1  0.27994549  0.66971840  0.84028066  1
  Se  Se39  1  0.56033516  0.67056226  0.84028066  1
  Se  Se40  1  0.76727833  0.01727833  0.53455667  1
  Se  Se41  1  0.51727833  0.26727833  0.03455667  1
  Se  Se42  1  0.23272167  0.98272167  0.46544333  1
  Se  Se43  1  0.48272167  0.73272167  0.96544333  1
  Br  Br44  1  0.08590291  0.19250335  0.63299721  1
  Br  Br45  1  0.54709429  0.94049386  0.63299721  1
  Br  Br46  1  0.69250335  0.04709429  0.13299721  1
  Br  Br47  1  0.44049386  0.58590291  0.13299721  1
  Br  Br48  1  0.91409709  0.80749665  0.36700279  1
  Br  Br49  1  0.45290571  0.05950614  0.36700279  1
  Br  Br50  1  0.30749665  0.95290571  0.86700279  1
  Br  Br51  1  0.55950614  0.41409709  0.86700279  1
  Br  Br52  1  0.24816805  0.30591286  0.90933063  1
  Br  Br53  1  0.66116257  0.10341777  0.90933063  1
  Br  Br54  1  0.80591286  0.16116257  0.40933063  1
  Br  Br55  1  0.60341777  0.74816805  0.40933063  1
  Br  Br56  1  0.75183195  0.69408714  0.09066937  1
  Br  Br57  1  0.33883743  0.89658223  0.09066937  1
  Br  Br58  1  0.19408714  0.83883743  0.59066937  1
  Br  Br59  1  0.39658223  0.25183195  0.59066937  1
  Br  Br60  1  0.03397302  0.46184735  0.81190058  1
  Br  Br61  1  0.77792756  0.85005323  0.81190058  1
  Br  Br62  1  0.96184735  0.27792756  0.31190058  1
  Br  Br63  1  0.35005323  0.53397302  0.31190058  1
  Br  Br64  1  0.96602698  0.53815265  0.18809942  1
  Br  Br65  1  0.22207244  0.14994677  0.18809942  1
  Br  Br66  1  0.03815265  0.72207244  0.68809942  1
  Br  Br67  1  0.64994677  0.46602698  0.68809942  1
