# generated using pymatgen
data_Eu(BH4)2
_symmetry_space_group_name_H-M   'P 1'
_cell_length_a   6.98019428
_cell_length_b   7.48531932
_cell_length_c   8.21265658
_cell_angle_alpha   90.00000000
_cell_angle_beta   90.00000000
_cell_angle_gamma   90.00000000
_symmetry_Int_Tables_number   1
_chemical_formula_structural   Eu(BH4)2
_chemical_formula_sum   'Eu4 B8 H32'
_cell_volume   429.10295487
_cell_formula_units_Z   4
loop_
 _symmetry_equiv_pos_site_id
 _symmetry_equiv_pos_as_xyz
  1  'x, y, z'
loop_
 _atom_site_type_symbol
 _atom_site_label
 _atom_site_symmetry_multiplicity
 _atom_site_fract_x
 _atom_site_fract_y
 _atom_site_fract_z
 _atom_site_occupancy
  Eu  Eu0  1  0.00000000  0.25000000  0.17517967  1
  Eu  Eu1  1  0.50000000  0.75000000  0.32482033  1
  Eu  Eu2  1  -0.00000000  0.75000000  0.82482033  1
  Eu  Eu3  1  0.50000000  0.25000000  0.67517967  1
  B  B4  1  0.75469384  0.07357226  0.38185611  1
  B  B5  1  0.74530616  0.57357226  0.11814389  1
  B  B6  1  0.25469384  0.92642774  0.11814389  1
  B  B7  1  0.24530616  0.42642774  0.38185611  1
  B  B8  1  0.24530616  0.92642774  0.61814389  1
  B  B9  1  0.25469384  0.42642774  0.88185611  1
  B  B10  1  0.74530616  0.07357226  0.88185611  1
  B  B11  1  0.75469384  0.57357226  0.61814389  1
  H  H12  1  0.66692474  0.15282821  0.27463967  1
  H  H13  1  0.83307526  0.65282821  0.22536033  1
  H  H14  1  0.16692474  0.84717179  0.22536033  1
  H  H15  1  0.33307526  0.34717179  0.27463967  1
  H  H16  1  0.33307526  0.84717179  0.72536033  1
  H  H17  1  0.16692474  0.34717179  0.77463967  1
  H  H18  1  0.83307526  0.15282821  0.77463967  1
  H  H19  1  0.66692474  0.65282821  0.72536033  1
  H  H20  1  0.86159412  0.96107278  0.32195633  1
  H  H21  1  0.63840588  0.46107278  0.17804367  1
  H  H22  1  0.36159412  0.03892722  0.17804367  1
  H  H23  1  0.13840588  0.53892722  0.32195633  1
  H  H24  1  0.13840588  0.03892722  0.67804367  1
  H  H25  1  0.36159412  0.53892722  0.82195633  1
  H  H26  1  0.63840588  0.96107278  0.82195633  1
  H  H27  1  0.86159412  0.46107278  0.67804367  1
  H  H28  1  0.85092581  0.17756555  0.46318746  1
  H  H29  1  0.64907419  0.67756555  0.03681254  1
  H  H30  1  0.35092581  0.82243445  0.03681254  1
  H  H31  1  0.14907419  0.32243445  0.46318746  1
  H  H32  1  0.14907419  0.82243445  0.53681254  1
  H  H33  1  0.35092581  0.32243445  0.96318746  1
  H  H34  1  0.64907419  0.17756555  0.96318746  1
  H  H35  1  0.85092581  0.67756555  0.53681254  1
  H  H36  1  0.64097214  0.99971623  0.47383668  1
  H  H37  1  0.85902786  0.49971623  0.02616332  1
  H  H38  1  0.14097214  0.00028377  0.02616332  1
  H  H39  1  0.35902786  0.50028377  0.47383668  1
  H  H40  1  0.35902786  0.00028377  0.52616332  1
  H  H41  1  0.14097214  0.50028377  0.97383668  1
  H  H42  1  0.85902786  0.99971623  0.97383668  1
  H  H43  1  0.64097214  0.49971623  0.52616332  1
