# generated using pymatgen
data_NbBOs
_symmetry_space_group_name_H-M   'P 1'
_cell_length_a   3.11639186
_cell_length_b   9.10968202
_cell_length_c   15.84685649
_cell_angle_alpha   90.00000000
_cell_angle_beta   90.00000000
_cell_angle_gamma   90.00000000
_symmetry_Int_Tables_number   1
_chemical_formula_structural   NbBOs
_chemical_formula_sum   'Nb12 B12 Os12'
_cell_volume   449.88177930
_cell_formula_units_Z   12
loop_
 _symmetry_equiv_pos_site_id
 _symmetry_equiv_pos_as_xyz
  1  'x, y, z'
loop_
 _atom_site_type_symbol
 _atom_site_label
 _atom_site_symmetry_multiplicity
 _atom_site_fract_x
 _atom_site_fract_y
 _atom_site_fract_z
 _atom_site_occupancy
  Nb  Nb0  1  -0.00000000  0.80087562  0.49581338  1
  Nb  Nb1  1  -0.00000000  0.19912438  0.50418662  1
  Nb  Nb2  1  0.00000000  0.30087562  0.00418662  1
  Nb  Nb3  1  0.00000000  0.69912438  0.99581338  1
  Nb  Nb4  1  -0.00000000  0.51646170  0.59342267  1
  Nb  Nb5  1  0.00000000  0.48353830  0.40657733  1
  Nb  Nb6  1  -0.00000000  0.01646170  0.90657733  1
  Nb  Nb7  1  -0.00000000  0.98353830  0.09342267  1
  Nb  Nb8  1  -0.00000000  0.68680359  0.20264617  1
  Nb  Nb9  1  0.00000000  0.31319641  0.79735383  1
  Nb  Nb10  1  -0.00000000  0.18680359  0.29735383  1
  Nb  Nb11  1  0.00000000  0.81319641  0.70264617  1
  B  B12  1  0.50000000  0.60714496  0.49679347  1
  B  B13  1  0.50000000  0.39285504  0.50320653  1
  B  B14  1  0.50000000  0.10714496  0.00320653  1
  B  B15  1  0.50000000  0.89285504  0.99679347  1
  B  B16  1  0.00000000  0.61076590  0.83243113  1
  B  B17  1  0.00000000  0.38923410  0.16756887  1
  B  B18  1  -0.00000000  0.11076590  0.66756887  1
  B  B19  1  -0.00000000  0.88923410  0.33243113  1
  B  B20  1  0.50000000  0.71559721  0.59816817  1
  B  B21  1  0.50000000  0.28440279  0.40183183  1
  B  B22  1  0.50000000  0.21559721  0.90183183  1
  B  B23  1  0.50000000  0.78440279  0.09816817  1
  Os  Os24  1  0.50000000  0.71863158  0.35545558  1
  Os  Os25  1  0.50000000  0.28136842  0.64454442  1
  Os  Os26  1  0.50000000  0.21863158  0.14454442  1
  Os  Os27  1  0.50000000  0.78136842  0.85545558  1
  Os  Os28  1  0.50000000  0.51519689  0.09424968  1
  Os  Os29  1  0.50000000  0.48480311  0.90575032  1
  Os  Os30  1  0.50000000  0.01519689  0.40575032  1
  Os  Os31  1  0.50000000  0.98480311  0.59424968  1
  Os  Os32  1  0.50000000  0.56162378  0.73476318  1
  Os  Os33  1  0.50000000  0.43837622  0.26523682  1
  Os  Os34  1  0.50000000  0.06162378  0.76523682  1
  Os  Os35  1  0.50000000  0.93837622  0.23476318  1
