# generated using pymatgen
data_Tm5Bi3
_symmetry_space_group_name_H-M   'P 1'
_cell_length_a   8.24981961
_cell_length_b   9.39478587
_cell_length_c   11.84523520
_cell_angle_alpha   90.00000000
_cell_angle_beta   90.00000000
_cell_angle_gamma   90.00000000
_symmetry_Int_Tables_number   1
_chemical_formula_structural   Tm5Bi3
_chemical_formula_sum   'Tm20 Bi12'
_cell_volume   918.06837392
_cell_formula_units_Z   4
loop_
 _symmetry_equiv_pos_site_id
 _symmetry_equiv_pos_as_xyz
  1  'x, y, z'
loop_
 _atom_site_type_symbol
 _atom_site_label
 _atom_site_symmetry_multiplicity
 _atom_site_fract_x
 _atom_site_fract_y
 _atom_site_fract_z
 _atom_site_occupancy
  Tm  Tm0  1  0.69590890  0.93884280  0.43247430  1
  Tm  Tm1  1  0.80409110  0.56115720  0.93247430  1
  Tm  Tm2  1  0.30409110  0.43884280  0.56752570  1
  Tm  Tm3  1  0.19590890  0.06115720  0.06752570  1
  Tm  Tm4  1  0.30409110  0.06115720  0.56752570  1
  Tm  Tm5  1  0.19590890  0.43884280  0.06752570  1
  Tm  Tm6  1  0.69590890  0.56115720  0.43247430  1
  Tm  Tm7  1  0.80409110  0.93884280  0.93247430  1
  Tm  Tm8  1  0.32746282  0.75000000  0.26682423  1
  Tm  Tm9  1  0.17253718  0.75000000  0.76682423  1
  Tm  Tm10  1  0.67253718  0.25000000  0.73317577  1
  Tm  Tm11  1  0.82746282  0.25000000  0.23317577  1
  Tm  Tm12  1  0.02604955  0.75000000  0.49061813  1
  Tm  Tm13  1  0.47395045  0.75000000  0.99061813  1
  Tm  Tm14  1  0.97395045  0.25000000  0.50938187  1
  Tm  Tm15  1  0.52604955  0.25000000  0.00938187  1
  Tm  Tm16  1  0.84645163  0.75000000  0.21193599  1
  Tm  Tm17  1  0.65354837  0.75000000  0.71193599  1
  Tm  Tm18  1  0.15354837  0.25000000  0.78806401  1
  Tm  Tm19  1  0.34645163  0.25000000  0.28806401  1
  Bi  Bi20  1  0.09280383  0.75000000  0.02134284  1
  Bi  Bi21  1  0.40719617  0.75000000  0.52134284  1
  Bi  Bi22  1  0.90719617  0.25000000  0.97865716  1
  Bi  Bi23  1  0.59280383  0.25000000  0.47865716  1
  Bi  Bi24  1  0.56880504  0.98881602  0.17433050  1
  Bi  Bi25  1  0.93119496  0.51118398  0.67433050  1
  Bi  Bi26  1  0.43119496  0.48881602  0.82566950  1
  Bi  Bi27  1  0.06880504  0.01118398  0.32566950  1
  Bi  Bi28  1  0.43119496  0.01118398  0.82566950  1
  Bi  Bi29  1  0.06880504  0.48881602  0.32566950  1
  Bi  Bi30  1  0.56880504  0.51118398  0.17433050  1
  Bi  Bi31  1  0.93119496  0.98881602  0.67433050  1
