# generated using pymatgen
data_Ba(CoSn4)2
_symmetry_space_group_name_H-M   'P 1'
_cell_length_a   9.16616797
_cell_length_b   9.16616797
_cell_length_c   14.25861506
_cell_angle_alpha   90.00000000
_cell_angle_beta   90.00000000
_cell_angle_gamma   112.20664541
_symmetry_Int_Tables_number   1
_chemical_formula_structural   Ba(CoSn4)2
_chemical_formula_sum   'Ba4 Co8 Sn32'
_cell_volume   1109.13061892
_cell_formula_units_Z   4
loop_
 _symmetry_equiv_pos_site_id
 _symmetry_equiv_pos_as_xyz
  1  'x, y, z'
loop_
 _atom_site_type_symbol
 _atom_site_label
 _atom_site_symmetry_multiplicity
 _atom_site_fract_x
 _atom_site_fract_y
 _atom_site_fract_z
 _atom_site_occupancy
  Ba  Ba0  1  0.89640482  0.20673005  0.50000000  1
  Ba  Ba1  1  0.10359518  0.79326995  0.50000000  1
  Ba  Ba2  1  0.79326995  0.10359518  -0.00000000  1
  Ba  Ba3  1  0.20673005  0.89640482  -0.00000000  1
  Co  Co4  1  0.42805000  0.72111968  0.32968239  1
  Co  Co5  1  0.57195000  0.27888032  0.32968239  1
  Co  Co6  1  0.27888032  0.57195000  0.17031761  1
  Co  Co7  1  0.72111968  0.42805000  0.17031761  1
  Co  Co8  1  0.57195000  0.27888032  0.67031761  1
  Co  Co9  1  0.42805000  0.72111968  0.67031761  1
  Co  Co10  1  0.72111968  0.42805000  0.82968239  1
  Co  Co11  1  0.27888032  0.57195000  0.82968239  1
  Sn  Sn12  1  0.40869787  0.60467759  0.50000000  1
  Sn  Sn13  1  0.59130213  0.39532241  0.50000000  1
  Sn  Sn14  1  0.39532241  0.59130213  -0.00000000  1
  Sn  Sn15  1  0.60467759  0.40869787  -0.00000000  1
  Sn  Sn16  1  -0.00000000  0.00000000  0.25000000  1
  Sn  Sn17  1  -0.00000000  0.00000000  0.75000000  1
  Sn  Sn18  1  0.20599715  0.79400285  0.25000000  1
  Sn  Sn19  1  0.79400285  0.20599715  0.25000000  1
  Sn  Sn20  1  0.79400285  0.20599715  0.75000000  1
  Sn  Sn21  1  0.20599715  0.79400285  0.75000000  1
  Sn  Sn22  1  0.50000000  0.00000000  0.39408903  1
  Sn  Sn23  1  -0.00000000  0.50000000  0.10591097  1
  Sn  Sn24  1  0.50000000  0.00000000  0.60591097  1
  Sn  Sn25  1  -0.00000000  0.50000000  0.89408903  1
  Sn  Sn26  1  0.15925022  0.46300864  0.33535807  1
  Sn  Sn27  1  0.84074978  0.53699136  0.33535807  1
  Sn  Sn28  1  0.53699136  0.84074978  0.16464193  1
  Sn  Sn29  1  0.46300864  0.15925022  0.16464193  1
  Sn  Sn30  1  0.84074978  0.53699136  0.66464193  1
  Sn  Sn31  1  0.15925022  0.46300864  0.66464193  1
  Sn  Sn32  1  0.46300864  0.15925022  0.83535807  1
  Sn  Sn33  1  0.53699136  0.84074978  0.83535807  1
  Sn  Sn34  1  0.72196368  0.80547908  0.38517428  1
  Sn  Sn35  1  0.27803632  0.19452092  0.38517428  1
  Sn  Sn36  1  0.19452092  0.27803632  0.11482572  1
  Sn  Sn37  1  0.80547908  0.72196368  0.11482572  1
  Sn  Sn38  1  0.27803632  0.19452092  0.61482572  1
  Sn  Sn39  1  0.72196368  0.80547908  0.61482572  1
  Sn  Sn40  1  0.80547908  0.72196368  0.88517428  1
  Sn  Sn41  1  0.19452092  0.27803632  0.88517428  1
  Sn  Sn42  1  0.50000000  0.50000000  0.25000000  1
  Sn  Sn43  1  0.50000000  0.50000000  0.75000000  1
