# generated using pymatgen
data_Na3U6CrF30
_symmetry_space_group_name_H-M   'P 1'
_cell_length_a   9.90411412
_cell_length_b   9.90379578
_cell_length_c   13.07371183
_cell_angle_alpha   90.00000000
_cell_angle_beta   90.01120246
_cell_angle_gamma   119.99893780
_symmetry_Int_Tables_number   1
_chemical_formula_structural   Na3U6CrF30
_chemical_formula_sum   'Na6 U12 Cr2 F60'
_cell_volume   1110.58419631
_cell_formula_units_Z   2
loop_
 _symmetry_equiv_pos_site_id
 _symmetry_equiv_pos_as_xyz
  1  'x, y, z'
loop_
 _atom_site_type_symbol
 _atom_site_label
 _atom_site_symmetry_multiplicity
 _atom_site_fract_x
 _atom_site_fract_y
 _atom_site_fract_z
 _atom_site_occupancy
  Na  Na0  1  0.33343857  0.66670698  0.83735901  1
  Na  Na1  1  0.33343857  0.66673159  0.33735901  1
  Na  Na2  1  0.66656143  0.33329302  0.16264099  1
  Na  Na3  1  0.66656143  0.33326841  0.66264099  1
  Na  Na4  1  0.00000000  0.00000000  0.00000000  1
  Na  Na5  1  0.00000000  0.00000000  0.50000000  1
  U  U6  1  0.92464717  0.59986865  0.89826150  1
  U  U7  1  0.40017708  0.32476418  0.89825416  1
  U  U8  1  0.67524419  0.07538592  0.89827104  1
  U  U9  1  0.92464717  0.32477852  0.39826150  1
  U  U10  1  0.67524419  0.59985827  0.39827104  1
  U  U11  1  0.40017708  0.07541290  0.39825416  1
  U  U12  1  0.07535283  0.40013135  0.10173850  1
  U  U13  1  0.59982292  0.67523582  0.10174584  1
  U  U14  1  0.32475581  0.92461408  0.10172896  1
  U  U15  1  0.07535283  0.67522148  0.60173850  1
  U  U16  1  0.32475581  0.40014173  0.60172896  1
  U  U17  1  0.59982292  0.92458710  0.60174584  1
  Cr  Cr18  1  0.00000000  -0.00002971  0.75000000  1
  Cr  Cr19  1  1.00000000  0.00002971  0.25000000  1
  F  F20  1  0.13115328  0.69775708  0.78422579  1
  F  F21  1  0.30232062  0.43334089  0.78426567  1
  F  F22  1  0.56667395  0.86892275  0.78418087  1
  F  F23  1  0.13115328  0.43339620  0.28422579  1
  F  F24  1  0.56667395  0.69775120  0.28418087  1
  F  F25  1  0.30232062  0.86897973  0.28426567  1
  F  F26  1  0.86884672  0.30224292  0.21577421  1
  F  F27  1  0.69767938  0.56665911  0.21573433  1
  F  F28  1  0.43332605  0.13107725  0.21581913  1
  F  F29  1  0.86884672  0.56660380  0.71577421  1
  F  F30  1  0.43332605  0.30224880  0.71581913  1
  F  F31  1  0.69767938  0.13102027  0.71573433  1
  F  F32  1  0.11535720  0.80854580  0.98065967  1
  F  F33  1  0.19169598  0.30685731  0.98052167  1
  F  F34  1  0.69308060  0.88464404  0.98063405  1
  F  F35  1  0.11535720  0.30681139  0.48065967  1
  F  F36  1  0.69308060  0.80843656  0.48063405  1
  F  F37  1  0.19169598  0.88483867  0.48052167  1
  F  F38  1  0.88464280  0.19145420  0.01934033  1
  F  F39  1  0.80830402  0.69314269  0.01947833  1
  F  F40  1  0.30691940  0.11535596  0.01936595  1
  F  F41  1  0.88464280  0.69318861  0.51934033  1
  F  F42  1  0.30691940  0.19156344  0.51936595  1
  F  F43  1  0.80830402  0.11516133  0.51947833  1
  F  F44  1  0.87962098  0.46712787  0.05086375  1
  F  F45  1  0.53285720  0.41256048  0.05084262  1
  F  F46  1  0.58749824  0.12034291  0.05083556  1
  F  F47  1  0.87962098  0.41249311  0.55086375  1
  F  F48  1  0.58749824  0.46715533  0.55083556  1
  F  F49  1  0.53285720  0.12029673  0.55084262  1
  F  F50  1  0.12037902  0.53287213  0.94913625  1
  F  F51  1  0.46714280  0.58743952  0.94915738  1
  F  F52  1  0.41250176  0.87965709  0.94916444  1
  F  F53  1  0.12037902  0.58750689  0.44913625  1
  F  F54  1  0.41250176  0.53284467  0.44916444  1
  F  F55  1  0.46714280  0.87970327  0.44915738  1
  F  F56  1  0.91429016  0.81717402  0.83876884  1
  F  F57  1  0.18293499  0.09727368  0.83872872  1
  F  F58  1  0.90278075  0.08565645  0.83874024  1
  F  F59  1  0.91429016  0.09711614  0.33876884  1
  F  F60  1  0.90278075  0.81712430  0.33874024  1
  F  F61  1  0.18293499  0.08566131  0.33872872  1
  F  F62  1  0.08570984  0.18282598  0.16123116  1
  F  F63  1  0.81706501  0.90272632  0.16127128  1
  F  F64  1  0.09721925  0.91434355  0.16125976  1
  F  F65  1  0.08570984  0.90288386  0.66123116  1
  F  F66  1  0.09721925  0.18287570  0.66125976  1
  F  F67  1  0.81706501  0.91433869  0.66127128  1
  F  F68  1  0.65934000  0.48849429  0.86256849  1
  F  F69  1  0.51139370  0.17103330  0.86254922  1
  F  F70  1  0.82895203  0.34031308  0.86254235  1
  F  F71  1  0.65934000  0.17084571  0.36256849  1
  F  F72  1  0.82895203  0.48863896  0.36254235  1
  F  F73  1  0.51139370  0.34036040  0.36254922  1
  F  F74  1  0.34066000  0.51150571  0.13743151  1
  F  F75  1  0.48860630  0.82896670  0.13745078  1
  F  F76  1  0.17104797  0.65968692  0.13745765  1
  F  F77  1  0.34066000  0.82915429  0.63743151  1
  F  F78  1  0.17104797  0.51136104  0.63745765  1
  F  F79  1  0.48860630  0.65963960  0.63745078  1
