# generated using pymatgen
data_K9Li3Nd3(BO3)7
_symmetry_space_group_name_H-M   'P 1'
_cell_length_a   10.20875130
_cell_length_b   11.58421375
_cell_length_c   11.71947303
_cell_angle_alpha   115.16206828
_cell_angle_beta   90.00000000
_cell_angle_gamma   90.00000000
_symmetry_Int_Tables_number   1
_chemical_formula_structural   K9Li3Nd3(BO3)7
_chemical_formula_sum   'K18 Li6 Nd6 B14 O42'
_cell_volume   1254.43460520
_cell_formula_units_Z   2
loop_
 _symmetry_equiv_pos_site_id
 _symmetry_equiv_pos_as_xyz
  1  'x, y, z'
loop_
 _atom_site_type_symbol
 _atom_site_label
 _atom_site_symmetry_multiplicity
 _atom_site_fract_x
 _atom_site_fract_y
 _atom_site_fract_z
 _atom_site_occupancy
  K  K0  1  0.07162741  0.41706577  0.08751787  1
  K  K1  1  0.92837259  0.58293423  0.91248213  1
  K  K2  1  0.07162741  0.08293423  0.41248213  1
  K  K3  1  0.92837259  0.91706577  0.58751787  1
  K  K4  1  0.46053377  0.66588279  0.55624912  1
  K  K5  1  0.53946623  0.33411721  0.44375088  1
  K  K6  1  0.46053377  0.83411721  0.94375088  1
  K  K7  1  0.53946623  0.16588279  0.05624912  1
  K  K8  1  0.61026657  0.85617129  0.44711008  1
  K  K9  1  0.38973343  0.14382871  0.55288992  1
  K  K10  1  0.61026657  0.64382871  0.05288992  1
  K  K11  1  0.38973343  0.35617129  0.94711008  1
  K  K12  1  0.09735264  0.89008089  0.05500974  1
  K  K13  1  0.90264736  0.10991911  0.94499026  1
  K  K14  1  0.09735264  0.60991911  0.44499026  1
  K  K15  1  0.90264736  0.39008089  0.55500974  1
  K  K16  1  0.92110396  0.75000000  0.25000000  1
  K  K17  1  0.07889604  0.25000000  0.75000000  1
  Li  Li18  1  0.93241816  0.75000000  0.75000000  1
  Li  Li19  1  0.06758184  0.25000000  0.25000000  1
  Li  Li20  1  0.70981930  0.62761705  0.71563726  1
  Li  Li21  1  0.29018070  0.37238295  0.28436274  1
  Li  Li22  1  0.70981930  0.87238295  0.78436274  1
  Li  Li23  1  0.29018070  0.12761705  0.21563726  1
  Nd  Nd24  1  0.31388780  0.75000000  0.25000000  1
  Nd  Nd25  1  0.68611220  0.25000000  0.75000000  1
  Nd  Nd26  1  0.70339319  0.46862312  0.25508652  1
  Nd  Nd27  1  0.29660681  0.53137688  0.74491348  1
  Nd  Nd28  1  0.70339319  0.03137688  0.24491348  1
  Nd  Nd29  1  0.29660681  0.96862312  0.75508652  1
  B  B30  1  0.78184613  0.40055830  0.99756270  1
  B  B31  1  0.21815387  0.59944170  0.00243730  1
  B  B32  1  0.78184613  0.09944170  0.50243730  1
  B  B33  1  0.21815387  0.90055830  0.49756270  1
  B  B34  1  0.42211852  0.52001217  0.25445570  1
  B  B35  1  0.57788148  0.47998783  0.74554430  1
  B  B36  1  0.42211852  0.97998783  0.24554430  1
  B  B37  1  0.57788148  0.02001217  0.75445570  1
  B  B38  1  0.77187888  0.63875045  0.50505027  1
  B  B39  1  0.22812112  0.36124955  0.49494973  1
  B  B40  1  0.77187888  0.86124955  0.99494973  1
  B  B41  1  0.22812112  0.13875045  0.00505027  1
  B  B42  1  0.84802819  0.25000000  0.25000000  1
  B  B43  1  0.15197181  0.75000000  0.75000000  1
  O  O44  1  0.65350995  0.35625219  0.99389856  1
  O  O45  1  0.34649005  0.64374781  0.00610144  1
  O  O46  1  0.65350995  0.14374781  0.50610144  1
  O  O47  1  0.34649005  0.85625219  0.49389856  1
  O  O48  1  0.71170100  0.25000000  0.25000000  1
  O  O49  1  0.28829900  0.75000000  0.75000000  1
  O  O50  1  0.91430177  0.14475644  0.24888505  1
  O  O51  1  0.08569823  0.85524356  0.75111495  1
  O  O52  1  0.91430177  0.35524356  0.25111495  1
  O  O53  1  0.08569823  0.64475644  0.74888505  1
  O  O54  1  0.80281768  0.71843618  0.62719345  1
  O  O55  1  0.19718232  0.28156382  0.37280655  1
  O  O56  1  0.80281768  0.78156382  0.87280655  1
  O  O57  1  0.19718232  0.21843618  0.12719345  1
  O  O58  1  0.28712225  0.53815069  0.25539836  1
  O  O59  1  0.71287775  0.46184931  0.74460164  1
  O  O60  1  0.28712225  0.96184931  0.24460164  1
  O  O61  1  0.71287775  0.03815069  0.75539836  1
  O  O62  1  0.50762098  0.61724892  0.26081080  1
  O  O63  1  0.49237902  0.38275108  0.73918920  1
  O  O64  1  0.50762098  0.88275108  0.23918920  1
  O  O65  1  0.49237902  0.11724892  0.76081080  1
  O  O66  1  0.81892291  0.51328035  0.09827994  1
  O  O67  1  0.18107709  0.48671965  0.90172006  1
  O  O68  1  0.81892291  0.98671965  0.40172006  1
  O  O69  1  0.18107709  0.01328035  0.59827994  1
  O  O70  1  0.47291765  0.40662617  0.24838821  1
  O  O71  1  0.52708235  0.59337383  0.75161179  1
  O  O72  1  0.47291765  0.09337383  0.25161179  1
  O  O73  1  0.52708235  0.90662617  0.74838821  1
  O  O74  1  0.13392801  0.83001032  0.39942852  1
  O  O75  1  0.86607199  0.16998968  0.60057148  1
  O  O76  1  0.13392801  0.66998968  0.10057148  1
  O  O77  1  0.86607199  0.33001032  0.89942852  1
  O  O78  1  0.69821461  0.52837634  0.47991829  1
  O  O79  1  0.30178539  0.47162366  0.52008171  1
  O  O80  1  0.69821461  0.97162366  0.02008171  1
  O  O81  1  0.30178539  0.02837634  0.97991829  1
  O  O82  1  0.80825496  0.66359527  0.40284443  1
  O  O83  1  0.19174504  0.33640473  0.59715557  1
  O  O84  1  0.80825496  0.83640473  0.09715557  1
  O  O85  1  0.19174504  0.16359527  0.90284443  1
