# generated using pymatgen
data_KPtN2O5
_symmetry_space_group_name_H-M   'P 1'
_cell_length_a   5.34756100
_cell_length_b   7.28677002
_cell_length_c   15.75911766
_cell_angle_alpha   90.00000000
_cell_angle_beta   90.00000000
_cell_angle_gamma   101.36338842
_symmetry_Int_Tables_number   1
_chemical_formula_structural   KPtN2O5
_chemical_formula_sum   'K4 Pt4 N8 O20'
_cell_volume   602.03924797
_cell_formula_units_Z   4
loop_
 _symmetry_equiv_pos_site_id
 _symmetry_equiv_pos_as_xyz
  1  'x, y, z'
loop_
 _atom_site_type_symbol
 _atom_site_label
 _atom_site_symmetry_multiplicity
 _atom_site_fract_x
 _atom_site_fract_y
 _atom_site_fract_z
 _atom_site_occupancy
  K  K0  1  0.05196842  0.93569964  0.34284320  1
  K  K1  1  0.94803158  0.06430036  0.65715680  1
  K  K2  1  0.44803158  0.56430036  0.84284320  1
  K  K3  1  0.55196842  0.43569964  0.15715680  1
  Pt  Pt4  1  0.25577397  0.87250211  0.03011193  1
  Pt  Pt5  1  0.74422603  0.12749789  0.96988807  1
  Pt  Pt6  1  0.24422603  0.62749789  0.53011193  1
  Pt  Pt7  1  0.75577397  0.37250211  0.46988807  1
  N  N8  1  0.54005062  0.79473610  0.46893290  1
  N  N9  1  0.45994938  0.20526390  0.53106710  1
  N  N10  1  0.95994938  0.70526390  0.96893290  1
  N  N11  1  0.04005062  0.29473610  0.03106710  1
  N  N12  1  0.12172259  0.79644381  0.14721708  1
  N  N13  1  0.87827741  0.20355619  0.85278292  1
  N  N14  1  0.37827741  0.70355619  0.64721708  1
  N  N15  1  0.62172259  0.29644381  0.35278292  1
  O  O16  1  0.26311335  0.73412770  0.19835012  1
  O  O17  1  0.73688665  0.26587230  0.80164988  1
  O  O18  1  0.23688665  0.76587230  0.69835012  1
  O  O19  1  0.76311335  0.23412770  0.30164988  1
  O  O20  1  0.04914230  0.56003689  0.42499888  1
  O  O21  1  0.95085770  0.43996311  0.57500112  1
  O  O22  1  0.45085770  0.93996311  0.92499888  1
  O  O23  1  0.54914230  0.06003689  0.07500112  1
  O  O24  1  0.76155771  0.62693227  0.00643301  1
  O  O25  1  0.23844229  0.37306773  0.99356699  1
  O  O26  1  0.73844229  0.87306773  0.50643301  1
  O  O27  1  0.26155771  0.12693227  0.49356699  1
  O  O28  1  0.90588782  0.82160825  0.16990004  1
  O  O29  1  0.09411218  0.17839175  0.83009996  1
  O  O30  1  0.59411218  0.67839175  0.66990004  1
  O  O31  1  0.40588782  0.32160825  0.33009996  1
  O  O32  1  0.52149255  0.81066014  0.39006967  1
  O  O33  1  0.47850745  0.18933986  0.60993033  1
  O  O34  1  0.97850745  0.68933986  0.89006967  1
  O  O35  1  0.02149255  0.31066014  0.10993033  1
