# generated using pymatgen
data_Cs4Ge(PS3)4
_symmetry_space_group_name_H-M   'P 1'
_cell_length_a   7.74681671
_cell_length_b   7.74681671
_cell_length_c   24.57590610
_cell_angle_alpha   92.96453306
_cell_angle_beta   97.98085877
_cell_angle_gamma   113.29526820
_symmetry_Int_Tables_number   1
_chemical_formula_structural   Cs4Ge(PS3)4
_chemical_formula_sum   'Cs8 Ge2 P8 S24'
_cell_volume   1332.27488564
_cell_formula_units_Z   2
loop_
 _symmetry_equiv_pos_site_id
 _symmetry_equiv_pos_as_xyz
  1  'x, y, z'
loop_
 _atom_site_type_symbol
 _atom_site_label
 _atom_site_symmetry_multiplicity
 _atom_site_fract_x
 _atom_site_fract_y
 _atom_site_fract_z
 _atom_site_occupancy
  Cs  Cs0  1  0.37240966  0.20509079  0.55057485  1
  Cs  Cs1  1  0.15451594  0.82183481  0.94942515  1
  Cs  Cs2  1  0.62759034  0.79490921  0.44942515  1
  Cs  Cs3  1  0.84548406  0.17816519  0.05057485  1
  Cs  Cs4  1  0.46405020  0.46208957  0.81265438  1
  Cs  Cs5  1  0.14943519  0.65139582  0.68734562  1
  Cs  Cs6  1  0.53594980  0.53791043  0.18734562  1
  Cs  Cs7  1  0.85056481  0.34860418  0.31265438  1
  Ge  Ge8  1  0.75618139  0.00618139  0.75000000  1
  Ge  Ge9  1  0.24381861  0.99381861  0.25000000  1
  P  P10  1  0.96938449  0.26780329  0.86868010  1
  P  P11  1  0.89912320  0.10070439  0.63131990  1
  P  P12  1  0.03061551  0.73219671  0.13131990  1
  P  P13  1  0.10087680  0.89929561  0.36868010  1
  P  P14  1  0.68976242  0.78892705  0.61570030  1
  P  P15  1  0.67322675  0.07406212  0.88429970  1
  P  P16  1  0.31023758  0.21107295  0.38429970  1
  P  P17  1  0.32677325  0.92593788  0.11570030  1
  S  S18  1  0.15270844  0.32875576  0.93816703  1
  S  S19  1  0.89058873  0.21454141  0.56183297  1
  S  S20  1  0.84729156  0.67124424  0.06183297  1
  S  S21  1  0.10941127  0.78545859  0.43816703  1
  S  S22  1  0.95664938  0.47654434  0.82594797  1
  S  S23  1  0.15059637  0.13070141  0.67405203  1
  S  S24  1  0.04335062  0.52345566  0.17405203  1
  S  S25  1  0.84940363  0.86929859  0.32594797  1
  S  S26  1  0.75062540  0.20058243  0.68542371  1
  S  S27  1  0.01515872  0.06520169  0.81457629  1
  S  S28  1  0.24937460  0.79941757  0.31457629  1
  S  S29  1  0.98484128  0.93479831  0.18542371  1
  S  S30  1  0.81183222  0.64548291  0.57841980  1
  S  S31  1  0.56706311  0.23341243  0.92158020  1
  S  S32  1  0.18816778  0.35451709  0.42158020  1
  S  S33  1  0.43293689  0.76658757  0.07841980  1
  S  S34  1  0.43037405  0.75563133  0.58106821  1
  S  S35  1  0.67456312  0.84930583  0.91893179  1
  S  S36  1  0.56962595  0.24436867  0.41893179  1
  S  S37  1  0.32543688  0.15069417  0.08106821  1
  S  S38  1  0.69545509  0.72339453  0.70255614  1
  S  S39  1  0.52083839  0.99289895  0.79744386  1
  S  S40  1  0.30454491  0.27660547  0.29744386  1
  S  S41  1  0.47916161  0.00710105  0.20255614  1
