# generated using pymatgen
data_Ce2Te4Cl2O11
_symmetry_space_group_name_H-M   'P 1'
_cell_length_a   8.25530019
_cell_length_b   9.90030883
_cell_length_c   10.69867086
_cell_angle_alpha   109.66706706
_cell_angle_beta   109.38733083
_cell_angle_gamma   97.58308801
_symmetry_Int_Tables_number   1
_chemical_formula_structural   Ce2Te4Cl2O11
_chemical_formula_sum   'Ce4 Te8 Cl4 O22'
_cell_volume   746.90486729
_cell_formula_units_Z   2
loop_
 _symmetry_equiv_pos_site_id
 _symmetry_equiv_pos_as_xyz
  1  'x, y, z'
loop_
 _atom_site_type_symbol
 _atom_site_label
 _atom_site_symmetry_multiplicity
 _atom_site_fract_x
 _atom_site_fract_y
 _atom_site_fract_z
 _atom_site_occupancy
  Ce  Ce0  1  0.87914866  0.61685061  0.61357232  1
  Ce  Ce1  1  0.12085134  0.38314939  0.38642768  1
  Ce  Ce2  1  0.38156329  0.11040633  0.11757525  1
  Ce  Ce3  1  0.61843671  0.88959367  0.88242475  1
  Te  Te4  1  0.99688481  0.73650455  0.00459344  1
  Te  Te5  1  0.00311519  0.26349545  0.99540656  1
  Te  Te6  1  0.74092338  0.48306992  0.19197931  1
  Te  Te7  1  0.25907662  0.51693008  0.80802069  1
  Te  Te8  1  0.80572755  0.96870905  0.26414021  1
  Te  Te9  1  0.19427245  0.03129095  0.73585979  1
  Te  Te10  1  0.46309235  0.75821200  0.45185197  1
  Te  Te11  1  0.53690765  0.24178800  0.54814803  1
  Cl  Cl12  1  0.63078591  0.39819847  0.89119019  1
  Cl  Cl13  1  0.36921409  0.60180153  0.10880981  1
  Cl  Cl14  1  0.10582994  0.87849583  0.37825816  1
  Cl  Cl15  1  0.89417006  0.12150417  0.62174184  1
  O  O16  1  0.60120083  0.99005186  0.12053349  1
  O  O17  1  0.39879917  0.00994814  0.87946651  1
  O  O18  1  0.66350158  0.68093880  0.47401389  1
  O  O19  1  0.33649842  0.31906120  0.52598611  1
  O  O20  1  0.48438489  0.14478682  0.34745462  1
  O  O21  1  0.51561511  0.85521318  0.65254538  1
  O  O22  1  0.88562050  0.50753621  0.38819255  1
  O  O23  1  0.11437950  0.49246379  0.61180745  1
  O  O24  1  0.83485129  0.85778673  0.08773706  1
  O  O25  1  0.16514871  0.14221327  0.91226294  1
  O  O26  1  0.92536276  0.39035684  0.15704166  1
  O  O27  1  0.07463724  0.60964316  0.84295834  1
  O  O28  1  0.17382609  0.25904834  0.16722393  1
  O  O29  1  0.82617391  0.74095166  0.83277607  1
  O  O30  1  0.94400273  0.15967581  0.31835788  1
  O  O31  1  0.05599727  0.84032419  0.68164212  1
  O  O32  1  0.70305106  0.41570716  0.58659560  1
  O  O33  1  0.29694894  0.58429284  0.41340440  1
  O  O34  1  0.56701289  0.31911061  0.15762285  1
  O  O35  1  0.43298711  0.68088939  0.84237715  1
  O  O36  1  0.17477155  0.90890713  0.06073199  1
  O  O37  1  0.82522845  0.09109287  0.93926801  1
