# generated using pymatgen
data_CdCoAsHO5
_symmetry_space_group_name_H-M   'P 1'
_cell_length_a   6.23067161
_cell_length_b   7.66097149
_cell_length_c   8.82254003
_cell_angle_alpha   90.00000000
_cell_angle_beta   90.00000000
_cell_angle_gamma   90.00000000
_symmetry_Int_Tables_number   1
_chemical_formula_structural   CdCoAsHO5
_chemical_formula_sum   'Cd4 Co4 As4 H4 O20'
_cell_volume   421.12628179
_cell_formula_units_Z   4
loop_
 _symmetry_equiv_pos_site_id
 _symmetry_equiv_pos_as_xyz
  1  'x, y, z'
loop_
 _atom_site_type_symbol
 _atom_site_label
 _atom_site_symmetry_multiplicity
 _atom_site_fract_x
 _atom_site_fract_y
 _atom_site_fract_z
 _atom_site_occupancy
  Cd  Cd0  1  0.25000000  0.63088643  0.32673305  1
  Cd  Cd1  1  0.25000000  0.13088643  0.17326695  1
  Cd  Cd2  1  0.75000000  0.36911357  0.67326695  1
  Cd  Cd3  1  0.75000000  0.86911357  0.82673305  1
  Co  Co4  1  0.50000000  0.50000000  -0.00000000  1
  Co  Co5  1  -0.00000000  -0.00000000  0.50000000  1
  Co  Co6  1  0.00000000  0.50000000  -0.00000000  1
  Co  Co7  1  0.50000000  -0.00000000  0.50000000  1
  As  As8  1  0.25000000  0.62930018  0.67333231  1
  As  As9  1  0.25000000  0.12930018  0.82666769  1
  As  As10  1  0.75000000  0.37069982  0.32666769  1
  As  As11  1  0.75000000  0.87069982  0.17333231  1
  H  H12  1  0.25000000  0.75945705  0.03991766  1
  H  H13  1  0.25000000  0.25945705  0.46008234  1
  H  H14  1  0.75000000  0.24054295  0.96008234  1
  H  H15  1  0.75000000  0.74054295  0.53991766  1
  O  O16  1  0.51784833  0.37934551  0.21852824  1
  O  O17  1  0.98215167  0.87934551  0.28147176  1
  O  O18  1  0.01784833  0.62065449  0.78147176  1
  O  O19  1  0.48215167  0.12065449  0.71852824  1
  O  O20  1  0.48215167  0.62065449  0.78147176  1
  O  O21  1  0.01784833  0.12065449  0.71852824  1
  O  O22  1  0.98215167  0.37934551  0.21852824  1
  O  O23  1  0.51784833  0.87934551  0.28147176  1
  O  O24  1  0.25000000  0.46655135  0.53805268  1
  O  O25  1  0.25000000  0.96655135  0.96194732  1
  O  O26  1  0.75000000  0.53344865  0.46194732  1
  O  O27  1  0.75000000  0.03344865  0.03805268  1
  O  O28  1  0.25000000  0.81485415  0.55709156  1
  O  O29  1  0.25000000  0.31485415  0.94290844  1
  O  O30  1  0.75000000  0.18514585  0.44290844  1
  O  O31  1  0.75000000  0.68514585  0.05709156  1
  O  O32  1  0.25000000  0.63828146  0.08006909  1
  O  O33  1  0.25000000  0.13828146  0.41993091  1
  O  O34  1  0.75000000  0.36171854  0.91993091  1
  O  O35  1  0.75000000  0.86171854  0.58006909  1
