# generated using pymatgen
data_Ba2UCrTe7
_symmetry_space_group_name_H-M   'P 1'
_cell_length_a   6.20583423
_cell_length_b   12.66651889
_cell_length_c   18.88419631
_cell_angle_alpha   90.00000000
_cell_angle_beta   90.00000000
_cell_angle_gamma   90.00000000
_symmetry_Int_Tables_number   1
_chemical_formula_structural   Ba2UCrTe7
_chemical_formula_sum   'Ba8 U4 Cr4 Te28'
_cell_volume   1484.41711204
_cell_formula_units_Z   4
loop_
 _symmetry_equiv_pos_site_id
 _symmetry_equiv_pos_as_xyz
  1  'x, y, z'
loop_
 _atom_site_type_symbol
 _atom_site_label
 _atom_site_symmetry_multiplicity
 _atom_site_fract_x
 _atom_site_fract_y
 _atom_site_fract_z
 _atom_site_occupancy
  Ba  Ba0  1  0.75000000  0.17692034  0.55808475  1
  Ba  Ba1  1  0.75000000  0.67692034  0.94191525  1
  Ba  Ba2  1  0.25000000  0.82307966  0.44191525  1
  Ba  Ba3  1  0.25000000  0.32307966  0.05808475  1
  Ba  Ba4  1  0.75000000  0.05428828  0.22293468  1
  Ba  Ba5  1  0.75000000  0.55428828  0.27706532  1
  Ba  Ba6  1  0.25000000  0.94571172  0.77706532  1
  Ba  Ba7  1  0.25000000  0.44571172  0.72293468  1
  U  U8  1  0.75000000  0.20514910  0.87760508  1
  U  U9  1  0.75000000  0.70514910  0.62239492  1
  U  U10  1  0.25000000  0.79485090  0.12239492  1
  U  U11  1  0.25000000  0.29485090  0.37760508  1
  Cr  Cr12  1  -0.00000000  0.50000000  0.50000000  1
  Cr  Cr13  1  0.50000000  0.00000000  0.00000000  1
  Cr  Cr14  1  0.50000000  0.50000000  0.50000000  1
  Cr  Cr15  1  0.00000000  0.00000000  -0.00000000  1
  Te  Te16  1  0.99764963  0.41978267  0.89807164  1
  Te  Te17  1  0.50235037  0.91978267  0.60192836  1
  Te  Te18  1  0.49764963  0.58021733  0.10192836  1
  Te  Te19  1  0.00235037  0.08021733  0.39807164  1
  Te  Te20  1  0.00235037  0.58021733  0.10192836  1
  Te  Te21  1  0.49764963  0.08021733  0.39807164  1
  Te  Te22  1  0.50235037  0.41978267  0.89807164  1
  Te  Te23  1  0.99764963  0.91978267  0.60192836  1
  Te  Te24  1  0.99710607  0.19196094  0.73254950  1
  Te  Te25  1  0.50289393  0.69196094  0.76745050  1
  Te  Te26  1  0.49710607  0.80803906  0.26745050  1
  Te  Te27  1  0.00289393  0.30803906  0.23254950  1
  Te  Te28  1  0.00289393  0.80803906  0.26745050  1
  Te  Te29  1  0.49710607  0.30803906  0.23254950  1
  Te  Te30  1  0.50289393  0.19196094  0.73254950  1
  Te  Te31  1  0.99710607  0.69196094  0.76745050  1
  Te  Te32  1  0.75000000  0.45908213  0.61959663  1
  Te  Te33  1  0.75000000  0.95908213  0.88040337  1
  Te  Te34  1  0.25000000  0.54091787  0.38040337  1
  Te  Te35  1  0.25000000  0.04091787  0.11959663  1
  Te  Te36  1  0.75000000  0.17335472  0.04090455  1
  Te  Te37  1  0.75000000  0.67335472  0.45909545  1
  Te  Te38  1  0.25000000  0.82664528  0.95909545  1
  Te  Te39  1  0.25000000  0.32664528  0.54090455  1
  Te  Te40  1  0.75000000  0.86047671  0.08429279  1
  Te  Te41  1  0.75000000  0.36047671  0.41570721  1
  Te  Te42  1  0.25000000  0.13952329  0.91570721  1
  Te  Te43  1  0.25000000  0.63952329  0.58429279  1
