# generated using pymatgen
data_K2Mn3(AsO4)3
_symmetry_space_group_name_H-M   'P 1'
_cell_length_a   7.09954513
_cell_length_b   9.17256986
_cell_length_c   9.17256986
_cell_angle_alpha   93.67213886
_cell_angle_beta   105.84915997
_cell_angle_gamma   105.84915997
_symmetry_Int_Tables_number   1
_chemical_formula_structural   K2Mn3(AsO4)3
_chemical_formula_sum   'K4 Mn6 As6 O24'
_cell_volume   546.53692030
_cell_formula_units_Z   2
loop_
 _symmetry_equiv_pos_site_id
 _symmetry_equiv_pos_as_xyz
  1  'x, y, z'
loop_
 _atom_site_type_symbol
 _atom_site_label
 _atom_site_symmetry_multiplicity
 _atom_site_fract_x
 _atom_site_fract_y
 _atom_site_fract_z
 _atom_site_occupancy
  K  K0  1  0.75000000  0.01301499  0.98698501  1
  K  K1  1  0.25000000  0.98698501  0.01301499  1
  K  K2  1  0.50000000  0.50000000  0.50000000  1
  K  K3  1  0.00000000  0.50000000  0.50000000  1
  Mn  Mn4  1  0.36476419  0.93926836  0.61685482  1
  Mn  Mn5  1  0.13523581  0.38314518  0.06073164  1
  Mn  Mn6  1  0.63523581  0.06073164  0.38314518  1
  Mn  Mn7  1  0.86476419  0.61685482  0.93926836  1
  Mn  Mn8  1  0.75000000  0.73843811  0.26156189  1
  Mn  Mn9  1  0.25000000  0.26156189  0.73843811  1
  As  As10  1  0.12488946  0.12356486  0.35140914  1
  As  As11  1  0.37511054  0.64859086  0.87643514  1
  As  As12  1  0.87511054  0.87643514  0.64859086  1
  As  As13  1  0.62488946  0.35140914  0.12356486  1
  As  As14  1  0.25000000  0.72281293  0.27718707  1
  As  As15  1  0.75000000  0.27718707  0.72281293  1
  O  O16  1  0.88534769  0.99082185  0.32294939  1
  O  O17  1  0.61465231  0.67705061  0.00917815  1
  O  O18  1  0.11465231  0.00917815  0.67705061  1
  O  O19  1  0.38534769  0.32294939  0.99082185  1
  O  O20  1  0.12780807  0.18610673  0.17780037  1
  O  O21  1  0.37219193  0.82219963  0.81389327  1
  O  O22  1  0.87219193  0.81389327  0.82219963  1
  O  O23  1  0.62780807  0.17780037  0.18610673  1
  O  O24  1  0.47521598  0.83636302  0.25013849  1
  O  O25  1  0.02478402  0.74986151  0.16363698  1
  O  O26  1  0.52478402  0.16363698  0.74986151  1
  O  O27  1  0.97521598  0.25013849  0.83636302  1
  O  O28  1  0.17273580  0.26830711  0.49421325  1
  O  O29  1  0.32726420  0.50578675  0.73169289  1
  O  O30  1  0.82726420  0.73169289  0.50578675  1
  O  O31  1  0.67273580  0.49421325  0.26830711  1
  O  O32  1  0.31759045  0.03466943  0.40308647  1
  O  O33  1  0.18240955  0.59691353  0.96533057  1
  O  O34  1  0.68240955  0.96533057  0.59691353  1
  O  O35  1  0.81759045  0.40308647  0.03466943  1
  O  O36  1  0.23624630  0.53156074  0.25529914  1
  O  O37  1  0.26375370  0.74470086  0.46843926  1
  O  O38  1  0.76375370  0.46843926  0.74470086  1
  O  O39  1  0.73624630  0.25529914  0.53156074  1
