# generated using pymatgen
data_Mg2P2O7
_symmetry_space_group_name_H-M   'P 1'
_cell_length_a   7.02591326
_cell_length_b   8.38708637
_cell_length_c   9.03374470
_cell_angle_alpha   90.00000000
_cell_angle_beta   111.67622636
_cell_angle_gamma   90.00000000
_symmetry_Int_Tables_number   1
_chemical_formula_structural   Mg2P2O7
_chemical_formula_sum   'Mg8 P8 O28'
_cell_volume   494.68764595
_cell_formula_units_Z   4
loop_
 _symmetry_equiv_pos_site_id
 _symmetry_equiv_pos_as_xyz
  1  'x, y, z'
loop_
 _atom_site_type_symbol
 _atom_site_label
 _atom_site_symmetry_multiplicity
 _atom_site_fract_x
 _atom_site_fract_y
 _atom_site_fract_z
 _atom_site_occupancy
  Mg  Mg0  1  0.87343416  0.44164173  0.17415043  1
  Mg  Mg1  1  0.12656584  0.55835827  0.82584957  1
  Mg  Mg2  1  0.62656584  0.94164173  0.32584957  1
  Mg  Mg3  1  0.37343416  0.05835827  0.67415043  1
  Mg  Mg4  1  0.62196391  0.57102304  0.38938715  1
  Mg  Mg5  1  0.37803609  0.42897696  0.61061285  1
  Mg  Mg6  1  0.87803609  0.07102304  0.11061285  1
  Mg  Mg7  1  0.12196391  0.92897696  0.88938715  1
  P  P8  1  0.18262204  0.76955400  0.24055247  1
  P  P9  1  0.81737796  0.23044600  0.75944753  1
  P  P10  1  0.31737796  0.26955400  0.25944753  1
  P  P11  1  0.68262204  0.73044600  0.74055247  1
  P  P12  1  0.93667873  0.22698442  0.46702119  1
  P  P13  1  0.06332127  0.77301558  0.53297881  1
  P  P14  1  0.56332127  0.72698442  0.03297881  1
  P  P15  1  0.43667873  0.27301558  0.96702119  1
  O  O16  1  0.85233406  0.16990807  0.60062714  1
  O  O17  1  0.14766594  0.83009193  0.39937286  1
  O  O18  1  0.64766594  0.66990807  0.89937286  1
  O  O19  1  0.35233406  0.33009193  0.10062714  1
  O  O20  1  0.82864001  0.76391830  0.45381106  1
  O  O21  1  0.17135999  0.23608170  0.54618894  1
  O  O22  1  0.67135999  0.26391830  0.04618894  1
  O  O23  1  0.32864001  0.73608170  0.95381106  1
  O  O24  1  0.08256219  0.26092430  0.20232811  1
  O  O25  1  0.91743781  0.73907570  0.79767189  1
  O  O26  1  0.41743781  0.76092430  0.29767189  1
  O  O27  1  0.58256219  0.23907570  0.70232811  1
  O  O28  1  0.84453236  0.38924066  0.39646063  1
  O  O29  1  0.15546764  0.61075934  0.60353937  1
  O  O30  1  0.65546764  0.88924066  0.10353937  1
  O  O31  1  0.34453236  0.11075934  0.89646063  1
  O  O32  1  0.09669142  0.90478369  0.11916499  1
  O  O33  1  0.90330858  0.09521631  0.88083501  1
  O  O34  1  0.40330858  0.40478369  0.38083501  1
  O  O35  1  0.59669142  0.59521631  0.61916499  1
  O  O36  1  0.86197140  0.09146549  0.34476512  1
  O  O37  1  0.13802860  0.90853451  0.65523488  1
  O  O38  1  0.63802860  0.59146549  0.15523488  1
  O  O39  1  0.36197140  0.40853451  0.84476512  1
  O  O40  1  0.07357473  0.61280806  0.18623970  1
  O  O41  1  0.92642527  0.38719194  0.81376030  1
  O  O42  1  0.42642527  0.11280806  0.31376030  1
  O  O43  1  0.57357473  0.88719194  0.68623970  1
