# generated using pymatgen
data_LiThF5
_symmetry_space_group_name_H-M   'P 1'
_cell_length_a   6.71174538
_cell_length_b   11.28452186
_cell_length_c   11.28452186
_cell_angle_alpha   84.92618030
_cell_angle_beta   72.69925856
_cell_angle_gamma   72.69925856
_symmetry_Int_Tables_number   1
_chemical_formula_structural   LiThF5
_chemical_formula_sum   'Li8 Th8 F40'
_cell_volume   779.08968608
_cell_formula_units_Z   8
loop_
 _symmetry_equiv_pos_site_id
 _symmetry_equiv_pos_as_xyz
  1  'x, y, z'
loop_
 _atom_site_type_symbol
 _atom_site_label
 _atom_site_symmetry_multiplicity
 _atom_site_fract_x
 _atom_site_fract_y
 _atom_site_fract_z
 _atom_site_occupancy
  Li  Li0  1  0.28979827  0.14584384  0.98289149  1
  Li  Li1  1  0.41853360  0.85415616  0.01710851  1
  Li  Li2  1  0.83146640  0.64584384  0.48289149  1
  Li  Li3  1  0.96020173  0.35415616  0.51710851  1
  Li  Li4  1  0.72731025  0.98289149  0.85415616  1
  Li  Li5  1  0.56435789  0.01710851  0.14584384  1
  Li  Li6  1  0.68564211  0.48289149  0.35415616  1
  Li  Li7  1  0.52268975  0.51710851  0.64584384  1
  Th  Th8  1  0.43465922  0.24506553  0.63320116  1
  Th  Th9  1  0.31292591  0.75493447  0.36679884  1
  Th  Th10  1  0.93707409  0.74506553  0.13320116  1
  Th  Th11  1  0.81534078  0.25493447  0.86679884  1
  Th  Th12  1  0.93213962  0.63320116  0.75493447  1
  Th  Th13  1  0.32027525  0.36679884  0.24506553  1
  Th  Th14  1  0.92972475  0.13320116  0.25493447  1
  Th  Th15  1  0.31786038  0.86679884  0.74506553  1
  F  F16  1  0.70074959  0.13435077  0.72322587  1
  F  F17  1  0.55832623  0.86564923  0.27677413  1
  F  F18  1  0.69167377  0.63435077  0.22322587  1
  F  F19  1  0.54925041  0.36564923  0.77677413  1
  F  F20  1  0.57602454  0.72322587  0.86564923  1
  F  F21  1  0.16489964  0.27677413  0.13435077  1
  F  F22  1  0.08510036  0.22322587  0.36564923  1
  F  F23  1  0.67397546  0.77677413  0.63435077  1
  F  F24  1  0.40070812  0.04514295  0.63964791  1
  F  F25  1  0.08549898  0.95485705  0.36035209  1
  F  F26  1  0.16450102  0.54514295  0.13964791  1
  F  F27  1  0.84929188  0.45485705  0.86035209  1
  F  F28  1  0.95964397  0.63964791  0.95485705  1
  F  F29  1  0.55414893  0.36035209  0.04514295  1
  F  F30  1  0.69585107  0.13964791  0.45485705  1
  F  F31  1  0.29035603  0.86035209  0.54514295  1
  F  F32  1  0.65357636  0.37195878  0.53081901  1
  F  F33  1  0.55635415  0.62804122  0.46918099  1
  F  F34  1  0.69364585  0.87195878  0.03081901  1
  F  F35  1  0.59642364  0.12804122  0.96918099  1
  F  F36  1  0.81560463  0.53081901  0.62804122  1
  F  F37  1  0.97446487  0.46918099  0.37195878  1
  F  F38  1  0.27553513  0.03081901  0.12804122  1
  F  F39  1  0.43439537  0.96918099  0.87195878  1
  F  F40  1  0.21228734  0.23598710  0.83971585  1
  F  F41  1  0.28799030  0.76401290  0.16028415  1
  F  F42  1  0.96200970  0.73598710  0.33971585  1
  F  F43  1  0.03771266  0.26401290  0.66028415  1
  F  F44  1  0.94799681  0.83971585  0.76401290  1
  F  F45  1  0.55172555  0.16028415  0.23598710  1
  F  F46  1  0.69827445  0.33971585  0.26401290  1
  F  F47  1  0.30200319  0.66028415  0.73598710  1
  F  F48  1  0.30946124  0.32379859  0.45854638  1
  F  F49  1  0.09180620  0.67620141  0.54145362  1
  F  F50  1  0.15819380  0.82379859  0.95854638  1
  F  F51  1  0.94053876  0.17620141  0.04145362  1
  F  F52  1  0.23199238  0.45854638  0.67620141  1
  F  F53  1  0.36674017  0.54145362  0.32379859  1
  F  F54  1  0.88325983  0.95854638  0.17620141  1
  F  F55  1  0.01800762  0.04145362  0.82379859  1
