# generated using pymatgen
data_Lu6Co30P19
_symmetry_space_group_name_H-M   'P 1'
_cell_length_a   3.54421242
_cell_length_b   14.61092949
_cell_length_c   14.61092949
_cell_angle_alpha   119.99999957
_cell_angle_beta   90.00000000
_cell_angle_gamma   90.00000000
_symmetry_Int_Tables_number   1
_chemical_formula_structural   Lu6Co30P19
_chemical_formula_sum   'Lu6 Co30 P19'
_cell_volume   655.24854656
_cell_formula_units_Z   1
loop_
 _symmetry_equiv_pos_site_id
 _symmetry_equiv_pos_as_xyz
  1  'x, y, z'
loop_
 _atom_site_type_symbol
 _atom_site_label
 _atom_site_symmetry_multiplicity
 _atom_site_fract_x
 _atom_site_fract_y
 _atom_site_fract_z
 _atom_site_occupancy
  Lu  Lu0  1  0.50000000  0.29539406  0.90261487  1
  Lu  Lu1  1  0.50000000  0.09738513  0.39277919  1
  Lu  Lu2  1  0.50000000  0.60722081  0.70460594  1
  Lu  Lu3  1  0.00000000  0.70455476  0.09787060  1
  Lu  Lu4  1  -0.00000000  0.90212940  0.60668416  1
  Lu  Lu5  1  -0.00000000  0.39331584  0.29544524  1
  Co  Co6  1  0.50000000  0.42757877  0.77561767  1
  Co  Co7  1  0.50000000  0.22438233  0.65196110  1
  Co  Co8  1  0.50000000  0.34803890  0.57242123  1
  Co  Co9  1  -0.00000000  0.57352103  0.22479271  1
  Co  Co10  1  0.00000000  0.77520729  0.34872832  1
  Co  Co11  1  -0.00000000  0.65127168  0.42647897  1
  Co  Co12  1  0.50000000  0.53751886  0.07426126  1
  Co  Co13  1  0.50000000  0.92573874  0.46325760  1
  Co  Co14  1  0.50000000  0.53674240  0.46248114  1
  Co  Co15  1  0.00000000  0.46085554  0.92604697  1
  Co  Co16  1  -0.00000000  0.07395303  0.53480857  1
  Co  Co17  1  -0.00000000  0.46519143  0.53914446  1
  Co  Co18  1  0.50000000  0.04344611  0.77304035  1
  Co  Co19  1  0.50000000  0.22695965  0.27040575  1
  Co  Co20  1  0.50000000  0.72959425  0.95655389  1
  Co  Co21  1  0.00000000  0.95021066  0.22504702  1
  Co  Co22  1  -0.00000000  0.77495298  0.72516364  1
  Co  Co23  1  0.00000000  0.27483636  0.04978934  1
  Co  Co24  1  0.50000000  0.73465081  0.58315214  1
  Co  Co25  1  0.50000000  0.41684786  0.15149868  1
  Co  Co26  1  0.50000000  0.84850132  0.26534919  1
  Co  Co27  1  -0.00000000  0.26550084  0.41367334  1
  Co  Co28  1  0.00000000  0.58632666  0.85182750  1
  Co  Co29  1  0.00000000  0.14817250  0.73449916  1
  Co  Co30  1  0.50000000  0.13072512  0.97270735  1
  Co  Co31  1  0.50000000  0.02729265  0.15801777  1
  Co  Co32  1  0.50000000  0.84198223  0.86927488  1
  Co  Co33  1  -0.00000000  0.88787552  0.02427709  1
  Co  Co34  1  0.00000000  0.97572291  0.86359843  1
  Co  Co35  1  0.00000000  0.13640157  0.11212448  1
  P  P36  1  0.50000000  0.68313262  0.23181161  1
  P  P37  1  0.50000000  0.76818839  0.45132101  1
  P  P38  1  0.50000000  0.54867899  0.31686738  1
  P  P39  1  0.00000000  0.31402510  0.76738559  1
  P  P40  1  -0.00000000  0.23261441  0.54663952  1
  P  P41  1  0.00000000  0.45336048  0.68597490  1
  P  P42  1  0.50000000  0.87966678  0.74289259  1
  P  P43  1  0.50000000  0.25710741  0.13677418  1
  P  P44  1  0.50000000  0.86322582  0.12033322  1
  P  P45  1  -0.00000000  0.11981658  0.25523927  1
  P  P46  1  -0.00000000  0.74476073  0.86457731  1
  P  P47  1  0.00000000  0.13542269  0.88018342  1
  P  P48  1  0.50000000  0.06027677  0.62850080  1
  P  P49  1  0.50000000  0.37149920  0.43177596  1
  P  P50  1  0.50000000  0.56822404  0.93972323  1
  P  P51  1  0.00000000  0.93745166  0.37035164  1
  P  P52  1  -0.00000000  0.62964836  0.56710002  1
  P  P53  1  0.00000000  0.43289998  0.06254834  1
  P  P54  1  0.50000000  -0.00000000  -0.00000000  1
