# generated using pymatgen
data_KSm2Br5
_symmetry_space_group_name_H-M   'P 1'
_cell_length_a   7.52417270
_cell_length_b   9.14316331
_cell_length_c   14.05762526
_cell_angle_alpha   89.92782185
_cell_angle_beta   90.00000000
_cell_angle_gamma   90.00000000
_symmetry_Int_Tables_number   1
_chemical_formula_structural   KSm2Br5
_chemical_formula_sum   'K4 Sm8 Br20'
_cell_volume   967.08990464
_cell_formula_units_Z   4
loop_
 _symmetry_equiv_pos_site_id
 _symmetry_equiv_pos_as_xyz
  1  'x, y, z'
loop_
 _atom_site_type_symbol
 _atom_site_label
 _atom_site_symmetry_multiplicity
 _atom_site_fract_x
 _atom_site_fract_y
 _atom_site_fract_z
 _atom_site_occupancy
  K  K0  1  0.94113574  0.50218069  0.66068891  1
  K  K1  1  0.05886426  0.49781931  0.33931109  1
  K  K2  1  0.44113574  0.49781931  0.83931109  1
  K  K3  1  0.55886426  0.50218069  0.16068891  1
  Sm  Sm4  1  0.89032534  0.00844223  0.65564337  1
  Sm  Sm5  1  0.10967466  0.99155777  0.34435663  1
  Sm  Sm6  1  0.39032534  0.99155777  0.84435663  1
  Sm  Sm7  1  0.60967466  0.00844223  0.15564337  1
  Sm  Sm8  1  0.96782708  0.80028475  0.00119682  1
  Sm  Sm9  1  0.03217292  0.19971525  0.99880318  1
  Sm  Sm10  1  0.46782708  0.19971525  0.49880318  1
  Sm  Sm11  1  0.53217292  0.80028475  0.50119682  1
  Br  Br12  1  0.82388262  0.47102790  0.92617498  1
  Br  Br13  1  0.17611738  0.52897210  0.07382502  1
  Br  Br14  1  0.32388262  0.52897210  0.57382502  1
  Br  Br15  1  0.67611738  0.47102790  0.42617498  1
  Br  Br16  1  0.14418896  0.74922750  0.81487884  1
  Br  Br17  1  0.85581104  0.25077250  0.18512116  1
  Br  Br18  1  0.64418896  0.25077250  0.68512116  1
  Br  Br19  1  0.35581104  0.74922750  0.31487884  1
  Br  Br20  1  0.65951238  0.75981085  0.70630335  1
  Br  Br21  1  0.34048762  0.24018915  0.29369665  1
  Br  Br22  1  0.15951238  0.24018915  0.79369665  1
  Br  Br23  1  0.84048762  0.75981085  0.20630335  1
  Br  Br24  1  0.54801696  0.79154384  0.99977226  1
  Br  Br25  1  0.45198304  0.20845616  0.00022774  1
  Br  Br26  1  0.04801696  0.20845616  0.50022774  1
  Br  Br27  1  0.95198304  0.79154384  0.49977226  1
  Br  Br28  1  0.30623733  0.97488020  0.63403787  1
  Br  Br29  1  0.69376267  0.02511980  0.36596213  1
  Br  Br30  1  0.80623733  0.02511980  0.86596213  1
  Br  Br31  1  0.19376267  0.97488020  0.13403787  1
