# generated using pymatgen
data_Ho2Nb2S7O30
_symmetry_space_group_name_H-M   'P 1'
_cell_length_a   7.12230747
_cell_length_b   12.80932840
_cell_length_c   12.80932840
_cell_angle_alpha   90.00000000
_cell_angle_beta   90.00000000
_cell_angle_gamma   90.00000000
_symmetry_Int_Tables_number   1
_chemical_formula_structural   Ho2Nb2S7O30
_chemical_formula_sum   'Ho4 Nb4 S14 O60'
_cell_volume   1168.62033283
_cell_formula_units_Z   2
loop_
 _symmetry_equiv_pos_site_id
 _symmetry_equiv_pos_as_xyz
  1  'x, y, z'
loop_
 _atom_site_type_symbol
 _atom_site_label
 _atom_site_symmetry_multiplicity
 _atom_site_fract_x
 _atom_site_fract_y
 _atom_site_fract_z
 _atom_site_occupancy
  Ho  Ho0  1  0.40792809  0.19863534  0.69863534  1
  Ho  Ho1  1  0.59207191  0.30136466  0.19863534  1
  Ho  Ho2  1  0.40792809  0.80136466  0.30136466  1
  Ho  Ho3  1  0.59207191  0.69863534  0.80136466  1
  Nb  Nb4  1  0.01966210  0.36086630  0.86086630  1
  Nb  Nb5  1  0.98033790  0.13913370  0.36086630  1
  Nb  Nb6  1  0.01966210  0.63913370  0.13913370  1
  Nb  Nb7  1  0.98033790  0.86086630  0.63913370  1
  S  S8  1  0.65322255  0.50000000  0.00000000  1
  S  S9  1  0.34677745  -0.00000000  0.50000000  1
  S  S10  1  0.10654250  0.62381004  0.87618996  1
  S  S11  1  0.89345750  0.87618996  0.37618996  1
  S  S12  1  0.10654250  0.37618996  0.12381004  1
  S  S13  1  0.89345750  0.12381004  0.62381004  1
  S  S14  1  0.69864898  0.43572885  0.67710994  1
  S  S15  1  0.30135102  0.06427115  0.17710994  1
  S  S16  1  0.69864898  0.56427115  0.32289006  1
  S  S17  1  0.30135102  0.93572885  0.82289006  1
  S  S18  1  0.30135102  0.32289006  0.43572885  1
  S  S19  1  0.69864898  0.17710994  0.93572885  1
  S  S20  1  0.30135102  0.67710994  0.56427115  1
  S  S21  1  0.69864898  0.82289006  0.06427115  1
  O  O22  1  0.20946247  0.29700948  0.79700948  1
  O  O23  1  0.79053753  0.20299052  0.29700948  1
  O  O24  1  0.20946247  0.70299052  0.20299052  1
  O  O25  1  0.79053753  0.79700948  0.70299052  1
  O  O26  1  0.53906607  0.43218625  0.06781375  1
  O  O27  1  0.46093393  0.06781375  0.56781375  1
  O  O28  1  0.53906607  0.56781375  0.93218625  1
  O  O29  1  0.46093393  0.93218625  0.43218625  1
  O  O30  1  0.77562350  0.43342071  0.93342071  1
  O  O31  1  0.22437650  0.06657929  0.43342071  1
  O  O32  1  0.77562350  0.56657929  0.06657929  1
  O  O33  1  0.22437650  0.93342071  0.56657929  1
  O  O34  1  0.92053407  0.65638580  0.84361420  1
  O  O35  1  0.07946593  0.84361420  0.34361420  1
  O  O36  1  0.92053407  0.34361420  0.15638580  1
  O  O37  1  0.07946593  0.15638580  0.65638580  1
  O  O38  1  0.26093470  0.67698545  0.82301455  1
  O  O39  1  0.73906530  0.82301455  0.32301455  1
  O  O40  1  0.26093470  0.32301455  0.17698545  1
  O  O41  1  0.73906530  0.17698545  0.67698545  1
  O  O42  1  0.13160304  0.50842432  0.85749945  1
  O  O43  1  0.86839696  0.99157568  0.35749945  1
  O  O44  1  0.13160304  0.49157568  0.14250055  1
  O  O45  1  0.86839696  0.00842432  0.64250055  1
  O  O46  1  0.86839696  0.14250055  0.50842432  1
  O  O47  1  0.13160304  0.35749945  0.00842432  1
  O  O48  1  0.86839696  0.85749945  0.49157568  1
  O  O49  1  0.13160304  0.64250055  0.99157568  1
  O  O50  1  0.54424198  0.36804829  0.71215179  1
  O  O51  1  0.45575802  0.13195171  0.21215179  1
  O  O52  1  0.54424198  0.63195171  0.28784821  1
  O  O53  1  0.45575802  0.86804829  0.78784821  1
  O  O54  1  0.45575802  0.28784821  0.36804829  1
  O  O55  1  0.54424198  0.21215179  0.86804829  1
  O  O56  1  0.45575802  0.71215179  0.63195171  1
  O  O57  1  0.54424198  0.78784821  0.13195171  1
  O  O58  1  0.67150244  0.54403340  0.71020111  1
  O  O59  1  0.32849756  0.95596660  0.21020111  1
  O  O60  1  0.67150244  0.45596660  0.28979889  1
  O  O61  1  0.32849756  0.04403340  0.78979889  1
  O  O62  1  0.32849756  0.28979889  0.54403340  1
  O  O63  1  0.67150244  0.21020111  0.04403340  1
  O  O64  1  0.32849756  0.71020111  0.45596660  1
  O  O65  1  0.67150244  0.78979889  0.95596660  1
  O  O66  1  0.72595515  0.42501408  0.56426402  1
  O  O67  1  0.27404485  0.07498592  0.06426402  1
  O  O68  1  0.72595515  0.57498592  0.43573598  1
  O  O69  1  0.27404485  0.92501408  0.93573598  1
  O  O70  1  0.27404485  0.43573598  0.42501408  1
  O  O71  1  0.72595515  0.06426402  0.92501408  1
  O  O72  1  0.27404485  0.56426402  0.57498592  1
  O  O73  1  0.72595515  0.93573598  0.07498592  1
  O  O74  1  0.87926081  0.39498430  0.72941386  1
  O  O75  1  0.12073919  0.10501570  0.22941386  1
  O  O76  1  0.87926081  0.60501570  0.27058614  1
  O  O77  1  0.12073919  0.89498430  0.77058614  1
  O  O78  1  0.12073919  0.27058614  0.39498430  1
  O  O79  1  0.87926081  0.22941386  0.89498430  1
  O  O80  1  0.12073919  0.72941386  0.60501570  1
  O  O81  1  0.87926081  0.77058614  0.10501570  1
