# generated using pymatgen
data_La2ThS5
_symmetry_space_group_name_H-M   'P 1'
_cell_length_a   7.64125389
_cell_length_b   8.36708869
_cell_length_c   12.16556938
_cell_angle_alpha   90.00000000
_cell_angle_beta   90.00000000
_cell_angle_gamma   90.00000000
_symmetry_Int_Tables_number   1
_chemical_formula_structural   La2ThS5
_chemical_formula_sum   'La8 Th4 S20'
_cell_volume   777.80627443
_cell_formula_units_Z   4
loop_
 _symmetry_equiv_pos_site_id
 _symmetry_equiv_pos_as_xyz
  1  'x, y, z'
loop_
 _atom_site_type_symbol
 _atom_site_label
 _atom_site_symmetry_multiplicity
 _atom_site_fract_x
 _atom_site_fract_y
 _atom_site_fract_z
 _atom_site_occupancy
  La  La0  1  0.97877568  0.99925769  0.17732987  1
  La  La1  1  0.52122432  0.50074231  0.67732987  1
  La  La2  1  0.02122432  0.49925769  0.82267013  1
  La  La3  1  0.47877568  0.00074231  0.32267013  1
  La  La4  1  0.02122432  0.00074231  0.82267013  1
  La  La5  1  0.47877568  0.49925769  0.32267013  1
  La  La6  1  0.97877568  0.50074231  0.17732987  1
  La  La7  1  0.52122432  0.99925769  0.67732987  1
  Th  Th8  1  0.42612155  0.75000000  0.00906578  1
  Th  Th9  1  0.07387845  0.75000000  0.50906578  1
  Th  Th10  1  0.57387845  0.25000000  0.99093422  1
  Th  Th11  1  0.92612155  0.25000000  0.49093422  1
  S  S12  1  0.66155956  0.54132934  0.90225388  1
  S  S13  1  0.83844044  0.95867066  0.40225388  1
  S  S14  1  0.33844044  0.04132934  0.09774612  1
  S  S15  1  0.16155956  0.45867066  0.59774612  1
  S  S16  1  0.33844044  0.45867066  0.09774612  1
  S  S17  1  0.16155956  0.04132934  0.59774612  1
  S  S18  1  0.66155956  0.95867066  0.90225388  1
  S  S19  1  0.83844044  0.54132934  0.40225388  1
  S  S20  1  0.66781193  0.75000000  0.18773667  1
  S  S21  1  0.83218807  0.75000000  0.68773667  1
  S  S22  1  0.33218807  0.25000000  0.81226333  1
  S  S23  1  0.16781193  0.25000000  0.31226333  1
  S  S24  1  0.04505293  0.75000000  0.00219416  1
  S  S25  1  0.45494707  0.75000000  0.50219416  1
  S  S26  1  0.95494707  0.25000000  0.99780584  1
  S  S27  1  0.54505293  0.25000000  0.49780584  1
  S  S28  1  0.30292494  0.75000000  0.78428466  1
  S  S29  1  0.19707506  0.75000000  0.28428466  1
  S  S30  1  0.69707506  0.25000000  0.21571534  1
  S  S31  1  0.80292494  0.25000000  0.71571534  1
