# generated using pymatgen
data_PaH8N2F7
_symmetry_space_group_name_H-M   'P 1'
_cell_length_a   6.99169056
_cell_length_b   8.24218710
_cell_length_c   12.12481262
_cell_angle_alpha   90.56933950
_cell_angle_beta   90.00000000
_cell_angle_gamma   90.00000000
_symmetry_Int_Tables_number   1
_chemical_formula_structural   PaH8N2F7
_chemical_formula_sum   'Pa4 H32 N8 F28'
_cell_volume   698.67992023
_cell_formula_units_Z   4
loop_
 _symmetry_equiv_pos_site_id
 _symmetry_equiv_pos_as_xyz
  1  'x, y, z'
loop_
 _atom_site_type_symbol
 _atom_site_label
 _atom_site_symmetry_multiplicity
 _atom_site_fract_x
 _atom_site_fract_y
 _atom_site_fract_z
 _atom_site_occupancy
  Pa  Pa0  1  0.52680725  0.74561194  0.99378709  1
  Pa  Pa1  1  0.02680725  0.25438806  0.50621291  1
  Pa  Pa2  1  0.47319275  0.25438806  0.00621291  1
  Pa  Pa3  1  0.97319275  0.74561194  0.49378709  1
  H  H4  1  0.54216859  0.52966212  0.61451835  1
  H  H5  1  0.04216859  0.47033788  0.88548165  1
  H  H6  1  0.45783141  0.47033788  0.38548165  1
  H  H7  1  0.95783141  0.52966212  0.11451835  1
  H  H8  1  0.63951158  0.35457519  0.65699667  1
  H  H9  1  0.13951158  0.64542481  0.84300333  1
  H  H10  1  0.36048842  0.64542481  0.34300333  1
  H  H11  1  0.86048842  0.35457519  0.15699667  1
  H  H12  1  0.61459132  0.00361961  0.63390843  1
  H  H13  1  0.11459132  0.99638039  0.86609157  1
  H  H14  1  0.38540868  0.99638039  0.36609157  1
  H  H15  1  0.88540868  0.00361961  0.13390843  1
  H  H16  1  0.41564800  0.88631240  0.61504828  1
  H  H17  1  0.91564800  0.11368760  0.88495172  1
  H  H18  1  0.58435200  0.11368760  0.38495172  1
  H  H19  1  0.08435200  0.88631240  0.11504828  1
  H  H20  1  0.54764004  0.48771146  0.75037253  1
  H  H21  1  0.04764004  0.51228854  0.74962747  1
  H  H22  1  0.45235996  0.51228854  0.24962747  1
  H  H23  1  0.95235996  0.48771146  0.25037253  1
  H  H24  1  0.43624643  0.01189284  0.72603127  1
  H  H25  1  0.93624643  0.98810716  0.77396873  1
  H  H26  1  0.56375357  0.98810716  0.27396873  1
  H  H27  1  0.06375357  0.01189284  0.22603127  1
  H  H28  1  0.57199508  0.84480542  0.71731561  1
  H  H29  1  0.07199508  0.15519458  0.78268439  1
  H  H30  1  0.42800492  0.15519458  0.28268439  1
  H  H31  1  0.92800492  0.84480542  0.21731561  1
  H  H32  1  0.40024650  0.38130984  0.66704858  1
  H  H33  1  0.90024650  0.61869016  0.83295142  1
  H  H34  1  0.59975350  0.61869016  0.33295142  1
  H  H35  1  0.09975350  0.38130984  0.16704858  1
  N  N36  1  0.50867100  0.93657795  0.67173245  1
  N  N37  1  0.00867100  0.06342205  0.82826755  1
  N  N38  1  0.49132900  0.06342205  0.32826755  1
  N  N39  1  0.99132900  0.93657795  0.17173245  1
  N  N40  1  0.53196345  0.43858177  0.67216714  1
  N  N41  1  0.03196345  0.56141823  0.82783286  1
  N  N42  1  0.46803655  0.56141823  0.32783286  1
  N  N43  1  0.96803655  0.43858177  0.17216714  1
  F  F44  1  0.66191428  0.98147562  0.95567544  1
  F  F45  1  0.16191428  0.01852438  0.54432456  1
  F  F46  1  0.33808572  0.01852438  0.04432456  1
  F  F47  1  0.83808572  0.98147562  0.45567544  1
  F  F48  1  0.66087446  0.71085980  0.82484224  1
  F  F49  1  0.16087446  0.28914020  0.67515776  1
  F  F50  1  0.33912554  0.28914020  0.17515776  1
  F  F51  1  0.83912554  0.71085980  0.32484224  1
  F  F52  1  0.56845600  0.49923928  0.09369627  1
  F  F53  1  0.06845600  0.50076072  0.40630373  1
  F  F54  1  0.43154400  0.50076072  0.90630373  1
  F  F55  1  0.93154400  0.49923928  0.59369627  1
  F  F56  1  0.25815346  0.69425228  0.07440537  1
  F  F57  1  0.75815346  0.30574772  0.42559463  1
  F  F58  1  0.74184654  0.30574772  0.92559463  1
  F  F59  1  0.24184654  0.69425228  0.57440537  1
  F  F60  1  0.82891421  0.69265882  0.01872233  1
  F  F61  1  0.32891421  0.30734118  0.48127767  1
  F  F62  1  0.17108579  0.30734118  0.98127767  1
  F  F63  1  0.67108579  0.69265882  0.51872233  1
  F  F64  1  0.30388277  0.81380238  0.87118655  1
  F  F65  1  0.80388277  0.18619762  0.62881345  1
  F  F66  1  0.69611723  0.18619762  0.12881345  1
  F  F67  1  0.19611723  0.81380238  0.37118655  1
  F  F68  1  0.57788684  0.82921839  0.16080968  1
  F  F69  1  0.07788684  0.17078161  0.33919032  1
  F  F70  1  0.42211316  0.17078161  0.83919032  1
  F  F71  1  0.92211316  0.82921839  0.66080968  1
