# generated using pymatgen
data_Cs2CdP2O7
_symmetry_space_group_name_H-M   'P 1'
_cell_length_a   5.57197496
_cell_length_b   10.24531692
_cell_length_c   16.90896440
_cell_angle_alpha   90.00000000
_cell_angle_beta   90.00000000
_cell_angle_gamma   90.00000000
_symmetry_Int_Tables_number   1
_chemical_formula_structural   Cs2CdP2O7
_chemical_formula_sum   'Cs8 Cd4 P8 O28'
_cell_volume   965.27612133
_cell_formula_units_Z   4
loop_
 _symmetry_equiv_pos_site_id
 _symmetry_equiv_pos_as_xyz
  1  'x, y, z'
loop_
 _atom_site_type_symbol
 _atom_site_label
 _atom_site_symmetry_multiplicity
 _atom_site_fract_x
 _atom_site_fract_y
 _atom_site_fract_z
 _atom_site_occupancy
  Cs  Cs0  1  0.25000000  0.35219493  0.92161788  1
  Cs  Cs1  1  0.25000000  0.14780507  0.42161788  1
  Cs  Cs2  1  0.75000000  0.64780507  0.07838212  1
  Cs  Cs3  1  0.75000000  0.85219493  0.57838212  1
  Cs  Cs4  1  0.25000000  0.47613610  0.61043216  1
  Cs  Cs5  1  0.25000000  0.02386390  0.11043216  1
  Cs  Cs6  1  0.75000000  0.52386390  0.38956784  1
  Cs  Cs7  1  0.75000000  0.97613610  0.88956784  1
  Cd  Cd8  1  0.25000000  0.11186162  0.68928349  1
  Cd  Cd9  1  0.25000000  0.38813838  0.18928349  1
  Cd  Cd10  1  0.75000000  0.88813838  0.31071651  1
  Cd  Cd11  1  0.75000000  0.61186162  0.81071651  1
  P  P12  1  0.75000000  0.23356200  0.58864424  1
  P  P13  1  0.75000000  0.26643800  0.08864424  1
  P  P14  1  0.25000000  0.76643800  0.41135576  1
  P  P15  1  0.25000000  0.73356200  0.91135576  1
  P  P16  1  0.75000000  0.27202147  0.76262073  1
  P  P17  1  0.75000000  0.22797853  0.26262073  1
  P  P18  1  0.25000000  0.72797853  0.23737927  1
  P  P19  1  0.25000000  0.77202147  0.73737927  1
  O  O20  1  0.75000000  0.32429777  0.67100000  1
  O  O21  1  0.75000000  0.17570223  0.17100000  1
  O  O22  1  0.25000000  0.67570223  0.32900000  1
  O  O23  1  0.25000000  0.82429777  0.82900000  1
  O  O24  1  0.52164999  0.19100277  0.77650158  1
  O  O25  1  0.97835001  0.30899723  0.27650158  1
  O  O26  1  0.02164999  0.80899723  0.22349842  1
  O  O27  1  0.47835001  0.69100277  0.72349842  1
  O  O28  1  0.47835001  0.80899723  0.22349842  1
  O  O29  1  0.02164999  0.69100277  0.72349842  1
  O  O30  1  0.97835001  0.19100277  0.77650158  1
  O  O31  1  0.52164999  0.30899723  0.27650158  1
  O  O32  1  0.75000000  0.39678741  0.81235864  1
  O  O33  1  0.75000000  0.10321259  0.31235864  1
  O  O34  1  0.25000000  0.60321259  0.18764136  1
  O  O35  1  0.25000000  0.89678741  0.68764136  1
  O  O36  1  0.52091457  0.15003946  0.59156260  1
  O  O37  1  0.97908543  0.34996054  0.09156260  1
  O  O38  1  0.02091457  0.84996054  0.40843740  1
  O  O39  1  0.47908543  0.65003946  0.90843740  1
  O  O40  1  0.47908543  0.84996054  0.40843740  1
  O  O41  1  0.02091457  0.65003946  0.90843740  1
  O  O42  1  0.97908543  0.15003946  0.59156260  1
  O  O43  1  0.52091457  0.34996054  0.09156260  1
  O  O44  1  0.75000000  0.33571621  0.52337530  1
  O  O45  1  0.75000000  0.16428379  0.02337530  1
  O  O46  1  0.25000000  0.66428379  0.47662470  1
  O  O47  1  0.25000000  0.83571621  0.97662470  1
