# generated using pymatgen
data_CsEr10(C2I9)2
_symmetry_space_group_name_H-M   'P 1'
_cell_length_a   11.44180483
_cell_length_b   11.45725340
_cell_length_c   11.46452855
_cell_angle_alpha   66.69679194
_cell_angle_beta   86.75598959
_cell_angle_gamma   59.95649614
_symmetry_Int_Tables_number   1
_chemical_formula_structural   CsEr10(C2I9)2
_chemical_formula_sum   'Cs1 Er10 C4 I18'
_cell_volume   1175.78458129
_cell_formula_units_Z   1
loop_
 _symmetry_equiv_pos_site_id
 _symmetry_equiv_pos_as_xyz
  1  'x, y, z'
loop_
 _atom_site_type_symbol
 _atom_site_label
 _atom_site_symmetry_multiplicity
 _atom_site_fract_x
 _atom_site_fract_y
 _atom_site_fract_z
 _atom_site_occupancy
  Cs  Cs0  1  0.50000000  -0.00000000  0.50000000  1
  Er  Er1  1  0.96466768  0.96221389  0.32171443  1
  Er  Er2  1  0.03533232  0.03778611  0.67828557  1
  Er  Er3  1  0.90774783  0.38522926  0.71197311  1
  Er  Er4  1  0.09225217  0.61477074  0.28802689  1
  Er  Er5  1  0.89702019  0.94531156  0.99919014  1
  Er  Er6  1  0.10297981  0.05468844  0.00080986  1
  Er  Er7  1  0.72501538  0.34966087  0.98488737  1
  Er  Er8  1  0.27498462  0.65033913  0.01511263  1
  Er  Er9  1  0.68258654  0.27226356  0.71526992  1
  Er  Er10  1  0.31741346  0.72773644  0.28473008  1
  C  C11  1  0.92591230  0.14137429  0.80475583  1
  C  C12  1  0.07408770  0.85862571  0.19524417  1
  C  C13  1  0.84928688  0.21782777  0.88151403  1
  C  C14  1  0.15071312  0.78217223  0.11848597  1
  I  I15  1  0.97373305  0.24282011  0.16892614  1
  I  I16  1  0.02626695  0.75717989  0.83107386  1
  I  I17  1  0.93423393  0.70314187  0.49759540  1
  I  I18  1  0.06576607  0.29685813  0.50240460  1
  I  I19  1  0.83796041  0.69237187  0.15218718  1
  I  I20  1  0.16203959  0.30762813  0.84781282  1
  I  I21  1  0.78075085  0.14264198  0.50349948  1
  I  I22  1  0.21924915  0.85735802  0.49650052  1
  I  I23  1  0.74225549  0.61727877  0.81874571  1
  I  I24  1  0.25774451  0.38272123  0.18125429  1
  I  I25  1  0.68445540  0.09659222  0.16959609  1
  I  I26  1  0.31554460  0.90340778  0.83040391  1
  I  I27  1  0.64640481  0.55914253  0.50582688  1
  I  I28  1  0.35359519  0.44085747  0.49417312  1
  I  I29  1  0.61797238  0.04084038  0.84235721  1
  I  I30  1  0.38202762  0.95915962  0.15764279  1
  I  I31  1  0.54730611  0.53218344  0.16643012  1
  I  I32  1  0.45269389  0.46781656  0.83356988  1
