# generated using pymatgen
data_Re2Sb4O13
_symmetry_space_group_name_H-M   'P 1'
_cell_length_a   7.89214493
_cell_length_b   9.57433350
_cell_length_c   10.21282514
_cell_angle_alpha   72.58799978
_cell_angle_beta   68.81977188
_cell_angle_gamma   66.57984830
_symmetry_Int_Tables_number   1
_chemical_formula_structural   Re2Sb4O13
_chemical_formula_sum   'Re4 Sb8 O26'
_cell_volume   649.27533783
_cell_formula_units_Z   2
loop_
 _symmetry_equiv_pos_site_id
 _symmetry_equiv_pos_as_xyz
  1  'x, y, z'
loop_
 _atom_site_type_symbol
 _atom_site_label
 _atom_site_symmetry_multiplicity
 _atom_site_fract_x
 _atom_site_fract_y
 _atom_site_fract_z
 _atom_site_occupancy
  Re  Re0  1  0.31860684  0.54560745  0.21763808  1
  Re  Re1  1  0.68139316  0.45439255  0.78236192  1
  Re  Re2  1  0.15405653  0.67068848  0.63275189  1
  Re  Re3  1  0.84594347  0.32931152  0.36724811  1
  Sb  Sb4  1  0.78984992  0.09538386  0.10982119  1
  Sb  Sb5  1  0.21015008  0.90461614  0.89017881  1
  Sb  Sb6  1  0.69860812  0.84675303  0.44160107  1
  Sb  Sb7  1  0.30139188  0.15324697  0.55839893  1
  Sb  Sb8  1  0.79117071  0.73789809  0.03923496  1
  Sb  Sb9  1  0.20882929  0.26210191  0.96076504  1
  Sb  Sb10  1  0.66995500  0.03966029  0.73349211  1
  Sb  Sb11  1  0.33004500  0.96033971  0.26650789  1
  O  O12  1  0.92725817  0.90626626  0.99539032  1
  O  O13  1  0.07274183  0.09373374  0.00460968  1
  O  O14  1  0.57293906  0.99426441  0.59237335  1
  O  O15  1  0.42706094  0.00573559  0.40762665  1
  O  O16  1  0.84564627  0.97693029  0.29286747  1
  O  O17  1  0.15435373  0.02306971  0.70713253  1
  O  O18  1  0.65830313  0.85620165  0.88860149  1
  O  O19  1  0.34169687  0.14379835  0.11139851  1
  O  O20  1  0.61931745  0.86637883  0.19370960  1
  O  O21  1  0.38068255  0.13362117  0.80629040  1
  O  O22  1  0.48083361  0.65270135  0.14903166  1
  O  O23  1  0.51916639  0.34729865  0.85096834  1
  O  O24  1  0.14036845  0.62244854  0.36329523  1
  O  O25  1  0.85963155  0.37755146  0.63670477  1
  O  O26  1  0.43464103  0.34878546  0.27121908  1
  O  O27  1  0.56535897  0.65121454  0.72878092  1
  O  O28  1  0.21136055  0.56770998  0.08624027  1
  O  O29  1  0.78863945  0.43229002  0.91375973  1
  O  O30  1  0.13955692  0.70325534  0.79804354  1
  O  O31  1  0.86044308  0.29674466  0.20195646  1
  O  O32  1  0.94635437  0.80782334  0.58224545  1
  O  O33  1  0.05364563  0.19217666  0.41775455  1
  O  O34  1  0.15912385  0.48047524  0.66198699  1
  O  O35  1  0.84087615  0.51952476  0.33801301  1
  O  O36  1  0.36432514  0.69624807  0.50647873  1
  O  O37  1  0.63567486  0.30375193  0.49352127  1
