# generated using pymatgen
data_Fe7Pb7F34
_symmetry_space_group_name_H-M   'P 1'
_cell_length_a   7.73504296
_cell_length_b   10.04644023
_cell_length_c   10.04644023
_cell_angle_alpha   69.13946499
_cell_angle_beta   79.51842206
_cell_angle_gamma   79.51842206
_symmetry_Int_Tables_number   1
_chemical_formula_structural   Fe7Pb7F34
_chemical_formula_sum   'Fe7 Pb7 F34'
_cell_volume   711.50361480
_cell_formula_units_Z   1
loop_
 _symmetry_equiv_pos_site_id
 _symmetry_equiv_pos_as_xyz
  1  'x, y, z'
loop_
 _atom_site_type_symbol
 _atom_site_label
 _atom_site_symmetry_multiplicity
 _atom_site_fract_x
 _atom_site_fract_y
 _atom_site_fract_z
 _atom_site_occupancy
  Fe  Fe0  1  0.50000000  0.50000000  0.50000000  1
  Fe  Fe1  1  0.46525756  0.16389359  0.16389359  1
  Fe  Fe2  1  0.53474244  0.83610641  0.83610641  1
  Fe  Fe3  1  0.19932184  0.35229420  0.86277079  1
  Fe  Fe4  1  0.19932184  0.86277079  0.35229420  1
  Fe  Fe5  1  0.80067816  0.64770580  0.13722921  1
  Fe  Fe6  1  0.80067816  0.13722921  0.64770580  1
  Pb  Pb7  1  -0.00000000  -0.00000000  -0.00000000  1
  Pb  Pb8  1  0.89896104  0.25940615  0.25940615  1
  Pb  Pb9  1  0.10103896  0.74059385  0.74059385  1
  Pb  Pb10  1  0.70408762  0.45577989  0.83622704  1
  Pb  Pb11  1  0.70408762  0.83622704  0.45577989  1
  Pb  Pb12  1  0.29591238  0.54422011  0.16377296  1
  Pb  Pb13  1  0.29591238  0.16377296  0.54422011  1
  F  F14  1  0.99135801  0.99097476  0.74255944  1
  F  F15  1  0.99135801  0.74255944  0.99097476  1
  F  F16  1  0.00864199  0.00902524  0.25744056  1
  F  F17  1  0.00864199  0.25744056  0.00902524  1
  F  F18  1  0.98107164  0.50546497  0.24560019  1
  F  F19  1  0.98107164  0.24560019  0.50546497  1
  F  F20  1  0.01892836  0.49453503  0.75439981  1
  F  F21  1  0.01892836  0.75439981  0.49453503  1
  F  F22  1  0.80563610  0.51478317  0.03638838  1
  F  F23  1  0.80563610  0.03638838  0.51478317  1
  F  F24  1  0.19436390  0.48521683  0.96361162  1
  F  F25  1  0.19436390  0.96361162  0.48521683  1
  F  F26  1  0.80651456  0.22596091  0.78800215  1
  F  F27  1  0.80651456  0.78800215  0.22596091  1
  F  F28  1  0.19348544  0.77403909  0.21199785  1
  F  F29  1  0.19348544  0.21199785  0.77403909  1
  F  F30  1  0.61506499  0.55121024  0.28154713  1
  F  F31  1  0.61506499  0.28154713  0.55121024  1
  F  F32  1  0.38493501  0.44878976  0.71845287  1
  F  F33  1  0.38493501  0.71845287  0.44878976  1
  F  F34  1  0.61551246  0.78183172  0.02495284  1
  F  F35  1  0.61551246  0.02495284  0.78183172  1
  F  F36  1  0.38448754  0.21816828  0.97504716  1
  F  F37  1  0.38448754  0.97504716  0.21816828  1
  F  F38  1  0.54003296  0.35340952  0.11140787  1
  F  F39  1  0.54003296  0.11140787  0.35340952  1
  F  F40  1  0.45996704  0.64659048  0.88859213  1
  F  F41  1  0.45996704  0.88859213  0.64659048  1
  F  F42  1  0.76934965  0.75241142  0.75241142  1
  F  F43  1  0.23065035  0.24758858  0.24758858  1
  F  F44  1  0.70226137  0.09830463  0.09830463  1
  F  F45  1  0.29773863  0.90169537  0.90169537  1
  F  F46  1  0.68804591  0.57231911  0.57231911  1
  F  F47  1  0.31195409  0.42768089  0.42768089  1
