# generated using pymatgen
data_K2Si5BO12
_symmetry_space_group_name_H-M   'P 1'
_cell_length_a   4.78184138
_cell_length_b   13.39154542
_cell_length_c   9.19858304
_cell_angle_alpha   90.00000000
_cell_angle_beta   90.00000000
_cell_angle_gamma   90.00000000
_symmetry_Int_Tables_number   1
_chemical_formula_structural   K2Si5BO12
_chemical_formula_sum   'K4 Si10 B2 O24'
_cell_volume   589.04272669
_cell_formula_units_Z   2
loop_
 _symmetry_equiv_pos_site_id
 _symmetry_equiv_pos_as_xyz
  1  'x, y, z'
loop_
 _atom_site_type_symbol
 _atom_site_label
 _atom_site_symmetry_multiplicity
 _atom_site_fract_x
 _atom_site_fract_y
 _atom_site_fract_z
 _atom_site_occupancy
  K  K0  1  0.94742615  -0.00000000  0.94152161  1
  K  K1  1  0.05257385  0.50000000  0.44152161  1
  K  K2  1  0.46549992  0.00000000  0.26909779  1
  K  K3  1  0.53450008  0.50000000  0.76909779  1
  Si  Si4  1  0.85555965  0.71010313  0.94458227  1
  Si  Si5  1  0.14444035  0.78989687  0.44458227  1
  Si  Si6  1  0.14444035  0.21010313  0.44458227  1
  Si  Si7  1  0.85555965  0.28989687  0.94458227  1
  Si  Si8  1  0.35780822  0.79928316  0.77663072  1
  Si  Si9  1  0.64219178  0.70071684  0.27663072  1
  Si  Si10  1  0.64219178  0.29928316  0.27663072  1
  Si  Si11  1  0.35780822  0.20071684  0.77663072  1
  Si  Si12  1  0.93771724  -0.00000000  0.53067635  1
  Si  Si13  1  0.06228276  0.50000000  0.03067635  1
  B  B14  1  0.43743415  0.00000000  0.70079253  1
  B  B15  1  0.56256585  0.50000000  0.20079253  1
  O  O16  1  0.98647287  0.59720235  0.92681932  1
  O  O17  1  0.01352713  0.90279765  0.42681932  1
  O  O18  1  0.01352713  0.09720235  0.42681932  1
  O  O19  1  0.98647287  0.40279765  0.92681932  1
  O  O20  1  0.13350159  0.00000000  0.67220973  1
  O  O21  1  0.86649841  0.50000000  0.17220973  1
  O  O22  1  0.60494031  0.00000000  0.56522675  1
  O  O23  1  0.39505969  0.50000000  0.06522675  1
  O  O24  1  0.90771707  0.70848854  0.39258340  1
  O  O25  1  0.09228293  0.79151146  0.89258340  1
  O  O26  1  0.09228293  0.20848854  0.89258340  1
  O  O27  1  0.90771707  0.29151146  0.39258340  1
  O  O28  1  0.24783437  0.76923103  0.61206408  1
  O  O29  1  0.75216563  0.73076897  0.11206408  1
  O  O30  1  0.75216563  0.26923103  0.11206408  1
  O  O31  1  0.24783437  0.23076897  0.61206408  1
  O  O32  1  0.59066051  0.71618931  0.83066812  1
  O  O33  1  0.40933949  0.78381069  0.33066812  1
  O  O34  1  0.40933949  0.21618931  0.33066812  1
  O  O35  1  0.59066051  0.28381069  0.83066812  1
  O  O36  1  0.50013659  0.90935777  0.78778969  1
  O  O37  1  0.49986341  0.59064223  0.28778969  1
  O  O38  1  0.49986341  0.40935777  0.28778969  1
  O  O39  1  0.50013659  0.09064223  0.78778969  1
