# generated using pymatgen
data_Tl2CoH12(SO7)2
_symmetry_space_group_name_H-M   'P 1'
_cell_length_a   6.31734931
_cell_length_b   9.28282303
_cell_length_c   12.63540852
_cell_angle_alpha   90.00000000
_cell_angle_beta   90.00000000
_cell_angle_gamma   105.82736507
_symmetry_Int_Tables_number   1
_chemical_formula_structural   Tl2CoH12(SO7)2
_chemical_formula_sum   'Tl4 Co2 H24 S4 O28'
_cell_volume   712.88417731
_cell_formula_units_Z   2
loop_
 _symmetry_equiv_pos_site_id
 _symmetry_equiv_pos_as_xyz
  1  'x, y, z'
loop_
 _atom_site_type_symbol
 _atom_site_label
 _atom_site_symmetry_multiplicity
 _atom_site_fract_x
 _atom_site_fract_y
 _atom_site_fract_z
 _atom_site_occupancy
  Tl  Tl0  1  0.34218520  0.61645580  0.13633101  1
  Tl  Tl1  1  0.65781480  0.88354420  0.63633101  1
  Tl  Tl2  1  0.65781480  0.38354420  0.86366899  1
  Tl  Tl3  1  0.34218520  0.11645580  0.36366899  1
  Co  Co4  1  0.00000000  0.50000000  0.50000000  1
  Co  Co5  1  0.00000000  0.00000000  0.00000000  1
  H  H6  1  0.32242634  0.71253053  0.40261368  1
  H  H7  1  0.67757366  0.78746947  0.90261368  1
  H  H8  1  0.67757366  0.28746947  0.59738632  1
  H  H9  1  0.32242634  0.21253053  0.09738632  1
  H  H10  1  0.08862493  0.74247816  0.37306009  1
  H  H11  1  0.91137507  0.75752184  0.87306009  1
  H  H12  1  0.91137507  0.25752184  0.62693991  1
  H  H13  1  0.08862493  0.24247816  0.12693991  1
  H  H14  1  0.92757828  0.22743332  0.39993765  1
  H  H15  1  0.07242172  0.27256668  0.89993765  1
  H  H16  1  0.07242172  0.77256668  0.60006235  1
  H  H17  1  0.92757828  0.72743332  0.10006235  1
  H  H18  1  0.99520088  0.35472930  0.31326100  1
  H  H19  1  0.00479912  0.14527070  0.81326100  1
  H  H20  1  0.00479912  0.64527070  0.68673900  1
  H  H21  1  0.99520088  0.85472930  0.18673900  1
  H  H22  1  0.33517656  0.39795678  0.56143602  1
  H  H23  1  0.66482344  0.10204322  0.06143602  1
  H  H24  1  0.66482344  0.60204322  0.43856398  1
  H  H25  1  0.33517656  0.89795678  0.93856398  1
  H  H26  1  0.31909096  0.52447880  0.64258331  1
  H  H27  1  0.68090904  0.97552120  0.14258331  1
  H  H28  1  0.68090904  0.47552120  0.35741669  1
  H  H29  1  0.31909096  0.02447880  0.85741669  1
  S  S30  1  0.73431840  0.90307363  0.35883808  1
  S  S31  1  0.26568160  0.59692637  0.85883808  1
  S  S32  1  0.26568160  0.09692637  0.64116192  1
  S  S33  1  0.73431840  0.40307363  0.14116192  1
  O  O34  1  0.59737824  0.91613047  0.26508117  1
  O  O35  1  0.40262176  0.58386953  0.76508117  1
  O  O36  1  0.40262176  0.08386953  0.73491883  1
  O  O37  1  0.59737824  0.41613047  0.23491883  1
  O  O38  1  0.78034801  0.04218455  0.42417157  1
  O  O39  1  0.21965199  0.45781545  0.92417157  1
  O  O40  1  0.21965199  0.95781545  0.57582843  1
  O  O41  1  0.78034801  0.54218455  0.07582843  1
  O  O42  1  0.60698347  0.77483283  0.42610772  1
  O  O43  1  0.39301653  0.72516717  0.92610772  1
  O  O44  1  0.39301653  0.22516717  0.57389228  1
  O  O45  1  0.60698347  0.27483283  0.07389228  1
  O  O46  1  0.94586742  0.87430599  0.32349084  1
  O  O47  1  0.05413258  0.62569401  0.82349084  1
  O  O48  1  0.05413258  0.12569401  0.67650916  1
  O  O49  1  0.94586742  0.37430599  0.17650916  1
  O  O50  1  0.16336354  0.66443698  0.38982246  1
  O  O51  1  0.83663646  0.83556302  0.88982246  1
  O  O52  1  0.83663646  0.33556302  0.61017754  1
  O  O53  1  0.16336354  0.16443698  0.11017754  1
  O  O54  1  0.02596339  0.32935271  0.38719758  1
  O  O55  1  0.97403661  0.17064729  0.88719758  1
  O  O56  1  0.97403661  0.67064729  0.61280242  1
  O  O57  1  0.02596339  0.82935271  0.11280242  1
  O  O58  1  0.29310490  0.49294729  0.56724996  1
  O  O59  1  0.70689510  0.00705271  0.06724996  1
  O  O60  1  0.70689510  0.50705271  0.43275004  1
  O  O61  1  0.29310490  0.99294729  0.93275004  1
