# generated using pymatgen
data_CsH2F3
_symmetry_space_group_name_H-M   'P 1'
_cell_length_a   7.54233905
_cell_length_b   9.38007641
_cell_length_c   11.72925438
_cell_angle_alpha   90.00000000
_cell_angle_beta   90.00000000
_cell_angle_gamma   90.00000000
_symmetry_Int_Tables_number   1
_chemical_formula_structural   CsH2F3
_chemical_formula_sum   'Cs8 H16 F24'
_cell_volume   829.81796480
_cell_formula_units_Z   8
loop_
 _symmetry_equiv_pos_site_id
 _symmetry_equiv_pos_as_xyz
  1  'x, y, z'
loop_
 _atom_site_type_symbol
 _atom_site_label
 _atom_site_symmetry_multiplicity
 _atom_site_fract_x
 _atom_site_fract_y
 _atom_site_fract_z
 _atom_site_occupancy
  Cs  Cs0  1  0.47839894  0.78513491  0.16272599  1
  Cs  Cs1  1  0.02160106  0.21486509  0.66272599  1
  Cs  Cs2  1  0.97839894  0.71486509  0.83727401  1
  Cs  Cs3  1  0.52160106  0.28513491  0.33727401  1
  Cs  Cs4  1  0.48580095  0.86099245  0.60986732  1
  Cs  Cs5  1  0.01419905  0.13900755  0.10986732  1
  Cs  Cs6  1  0.98580095  0.63900755  0.39013268  1
  Cs  Cs7  1  0.51419905  0.36099245  0.89013268  1
  H  H8  1  0.53873027  0.08783715  0.05832246  1
  H  H9  1  0.96126973  0.91216285  0.55832246  1
  H  H10  1  0.03873027  0.41216285  0.94167754  1
  H  H11  1  0.46126973  0.58783715  0.44167754  1
  H  H12  1  0.70530119  0.02536772  0.88303962  1
  H  H13  1  0.79469881  0.97463228  0.38303962  1
  H  H14  1  0.20530119  0.47463228  0.11696038  1
  H  H15  1  0.29469881  0.52536772  0.61696038  1
  H  H16  1  0.46357024  0.76338803  0.88657088  1
  H  H17  1  0.03642976  0.23661197  0.38657088  1
  H  H18  1  0.96357024  0.73661197  0.11342912  1
  H  H19  1  0.53642976  0.26338803  0.61342912  1
  H  H20  1  0.28577389  0.98828817  0.87240539  1
  H  H21  1  0.21422611  0.01171183  0.37240539  1
  H  H22  1  0.78577389  0.51171183  0.12759461  1
  H  H23  1  0.71422611  0.48828817  0.62759461  1
  F  F24  1  0.43946776  0.11607305  0.11522850  1
  F  F25  1  0.06053224  0.88392695  0.61522850  1
  F  F26  1  0.93946776  0.38392695  0.88477150  1
  F  F27  1  0.56053224  0.61607305  0.38477150  1
  F  F28  1  0.67023608  0.05176547  0.99302600  1
  F  F29  1  0.82976392  0.94823453  0.49302600  1
  F  F30  1  0.17023608  0.44823453  0.00697400  1
  F  F31  1  0.32976392  0.55176547  0.50697400  1
  F  F32  1  0.74383121  0.00840865  0.80101905  1
  F  F33  1  0.75616879  0.99159135  0.30101905  1
  F  F34  1  0.24383121  0.49159135  0.19898095  1
  F  F35  1  0.25616879  0.50840865  0.69898095  1
  F  F36  1  0.55946726  0.68823589  0.90454727  1
  F  F37  1  0.94053274  0.31176411  0.40454727  1
  F  F38  1  0.05946726  0.81176411  0.09545273  1
  F  F39  1  0.44053274  0.18823589  0.59545273  1
  F  F40  1  0.33659576  0.85284542  0.86241525  1
  F  F41  1  0.16340424  0.14715458  0.36241525  1
  F  F42  1  0.83659576  0.64715458  0.13758475  1
  F  F43  1  0.66340424  0.35284542  0.63758475  1
  F  F44  1  0.23515970  0.08907367  0.87456163  1
  F  F45  1  0.26484030  0.91092633  0.37456163  1
  F  F46  1  0.73515970  0.41092633  0.12543837  1
  F  F47  1  0.76484030  0.58907367  0.62543837  1
