# generated using pymatgen
data_TlAsH2F10
_symmetry_space_group_name_H-M   'P 1'
_cell_length_a   5.69203448
_cell_length_b   6.04236731
_cell_length_c   22.37287243
_cell_angle_alpha   90.00000000
_cell_angle_beta   95.38052780
_cell_angle_gamma   90.00000000
_symmetry_Int_Tables_number   1
_chemical_formula_structural   TlAsH2F10
_chemical_formula_sum   'Tl4 As4 H8 F40'
_cell_volume   766.08791882
_cell_formula_units_Z   4
loop_
 _symmetry_equiv_pos_site_id
 _symmetry_equiv_pos_as_xyz
  1  'x, y, z'
loop_
 _atom_site_type_symbol
 _atom_site_label
 _atom_site_symmetry_multiplicity
 _atom_site_fract_x
 _atom_site_fract_y
 _atom_site_fract_z
 _atom_site_occupancy
  Tl  Tl0  1  0.75304770  0.39322913  0.26858542  1
  Tl  Tl1  1  0.24695230  0.89322913  0.23141458  1
  Tl  Tl2  1  0.24695230  0.60677087  0.73141458  1
  Tl  Tl3  1  0.75304770  0.10677087  0.76858542  1
  As  As4  1  0.48590059  0.27162300  0.10258969  1
  As  As5  1  0.51409941  0.77162300  0.39741031  1
  As  As6  1  0.51409941  0.72837700  0.89741031  1
  As  As7  1  0.48590059  0.22837700  0.60258969  1
  H  H8  1  0.97908129  0.28820332  0.39679902  1
  H  H9  1  0.02091871  0.78820332  0.10320098  1
  H  H10  1  0.02091871  0.71179668  0.60320098  1
  H  H11  1  0.97908129  0.21179668  0.89679902  1
  H  H12  1  0.09389091  0.24380711  0.98738581  1
  H  H13  1  0.90610909  0.74380711  0.51261419  1
  H  H14  1  0.90610909  0.75619289  0.01261419  1
  H  H15  1  0.09389091  0.25619289  0.48738581  1
  F  F16  1  0.71512582  0.34543835  0.16128752  1
  F  F17  1  0.28487418  0.84543835  0.33871248  1
  F  F18  1  0.28487418  0.65456165  0.83871248  1
  F  F19  1  0.71512582  0.15456165  0.66128752  1
  F  F20  1  0.27507093  0.39328513  0.14480917  1
  F  F21  1  0.72492907  0.89328513  0.35519083  1
  F  F22  1  0.72492907  0.60671487  0.85519083  1
  F  F23  1  0.27507093  0.10671487  0.64480917  1
  F  F24  1  0.25832817  0.18631353  0.04692498  1
  F  F25  1  0.74167183  0.68631353  0.45307502  1
  F  F26  1  0.74167183  0.81368647  0.95307502  1
  F  F27  1  0.25832817  0.31368647  0.54692498  1
  F  F28  1  0.69492676  0.13004534  0.06536879  1
  F  F29  1  0.30507324  0.63004534  0.43463121  1
  F  F30  1  0.30507324  0.86995466  0.93463121  1
  F  F31  1  0.69492676  0.36995466  0.56536879  1
  F  F32  1  0.53316581  0.51906304  0.06606297  1
  F  F33  1  0.46683419  0.01906304  0.43393703  1
  F  F34  1  0.46683419  0.48093696  0.93393703  1
  F  F35  1  0.53316581  0.98093696  0.56606297  1
  F  F36  1  0.44123108  0.01612442  0.14429597  1
  F  F37  1  0.55876892  0.51612442  0.35570403  1
  F  F38  1  0.55876892  0.98387558  0.85570403  1
  F  F39  1  0.44123108  0.48387558  0.64429597  1
  F  F40  1  0.55582908  0.69548077  0.23300648  1
  F  F41  1  0.44417092  0.19548077  0.26699352  1
  F  F42  1  0.44417092  0.30451923  0.76699352  1
  F  F43  1  0.55582908  0.80451923  0.73300648  1
  F  F44  1  0.94425032  0.07992432  0.24758086  1
  F  F45  1  0.05574968  0.57992432  0.25241914  1
  F  F46  1  0.05574968  0.92007568  0.75241914  1
  F  F47  1  0.94425032  0.42007568  0.74758086  1
  F  F48  1  0.00480970  0.32692216  0.35429699  1
  F  F49  1  0.99519030  0.82692216  0.14570301  1
  F  F50  1  0.99519030  0.67307784  0.64570301  1
  F  F51  1  0.00480970  0.17307784  0.85429699  1
  F  F52  1  0.96031848  0.26876887  0.95772264  1
  F  F53  1  0.03968152  0.76876887  0.54227736  1
  F  F54  1  0.03968152  0.73123113  0.04227736  1
  F  F55  1  0.96031848  0.23123113  0.45772264  1
