# generated using pymatgen
data_Tm2Fe3Si5
_symmetry_space_group_name_H-M   'P 1'
_cell_length_a   5.42320619
_cell_length_b   10.31066596
_cell_length_c   10.31066596
_cell_angle_alpha   90.00000000
_cell_angle_beta   90.00000000
_cell_angle_gamma   90.00000000
_symmetry_Int_Tables_number   1
_chemical_formula_structural   Tm2Fe3Si5
_chemical_formula_sum   'Tm8 Fe12 Si20'
_cell_volume   576.54014188
_cell_formula_units_Z   4
loop_
 _symmetry_equiv_pos_site_id
 _symmetry_equiv_pos_as_xyz
  1  'x, y, z'
loop_
 _atom_site_type_symbol
 _atom_site_label
 _atom_site_symmetry_multiplicity
 _atom_site_fract_x
 _atom_site_fract_y
 _atom_site_fract_z
 _atom_site_occupancy
  Tm  Tm0  1  0.50000000  0.73649307  0.56992926  1
  Tm  Tm1  1  0.50000000  0.26350693  0.43007074  1
  Tm  Tm2  1  0.00000000  0.76350693  0.06992926  1
  Tm  Tm3  1  -0.00000000  0.23649307  0.93007074  1
  Tm  Tm4  1  0.50000000  0.56992926  0.26350693  1
  Tm  Tm5  1  0.50000000  0.43007074  0.73649307  1
  Tm  Tm6  1  -0.00000000  0.06992926  0.23649307  1
  Tm  Tm7  1  0.00000000  0.93007074  0.76350693  1
  Fe  Fe8  1  0.50000000  0.85566600  0.87700410  1
  Fe  Fe9  1  0.50000000  0.14433400  0.12299590  1
  Fe  Fe10  1  0.00000000  0.64433400  0.37700410  1
  Fe  Fe11  1  -0.00000000  0.35566600  0.62299590  1
  Fe  Fe12  1  0.50000000  0.87700410  0.14433400  1
  Fe  Fe13  1  0.50000000  0.12299590  0.85566600  1
  Fe  Fe14  1  -0.00000000  0.37700410  0.35566600  1
  Fe  Fe15  1  0.00000000  0.62299590  0.64433400  1
  Fe  Fe16  1  0.25000000  -0.00000000  0.50000000  1
  Fe  Fe17  1  0.75000000  0.50000000  -0.00000000  1
  Fe  Fe18  1  0.25000000  0.50000000  -0.00000000  1
  Fe  Fe19  1  0.75000000  -0.00000000  0.50000000  1
  Si  Si20  1  0.25000000  0.17742383  0.67742383  1
  Si  Si21  1  0.25000000  0.82257617  0.32257617  1
  Si  Si22  1  0.75000000  0.32257617  0.17742383  1
  Si  Si23  1  0.75000000  0.67742383  0.82257617  1
  Si  Si24  1  0.25000000  0.67742383  0.82257617  1
  Si  Si25  1  0.25000000  0.32257617  0.17742383  1
  Si  Si26  1  0.75000000  0.17742383  0.67742383  1
  Si  Si27  1  0.75000000  0.82257617  0.32257617  1
  Si  Si28  1  0.23806691  0.50000000  0.50000000  1
  Si  Si29  1  0.73806691  -0.00000000  -0.00000000  1
  Si  Si30  1  0.76193309  0.50000000  0.50000000  1
  Si  Si31  1  0.26193309  -0.00000000  -0.00000000  1
  Si  Si32  1  0.50000000  0.97661477  0.68074133  1
  Si  Si33  1  0.50000000  0.02338523  0.31925867  1
  Si  Si34  1  -0.00000000  0.52338523  0.18074133  1
  Si  Si35  1  0.00000000  0.47661477  0.81925867  1
  Si  Si36  1  0.50000000  0.68074133  0.02338523  1
  Si  Si37  1  0.50000000  0.31925867  0.97661477  1
  Si  Si38  1  0.00000000  0.18074133  0.47661477  1
  Si  Si39  1  -0.00000000  0.81925867  0.52338523  1
