# generated using pymatgen
data_Ca(BH)12
_symmetry_space_group_name_H-M   'P 1'
_cell_length_a   7.21313140
_cell_length_b   7.21313140
_cell_length_c   11.14434651
_cell_angle_alpha   90.12215104
_cell_angle_beta   90.12215104
_cell_angle_gamma   120.88758599
_symmetry_Int_Tables_number   1
_chemical_formula_structural   Ca(BH)12
_chemical_formula_sum   'Ca2 B24 H24'
_cell_volume   497.59347867
_cell_formula_units_Z   2
loop_
 _symmetry_equiv_pos_site_id
 _symmetry_equiv_pos_as_xyz
  1  'x, y, z'
loop_
 _atom_site_type_symbol
 _atom_site_label
 _atom_site_symmetry_multiplicity
 _atom_site_fract_x
 _atom_site_fract_y
 _atom_site_fract_z
 _atom_site_occupancy
  Ca  Ca0  1  0.82820414  0.17179586  0.25000000  1
  Ca  Ca1  1  0.17179586  0.82820414  0.75000000  1
  B  B2  1  0.38699208  0.91862182  0.16701258  1
  B  B3  1  0.08137818  0.61300792  0.33298742  1
  B  B4  1  0.61300792  0.08137818  0.83298742  1
  B  B5  1  0.91862182  0.38699208  0.66701258  1
  B  B6  1  0.24726261  0.06196623  0.16575899  1
  B  B7  1  0.93803377  0.75273739  0.33424101  1
  B  B8  1  0.75273739  0.93803377  0.83424101  1
  B  B9  1  0.06196623  0.24726261  0.66575899  1
  B  B10  1  0.19767455  0.64027888  0.18871867  1
  B  B11  1  0.35972112  0.80232545  0.31128133  1
  B  B12  1  0.80232545  0.35972112  0.81128133  1
  B  B13  1  0.64027888  0.19767455  0.68871867  1
  B  B14  1  0.96963272  0.87061368  0.18914464  1
  B  B15  1  0.12938632  0.03036728  0.31085536  1
  B  B16  1  0.03036728  0.12938632  0.81085536  1
  B  B17  1  0.87061368  0.96963272  0.68914464  1
  B  B18  1  0.12891487  0.80151860  0.09894190  1
  B  B19  1  0.19848140  0.87108513  0.40105810  1
  B  B20  1  0.87108513  0.19848140  0.90105810  1
  B  B21  1  0.80151860  0.12891487  0.59894190  1
  B  B22  1  0.93980014  0.61233610  0.20263119  1
  B  B23  1  0.38766390  0.06019986  0.29736881  1
  B  B24  1  0.06019986  0.38766390  0.79736881  1
  B  B25  1  0.61233610  0.93980014  0.70263119  1
  H  H26  1  0.54585485  0.97744486  0.10654678  1
  H  H27  1  0.02255514  0.45414515  0.39345322  1
  H  H28  1  0.45414515  0.02255514  0.89345322  1
  H  H29  1  0.97744486  0.54585485  0.60654678  1
  H  H30  1  0.30820280  0.22152127  0.10758414  1
  H  H31  1  0.77847873  0.69179720  0.39241586  1
  H  H32  1  0.69179720  0.77847873  0.89241586  1
  H  H33  1  0.22152127  0.30820280  0.60758414  1
  H  H34  1  0.21831044  0.49859147  0.14641780  1
  H  H35  1  0.50140853  0.78168956  0.35358220  1
  H  H36  1  0.78168956  0.50140853  0.85358220  1
  H  H37  1  0.49859147  0.21831044  0.64641780  1
  H  H38  1  0.82727253  0.88780906  0.14267751  1
  H  H39  1  0.11219094  0.17272747  0.35732249  1
  H  H40  1  0.17272747  0.11219094  0.85732249  1
  H  H41  1  0.88780906  0.82727253  0.64267751  1
  H  H42  1  0.10079272  0.77380560  0.99254283  1
  H  H43  1  0.22619440  0.89920728  0.50745717  1
  H  H44  1  0.89920728  0.22619440  0.00745717  1
  H  H45  1  0.77380560  0.10079272  0.49254283  1
  H  H46  1  0.77925452  0.45363167  0.16719325  1
  H  H47  1  0.54636833  0.22074548  0.33280675  1
  H  H48  1  0.22074548  0.54636833  0.83280675  1
  H  H49  1  0.45363167  0.77925452  0.66719325  1
