# generated using pymatgen
data_Rb2PS3
_symmetry_space_group_name_H-M   'P 1'
_cell_length_a   8.89335337
_cell_length_b   12.46536439
_cell_length_c   13.80076312
_cell_angle_alpha   90.00000000
_cell_angle_beta   92.47048196
_cell_angle_gamma   90.00000000
_symmetry_Int_Tables_number   1
_chemical_formula_structural   Rb2PS3
_chemical_formula_sum   'Rb16 P8 S24'
_cell_volume   1528.51530275
_cell_formula_units_Z   8
loop_
 _symmetry_equiv_pos_site_id
 _symmetry_equiv_pos_as_xyz
  1  'x, y, z'
loop_
 _atom_site_type_symbol
 _atom_site_label
 _atom_site_symmetry_multiplicity
 _atom_site_fract_x
 _atom_site_fract_y
 _atom_site_fract_z
 _atom_site_occupancy
  Rb  Rb0  1  0.70758841  0.22706983  0.90060973  1
  Rb  Rb1  1  0.79241159  0.72706983  0.09939027  1
  Rb  Rb2  1  0.29241159  0.77293017  0.09939027  1
  Rb  Rb3  1  0.20758841  0.27293017  0.90060973  1
  Rb  Rb4  1  0.34121099  0.93395465  0.82540998  1
  Rb  Rb5  1  0.15878901  0.43395465  0.17459002  1
  Rb  Rb6  1  0.65878901  0.06604535  0.17459002  1
  Rb  Rb7  1  0.84121099  0.56604535  0.82540998  1
  Rb  Rb8  1  0.12230674  0.81383754  0.43223872  1
  Rb  Rb9  1  0.37769326  0.31383754  0.56776128  1
  Rb  Rb10  1  0.87769326  0.18616246  0.56776128  1
  Rb  Rb11  1  0.62230674  0.68616246  0.43223872  1
  Rb  Rb12  1  0.27202138  0.62708124  0.70881378  1
  Rb  Rb13  1  0.22797862  0.12708124  0.29118622  1
  Rb  Rb14  1  0.72797862  0.37291876  0.29118622  1
  Rb  Rb15  1  0.77202138  0.87291876  0.70881378  1
  P  P16  1  0.43035011  0.99777592  0.56879285  1
  P  P17  1  0.06964989  0.49777592  0.43120715  1
  P  P18  1  0.56964989  0.00222408  0.43120715  1
  P  P19  1  0.93035011  0.50222408  0.56879285  1
  P  P20  1  0.44070004  0.53512018  0.93086032  1
  P  P21  1  0.05929996  0.03512018  0.06913968  1
  P  P22  1  0.55929996  0.46487982  0.06913968  1
  P  P23  1  0.94070004  0.96487982  0.93086032  1
  S  S24  1  0.02633450  0.81412736  0.91360626  1
  S  S25  1  0.47366550  0.31412736  0.08639374  1
  S  S26  1  0.97366550  0.18587264  0.08639374  1
  S  S27  1  0.52633450  0.68587264  0.91360626  1
  S  S28  1  0.21557978  0.53985249  0.95450562  1
  S  S29  1  0.28442022  0.03985249  0.04549438  1
  S  S30  1  0.78442022  0.46014751  0.04549438  1
  S  S31  1  0.71557978  0.96014751  0.95450562  1
  S  S32  1  0.99256974  0.06406687  0.81967306  1
  S  S33  1  0.50743026  0.56406687  0.18032694  1
  S  S34  1  0.00743026  0.93593313  0.18032694  1
  S  S35  1  0.49256974  0.43593313  0.81967306  1
  S  S36  1  0.45606775  0.91195832  0.32840163  1
  S  S37  1  0.04393225  0.41195832  0.67159837  1
  S  S38  1  0.54393225  0.08804168  0.67159837  1
  S  S39  1  0.95606775  0.58804168  0.32840163  1
  S  S40  1  0.27729061  0.55708535  0.46653124  1
  S  S41  1  0.22270939  0.05708535  0.53346876  1
  S  S42  1  0.72270939  0.44291465  0.53346876  1
  S  S43  1  0.77729061  0.94291465  0.46653124  1
  S  S44  1  0.42544674  0.83861408  0.60436017  1
  S  S45  1  0.07455326  0.33861408  0.39563983  1
  S  S46  1  0.57455326  0.16138592  0.39563983  1
  S  S47  1  0.92544674  0.66138592  0.60436017  1
