# generated using pymatgen
data_Cs3NbSe4
_symmetry_space_group_name_H-M   'P 1'
_cell_length_a   10.51758779
_cell_length_b   10.43658061
_cell_length_c   12.27753720
_cell_angle_alpha   90.00000000
_cell_angle_beta   90.00000000
_cell_angle_gamma   90.00000000
_symmetry_Int_Tables_number   1
_chemical_formula_structural   Cs3NbSe4
_chemical_formula_sum   'Cs12 Nb4 Se16'
_cell_volume   1347.67644052
_cell_formula_units_Z   4
loop_
 _symmetry_equiv_pos_site_id
 _symmetry_equiv_pos_as_xyz
  1  'x, y, z'
loop_
 _atom_site_type_symbol
 _atom_site_label
 _atom_site_symmetry_multiplicity
 _atom_site_fract_x
 _atom_site_fract_y
 _atom_site_fract_z
 _atom_site_occupancy
  Cs  Cs0  1  0.79205633  0.54717366  0.54454070  1
  Cs  Cs1  1  0.70794367  0.04717366  0.95545930  1
  Cs  Cs2  1  0.20794367  0.45282634  0.04454070  1
  Cs  Cs3  1  0.29205633  0.95282634  0.45545930  1
  Cs  Cs4  1  0.20794367  0.45282634  0.45545930  1
  Cs  Cs5  1  0.29205633  0.95282634  0.04454070  1
  Cs  Cs6  1  0.79205633  0.54717366  0.95545930  1
  Cs  Cs7  1  0.70794367  0.04717366  0.54454070  1
  Cs  Cs8  1  0.58836888  0.64446699  0.25000000  1
  Cs  Cs9  1  0.91163112  0.14446699  0.25000000  1
  Cs  Cs10  1  0.41163112  0.35553301  0.75000000  1
  Cs  Cs11  1  0.08836888  0.85553301  0.75000000  1
  Nb  Nb12  1  0.01812550  0.72171975  0.25000000  1
  Nb  Nb13  1  0.48187450  0.22171975  0.25000000  1
  Nb  Nb14  1  0.98187450  0.27828025  0.75000000  1
  Nb  Nb15  1  0.51812550  0.77828025  0.75000000  1
  Se  Se16  1  0.24819658  0.70619383  0.25000000  1
  Se  Se17  1  0.25180342  0.20619383  0.25000000  1
  Se  Se18  1  0.75180342  0.29380617  0.75000000  1
  Se  Se19  1  0.74819658  0.79380617  0.75000000  1
  Se  Se20  1  0.92871755  0.50676441  0.25000000  1
  Se  Se21  1  0.57128245  0.00676441  0.25000000  1
  Se  Se22  1  0.07128245  0.49323559  0.75000000  1
  Se  Se23  1  0.42871755  0.99323559  0.75000000  1
  Se  Se24  1  0.95188786  0.83211339  0.41363008  1
  Se  Se25  1  0.54811214  0.33211339  0.08636992  1
  Se  Se26  1  0.04811214  0.16788661  0.91363008  1
  Se  Se27  1  0.45188786  0.66788661  0.58636992  1
  Se  Se28  1  0.04811214  0.16788661  0.58636992  1
  Se  Se29  1  0.45188786  0.66788661  0.91363008  1
  Se  Se30  1  0.95188786  0.83211339  0.08636992  1
  Se  Se31  1  0.54811214  0.33211339  0.41363008  1
