# generated using pymatgen
data_Dy(NO3)3
_symmetry_space_group_name_H-M   'P 1'
_cell_length_a   6.19782861
_cell_length_b   9.80737206
_cell_length_c   11.10228843
_cell_angle_alpha   91.49070565
_cell_angle_beta   90.00000000
_cell_angle_gamma   90.00000000
_symmetry_Int_Tables_number   1
_chemical_formula_structural   Dy(NO3)3
_chemical_formula_sum   'Dy4 N12 O36'
_cell_volume   674.61766864
_cell_formula_units_Z   4
loop_
 _symmetry_equiv_pos_site_id
 _symmetry_equiv_pos_as_xyz
  1  'x, y, z'
loop_
 _atom_site_type_symbol
 _atom_site_label
 _atom_site_symmetry_multiplicity
 _atom_site_fract_x
 _atom_site_fract_y
 _atom_site_fract_z
 _atom_site_occupancy
  Dy  Dy0  1  0.32191342  0.72137243  0.73657892  1
  Dy  Dy1  1  0.82191342  0.77862757  0.26342108  1
  Dy  Dy2  1  0.67808658  0.27862757  0.26342108  1
  Dy  Dy3  1  0.17808658  0.22137243  0.73657892  1
  N  N4  1  0.62389707  0.83538856  0.49117597  1
  N  N5  1  0.12389707  0.66461144  0.50882403  1
  N  N6  1  0.37610293  0.16461144  0.50882403  1
  N  N7  1  0.87610293  0.33538856  0.49117597  1
  N  N8  1  0.27123600  0.78626842  0.20972852  1
  N  N9  1  0.77123600  0.71373158  0.79027148  1
  N  N10  1  0.72876400  0.21373158  0.79027148  1
  N  N11  1  0.22876400  0.28626842  0.20972852  1
  N  N12  1  0.27551178  0.47787783  0.88320693  1
  N  N13  1  0.77551178  0.02212217  0.11679307  1
  N  N14  1  0.72448822  0.52212217  0.11679307  1
  N  N15  1  0.22448822  0.97787783  0.88320693  1
  O  O16  1  0.57408568  0.73093969  0.42546716  1
  O  O17  1  0.07408568  0.76906031  0.57453284  1
  O  O18  1  0.42591432  0.26906031  0.57453284  1
  O  O19  1  0.92591432  0.23093969  0.42546716  1
  O  O20  1  0.76408562  0.91563857  0.44971664  1
  O  O21  1  0.26408562  0.58436143  0.55028336  1
  O  O22  1  0.23591438  0.08436143  0.55028336  1
  O  O23  1  0.73591438  0.41563857  0.44971664  1
  O  O24  1  0.53838119  0.85752480  0.59205900  1
  O  O25  1  0.03838119  0.64247520  0.40794100  1
  O  O26  1  0.46161881  0.14247520  0.40794100  1
  O  O27  1  0.96161881  0.35752480  0.59205900  1
  O  O28  1  0.18409714  0.88017722  0.27447673  1
  O  O29  1  0.68409714  0.61982278  0.72552327  1
  O  O30  1  0.81590286  0.11982278  0.72552327  1
  O  O31  1  0.31590286  0.38017722  0.27447673  1
  O  O32  1  0.46813720  0.79007773  0.18263850  1
  O  O33  1  0.96813720  0.70992227  0.81736150  1
  O  O34  1  0.53186280  0.20992227  0.81736150  1
  O  O35  1  0.03186280  0.29007773  0.18263850  1
  O  O36  1  0.15286806  0.68943506  0.17147824  1
  O  O37  1  0.65286806  0.81056494  0.82852176  1
  O  O38  1  0.84713194  0.31056494  0.82852176  1
  O  O39  1  0.34713194  0.18943506  0.17147824  1
  O  O40  1  0.26459507  0.46780452  0.76520292  1
  O  O41  1  0.76459507  0.03219548  0.23479708  1
  O  O42  1  0.73540493  0.53219548  0.23479708  1
  O  O43  1  0.23540493  0.96780452  0.76520292  1
  O  O44  1  0.33225267  0.59201269  0.92672086  1
  O  O45  1  0.83225267  0.90798731  0.07327914  1
  O  O46  1  0.66774733  0.40798731  0.07327914  1
  O  O47  1  0.16774733  0.09201269  0.92672086  1
  O  O48  1  0.22933825  0.37697545  0.94229124  1
  O  O49  1  0.72933825  0.12302455  0.05770876  1
  O  O50  1  0.77066175  0.62302455  0.05770876  1
  O  O51  1  0.27066175  0.87697545  0.94229124  1
