# generated using pymatgen
data_Ta4NiTe4
_symmetry_space_group_name_H-M   'P 1'
_cell_length_a   4.75717016
_cell_length_b   10.78123733
_cell_length_c   18.65801421
_cell_angle_alpha   90.00000000
_cell_angle_beta   90.00000000
_cell_angle_gamma   90.00000000
_symmetry_Int_Tables_number   1
_chemical_formula_structural   Ta4NiTe4
_chemical_formula_sum   'Ta16 Ni4 Te16'
_cell_volume   956.93560084
_cell_formula_units_Z   4
loop_
 _symmetry_equiv_pos_site_id
 _symmetry_equiv_pos_as_xyz
  1  'x, y, z'
loop_
 _atom_site_type_symbol
 _atom_site_label
 _atom_site_symmetry_multiplicity
 _atom_site_fract_x
 _atom_site_fract_y
 _atom_site_fract_z
 _atom_site_occupancy
  Ta  Ta0  1  0.50000000  0.56618330  0.38094045  1
  Ta  Ta1  1  0.50000000  0.43381670  0.61905955  1
  Ta  Ta2  1  0.50000000  0.06618330  0.11905955  1
  Ta  Ta3  1  0.50000000  0.93381670  0.88094045  1
  Ta  Ta4  1  0.50000000  0.70802467  0.53694923  1
  Ta  Ta5  1  0.50000000  0.29197533  0.46305077  1
  Ta  Ta6  1  0.50000000  0.20802467  0.96305077  1
  Ta  Ta7  1  0.50000000  0.79197533  0.03694923  1
  Ta  Ta8  1  -0.00000000  0.69281300  0.44194204  1
  Ta  Ta9  1  -0.00000000  0.30718700  0.55805796  1
  Ta  Ta10  1  0.00000000  0.19281300  0.05805796  1
  Ta  Ta11  1  0.00000000  0.80718700  0.94194204  1
  Ta  Ta12  1  -0.00000000  0.39902129  0.38956977  1
  Ta  Ta13  1  0.00000000  0.60097871  0.61043023  1
  Ta  Ta14  1  -0.00000000  0.89902129  0.11043023  1
  Ta  Ta15  1  0.00000000  0.10097871  0.88956977  1
  Ni  Ni16  1  0.25025154  0.50000000  0.50000000  1
  Ni  Ni17  1  0.74974846  0.00000000  0.00000000  1
  Ni  Ni18  1  0.74974846  0.50000000  0.50000000  1
  Ni  Ni19  1  0.25025154  0.00000000  0.00000000  1
  Te  Te20  1  -0.00000000  0.85557155  0.56485846  1
  Te  Te21  1  0.00000000  0.14442845  0.43514154  1
  Te  Te22  1  -0.00000000  0.35557155  0.93514154  1
  Te  Te23  1  0.00000000  0.64442845  0.06485846  1
  Te  Te24  1  0.50000000  0.32941486  0.31114550  1
  Te  Te25  1  0.50000000  0.67058514  0.68885450  1
  Te  Te26  1  0.50000000  0.82941486  0.18885450  1
  Te  Te27  1  0.50000000  0.17058514  0.81114550  1
  Te  Te28  1  0.50000000  0.83112566  0.39987459  1
  Te  Te29  1  0.50000000  0.16887434  0.60012541  1
  Te  Te30  1  0.50000000  0.33112566  0.10012541  1
  Te  Te31  1  0.50000000  0.66887434  0.89987459  1
  Te  Te32  1  0.00000000  0.60967719  0.29547848  1
  Te  Te33  1  -0.00000000  0.39032281  0.70452152  1
  Te  Te34  1  0.00000000  0.10967719  0.20452152  1
  Te  Te35  1  -0.00000000  0.89032281  0.79547848  1
