# generated using pymatgen
data_Al2Bi7Ru(BrCl4)2
_symmetry_space_group_name_H-M   'P 1'
_cell_length_a   10.05595016
_cell_length_b   15.05060425
_cell_length_c   18.45560117
_cell_angle_alpha   90.00000000
_cell_angle_beta   90.00000000
_cell_angle_gamma   108.85430937
_symmetry_Int_Tables_number   1
_chemical_formula_structural   Al2Bi7Ru(BrCl4)2
_chemical_formula_sum   'Al8 Bi28 Ru4 Br8 Cl32'
_cell_volume   2643.34583766
_cell_formula_units_Z   4
loop_
 _symmetry_equiv_pos_site_id
 _symmetry_equiv_pos_as_xyz
  1  'x, y, z'
loop_
 _atom_site_type_symbol
 _atom_site_label
 _atom_site_symmetry_multiplicity
 _atom_site_fract_x
 _atom_site_fract_y
 _atom_site_fract_z
 _atom_site_occupancy
  Al  Al0  1  0.69828488  0.05668186  0.67912533  1
  Al  Al1  1  0.19828488  0.55668186  0.82087467  1
  Al  Al2  1  0.30171512  0.94331814  0.32087467  1
  Al  Al3  1  0.80171512  0.44331814  0.17912533  1
  Al  Al4  1  0.16742987  0.84529644  0.63102737  1
  Al  Al5  1  0.66742987  0.34529644  0.86897263  1
  Al  Al6  1  0.83257013  0.15470356  0.36897263  1
  Al  Al7  1  0.33257013  0.65470356  0.13102737  1
  Bi  Bi8  1  0.82618169  0.97048658  0.09559859  1
  Bi  Bi9  1  0.32618169  0.47048658  0.40440141  1
  Bi  Bi10  1  0.17381831  0.02951342  0.90440141  1
  Bi  Bi11  1  0.67381831  0.52951342  0.59559859  1
  Bi  Bi12  1  0.13487704  0.92327731  0.07103958  1
  Bi  Bi13  1  0.63487704  0.42327731  0.42896042  1
  Bi  Bi14  1  0.86512296  0.07672269  0.92896042  1
  Bi  Bi15  1  0.36512296  0.57672269  0.57103958  1
  Bi  Bi16  1  0.84371796  0.85782281  0.81811695  1
  Bi  Bi17  1  0.34371796  0.35782281  0.68188305  1
  Bi  Bi18  1  0.15628204  0.14217719  0.18188305  1
  Bi  Bi19  1  0.65628204  0.64217719  0.31811695  1
  Bi  Bi20  1  0.02583480  0.76270937  0.90525042  1
  Bi  Bi21  1  0.52583480  0.26270937  0.59474958  1
  Bi  Bi22  1  0.97416520  0.23729063  0.09474958  1
  Bi  Bi23  1  0.47416520  0.73729063  0.40525042  1
  Bi  Bi24  1  0.81175037  0.72375834  0.02986808  1
  Bi  Bi25  1  0.31175037  0.22375834  0.47013192  1
  Bi  Bi26  1  0.18824963  0.27624166  0.97013192  1
  Bi  Bi27  1  0.68824963  0.77624166  0.52986808  1
  Bi  Bi28  1  0.62479647  0.81232281  0.94242757  1
  Bi  Bi29  1  0.12479647  0.31232281  0.55757243  1
  Bi  Bi30  1  0.37520353  0.18767719  0.05757243  1
  Bi  Bi31  1  0.87520353  0.68767719  0.44242757  1
  Bi  Bi32  1  0.70208088  0.64508157  0.87152423  1
  Bi  Bi33  1  0.20208088  0.14508157  0.62847577  1
  Bi  Bi34  1  0.29791912  0.35491843  0.12847577  1
  Bi  Bi35  1  0.79791912  0.85491843  0.37152423  1
  Ru  Ru36  1  0.92162403  0.91077686  0.96644866  1
  Ru  Ru37  1  0.42162403  0.41077686  0.53355134  1
  Ru  Ru38  1  0.07837597  0.08922314  0.03355134  1
  Ru  Ru39  1  0.57837597  0.58922314  0.46644866  1
  Br  Br40  1  0.93144605  0.85487958  0.19468935  1
  Br  Br41  1  0.43144605  0.35487958  0.30531065  1
  Br  Br42  1  0.06855395  0.14512042  0.80531065  1
  Br  Br43  1  0.56855395  0.64512042  0.69468935  1
  Br  Br44  1  0.34154481  0.91247883  0.96031358  1
  Br  Br45  1  0.84154481  0.41247883  0.53968642  1
  Br  Br46  1  0.65845519  0.08752117  0.03968642  1
  Br  Br47  1  0.15845519  0.58752117  0.46031358  1
  Cl  Cl48  1  0.53832306  0.03835741  0.59759828  1
  Cl  Cl49  1  0.03832306  0.53835741  0.90240172  1
  Cl  Cl50  1  0.46167694  0.96164259  0.40240172  1
  Cl  Cl51  1  0.96167694  0.46164259  0.09759828  1
  Cl  Cl52  1  0.84487849  0.98388909  0.64835034  1
  Cl  Cl53  1  0.34487849  0.48388909  0.85164966  1
  Cl  Cl54  1  0.15512151  0.01611091  0.35164966  1
  Cl  Cl55  1  0.65512151  0.51611091  0.14835034  1
  Cl  Cl56  1  0.80763237  0.20531606  0.68698027  1
  Cl  Cl57  1  0.30763237  0.70531606  0.81301973  1
  Cl  Cl58  1  0.19236763  0.79468394  0.31301973  1
  Cl  Cl59  1  0.69236763  0.29468394  0.18698027  1
  Cl  Cl60  1  0.60995101  0.99737032  0.78262888  1
  Cl  Cl61  1  0.10995101  0.49737032  0.71737112  1
  Cl  Cl62  1  0.39004899  0.00262968  0.21737112  1
  Cl  Cl63  1  0.89004899  0.50262968  0.28262888  1
  Cl  Cl64  1  0.20638987  0.93473562  0.72635089  1
  Cl  Cl65  1  0.70638987  0.43473562  0.77364911  1
  Cl  Cl66  1  0.79361013  0.06526438  0.27364911  1
  Cl  Cl67  1  0.29361013  0.56526438  0.22635089  1
  Cl  Cl68  1  0.12811660  0.92394632  0.54017647  1
  Cl  Cl69  1  0.62811660  0.42394632  0.95982353  1
  Cl  Cl70  1  0.87188340  0.07605368  0.45982353  1
  Cl  Cl71  1  0.37188340  0.57605368  0.04017647  1
  Cl  Cl72  1  0.33993184  0.79422112  0.60774963  1
  Cl  Cl73  1  0.83993184  0.29422112  0.89225037  1
  Cl  Cl74  1  0.66006816  0.20577888  0.39225037  1
  Cl  Cl75  1  0.16006816  0.70577888  0.10774963  1
  Cl  Cl76  1  0.97733855  0.72837531  0.65166892  1
  Cl  Cl77  1  0.47733855  0.22837531  0.84833108  1
  Cl  Cl78  1  0.02266145  0.27162469  0.34833108  1
  Cl  Cl79  1  0.52266145  0.77162469  0.15166892  1
