# generated using pymatgen
data_K3Mo2O4F5
_symmetry_space_group_name_H-M   'P 1'
_cell_length_a   6.17135556
_cell_length_b   9.78658166
_cell_length_c   15.33528714
_cell_angle_alpha   90.00000000
_cell_angle_beta   90.00000000
_cell_angle_gamma   90.00000000
_symmetry_Int_Tables_number   1
_chemical_formula_structural   K3Mo2O4F5
_chemical_formula_sum   'K12 Mo8 O16 F20'
_cell_volume   926.19728853
_cell_formula_units_Z   4
loop_
 _symmetry_equiv_pos_site_id
 _symmetry_equiv_pos_as_xyz
  1  'x, y, z'
loop_
 _atom_site_type_symbol
 _atom_site_label
 _atom_site_symmetry_multiplicity
 _atom_site_fract_x
 _atom_site_fract_y
 _atom_site_fract_z
 _atom_site_occupancy
  K  K0  1  0.50000000  0.56677581  0.89198667  1
  K  K1  1  0.50000000  0.43322419  0.10801333  1
  K  K2  1  -0.00000000  0.93322419  0.39198667  1
  K  K3  1  0.00000000  0.06677581  0.60801333  1
  K  K4  1  0.50000000  0.84580667  0.70243275  1
  K  K5  1  0.50000000  0.15419333  0.29756725  1
  K  K6  1  -0.00000000  0.65419333  0.20243275  1
  K  K7  1  -0.00000000  0.34580667  0.79756725  1
  K  K8  1  -0.00000000  0.62626370  0.59260367  1
  K  K9  1  -0.00000000  0.37373630  0.40739633  1
  K  K10  1  0.50000000  0.87373630  0.09260367  1
  K  K11  1  0.50000000  0.12626370  0.90739633  1
  Mo  Mo12  1  0.50000000  0.44448892  0.67155028  1
  Mo  Mo13  1  0.50000000  0.55551108  0.32844972  1
  Mo  Mo14  1  0.00000000  0.05551108  0.17155028  1
  Mo  Mo15  1  0.00000000  0.94448892  0.82844972  1
  Mo  Mo16  1  0.50000000  0.23253541  0.53089672  1
  Mo  Mo17  1  0.50000000  0.76746459  0.46910328  1
  Mo  Mo18  1  -0.00000000  0.26746459  0.03089672  1
  Mo  Mo19  1  -0.00000000  0.73253541  0.96910328  1
  O  O20  1  0.50000000  0.09339674  0.59986450  1
  O  O21  1  0.50000000  0.90660326  0.40013550  1
  O  O22  1  -0.00000000  0.40660326  0.09986450  1
  O  O23  1  0.00000000  0.59339674  0.90013550  1
  O  O24  1  0.50000000  0.33783578  0.76222545  1
  O  O25  1  0.50000000  0.66216422  0.23777455  1
  O  O26  1  -0.00000000  0.16216422  0.26222545  1
  O  O27  1  -0.00000000  0.83783578  0.73777455  1
  O  O28  1  0.70969034  0.35620234  0.59063957  1
  O  O29  1  0.70969034  0.64379766  0.40936043  1
  O  O30  1  0.79030966  0.14379766  0.09063957  1
  O  O31  1  0.79030966  0.85620234  0.90936043  1
  O  O32  1  0.29030966  0.64379766  0.40936043  1
  O  O33  1  0.29030966  0.35620234  0.59063957  1
  O  O34  1  0.20969034  0.85620234  0.90936043  1
  O  O35  1  0.20969034  0.14379766  0.09063957  1
  F  F36  1  0.74818536  0.15875382  0.45231426  1
  F  F37  1  0.74818536  0.84124618  0.54768574  1
  F  F38  1  0.75181464  0.34124618  0.95231426  1
  F  F39  1  0.75181464  0.65875382  0.04768574  1
  F  F40  1  0.25181464  0.84124618  0.54768574  1
  F  F41  1  0.25181464  0.15875382  0.45231426  1
  F  F42  1  0.24818536  0.65875382  0.04768574  1
  F  F43  1  0.24818536  0.34124618  0.95231426  1
  F  F44  1  0.73041792  0.56988739  0.72564716  1
  F  F45  1  0.73041792  0.43011261  0.27435284  1
  F  F46  1  0.76958208  0.93011261  0.22564716  1
  F  F47  1  0.76958208  0.06988739  0.77435284  1
  F  F48  1  0.26958208  0.43011261  0.27435284  1
  F  F49  1  0.26958208  0.56988739  0.72564716  1
  F  F50  1  0.23041792  0.06988739  0.77435284  1
  F  F51  1  0.23041792  0.93011261  0.22564716  1
  F  F52  1  0.50000000  0.62195968  0.58068967  1
  F  F53  1  0.50000000  0.37804032  0.41931033  1
  F  F54  1  -0.00000000  0.87804032  0.08068967  1
  F  F55  1  0.00000000  0.12195968  0.91931033  1
