# generated using pymatgen
data_Ho5Ga3
_symmetry_space_group_name_H-M   'P 1'
_cell_length_a   7.59694212
_cell_length_b   7.59694212
_cell_length_c   14.06900597
_cell_angle_alpha   90.00000000
_cell_angle_beta   90.00000000
_cell_angle_gamma   90.00000000
_symmetry_Int_Tables_number   1
_chemical_formula_structural   Ho5Ga3
_chemical_formula_sum   'Ho20 Ga12'
_cell_volume   811.97199214
_cell_formula_units_Z   4
loop_
 _symmetry_equiv_pos_site_id
 _symmetry_equiv_pos_as_xyz
  1  'x, y, z'
loop_
 _atom_site_type_symbol
 _atom_site_label
 _atom_site_symmetry_multiplicity
 _atom_site_fract_x
 _atom_site_fract_y
 _atom_site_fract_z
 _atom_site_occupancy
  Ho  Ho0  1  0.00000000  0.50000000  0.76229781  1
  Ho  Ho1  1  0.00000000  0.50000000  0.26229781  1
  Ho  Ho2  1  0.50000000  -0.00000000  0.23770219  1
  Ho  Ho3  1  0.50000000  -0.00000000  0.73770219  1
  Ho  Ho4  1  0.67566643  0.66245971  0.60213802  1
  Ho  Ho5  1  0.67566643  0.33754029  0.10213802  1
  Ho  Ho6  1  0.82433357  0.83754029  0.39786198  1
  Ho  Ho7  1  0.17566643  0.83754029  0.89786198  1
  Ho  Ho8  1  0.32433357  0.33754029  0.60213802  1
  Ho  Ho9  1  0.32433357  0.66245971  0.10213802  1
  Ho  Ho10  1  0.17566643  0.16245971  0.39786198  1
  Ho  Ho11  1  0.82433357  0.16245971  0.89786198  1
  Ho  Ho12  1  0.66245971  0.32433357  0.39786198  1
  Ho  Ho13  1  0.33754029  0.32433357  0.89786198  1
  Ho  Ho14  1  0.16245971  0.82433357  0.60213802  1
  Ho  Ho15  1  0.83754029  0.82433357  0.10213802  1
  Ho  Ho16  1  0.33754029  0.67566643  0.39786198  1
  Ho  Ho17  1  0.66245971  0.67566643  0.89786198  1
  Ho  Ho18  1  0.83754029  0.17566643  0.60213802  1
  Ho  Ho19  1  0.16245971  0.17566643  0.10213802  1
  Ga  Ga20  1  0.00000000  0.50000000  0.49601274  1
  Ga  Ga21  1  0.00000000  0.50000000  0.99601274  1
  Ga  Ga22  1  0.50000000  -0.00000000  0.50398726  1
  Ga  Ga23  1  0.50000000  -0.00000000  0.00398726  1
  Ga  Ga24  1  0.87721864  0.87721864  0.75000000  1
  Ga  Ga25  1  0.87721864  0.12278136  0.25000000  1
  Ga  Ga26  1  0.62278136  0.62278136  0.25000000  1
  Ga  Ga27  1  0.37721864  0.62278136  0.75000000  1
  Ga  Ga28  1  0.12278136  0.12278136  0.75000000  1
  Ga  Ga29  1  0.12278136  0.87721864  0.25000000  1
  Ga  Ga30  1  0.37721864  0.37721864  0.25000000  1
  Ga  Ga31  1  0.62278136  0.37721864  0.75000000  1
