# generated using pymatgen
data_CsUTe6
_symmetry_space_group_name_H-M   'P 1'
_cell_length_a   8.28274329
_cell_length_b   9.50650966
_cell_length_c   31.60179841
_cell_angle_alpha   90.00000000
_cell_angle_beta   90.00000000
_cell_angle_gamma   90.00000000
_symmetry_Int_Tables_number   1
_chemical_formula_structural   CsUTe6
_chemical_formula_sum   'Cs8 U8 Te48'
_cell_volume   2488.32494625
_cell_formula_units_Z   8
loop_
 _symmetry_equiv_pos_site_id
 _symmetry_equiv_pos_as_xyz
  1  'x, y, z'
loop_
 _atom_site_type_symbol
 _atom_site_label
 _atom_site_symmetry_multiplicity
 _atom_site_fract_x
 _atom_site_fract_y
 _atom_site_fract_z
 _atom_site_occupancy
  Cs  Cs0  1  0.25000000  0.08627471  0.53858671  1
  Cs  Cs1  1  0.25000000  0.41372529  0.03858671  1
  Cs  Cs2  1  0.75000000  0.91372529  0.46141329  1
  Cs  Cs3  1  0.75000000  0.58627471  0.96141329  1
  Cs  Cs4  1  0.25000000  0.60380925  0.79379624  1
  Cs  Cs5  1  0.25000000  0.89619075  0.29379624  1
  Cs  Cs6  1  0.75000000  0.39619075  0.20620376  1
  Cs  Cs7  1  0.75000000  0.10380925  0.70620376  1
  U  U8  1  0.25000000  0.09920441  0.87612730  1
  U  U9  1  0.25000000  0.40079559  0.37612730  1
  U  U10  1  0.75000000  0.90079559  0.12387270  1
  U  U11  1  0.75000000  0.59920441  0.62387270  1
  U  U12  1  0.25000000  0.88087623  0.12378444  1
  U  U13  1  0.25000000  0.61912377  0.62378444  1
  U  U14  1  0.75000000  0.11912377  0.87621556  1
  U  U15  1  0.75000000  0.38087623  0.37621556  1
  Te  Te16  1  0.01284342  0.35478633  0.62146515  1
  Te  Te17  1  0.48715658  0.14521367  0.12146515  1
  Te  Te18  1  0.51284342  0.64521367  0.37853485  1
  Te  Te19  1  0.98715658  0.85478633  0.87853485  1
  Te  Te20  1  0.98715658  0.64521367  0.37853485  1
  Te  Te21  1  0.51284342  0.85478633  0.87853485  1
  Te  Te22  1  0.48715658  0.35478633  0.62146515  1
  Te  Te23  1  0.01284342  0.14521367  0.12146515  1
  Te  Te24  1  0.00319377  0.23392360  0.80981579  1
  Te  Te25  1  0.49680623  0.26607640  0.30981579  1
  Te  Te26  1  0.50319377  0.76607640  0.19018421  1
  Te  Te27  1  0.99680623  0.73392360  0.69018421  1
  Te  Te28  1  0.99680623  0.76607640  0.19018421  1
  Te  Te29  1  0.50319377  0.73392360  0.69018421  1
  Te  Te30  1  0.49680623  0.23392360  0.80981579  1
  Te  Te31  1  0.00319377  0.26607640  0.30981579  1
  Te  Te32  1  0.00692747  0.22763593  0.94176946  1
  Te  Te33  1  0.49307253  0.27236407  0.44176946  1
  Te  Te34  1  0.50692747  0.77236407  0.05823054  1
  Te  Te35  1  0.99307253  0.72763593  0.55823054  1
  Te  Te36  1  0.99307253  0.77236407  0.05823054  1
  Te  Te37  1  0.50692747  0.72763593  0.55823054  1
  Te  Te38  1  0.49307253  0.22763593  0.94176946  1
  Te  Te39  1  0.00692747  0.27236407  0.44176946  1
  Te  Te40  1  0.25000000  0.49910347  0.53118595  1
  Te  Te41  1  0.25000000  0.00089653  0.03118595  1
  Te  Te42  1  0.75000000  0.50089653  0.46881405  1
  Te  Te43  1  0.75000000  0.99910347  0.96881405  1
  Te  Te44  1  0.25000000  0.92606537  0.65184887  1
  Te  Te45  1  0.25000000  0.57393463  0.15184887  1
  Te  Te46  1  0.75000000  0.07393463  0.34815113  1
  Te  Te47  1  0.75000000  0.42606537  0.84815113  1
  Te  Te48  1  0.25000000  0.37061410  0.68974310  1
  Te  Te49  1  0.25000000  0.12938590  0.18974310  1
  Te  Te50  1  0.75000000  0.62938590  0.31025690  1
  Te  Te51  1  0.75000000  0.87061410  0.81025690  1
  Te  Te52  1  0.25000000  0.01939600  0.78240988  1
  Te  Te53  1  0.25000000  0.48060400  0.28240988  1
  Te  Te54  1  0.75000000  0.98060400  0.21759012  1
  Te  Te55  1  0.75000000  0.51939600  0.71759012  1
  Te  Te56  1  0.25000000  0.41969777  0.90625470  1
  Te  Te57  1  0.25000000  0.08030223  0.40625470  1
  Te  Te58  1  0.75000000  0.58030223  0.09374530  1
  Te  Te59  1  0.75000000  0.91969777  0.59374530  1
  Te  Te60  1  0.25000000  0.85745070  0.94773950  1
  Te  Te61  1  0.25000000  0.64254930  0.44773950  1
  Te  Te62  1  0.75000000  0.14254930  0.05226050  1
  Te  Te63  1  0.75000000  0.35745070  0.55226050  1
