# generated using pymatgen
data_Cs5Th(PS4)3
_symmetry_space_group_name_H-M   'P 1'
_cell_length_a   10.49922915
_cell_length_b   13.89843898
_cell_length_c   19.06935251
_cell_angle_alpha   100.74498097
_cell_angle_beta   90.00000000
_cell_angle_gamma   90.00000000
_symmetry_Int_Tables_number   1
_chemical_formula_structural   Cs5Th(PS4)3
_chemical_formula_sum   'Cs20 Th4 P12 S48'
_cell_volume   2733.86610080
_cell_formula_units_Z   4
loop_
 _symmetry_equiv_pos_site_id
 _symmetry_equiv_pos_as_xyz
  1  'x, y, z'
loop_
 _atom_site_type_symbol
 _atom_site_label
 _atom_site_symmetry_multiplicity
 _atom_site_fract_x
 _atom_site_fract_y
 _atom_site_fract_z
 _atom_site_occupancy
  Cs  Cs0  1  0.89408498  0.48592653  0.62954802  1
  Cs  Cs1  1  0.39408498  0.51407347  0.87045198  1
  Cs  Cs2  1  0.10591502  0.51407347  0.37045198  1
  Cs  Cs3  1  0.60591502  0.48592653  0.12954802  1
  Cs  Cs4  1  0.10518443  0.84920072  0.68930791  1
  Cs  Cs5  1  0.60518443  0.15079928  0.81069209  1
  Cs  Cs6  1  0.89481557  0.15079928  0.31069209  1
  Cs  Cs7  1  0.39481557  0.84920072  0.18930791  1
  Cs  Cs8  1  0.65603915  0.79308622  0.72180908  1
  Cs  Cs9  1  0.15603915  0.20691378  0.77819092  1
  Cs  Cs10  1  0.34396085  0.20691378  0.27819092  1
  Cs  Cs11  1  0.84396085  0.79308622  0.22180908  1
  Cs  Cs12  1  0.67134583  0.46355439  0.38166464  1
  Cs  Cs13  1  0.17134583  0.53644561  0.11833536  1
  Cs  Cs14  1  0.32865417  0.53644561  0.61833536  1
  Cs  Cs15  1  0.82865417  0.46355439  0.88166464  1
  Cs  Cs16  1  0.13370931  0.86504061  0.44476221  1
  Cs  Cs17  1  0.63370931  0.13495939  0.05523779  1
  Cs  Cs18  1  0.86629069  0.13495939  0.55523779  1
  Cs  Cs19  1  0.36629069  0.86504061  0.94476221  1
  Th  Th20  1  0.59479097  0.81361590  0.46036226  1
  Th  Th21  1  0.09479097  0.18638410  0.03963774  1
  Th  Th22  1  0.40520903  0.18638410  0.53963774  1
  Th  Th23  1  0.90520903  0.81361590  0.96036226  1
  P  P24  1  0.85350598  0.71754117  0.51556447  1
  P  P25  1  0.35350598  0.28245883  0.98443553  1
  P  P26  1  0.14649402  0.28245883  0.48443553  1
  P  P27  1  0.64649402  0.71754117  0.01556447  1
  P  P28  1  0.41053161  0.97084805  0.62823144  1
  P  P29  1  0.91053161  0.02915195  0.87176856  1
  P  P30  1  0.58946839  0.02915195  0.37176856  1
  P  P31  1  0.08946839  0.97084805  0.12823144  1
  P  P32  1  0.60413502  0.35246996  0.67535864  1
  P  P33  1  0.10413502  0.64753004  0.82464136  1
  P  P34  1  0.39586498  0.64753004  0.32464136  1
  P  P35  1  0.89586498  0.35246996  0.17535864  1
  S  S36  1  0.74364730  0.95217669  0.40081054  1
  S  S37  1  0.24364730  0.04782331  0.09918946  1
  S  S38  1  0.25635270  0.04782331  0.59918946  1
  S  S39  1  0.75635270  0.95217669  0.90081054  1
  S  S40  1  0.43414239  0.96566067  0.41199469  1
  S  S41  1  0.93414239  0.03433933  0.08800531  1
  S  S42  1  0.56585761  0.03433933  0.58800531  1
  S  S43  1  0.06585761  0.96566067  0.91199469  1
  S  S44  1  0.40726867  0.82701348  0.57462124  1
  S  S45  1  0.90726867  0.17298652  0.92537876  1
  S  S46  1  0.59273133  0.17298652  0.42537876  1
  S  S47  1  0.09273133  0.82701348  0.07462124  1
  S  S48  1  0.39344369  0.66788081  0.43568327  1
  S  S49  1  0.89344369  0.33211919  0.06431673  1
  S  S50  1  0.60655631  0.33211919  0.56431673  1
  S  S51  1  0.10655631  0.66788081  0.93568327  1
  S  S52  1  0.56259343  0.72310513  0.31042595  1
  S  S53  1  0.06259343  0.27689487  0.18957405  1
  S  S54  1  0.43740657  0.27689487  0.68957405  1
  S  S55  1  0.93740657  0.72310513  0.81042595  1
  S  S56  1  0.83469637  0.71080505  0.40685719  1
  S  S57  1  0.33469637  0.28919495  0.09314281  1
  S  S58  1  0.16530363  0.28919495  0.59314281  1
  S  S59  1  0.66530363  0.71080505  0.90685719  1
  S  S60  1  0.69141898  0.64872869  0.54153310  1
  S  S61  1  0.19141898  0.35127131  0.95846690  1
  S  S62  1  0.30858102  0.35127131  0.45846690  1
  S  S63  1  0.80858102  0.64872869  0.04153310  1
  S  S64  1  0.82024180  0.86221377  0.56047712  1
  S  S65  1  0.32024180  0.13778623  0.93952288  1
  S  S66  1  0.17975820  0.13778623  0.43952288  1
  S  S67  1  0.67975820  0.86221377  0.06047712  1
  S  S68  1  0.97719349  0.33428965  0.45876954  1
  S  S69  1  0.47719349  0.66571035  0.04123046  1
  S  S70  1  0.02280651  0.66571035  0.54123046  1
  S  S71  1  0.52280651  0.33428965  0.95876954  1
  S  S72  1  0.40313104  0.97265063  0.73342920  1
  S  S73  1  0.90313104  0.02734937  0.76657080  1
  S  S74  1  0.59686896  0.02734937  0.26657080  1
  S  S75  1  0.09686896  0.97265063  0.23342920  1
  S  S76  1  0.76238452  0.29296477  0.71100895  1
  S  S77  1  0.26238452  0.70703523  0.78899105  1
  S  S78  1  0.23761548  0.70703523  0.28899105  1
  S  S79  1  0.73761548  0.29296477  0.21100895  1
  S  S80  1  0.59472499  0.49577820  0.72143789  1
  S  S81  1  0.09472499  0.50422180  0.77856211  1
  S  S82  1  0.40527501  0.50422180  0.27856211  1
  S  S83  1  0.90527501  0.49577820  0.22143789  1
