# generated using pymatgen
data_ScReGe2
_symmetry_space_group_name_H-M   'P 1'
_cell_length_a   8.39173987
_cell_length_b   9.44665620
_cell_length_c   10.21388693
_cell_angle_alpha   90.00000000
_cell_angle_beta   90.00000000
_cell_angle_gamma   90.00000000
_symmetry_Int_Tables_number   1
_chemical_formula_structural   ScReGe2
_chemical_formula_sum   'Sc12 Re12 Ge24'
_cell_volume   809.69446185
_cell_formula_units_Z   12
loop_
 _symmetry_equiv_pos_site_id
 _symmetry_equiv_pos_as_xyz
  1  'x, y, z'
loop_
 _atom_site_type_symbol
 _atom_site_label
 _atom_site_symmetry_multiplicity
 _atom_site_fract_x
 _atom_site_fract_y
 _atom_site_fract_z
 _atom_site_occupancy
  Sc  Sc0  1  0.24242400  0.82895941  0.45248548  1
  Sc  Sc1  1  0.24242400  0.17104059  0.54751452  1
  Sc  Sc2  1  0.75757600  0.32895941  0.04751452  1
  Sc  Sc3  1  0.75757600  0.67104059  0.95248548  1
  Sc  Sc4  1  0.75757600  0.17104059  0.54751452  1
  Sc  Sc5  1  0.75757600  0.82895941  0.45248548  1
  Sc  Sc6  1  0.24242400  0.67104059  0.95248548  1
  Sc  Sc7  1  0.24242400  0.32895941  0.04751452  1
  Sc  Sc8  1  -0.00000000  0.83395492  0.17760851  1
  Sc  Sc9  1  -0.00000000  0.16604508  0.82239149  1
  Sc  Sc10  1  -0.00000000  0.33395492  0.32239149  1
  Sc  Sc11  1  -0.00000000  0.66604508  0.67760851  1
  Re  Re12  1  0.24882435  0.58070702  0.24665156  1
  Re  Re13  1  0.24882435  0.41929298  0.75334844  1
  Re  Re14  1  0.75117565  0.08070702  0.25334844  1
  Re  Re15  1  0.75117565  0.91929298  0.74665156  1
  Re  Re16  1  0.75117565  0.41929298  0.75334844  1
  Re  Re17  1  0.75117565  0.58070702  0.24665156  1
  Re  Re18  1  0.24882435  0.91929298  0.74665156  1
  Re  Re19  1  0.24882435  0.08070702  0.25334844  1
  Re  Re20  1  0.24286890  0.50000000  0.50000000  1
  Re  Re21  1  0.75713110  -0.00000000  -0.00000000  1
  Re  Re22  1  0.75713110  0.50000000  0.50000000  1
  Re  Re23  1  0.24286890  -0.00000000  -0.00000000  1
  Ge  Ge24  1  0.34767105  0.82995734  0.18179059  1
  Ge  Ge25  1  0.34767105  0.17004266  0.81820941  1
  Ge  Ge26  1  0.65232895  0.32995734  0.31820941  1
  Ge  Ge27  1  0.65232895  0.67004266  0.68179059  1
  Ge  Ge28  1  0.65232895  0.17004266  0.81820941  1
  Ge  Ge29  1  0.65232895  0.82995734  0.18179059  1
  Ge  Ge30  1  0.34767105  0.67004266  0.68179059  1
  Ge  Ge31  1  0.34767105  0.32995734  0.31820941  1
  Ge  Ge32  1  0.50000000  0.53911553  0.11866555  1
  Ge  Ge33  1  0.50000000  0.46088447  0.88133445  1
  Ge  Ge34  1  0.50000000  0.03911553  0.38133445  1
  Ge  Ge35  1  0.50000000  0.96088447  0.61866555  1
  Ge  Ge36  1  -0.00000000  0.54090831  0.11818957  1
  Ge  Ge37  1  -0.00000000  0.45909169  0.88181043  1
  Ge  Ge38  1  -0.00000000  0.04090831  0.38181043  1
  Ge  Ge39  1  -0.00000000  0.95909169  0.61818957  1
  Ge  Ge40  1  0.50000000  0.63281477  0.40817972  1
  Ge  Ge41  1  0.50000000  0.36718523  0.59182028  1
  Ge  Ge42  1  0.50000000  0.13281477  0.09182028  1
  Ge  Ge43  1  0.50000000  0.86718523  0.90817972  1
  Ge  Ge44  1  -0.00000000  0.63930527  0.40031366  1
  Ge  Ge45  1  -0.00000000  0.36069473  0.59968634  1
  Ge  Ge46  1  -0.00000000  0.13930527  0.09968634  1
  Ge  Ge47  1  -0.00000000  0.86069473  0.90031366  1
