# generated using pymatgen
data_Cs2MnH12(SO7)2
_symmetry_space_group_name_H-M   'P 1'
_cell_length_a   6.45565882
_cell_length_b   9.51619922
_cell_length_c   13.15999228
_cell_angle_alpha   90.00000000
_cell_angle_beta   90.00000000
_cell_angle_gamma   106.26307186
_symmetry_Int_Tables_number   1
_chemical_formula_structural   Cs2MnH12(SO7)2
_chemical_formula_sum   'Cs4 Mn2 H24 S4 O28'
_cell_volume   776.11240249
_cell_formula_units_Z   2
loop_
 _symmetry_equiv_pos_site_id
 _symmetry_equiv_pos_as_xyz
  1  'x, y, z'
loop_
 _atom_site_type_symbol
 _atom_site_label
 _atom_site_symmetry_multiplicity
 _atom_site_fract_x
 _atom_site_fract_y
 _atom_site_fract_z
 _atom_site_occupancy
  Cs  Cs0  1  0.34630530  0.62436126  0.14135663  1
  Cs  Cs1  1  0.65369470  0.87563874  0.64135663  1
  Cs  Cs2  1  0.65369470  0.37563874  0.85864337  1
  Cs  Cs3  1  0.34630530  0.12436126  0.35864337  1
  Mn  Mn4  1  -0.00000000  0.50000000  0.50000000  1
  Mn  Mn5  1  -0.00000000  0.00000000  0.00000000  1
  H  H6  1  0.32018405  0.71925864  0.39694213  1
  H  H7  1  0.67981595  0.78074136  0.89694213  1
  H  H8  1  0.67981595  0.28074136  0.60305787  1
  H  H9  1  0.32018405  0.21925864  0.10305787  1
  H  H10  1  0.08738460  0.74126555  0.36717529  1
  H  H11  1  0.91261540  0.75873445  0.86717529  1
  H  H12  1  0.91261540  0.25873445  0.63282471  1
  H  H13  1  0.08738460  0.24126555  0.13282471  1
  H  H14  1  0.92357241  0.22201785  0.39802586  1
  H  H15  1  0.07642759  0.27798215  0.89802586  1
  H  H16  1  0.07642759  0.77798215  0.60197414  1
  H  H17  1  0.92357241  0.72201785  0.10197414  1
  H  H18  1  0.98002272  0.34436870  0.31407482  1
  H  H19  1  0.01997728  0.15563130  0.81407482  1
  H  H20  1  0.01997728  0.65563130  0.68592518  1
  H  H21  1  0.98002272  0.84436870  0.18592518  1
  H  H22  1  0.34484538  0.40172366  0.56849226  1
  H  H23  1  0.65515462  0.09827634  0.06849226  1
  H  H24  1  0.65515462  0.59827634  0.43150774  1
  H  H25  1  0.34484538  0.90172366  0.93150774  1
  H  H26  1  0.32357808  0.52496652  0.64369984  1
  H  H27  1  0.67642192  0.97503348  0.14369984  1
  H  H28  1  0.67642192  0.47503348  0.35630016  1
  H  H29  1  0.32357808  0.02496652  0.85630016  1
  S  S30  1  0.73531860  0.89426664  0.35096410  1
  S  S31  1  0.26468140  0.60573336  0.85096410  1
  S  S32  1  0.26468140  0.10573336  0.64903590  1
  S  S33  1  0.73531860  0.39426664  0.14903590  1
  O  O34  1  0.60313280  0.91177525  0.26153225  1
  O  O35  1  0.39686720  0.58822475  0.76153225  1
  O  O36  1  0.39686720  0.08822475  0.73846775  1
  O  O37  1  0.60313280  0.41177525  0.23846775  1
  O  O38  1  0.79427531  0.03052842  0.41311766  1
  O  O39  1  0.20572469  0.46947158  0.91311766  1
  O  O40  1  0.20572469  0.96947158  0.58688234  1
  O  O41  1  0.79427531  0.53052842  0.08688234  1
  O  O42  1  0.60309437  0.77116968  0.41519774  1
  O  O43  1  0.39690563  0.72883032  0.91519774  1
  O  O44  1  0.39690563  0.22883032  0.58480226  1
  O  O45  1  0.60309437  0.27116968  0.08480226  1
  O  O46  1  0.93600489  0.85842438  0.31529319  1
  O  O47  1  0.06399511  0.64157562  0.81529319  1
  O  O48  1  0.06399511  0.14157562  0.68470681  1
  O  O49  1  0.93600489  0.35842438  0.18470681  1
  O  O50  1  0.16443375  0.66879126  0.38696979  1
  O  O51  1  0.83556625  0.83120874  0.88696979  1
  O  O52  1  0.83556625  0.33120874  0.61303021  1
  O  O53  1  0.16443375  0.16879126  0.11303021  1
  O  O54  1  0.00955560  0.32466145  0.38621019  1
  O  O55  1  0.99044440  0.17533855  0.88621019  1
  O  O56  1  0.99044440  0.67533855  0.61378981  1
  O  O57  1  0.00955560  0.82466145  0.11378981  1
  O  O58  1  0.30419500  0.49464187  0.57097515  1
  O  O59  1  0.69580500  0.00535813  0.07097515  1
  O  O60  1  0.69580500  0.50535813  0.42902485  1
  O  O61  1  0.30419500  0.99464187  0.92902485  1
