# generated using pymatgen
data_HfMnGe2
_symmetry_space_group_name_H-M   'P 1'
_cell_length_a   8.07699458
_cell_length_b   9.20731140
_cell_length_c   10.08271910
_cell_angle_alpha   90.00000000
_cell_angle_beta   90.00000000
_cell_angle_gamma   90.00000000
_symmetry_Int_Tables_number   1
_chemical_formula_structural   HfMnGe2
_chemical_formula_sum   'Hf12 Mn12 Ge24'
_cell_volume   749.82564749
_cell_formula_units_Z   12
loop_
 _symmetry_equiv_pos_site_id
 _symmetry_equiv_pos_as_xyz
  1  'x, y, z'
loop_
 _atom_site_type_symbol
 _atom_site_label
 _atom_site_symmetry_multiplicity
 _atom_site_fract_x
 _atom_site_fract_y
 _atom_site_fract_z
 _atom_site_occupancy
  Hf  Hf0  1  0.24212157  0.82807632  0.45349107  1
  Hf  Hf1  1  0.24212157  0.17192368  0.54650893  1
  Hf  Hf2  1  0.75787843  0.32807632  0.04650893  1
  Hf  Hf3  1  0.75787843  0.67192368  0.95349107  1
  Hf  Hf4  1  0.75787843  0.17192368  0.54650893  1
  Hf  Hf5  1  0.75787843  0.82807632  0.45349107  1
  Hf  Hf6  1  0.24212157  0.67192368  0.95349107  1
  Hf  Hf7  1  0.24212157  0.32807632  0.04650893  1
  Hf  Hf8  1  -0.00000000  0.83472025  0.17944971  1
  Hf  Hf9  1  0.00000000  0.16527975  0.82055029  1
  Hf  Hf10  1  -0.00000000  0.33472025  0.32055029  1
  Hf  Hf11  1  0.00000000  0.66527975  0.67944971  1
  Mn  Mn12  1  0.24992045  0.58994417  0.25096516  1
  Mn  Mn13  1  0.24992045  0.41005583  0.74903484  1
  Mn  Mn14  1  0.75007955  0.08994417  0.24903484  1
  Mn  Mn15  1  0.75007955  0.91005583  0.75096516  1
  Mn  Mn16  1  0.75007955  0.41005583  0.74903484  1
  Mn  Mn17  1  0.75007955  0.58994417  0.25096516  1
  Mn  Mn18  1  0.24992045  0.91005583  0.75096516  1
  Mn  Mn19  1  0.24992045  0.08994417  0.24903484  1
  Mn  Mn20  1  0.24628966  0.50000000  0.50000000  1
  Mn  Mn21  1  0.75371034  -0.00000000  -0.00000000  1
  Mn  Mn22  1  0.75371034  0.50000000  0.50000000  1
  Mn  Mn23  1  0.24628966  -0.00000000  0.00000000  1
  Ge  Ge24  1  0.34287555  0.83905595  0.18352866  1
  Ge  Ge25  1  0.34287555  0.16094405  0.81647134  1
  Ge  Ge26  1  0.65712445  0.33905595  0.31647134  1
  Ge  Ge27  1  0.65712445  0.66094405  0.68352866  1
  Ge  Ge28  1  0.65712445  0.16094405  0.81647134  1
  Ge  Ge29  1  0.65712445  0.83905595  0.18352866  1
  Ge  Ge30  1  0.34287555  0.66094405  0.68352866  1
  Ge  Ge31  1  0.34287555  0.33905595  0.31647134  1
  Ge  Ge32  1  0.50000000  0.54845118  0.12145611  1
  Ge  Ge33  1  0.50000000  0.45154882  0.87854389  1
  Ge  Ge34  1  0.50000000  0.04845118  0.37854389  1
  Ge  Ge35  1  0.50000000  0.95154882  0.62145611  1
  Ge  Ge36  1  0.00000000  0.54033168  0.12123660  1
  Ge  Ge37  1  0.00000000  0.45966832  0.87876340  1
  Ge  Ge38  1  0.00000000  0.04033168  0.37876340  1
  Ge  Ge39  1  0.00000000  0.95966832  0.62123660  1
  Ge  Ge40  1  0.50000000  0.62962496  0.40287523  1
  Ge  Ge41  1  0.50000000  0.37037504  0.59712477  1
  Ge  Ge42  1  0.50000000  0.12962496  0.09712477  1
  Ge  Ge43  1  0.50000000  0.87037504  0.90287523  1
  Ge  Ge44  1  0.00000000  0.63007607  0.39777166  1
  Ge  Ge45  1  0.00000000  0.36992393  0.60222834  1
  Ge  Ge46  1  -0.00000000  0.13007607  0.10222834  1
  Ge  Ge47  1  -0.00000000  0.86992393  0.89777166  1
