# generated using pymatgen
data_U(Zn10Fe)2
_symmetry_space_group_name_H-M   'P 1'
_cell_length_a   9.95612879
_cell_length_b   9.95612879
_cell_length_c   9.95612879
_cell_angle_alpha   60.00000000
_cell_angle_beta   60.00000000
_cell_angle_gamma   60.00000000
_symmetry_Int_Tables_number   1
_chemical_formula_structural   U(Zn10Fe)2
_chemical_formula_sum   'U2 Zn40 Fe4'
_cell_volume   697.84106062
_cell_formula_units_Z   2
loop_
 _symmetry_equiv_pos_site_id
 _symmetry_equiv_pos_as_xyz
  1  'x, y, z'
loop_
 _atom_site_type_symbol
 _atom_site_label
 _atom_site_symmetry_multiplicity
 _atom_site_fract_x
 _atom_site_fract_y
 _atom_site_fract_z
 _atom_site_occupancy
  U  U0  1  0.12500000  0.12500000  0.12500000  1
  U  U1  1  0.87500000  0.87500000  0.87500000  1
  Zn  Zn2  1  0.00000000  0.00000000  0.50000000  1
  Zn  Zn3  1  0.00000000  0.50000000  0.00000000  1
  Zn  Zn4  1  0.50000000  0.00000000  0.00000000  1
  Zn  Zn5  1  0.00000000  0.00000000  0.00000000  1
  Zn  Zn6  1  0.48936368  0.76063632  0.76063632  1
  Zn  Zn7  1  0.76063632  0.48936368  0.48936368  1
  Zn  Zn8  1  0.76063632  0.48936368  0.76063632  1
  Zn  Zn9  1  0.48936368  0.76063632  0.48936368  1
  Zn  Zn10  1  0.76063632  0.76063632  0.48936368  1
  Zn  Zn11  1  0.48936368  0.48936368  0.76063632  1
  Zn  Zn12  1  0.51063632  0.23936368  0.23936368  1
  Zn  Zn13  1  0.23936368  0.51063632  0.51063632  1
  Zn  Zn14  1  0.23936368  0.51063632  0.23936368  1
  Zn  Zn15  1  0.51063632  0.23936368  0.51063632  1
  Zn  Zn16  1  0.23936368  0.23936368  0.51063632  1
  Zn  Zn17  1  0.51063632  0.51063632  0.23936368  1
  Zn  Zn18  1  0.32588069  0.32588069  0.05609362  1
  Zn  Zn19  1  0.79214500  0.05609362  0.32588069  1
  Zn  Zn20  1  0.05609362  0.79214500  0.32588069  1
  Zn  Zn21  1  0.32588069  0.32588069  0.79214500  1
  Zn  Zn22  1  0.05609362  0.32588069  0.32588069  1
  Zn  Zn23  1  0.32588069  0.79214500  0.05609362  1
  Zn  Zn24  1  0.32588069  0.05609362  0.79214500  1
  Zn  Zn25  1  0.79214500  0.32588069  0.32588069  1
  Zn  Zn26  1  0.32588069  0.05609362  0.32588069  1
  Zn  Zn27  1  0.05609362  0.32588069  0.79214500  1
  Zn  Zn28  1  0.79214500  0.32588069  0.05609362  1
  Zn  Zn29  1  0.32588069  0.79214500  0.32588069  1
  Zn  Zn30  1  0.67411931  0.67411931  0.94390638  1
  Zn  Zn31  1  0.20785500  0.94390638  0.67411931  1
  Zn  Zn32  1  0.94390638  0.20785500  0.67411931  1
  Zn  Zn33  1  0.67411931  0.67411931  0.20785500  1
  Zn  Zn34  1  0.94390638  0.67411931  0.67411931  1
  Zn  Zn35  1  0.67411931  0.20785500  0.94390638  1
  Zn  Zn36  1  0.67411931  0.94390638  0.20785500  1
  Zn  Zn37  1  0.20785500  0.67411931  0.67411931  1
  Zn  Zn38  1  0.67411931  0.94390638  0.67411931  1
  Zn  Zn39  1  0.94390638  0.67411931  0.20785500  1
  Zn  Zn40  1  0.20785500  0.67411931  0.94390638  1
  Zn  Zn41  1  0.67411931  0.20785500  0.67411931  1
  Fe  Fe42  1  0.50000000  0.50000000  0.00000000  1
  Fe  Fe43  1  0.50000000  0.00000000  0.50000000  1
  Fe  Fe44  1  0.00000000  0.50000000  0.50000000  1
  Fe  Fe45  1  0.50000000  0.50000000  0.50000000  1
