# generated using pymatgen
data_Ce2Re3Si5
_symmetry_space_group_name_H-M   'P 1'
_cell_length_a   5.63250599
_cell_length_b   11.01506940
_cell_length_c   11.01506940
_cell_angle_alpha   90.00000000
_cell_angle_beta   90.00000000
_cell_angle_gamma   90.00000000
_symmetry_Int_Tables_number   1
_chemical_formula_structural   Ce2Re3Si5
_chemical_formula_sum   'Ce8 Re12 Si20'
_cell_volume   683.40183054
_cell_formula_units_Z   4
loop_
 _symmetry_equiv_pos_site_id
 _symmetry_equiv_pos_as_xyz
  1  'x, y, z'
loop_
 _atom_site_type_symbol
 _atom_site_label
 _atom_site_symmetry_multiplicity
 _atom_site_fract_x
 _atom_site_fract_y
 _atom_site_fract_z
 _atom_site_occupancy
  Ce  Ce0  1  0.50000000  0.73744897  0.57498939  1
  Ce  Ce1  1  0.50000000  0.26255103  0.42501061  1
  Ce  Ce2  1  -0.00000000  0.76255103  0.07498939  1
  Ce  Ce3  1  0.00000000  0.23744897  0.92501061  1
  Ce  Ce4  1  0.50000000  0.57498939  0.26255103  1
  Ce  Ce5  1  0.50000000  0.42501061  0.73744897  1
  Ce  Ce6  1  0.00000000  0.07498939  0.23744897  1
  Ce  Ce7  1  -0.00000000  0.92501061  0.76255103  1
  Re  Re8  1  0.50000000  0.85557800  0.87601039  1
  Re  Re9  1  0.50000000  0.14442200  0.12398961  1
  Re  Re10  1  -0.00000000  0.64442200  0.37601039  1
  Re  Re11  1  0.00000000  0.35557800  0.62398961  1
  Re  Re12  1  0.50000000  0.87601039  0.14442200  1
  Re  Re13  1  0.50000000  0.12398961  0.85557800  1
  Re  Re14  1  0.00000000  0.37601039  0.35557800  1
  Re  Re15  1  -0.00000000  0.62398961  0.64442200  1
  Re  Re16  1  0.25000000  0.00000000  0.50000000  1
  Re  Re17  1  0.75000000  0.50000000  -0.00000000  1
  Re  Re18  1  0.25000000  0.50000000  -0.00000000  1
  Re  Re19  1  0.75000000  0.00000000  0.50000000  1
  Si  Si20  1  0.25000000  0.17330240  0.67330240  1
  Si  Si21  1  0.25000000  0.82669760  0.32669760  1
  Si  Si22  1  0.75000000  0.32669760  0.17330240  1
  Si  Si23  1  0.75000000  0.67330240  0.82669760  1
  Si  Si24  1  0.25000000  0.67330240  0.82669760  1
  Si  Si25  1  0.25000000  0.32669760  0.17330240  1
  Si  Si26  1  0.75000000  0.17330240  0.67330240  1
  Si  Si27  1  0.75000000  0.82669760  0.32669760  1
  Si  Si28  1  0.24920340  0.50000000  0.50000000  1
  Si  Si29  1  0.74920340  0.00000000  -0.00000000  1
  Si  Si30  1  0.75079660  0.50000000  0.50000000  1
  Si  Si31  1  0.25079660  0.00000000  -0.00000000  1
  Si  Si32  1  0.50000000  0.97522471  0.68386171  1
  Si  Si33  1  0.50000000  0.02477529  0.31613829  1
  Si  Si34  1  0.00000000  0.52477529  0.18386171  1
  Si  Si35  1  -0.00000000  0.47522471  0.81613829  1
  Si  Si36  1  0.50000000  0.68386171  0.02477529  1
  Si  Si37  1  0.50000000  0.31613829  0.97522471  1
  Si  Si38  1  0.00000000  0.18386171  0.47522471  1
  Si  Si39  1  -0.00000000  0.81613829  0.52477529  1
