# generated using pymatgen
data_Y10Mn13C18
_symmetry_space_group_name_H-M   'P 1'
_cell_length_a   8.74505273
_cell_length_b   8.74505273
_cell_length_c   8.74505273
_cell_angle_alpha   109.47122063
_cell_angle_beta   109.47122063
_cell_angle_gamma   109.47122063
_symmetry_Int_Tables_number   1
_chemical_formula_structural   Y10Mn13C18
_chemical_formula_sum   'Y10 Mn13 C18'
_cell_volume   514.83185078
_cell_formula_units_Z   1
loop_
 _symmetry_equiv_pos_site_id
 _symmetry_equiv_pos_as_xyz
  1  'x, y, z'
loop_
 _atom_site_type_symbol
 _atom_site_label
 _atom_site_symmetry_multiplicity
 _atom_site_fract_x
 _atom_site_fract_y
 _atom_site_fract_z
 _atom_site_occupancy
  Y  Y0  1  0.50000000  0.75000000  0.25000000  1
  Y  Y1  1  0.75000000  0.50000000  0.25000000  1
  Y  Y2  1  0.25000000  0.75000000  0.50000000  1
  Y  Y3  1  0.25000000  0.50000000  0.75000000  1
  Y  Y4  1  0.50000000  0.25000000  0.75000000  1
  Y  Y5  1  0.75000000  0.25000000  0.50000000  1
  Y  Y6  1  0.41131226  0.00000000  0.00000000  1
  Y  Y7  1  -0.00000000  0.41131226  -0.00000000  1
  Y  Y8  1  -0.00000000  -0.00000000  0.41131226  1
  Y  Y9  1  0.58868774  0.58868774  0.58868774  1
  Mn  Mn10  1  -0.00000000  -0.00000000  -0.00000000  1
  Mn  Mn11  1  0.66825351  0.82050060  0.00000000  1
  Mn  Mn12  1  0.84775291  0.17949940  0.17949940  1
  Mn  Mn13  1  0.66825351  0.00000000  0.82050060  1
  Mn  Mn14  1  0.82050060  0.66825351  0.00000000  1
  Mn  Mn15  1  -0.00000000  0.66825351  0.82050060  1
  Mn  Mn16  1  0.17949940  0.84775291  0.17949940  1
  Mn  Mn17  1  0.17949940  0.17949940  0.84775291  1
  Mn  Mn18  1  -0.00000000  0.82050060  0.66825351  1
  Mn  Mn19  1  0.82050060  -0.00000000  0.66825351  1
  Mn  Mn20  1  0.33174649  0.33174649  0.15224709  1
  Mn  Mn21  1  0.15224709  0.33174649  0.33174649  1
  Mn  Mn22  1  0.33174649  0.15224709  0.33174649  1
  C  C23  1  0.70628169  0.21937444  -0.00000000  1
  C  C24  1  0.48690726  0.78062556  0.78062556  1
  C  C25  1  0.70628169  -0.00000000  0.21937444  1
  C  C26  1  0.21937444  0.70628169  -0.00000000  1
  C  C27  1  0.00000000  0.70628169  0.21937444  1
  C  C28  1  0.78062556  0.48690726  0.78062556  1
  C  C29  1  0.78062556  0.78062556  0.48690726  1
  C  C30  1  0.00000000  0.21937444  0.70628169  1
  C  C31  1  0.21937444  -0.00000000  0.70628169  1
  C  C32  1  0.29371831  0.29371831  0.51309274  1
  C  C33  1  0.51309274  0.29371831  0.29371831  1
  C  C34  1  0.29371831  0.51309274  0.29371831  1
  C  C35  1  0.56853405  0.56853405  -0.00000000  1
  C  C36  1  0.00000000  0.43146595  0.43146595  1
  C  C37  1  0.56853405  -0.00000000  0.56853405  1
  C  C38  1  -0.00000000  0.56853405  0.56853405  1
  C  C39  1  0.43146595  0.00000000  0.43146595  1
  C  C40  1  0.43146595  0.43146595  0.00000000  1
