# generated using pymatgen
data_Rb4MgFe8H6(Se8O25)2
_symmetry_space_group_name_H-M   'P 1'
_cell_length_a   7.85226241
_cell_length_b   10.51530720
_cell_length_c   16.13059052
_cell_angle_alpha   77.45945245
_cell_angle_beta   88.64679773
_cell_angle_gamma   86.21290720
_symmetry_Int_Tables_number   1
_chemical_formula_structural   Rb4MgFe8H6(Se8O25)2
_chemical_formula_sum   'Rb4 Mg1 Fe8 H6 Se16 O50'
_cell_volume   1297.21283052
_cell_formula_units_Z   1
loop_
 _symmetry_equiv_pos_site_id
 _symmetry_equiv_pos_as_xyz
  1  'x, y, z'
loop_
 _atom_site_type_symbol
 _atom_site_label
 _atom_site_symmetry_multiplicity
 _atom_site_fract_x
 _atom_site_fract_y
 _atom_site_fract_z
 _atom_site_occupancy
  Rb  Rb0  1  0.51703590  0.69687872  0.26141107  1
  Rb  Rb1  1  0.48296410  0.30312128  0.73858893  1
  Rb  Rb2  1  0.90615610  0.69603292  0.83730428  1
  Rb  Rb3  1  0.09384390  0.30396708  0.16269572  1
  Mg  Mg4  1  0.50000000  0.00000000  0.50000000  1
  Fe  Fe5  1  0.59182137  0.25939617  0.30699118  1
  Fe  Fe6  1  0.40817863  0.74060383  0.69300882  1
  Fe  Fe7  1  0.74960931  0.64795865  0.51968388  1
  Fe  Fe8  1  0.25039069  0.35204135  0.48031612  1
  Fe  Fe9  1  0.54835748  0.74927713  0.99765836  1
  Fe  Fe10  1  0.45164252  0.25072287  0.00234164  1
  Fe  Fe11  1  0.97719951  0.09705256  0.77027172  1
  Fe  Fe12  1  0.02280049  0.90294744  0.22972828  1
  H  H13  1  0.21296530  0.61823158  0.09705338  1
  H  H14  1  0.78703470  0.38176842  0.90294662  1
  H  H15  1  0.00322260  0.71809501  0.61355709  1
  H  H16  1  0.99677740  0.28190499  0.38644291  1
  H  H17  1  0.81590586  0.78129131  0.63858435  1
  H  H18  1  0.18409414  0.21870869  0.36141565  1
  Se  Se19  1  0.55206346  0.46073605  0.11880136  1
  Se  Se20  1  0.44793654  0.53926395  0.88119864  1
  Se  Se21  1  0.80646582  0.94418963  0.39959072  1
  Se  Se22  1  0.19353418  0.05581037  0.60040928  1
  Se  Se23  1  0.68873997  0.03147466  0.93387273  1
  Se  Se24  1  0.31126003  0.96852534  0.06612727  1
  Se  Se25  1  0.96448973  0.38060531  0.63602027  1
  Se  Se26  1  0.03551027  0.61939469  0.36397973  1
  Se  Se27  1  0.67573889  0.37547198  0.45429681  1
  Se  Se28  1  0.32426111  0.62452802  0.54570319  1
  Se  Se29  1  0.71577852  0.10408609  0.15102980  1
  Se  Se30  1  0.28422148  0.89591391  0.84897020  1
  Se  Se31  1  0.66701119  0.98629225  0.68205252  1
  Se  Se32  1  0.33298881  0.01370775  0.31794748  1
  Se  Se33  1  0.95817519  0.75089593  0.08149178  1
  Se  Se34  1  0.04182481  0.24910407  0.91850822  1
  O  O35  1  0.51040907  0.42714672  0.22750567  1
  O  O36  1  0.48959093  0.57285328  0.77249433  1
  O  O37  1  0.44564230  0.61542352  0.09457131  1
  O  O38  1  0.55435770  0.38457648  0.90542869  1
  O  O39  1  0.40223962  0.37669455  0.07930643  1
  O  O40  1  0.59776038  0.62330545  0.92069357  1
  O  O41  1  0.66387507  0.83338533  0.45474498  1
  O  O42  1  0.33612493  0.16661467  0.54525502  1
  O  O43  1  0.65583922  0.07751053  0.39236949  1
  O  O44  1  0.34416078  0.92248947  0.60763051  1
  O  O45  1  0.80025454  0.91020472  0.29987926  1
  O  O46  1  0.19974546  0.08979528  0.70012074  1
  O  O47  1  0.48813922  0.11532001  0.92938336  1
  O  O48  1  0.51186078  0.88467999  0.07061664  1
  O  O49  1  0.64298681  0.88992151  0.90273825  1
  O  O50  1  0.35701319  0.11007849  0.09726175  1
  O  O51  1  0.76991368  0.12334744  0.84075199  1
  O  O52  1  0.23008632  0.87665256  0.15924801  1
  O  O53  1  0.86219108  0.24236207  0.68180086  1
  O  O54  1  0.13780892  0.75763793  0.31819914  1
  O  O55  1  0.02651251  0.34298875  0.53902997  1
  O  O56  1  0.97348749  0.65701125  0.46097003  1
  O  O57  1  0.78561943  0.48176771  0.60615447  1
  O  O58  1  0.21438057  0.51823229  0.39384553  1
  O  O59  1  0.65701649  0.54516482  0.43527294  1
  O  O60  1  0.34298351  0.45483518  0.56472706  1
  O  O61  1  0.78370667  0.34269527  0.36474586  1
  O  O62  1  0.21629333  0.65730473  0.63525414  1
  O  O63  1  0.48171912  0.33540231  0.41551265  1
  O  O64  1  0.51828088  0.66459769  0.58448735  1
  O  O65  1  0.74049102  0.21813858  0.21470244  1
  O  O66  1  0.25950898  0.78186142  0.78529756  1
  O  O67  1  0.68991619  0.20939883  0.05241050  1
  O  O68  1  0.31008381  0.79060117  0.94758950  1
  O  O69  1  0.92689623  0.05402193  0.13812806  1
  O  O70  1  0.07310377  0.94597807  0.86187194  1
  O  O71  1  0.69160470  0.01846081  0.57510730  1
  O  O72  1  0.30839530  0.98153919  0.42489270  1
  O  O73  1  0.87732888  0.96440596  0.71483641  1
  O  O74  1  0.12267112  0.03559404  0.28516359  1
  O  O75  1  0.62865012  0.81764516  0.70592666  1
  O  O76  1  0.37134988  0.18235484  0.29407334  1
  O  O77  1  0.78711694  0.68606031  0.04734733  1
  O  O78  1  0.21288306  0.31393969  0.95265267  1
  O  O79  1  0.89443147  0.76868699  0.18086956  1
  O  O80  1  0.10556853  0.23131301  0.81913044  1
  O  O81  1  0.08906794  0.59957424  0.10660186  1
  O  O82  1  0.91093206  0.40042576  0.89339814  1
  O  O83  1  0.88316342  0.74500075  0.59581661  1
  O  O84  1  0.11683658  0.25499925  0.40418339  1
