# generated using pymatgen
data_K2H2Se(IO5)2
_symmetry_space_group_name_H-M   'P 1'
_cell_length_a   4.99993630
_cell_length_b   10.62786948
_cell_length_c   10.94277629
_cell_angle_alpha   84.29163055
_cell_angle_beta   76.79367715
_cell_angle_gamma   76.39496106
_symmetry_Int_Tables_number   1
_chemical_formula_structural   K2H2Se(IO5)2
_chemical_formula_sum   'K4 H4 Se2 I4 O20'
_cell_volume   549.57889452
_cell_formula_units_Z   2
loop_
 _symmetry_equiv_pos_site_id
 _symmetry_equiv_pos_as_xyz
  1  'x, y, z'
loop_
 _atom_site_type_symbol
 _atom_site_label
 _atom_site_symmetry_multiplicity
 _atom_site_fract_x
 _atom_site_fract_y
 _atom_site_fract_z
 _atom_site_occupancy
  K  K0  1  0.14343358  0.54135611  0.65153894  1
  K  K1  1  0.33632864  0.95864389  0.84846106  1
  K  K2  1  0.85656642  0.45864389  0.34846106  1
  K  K3  1  0.66367136  0.04135611  0.15153894  1
  H  H4  1  0.00842343  0.85261794  0.61579391  1
  H  H5  1  0.47683528  0.64738206  0.88420609  1
  H  H6  1  0.99157657  0.14738206  0.38420609  1
  H  H7  1  0.52316472  0.35261794  0.11579391  1
  Se  Se8  1  0.67890586  0.25000000  0.75000000  1
  Se  Se9  1  0.32109414  0.75000000  0.25000000  1
  I  I10  1  0.64458453  0.81847013  0.50353044  1
  I  I11  1  0.96658510  0.68152987  0.99646956  1
  I  I12  1  0.35541547  0.18152987  0.49646956  1
  I  I13  1  0.03341490  0.31847013  0.00353044  1
  O  O14  1  0.84371818  0.80849206  0.64130709  1
  O  O15  1  0.29351732  0.69150794  0.85869291  1
  O  O16  1  0.15628182  0.19150794  0.35869291  1
  O  O17  1  0.70648268  0.30849206  0.14130709  1
  O  O18  1  0.59430110  0.65527176  0.53529354  1
  O  O19  1  0.78486640  0.84472824  0.96470646  1
  O  O20  1  0.40569890  0.34472824  0.46470646  1
  O  O21  1  0.21513360  0.15527176  0.03529354  1
  O  O22  1  0.31082542  0.91175436  0.59000074  1
  O  O23  1  0.81258052  0.58824564  0.90999926  1
  O  O24  1  0.68917458  0.08824564  0.40999926  1
  O  O25  1  0.18741948  0.41175436  0.09000074  1
  O  O26  1  0.39340876  0.35885423  0.81913608  1
  O  O27  1  0.57139906  0.14114577  0.68086392  1
  O  O28  1  0.60659124  0.64114577  0.18086392  1
  O  O29  1  0.42860094  0.85885423  0.31913608  1
  O  O30  1  0.85023760  0.17008550  0.85866993  1
  O  O31  1  0.87899302  0.32991450  0.64133007  1
  O  O32  1  0.14976240  0.82991450  0.14133007  1
  O  O33  1  0.12100698  0.67008550  0.35866993  1
