# generated using pymatgen
data_BaPO3F
_symmetry_space_group_name_H-M   'P 1'
_cell_length_a   8.84421852
_cell_length_b   9.40863690
_cell_length_c   9.37494777
_cell_angle_alpha   104.44853198
_cell_angle_beta   90.00000000
_cell_angle_gamma   90.00000000
_symmetry_Int_Tables_number   1
_chemical_formula_structural   BaPO3F
_chemical_formula_sum   'Ba8 P8 O24 F8'
_cell_volume   755.43538993
_cell_formula_units_Z   8
loop_
 _symmetry_equiv_pos_site_id
 _symmetry_equiv_pos_as_xyz
  1  'x, y, z'
loop_
 _atom_site_type_symbol
 _atom_site_label
 _atom_site_symmetry_multiplicity
 _atom_site_fract_x
 _atom_site_fract_y
 _atom_site_fract_z
 _atom_site_occupancy
  Ba  Ba0  1  0.17851634  0.06816133  0.20969598  1
  Ba  Ba1  1  0.67851634  0.93183867  0.29030402  1
  Ba  Ba2  1  0.82148366  0.93183867  0.79030402  1
  Ba  Ba3  1  0.32148366  0.06816133  0.70969598  1
  Ba  Ba4  1  0.32344643  0.52767800  0.19229370  1
  Ba  Ba5  1  0.82344643  0.47232200  0.30770630  1
  Ba  Ba6  1  0.67655357  0.47232200  0.80770630  1
  Ba  Ba7  1  0.17655357  0.52767800  0.69229370  1
  P  P8  1  0.44341368  0.77746597  0.97998902  1
  P  P9  1  0.94341368  0.22253403  0.52001098  1
  P  P10  1  0.55658632  0.22253403  0.02001098  1
  P  P11  1  0.05658632  0.77746597  0.47998902  1
  P  P12  1  0.07265615  0.27792603  0.96852842  1
  P  P13  1  0.57265615  0.72207397  0.53147158  1
  P  P14  1  0.92734385  0.72207397  0.03147158  1
  P  P15  1  0.42734385  0.27792603  0.46852842  1
  O  O16  1  0.40017907  0.83357252  0.14188933  1
  O  O17  1  0.90017907  0.16642748  0.35811067  1
  O  O18  1  0.59982093  0.16642748  0.85811067  1
  O  O19  1  0.09982093  0.83357252  0.64188933  1
  O  O20  1  0.40740360  0.61455813  0.91695124  1
  O  O21  1  0.90740360  0.38544187  0.58304876  1
  O  O22  1  0.59259640  0.38544187  0.08304876  1
  O  O23  1  0.09259640  0.61455813  0.41695124  1
  O  O24  1  0.59800261  0.82476858  0.94037038  1
  O  O25  1  0.09800261  0.17523142  0.55962962  1
  O  O26  1  0.40199739  0.17523142  0.05962962  1
  O  O27  1  0.90199739  0.82476858  0.44037038  1
  O  O28  1  0.07163296  0.11123233  0.91489084  1
  O  O29  1  0.57163296  0.88876767  0.58510916  1
  O  O30  1  0.92836704  0.88876767  0.08510916  1
  O  O31  1  0.42836704  0.11123233  0.41489084  1
  O  O32  1  0.06788793  0.33444382  0.13626379  1
  O  O33  1  0.56788793  0.66555618  0.36373621  1
  O  O34  1  0.93211207  0.66555618  0.86373621  1
  O  O35  1  0.43211207  0.33444382  0.63626379  1
  O  O36  1  0.18734169  0.35540528  0.89379654  1
  O  O37  1  0.68734169  0.64459472  0.60620346  1
  O  O38  1  0.81265831  0.64459472  0.10620346  1
  O  O39  1  0.31265831  0.35540528  0.39379654  1
  F  F40  1  0.32047226  0.85810514  0.89361744  1
  F  F41  1  0.82047226  0.14189486  0.60638256  1
  F  F42  1  0.67952774  0.14189486  0.10638256  1
  F  F43  1  0.17952774  0.85810514  0.39361744  1
  F  F44  1  0.90752762  0.32662126  0.91719855  1
  F  F45  1  0.40752762  0.67337874  0.58280145  1
  F  F46  1  0.09247238  0.67337874  0.08280145  1
  F  F47  1  0.59247238  0.32662126  0.41719855  1
