# generated using pymatgen
data_CuAs12P4S12Br
_symmetry_space_group_name_H-M   'P 1'
_cell_length_a   13.77325435
_cell_length_b   13.77326306
_cell_length_c   22.05948969
_cell_angle_alpha   90.00004945
_cell_angle_beta   89.99990109
_cell_angle_gamma   119.99997927
_symmetry_Int_Tables_number   1
_chemical_formula_structural   CuAs12P4S12Br
_chemical_formula_sum   'Cu4 As48 P16 S48 Br4'
_cell_volume   3624.09516980
_cell_formula_units_Z   4
loop_
 _symmetry_equiv_pos_site_id
 _symmetry_equiv_pos_as_xyz
  1  'x, y, z'
loop_
 _atom_site_type_symbol
 _atom_site_label
 _atom_site_symmetry_multiplicity
 _atom_site_fract_x
 _atom_site_fract_y
 _atom_site_fract_z
 _atom_site_occupancy
  Cu  Cu0  1  0.33333192  0.66666163  0.06111564  1
  Cu  Cu1  1  0.66667030  0.33333837  0.56111564  1
  Cu  Cu2  1  0.00000100  0.99999830  0.30199157  1
  Cu  Cu3  1  0.00000270  0.00000170  0.80199157  1
  As  As4  1  0.57330841  0.51598563  0.19527841  1
  As  As5  1  0.94267796  0.42669276  0.19527824  1
  As  As6  1  0.48401627  0.05732368  0.19527672  1
  As  As7  1  0.05732278  0.48401437  0.69527841  1
  As  As8  1  0.51598520  0.57330724  0.69527824  1
  As  As9  1  0.42669259  0.94267632  0.69527672  1
  As  As10  1  0.43770518  0.34369652  0.13679813  1
  As  As11  1  0.90599079  0.56229398  0.13679839  1
  As  As12  1  0.65630262  0.09400855  0.13679838  1
  As  As13  1  0.09400866  0.65630348  0.63679813  1
  As  As14  1  0.34369681  0.43770602  0.63679839  1
  As  As15  1  0.56229408  0.90599145  0.63679838  1
  As  As16  1  0.61583384  0.49041460  0.08680450  1
  As  As17  1  0.87457816  0.38416507  0.08680566  1
  As  As18  1  0.50958475  0.12542043  0.08680401  1
  As  As19  1  0.12541924  0.50958540  0.58680450  1
  As  As20  1  0.49041309  0.61583493  0.58680566  1
  As  As21  1  0.38416433  0.87457957  0.58680401  1
  As  As22  1  0.29744110  0.54752180  0.81787890  1
  As  As23  1  0.25007890  0.70255793  0.81787848  1
  As  As24  1  0.45247686  0.74991941  0.81787895  1
  As  As25  1  0.74991931  0.45247820  0.31787890  1
  As  As26  1  0.54752097  0.29744207  0.31787848  1
  As  As27  1  0.70255745  0.25008059  0.31787895  1
  As  As28  1  0.25520275  0.39268170  0.43938467  1
  As  As29  1  0.13747975  0.74479756  0.43938480  1
  As  As30  1  0.60731883  0.86252097  0.43938431  1
  As  As31  1  0.86252104  0.60731830  0.93938467  1
  As  As32  1  0.39268219  0.25520244  0.93938480  1
  As  As33  1  0.74479786  0.13747903  0.93938431  1
  As  As34  1  0.11053589  0.42570311  0.38870469  1
  As  As35  1  0.31516719  0.88946498  0.38870454  1
  As  As36  1  0.57429713  0.68483295  0.38870486  1
  As  As37  1  0.68483278  0.57429689  0.88870469  1
  As  As38  1  0.42570221  0.11053502  0.88870454  1
  As  As39  1  0.88946417  0.31516705  0.88870486  1
  As  As40  1  0.28685104  0.46775246  0.33256449  1
  As  As41  1  0.18090212  0.71314876  0.33256519  1
  As  As42  1  0.53224694  0.81909879  0.33256476  1
  As  As43  1  0.81909857  0.53224754  0.83256449  1
  As  As44  1  0.46775335  0.28685124  0.83256519  1
  As  As45  1  0.71314815  0.18090121  0.83256476  1
  As  As46  1  0.10955599  0.00778453  0.05786465  1
  As  As47  1  0.89822835  0.89044419  0.05786452  1
  As  As48  1  0.99221555  0.10177185  0.05786426  1
  As  As49  1  0.10177147  0.99221547  0.55786465  1
  As  As50  1  0.00778416  0.10955581  0.55786452  1
  As  As51  1  0.89044369  0.89822815  0.55786426  1
  P  P52  1  0.41984917  0.57228090  0.09462979  1
  P  P53  1  0.15243042  0.58014890  0.09462989  1
  P  P54  1  0.42771840  0.84756941  0.09462835  1
  P  P55  1  0.84756827  0.42771910  0.59462979  1
  P  P56  1  0.57228152  0.41985110  0.59462989  1
  P  P57  1  0.58014899  0.15243059  0.59462835  1
  P  P58  1  0.33333033  0.66666655  0.95742100  1
  P  P59  1  0.66666378  0.33333345  0.45742100  1
  P  P60  1  0.09930209  0.18590387  0.33556902  1
  P  P61  1  0.08660109  0.90069756  0.33556844  1
  P  P62  1  0.81409591  0.91339703  0.33556807  1
  P  P63  1  0.91339823  0.81409613  0.83556902  1
  P  P64  1  0.18590352  0.09930244  0.83556844  1
  P  P65  1  0.90069889  0.08660297  0.83556807  1
  P  P66  1  0.00000001  -0.00000055  0.19759850  1
  P  P67  1  0.00000056  0.00000055  0.69759850  1
  S  S68  1  0.49198414  0.62170924  0.18088490  1
  S  S69  1  0.12972570  0.50801804  0.18088570  1
  S  S70  1  0.37829140  0.87027424  0.18088523  1
  S  S71  1  0.87027490  0.37829076  0.68088490  1
  S  S72  1  0.62170766  0.49198196  0.68088570  1
  S  S73  1  0.50801716  0.12972576  0.68088523  1
  S  S74  1  0.31787468  0.39776638  0.10185476  1
  S  S75  1  0.07989009  0.68212268  0.10185587  1
  S  S76  1  0.60223080  0.92010857  0.10185352  1
  S  S77  1  0.92010830  0.60223362  0.60185476  1
  S  S78  1  0.39776741  0.31787732  0.60185587  1
  S  S79  1  0.68212223  0.07989143  0.60185352  1
  S  S80  1  0.55295520  0.59368388  0.03925378  1
  S  S81  1  0.04072885  0.44704774  0.03925426  1
  S  S82  1  0.40631629  0.95927178  0.03925402  1
  S  S83  1  0.95927132  0.40631612  0.53925378  1
  S  S84  1  0.59368111  0.55295226  0.53925426  1
  S  S85  1  0.44704451  0.04072822  0.53925402  1
  S  S86  1  0.28668631  0.51082499  0.91833408  1
  S  S87  1  0.22413837  0.71331208  0.91833427  1
  S  S88  1  0.48917392  0.77586157  0.91833339  1
  S  S89  1  0.77586132  0.48917501  0.41833408  1
  S  S90  1  0.51082629  0.28668792  0.41833427  1
  S  S91  1  0.71331235  0.22413843  0.41833339  1
  S  S92  1  0.18148824  0.20751051  0.41893267  1
  S  S93  1  0.02601982  0.81851146  0.41893324  1
  S  S94  1  0.79248922  0.97397852  0.41893314  1
  S  S95  1  0.97397773  0.79248949  0.91893267  1
  S  S96  1  0.20750835  0.18148854  0.91893324  1
  S  S97  1  0.81851070  0.02602148  0.91893314  1
  S  S98  1  0.99383015  0.25257784  0.35103897  1
  S  S99  1  0.25874864  0.00617059  0.35103822  1
  S  S100  1  0.74742349  0.74125153  0.35103817  1
  S  S101  1  0.74125231  0.74742216  0.85103897  1
  S  S102  1  0.25257806  0.99382941  0.85103822  1
  S  S103  1  0.00617196  0.25874847  0.85103817  1
  S  S104  1  0.22566113  0.30652906  0.27959855  1
  S  S105  1  0.08086665  0.77434130  0.27959917  1
  S  S106  1  0.69347481  0.91913113  0.27959978  1
  S  S107  1  0.91913207  0.69347094  0.77959855  1
  S  S108  1  0.30652535  0.22565870  0.77959917  1
  S  S109  1  0.77434368  0.08086887  0.77959978  1
  S  S110  1  0.14385299  0.01202495  0.15797623  1
  S  S111  1  0.86817450  0.85614950  0.15797680  1
  S  S112  1  0.98797503  0.13182542  0.15797721  1
  S  S113  1  0.13182804  0.98797505  0.65797623  1
  S  S114  1  0.01202499  0.14385050  0.65797680  1
  S  S115  1  0.85614962  0.86817458  0.65797721  1
  Br  Br116  1  0.66666760  0.33333292  0.18170762  1
  Br  Br117  1  0.33333468  0.66666708  0.68170762  1
  Br  Br118  1  0.33333092  0.66666960  0.44127171  1
  Br  Br119  1  0.66666132  0.33333040  0.94127171  1
