# generated using pymatgen
data_Mo(NO4)2
_symmetry_space_group_name_H-M   'P 1'
_cell_length_a   5.40336037
_cell_length_b   8.66987048
_cell_length_c   14.32312320
_cell_angle_alpha   100.30011664
_cell_angle_beta   90.00000000
_cell_angle_gamma   90.00000000
_symmetry_Int_Tables_number   1
_chemical_formula_structural   Mo(NO4)2
_chemical_formula_sum   'Mo4 N8 O32'
_cell_volume   660.17407521
_cell_formula_units_Z   4
loop_
 _symmetry_equiv_pos_site_id
 _symmetry_equiv_pos_as_xyz
  1  'x, y, z'
loop_
 _atom_site_type_symbol
 _atom_site_label
 _atom_site_symmetry_multiplicity
 _atom_site_fract_x
 _atom_site_fract_y
 _atom_site_fract_z
 _atom_site_occupancy
  Mo  Mo0  1  0.33151739  0.38408750  0.82426314  1
  Mo  Mo1  1  0.16848261  0.88408750  0.32426314  1
  Mo  Mo2  1  0.66848261  0.61591250  0.17573686  1
  Mo  Mo3  1  0.83151739  0.11591250  0.67573686  1
  N  N4  1  0.11340009  0.57618944  0.72402065  1
  N  N5  1  0.38659991  0.07618944  0.22402065  1
  N  N6  1  0.88659991  0.42381056  0.27597935  1
  N  N7  1  0.61340009  0.92381056  0.77597935  1
  N  N8  1  0.13794600  0.24103935  0.95598784  1
  N  N9  1  0.36205400  0.74103935  0.45598784  1
  N  N10  1  0.86205400  0.75896065  0.04401216  1
  N  N11  1  0.63794600  0.25896065  0.54401216  1
  O  O12  1  0.01926817  0.66043868  0.67598898  1
  O  O13  1  0.48073183  0.16043868  0.17598898  1
  O  O14  1  0.98073183  0.33956132  0.32401102  1
  O  O15  1  0.51926817  0.83956132  0.82401102  1
  O  O16  1  0.32853290  0.50613230  0.70461395  1
  O  O17  1  0.17146710  0.00613230  0.20461395  1
  O  O18  1  0.67146710  0.49386770  0.29538605  1
  O  O19  1  0.82853290  0.99386770  0.79538605  1
  O  O20  1  0.01793258  0.54097055  0.80073456  1
  O  O21  1  0.48206742  0.04097055  0.30073456  1
  O  O22  1  0.98206742  0.45902945  0.19926544  1
  O  O23  1  0.51793258  0.95902945  0.69926544  1
  O  O24  1  0.35250253  0.20746055  0.91306729  1
  O  O25  1  0.14749747  0.70746055  0.41306729  1
  O  O26  1  0.64749747  0.79253945  0.08693271  1
  O  O27  1  0.85250253  0.29253945  0.58693271  1
  O  O28  1  0.02932322  0.35577669  0.92479816  1
  O  O29  1  0.47067678  0.85577669  0.42479816  1
  O  O30  1  0.97067678  0.64422331  0.07520184  1
  O  O31  1  0.52932322  0.14422331  0.57520184  1
  O  O32  1  0.05530098  0.17283755  0.01495849  1
  O  O33  1  0.44469902  0.67283755  0.51495849  1
  O  O34  1  0.94469902  0.82716245  0.98504151  1
  O  O35  1  0.55530098  0.32716245  0.48504151  1
  O  O36  1  0.46341078  0.53229970  0.90291468  1
  O  O37  1  0.03658922  0.03229970  0.40291468  1
  O  O38  1  0.53658922  0.46770030  0.09708532  1
  O  O39  1  0.96341078  0.96770030  0.59708532  1
  O  O40  1  0.59272067  0.28264819  0.76527783  1
  O  O41  1  0.90727933  0.78264819  0.26527783  1
  O  O42  1  0.40727933  0.71735181  0.23472217  1
  O  O43  1  0.09272067  0.21735181  0.73472217  1
