# generated using pymatgen
data_Rb8Zr(MoO4)6
_symmetry_space_group_name_H-M   'P 1'
_cell_length_a   8.07569699
_cell_length_b   10.19276788
_cell_length_c   10.89952924
_cell_angle_alpha   62.12278140
_cell_angle_beta   81.77835991
_cell_angle_gamma   72.19146829
_symmetry_Int_Tables_number   1
_chemical_formula_structural   Rb8Zr(MoO4)6
_chemical_formula_sum   'Rb8 Zr1 Mo6 O24'
_cell_volume   755.06369152
_cell_formula_units_Z   1
loop_
 _symmetry_equiv_pos_site_id
 _symmetry_equiv_pos_as_xyz
  1  'x, y, z'
loop_
 _atom_site_type_symbol
 _atom_site_label
 _atom_site_symmetry_multiplicity
 _atom_site_fract_x
 _atom_site_fract_y
 _atom_site_fract_z
 _atom_site_occupancy
  Rb  Rb0  1  0.65013075  0.79196670  -0.00000000  1
  Rb  Rb1  1  0.34986925  0.20803330  0.00000000  1
  Rb  Rb2  1  0.50000000  0.33648852  0.32702296  1
  Rb  Rb3  1  0.50000000  0.66351148  0.67297704  1
  Rb  Rb4  1  0.10570034  0.13656706  0.34598655  1
  Rb  Rb5  1  0.10570034  0.48255361  0.65401345  1
  Rb  Rb6  1  0.89429966  0.86343294  0.65401345  1
  Rb  Rb7  1  0.89429966  0.51744639  0.34598655  1
  Zr  Zr8  1  0.00000000  -0.00000000  0.00000000  1
  Mo  Mo9  1  0.29166149  0.05647871  0.68539460  1
  Mo  Mo10  1  0.29166149  0.74187331  0.31460540  1
  Mo  Mo11  1  0.70833851  0.94352129  0.31460540  1
  Mo  Mo12  1  0.70833851  0.25812669  0.68539460  1
  Mo  Mo13  1  0.20622621  0.61141910  1.00000000  1
  Mo  Mo14  1  0.79377379  0.38858090  0.00000000  1
  O  O15  1  0.19463265  0.06403505  0.84936127  1
  O  O16  1  0.19463265  0.91339632  0.15063873  1
  O  O17  1  0.80536735  0.93596495  0.15063873  1
  O  O18  1  0.80536735  0.08660368  0.84936127  1
  O  O19  1  0.22797411  0.23958262  0.53819306  1
  O  O20  1  0.22797411  0.77777568  0.46180694  1
  O  O21  1  0.77202589  0.76041738  0.46180694  1
  O  O22  1  0.77202589  0.22222432  0.53819306  1
  O  O23  1  0.20899289  0.93190608  0.65593613  1
  O  O24  1  0.20899289  0.58784221  0.34406387  1
  O  O25  1  0.79100711  0.06809392  0.34406387  1
  O  O26  1  0.79100711  0.41215779  0.65593613  1
  O  O27  1  0.52285096  0.98187402  0.69909325  1
  O  O28  1  0.52285096  0.68096727  0.30090675  1
  O  O29  1  0.47714904  0.01812598  0.30090675  1
  O  O30  1  0.47714904  0.31903273  0.69909325  1
  O  O31  1  0.19516227  0.58439052  0.85122596  1
  O  O32  1  0.19516227  0.43561648  0.14877404  1
  O  O33  1  0.80483773  0.41560948  0.14877404  1
  O  O34  1  0.80483773  0.56438352  0.85122596  1
  O  O35  1  0.03012480  0.78261097  0.00000000  1
  O  O36  1  0.96987520  0.21738903  1.00000000  1
  O  O37  1  0.40524766  0.64985349  1.00000000  1
  O  O38  1  0.59475234  0.35014651  0.00000000  1
