# generated using pymatgen
data_Cs3InP2
_symmetry_space_group_name_H-M   'P 1'
_cell_length_a   9.87516648
_cell_length_b   13.11483108
_cell_length_c   16.05420597
_cell_angle_alpha   80.97425160
_cell_angle_beta   81.49121157
_cell_angle_gamma   70.76418194
_symmetry_Int_Tables_number   1
_chemical_formula_structural   Cs3InP2
_chemical_formula_sum   'Cs24 In8 P16'
_cell_volume   1928.44901464
_cell_formula_units_Z   8
loop_
 _symmetry_equiv_pos_site_id
 _symmetry_equiv_pos_as_xyz
  1  'x, y, z'
loop_
 _atom_site_type_symbol
 _atom_site_label
 _atom_site_symmetry_multiplicity
 _atom_site_fract_x
 _atom_site_fract_y
 _atom_site_fract_z
 _atom_site_occupancy
  Cs  Cs0  1  0.95666296  0.51525680  0.79952559  1
  Cs  Cs1  1  0.04333704  0.48474320  0.20047441  1
  Cs  Cs2  1  0.58793340  0.01446744  0.18862625  1
  Cs  Cs3  1  0.41206660  0.98553256  0.81137375  1
  Cs  Cs4  1  0.59644132  0.66694084  0.17888562  1
  Cs  Cs5  1  0.40355868  0.33305916  0.82111438  1
  Cs  Cs6  1  0.85191710  0.76813504  0.32482923  1
  Cs  Cs7  1  0.14808290  0.23186496  0.67517077  1
  Cs  Cs8  1  0.45766423  0.35205073  0.08575006  1
  Cs  Cs9  1  0.54233577  0.64794927  0.91424994  1
  Cs  Cs10  1  0.21238406  0.96364004  0.24693501  1
  Cs  Cs11  1  0.78761594  0.03635996  0.75306499  1
  Cs  Cs12  1  0.78152612  0.30743171  0.88542304  1
  Cs  Cs13  1  0.21847388  0.69256829  0.11457696  1
  Cs  Cs14  1  0.88869451  0.16453512  0.51469914  1
  Cs  Cs15  1  0.11130549  0.83546488  0.48530086  1
  Cs  Cs16  1  0.73018496  0.77099170  0.64552090  1
  Cs  Cs17  1  0.26981504  0.22900830  0.35447910  1
  Cs  Cs18  1  0.52117561  0.63542257  0.46137968  1
  Cs  Cs19  1  0.47882439  0.36457743  0.53862032  1
  Cs  Cs20  1  0.76486331  0.32872356  0.26499294  1
  Cs  Cs21  1  0.23513669  0.67127644  0.73500706  1
  Cs  Cs22  1  0.93972381  0.10074919  0.08442573  1
  Cs  Cs23  1  0.06027619  0.89925081  0.91557427  1
  In  In24  1  0.08348078  0.35592640  0.00920245  1
  In  In25  1  0.91651922  0.64407360  0.99079755  1
  In  In26  1  0.33665435  0.10618076  0.01279725  1
  In  In27  1  0.66334565  0.89381924  0.98720275  1
  In  In28  1  0.63849069  0.02358374  0.43807472  1
  In  In29  1  0.36150931  0.97641626  0.56192528  1
  In  In30  1  0.13514678  0.51446224  0.42746693  1
  In  In31  1  0.86485322  0.48553776  0.57253307  1
  P  P32  1  0.60650941  0.10885002  0.96114043  1
  P  P33  1  0.39349059  0.89114998  0.03885957  1
  P  P34  1  0.53428432  0.08003298  0.58653211  1
  P  P35  1  0.46571568  0.91996702  0.41346789  1
  P  P36  1  0.14369422  0.20769732  0.90172111  1
  P  P37  1  0.85630578  0.79230268  0.09827889  1
  P  P38  1  0.81024872  0.47556309  0.03875329  1
  P  P39  1  0.18975128  0.52443691  0.96124671  1
  P  P40  1  0.19868906  0.21842716  0.14147765  1
  P  P41  1  0.80131094  0.78157284  0.85852235  1
  P  P42  1  0.91152924  0.45162734  0.41647858  1
  P  P43  1  0.08847076  0.54837266  0.58352142  1
  P  P44  1  0.84862575  0.04335448  0.34055265  1
  P  P45  1  0.15137425  0.95664552  0.65944735  1
  P  P46  1  0.34042819  0.52109974  0.31948279  1
  P  P47  1  0.65957181  0.47890026  0.68051721  1
