# generated using pymatgen
data_TaCdBF10
_symmetry_space_group_name_H-M   'P 1'
_cell_length_a   8.45277068
_cell_length_b   9.11592614
_cell_length_c   9.57143781
_cell_angle_alpha   90.00000000
_cell_angle_beta   90.00000000
_cell_angle_gamma   94.35608454
_symmetry_Int_Tables_number   1
_chemical_formula_structural   TaCdBF10
_chemical_formula_sum   'Ta4 Cd4 B4 F40'
_cell_volume   735.39502609
_cell_formula_units_Z   4
loop_
 _symmetry_equiv_pos_site_id
 _symmetry_equiv_pos_as_xyz
  1  'x, y, z'
loop_
 _atom_site_type_symbol
 _atom_site_label
 _atom_site_symmetry_multiplicity
 _atom_site_fract_x
 _atom_site_fract_y
 _atom_site_fract_z
 _atom_site_occupancy
  Ta  Ta0  1  0.33363913  0.23865094  0.56812456  1
  Ta  Ta1  1  0.66636087  0.26134906  0.06812456  1
  Ta  Ta2  1  0.66636087  0.76134906  0.43187544  1
  Ta  Ta3  1  0.33363913  0.73865094  0.93187544  1
  Cd  Cd4  1  0.17956623  0.28471759  0.97644872  1
  Cd  Cd5  1  0.82043377  0.21528241  0.47644872  1
  Cd  Cd6  1  0.82043377  0.71528241  0.02355128  1
  Cd  Cd7  1  0.17956623  0.78471759  0.52355128  1
  B  B8  1  0.93395296  0.99506793  0.77034103  1
  B  B9  1  0.06604704  0.50493207  0.27034103  1
  B  B10  1  0.06604704  0.00493207  0.22965897  1
  B  B11  1  0.93395296  0.49506793  0.72965897  1
  F  F12  1  0.02405043  0.90346364  0.68712510  1
  F  F13  1  0.97594957  0.59653636  0.18712510  1
  F  F14  1  0.97594957  0.09653636  0.31287490  1
  F  F15  1  0.02405043  0.40346364  0.81287490  1
  F  F16  1  0.83393216  0.90745459  0.86133377  1
  F  F17  1  0.16606784  0.59254541  0.36133377  1
  F  F18  1  0.16606784  0.09254541  0.13866623  1
  F  F19  1  0.83393216  0.40745459  0.63866623  1
  F  F20  1  0.83811553  0.07661022  0.68214003  1
  F  F21  1  0.16188447  0.42338978  0.18214003  1
  F  F22  1  0.16188447  0.92338978  0.31785997  1
  F  F23  1  0.83811553  0.57661022  0.81785997  1
  F  F24  1  0.03659828  0.09068625  0.85053992  1
  F  F25  1  0.96340172  0.40931375  0.35053992  1
  F  F26  1  0.96340172  0.90931375  0.14946008  1
  F  F27  1  0.03659828  0.59068625  0.64946008  1
  F  F28  1  0.35150858  0.44567783  0.57653491  1
  F  F29  1  0.64849142  0.05432217  0.07653491  1
  F  F30  1  0.64849142  0.55432217  0.42346509  1
  F  F31  1  0.35150858  0.94567783  0.92346509  1
  F  F32  1  0.31054496  0.02282500  0.57392275  1
  F  F33  1  0.68945504  0.47717500  0.07392275  1
  F  F34  1  0.68945504  0.97717500  0.42607725  1
  F  F35  1  0.31054496  0.52282500  0.92607725  1
  F  F36  1  0.10428830  0.23318936  0.55893272  1
  F  F37  1  0.89571170  0.26681064  0.05893272  1
  F  F38  1  0.89571170  0.76681064  0.44106728  1
  F  F39  1  0.10428830  0.73318936  0.94106728  1
  F  F40  1  0.56184630  0.22703690  0.57058163  1
  F  F41  1  0.43815370  0.27296310  0.07058163  1
  F  F42  1  0.43815370  0.77296310  0.42941837  1
  F  F43  1  0.56184630  0.72703690  0.92941837  1
  F  F44  1  0.33970445  0.23752850  0.37214016  1
  F  F45  1  0.66029555  0.26247150  0.87214016  1
  F  F46  1  0.66029555  0.76247150  0.62785984  1
  F  F47  1  0.33970445  0.73752850  0.12785984  1
  F  F48  1  0.31905564  0.23965308  0.77354629  1
  F  F49  1  0.68094436  0.26034692  0.27354629  1
  F  F50  1  0.68094436  0.76034692  0.22645371  1
  F  F51  1  0.31905564  0.73965308  0.72645371  1
