# generated using pymatgen
data_GdNb5Ag2O15
_symmetry_space_group_name_H-M   'P 1'
_cell_length_a   3.93781712
_cell_length_b   12.69885926
_cell_length_c   12.69885926
_cell_angle_alpha   90.00000000
_cell_angle_beta   90.00000000
_cell_angle_gamma   90.00000000
_symmetry_Int_Tables_number   1
_chemical_formula_structural   GdNb5Ag2O15
_chemical_formula_sum   'Gd2 Nb10 Ag4 O30'
_cell_volume   635.01643096
_cell_formula_units_Z   2
loop_
 _symmetry_equiv_pos_site_id
 _symmetry_equiv_pos_as_xyz
  1  'x, y, z'
loop_
 _atom_site_type_symbol
 _atom_site_label
 _atom_site_symmetry_multiplicity
 _atom_site_fract_x
 _atom_site_fract_y
 _atom_site_fract_z
 _atom_site_occupancy
  Gd  Gd0  1  0.50000000  0.00000000  0.00000000  1
  Gd  Gd1  1  0.50000000  0.50000000  0.50000000  1
  Nb  Nb2  1  -0.00000000  0.00000000  0.50000000  1
  Nb  Nb3  1  -0.00000000  0.50000000  0.00000000  1
  Nb  Nb4  1  0.00000000  0.07823041  0.21162818  1
  Nb  Nb5  1  -0.00000000  0.92176959  0.78837182  1
  Nb  Nb6  1  0.00000000  0.78837182  0.07823041  1
  Nb  Nb7  1  0.00000000  0.42176959  0.71162818  1
  Nb  Nb8  1  0.00000000  0.21162818  0.92176959  1
  Nb  Nb9  1  -0.00000000  0.57823041  0.28837182  1
  Nb  Nb10  1  0.00000000  0.71162818  0.57823041  1
  Nb  Nb11  1  0.00000000  0.28837182  0.42176959  1
  Ag  Ag12  1  0.50000000  0.17461770  0.67461770  1
  Ag  Ag13  1  0.50000000  0.82538230  0.32538230  1
  Ag  Ag14  1  0.50000000  0.32538230  0.17461770  1
  Ag  Ag15  1  0.50000000  0.67461770  0.82538230  1
  O  O16  1  0.50000000  0.08229765  0.18726157  1
  O  O17  1  0.50000000  0.91770235  0.81273843  1
  O  O18  1  0.50000000  0.81273843  0.08229765  1
  O  O19  1  0.50000000  0.41770235  0.68726157  1
  O  O20  1  0.50000000  0.18726157  0.91770235  1
  O  O21  1  0.50000000  0.58229765  0.31273843  1
  O  O22  1  0.50000000  0.68726157  0.58229765  1
  O  O23  1  0.50000000  0.31273843  0.41770235  1
  O  O24  1  -0.00000000  0.72596764  0.22596764  1
  O  O25  1  0.00000000  0.27403236  0.77403236  1
  O  O26  1  0.00000000  0.77403236  0.72596764  1
  O  O27  1  -0.00000000  0.22596764  0.27403236  1
  O  O28  1  0.50000000  0.00000000  0.50000000  1
  O  O29  1  0.50000000  0.50000000  0.00000000  1
  O  O30  1  -0.00000000  0.13083153  0.05548133  1
  O  O31  1  0.00000000  0.86916847  0.94451867  1
  O  O32  1  0.00000000  0.94451867  0.13083153  1
  O  O33  1  0.00000000  0.36916847  0.55548133  1
  O  O34  1  0.00000000  0.05548133  0.86916847  1
  O  O35  1  -0.00000000  0.63083153  0.44451867  1
  O  O36  1  0.00000000  0.55548133  0.63083153  1
  O  O37  1  0.00000000  0.44451867  0.36916847  1
  O  O38  1  0.00000000  -0.00004419  0.34114085  1
  O  O39  1  -0.00000000  0.00004419  0.65885915  1
  O  O40  1  0.00000000  0.65885915  -0.00004419  1
  O  O41  1  -0.00000000  0.50004419  0.84114085  1
  O  O42  1  0.00000000  0.34114085  0.00004419  1
  O  O43  1  0.00000000  0.49995581  0.15885915  1
  O  O44  1  -0.00000000  0.84114085  0.49995581  1
  O  O45  1  0.00000000  0.15885915  0.50004419  1
