# generated using pymatgen
data_CsBr2F7
_symmetry_space_group_name_H-M   'P 1'
_cell_length_a   7.92517214
_cell_length_b   8.33694443
_cell_length_c   12.34708367
_cell_angle_alpha   90.00000000
_cell_angle_beta   90.61540603
_cell_angle_gamma   90.00000000
_symmetry_Int_Tables_number   1
_chemical_formula_structural   CsBr2F7
_chemical_formula_sum   'Cs4 Br8 F28'
_cell_volume   815.74599416
_cell_formula_units_Z   4
loop_
 _symmetry_equiv_pos_site_id
 _symmetry_equiv_pos_as_xyz
  1  'x, y, z'
loop_
 _atom_site_type_symbol
 _atom_site_label
 _atom_site_symmetry_multiplicity
 _atom_site_fract_x
 _atom_site_fract_y
 _atom_site_fract_z
 _atom_site_occupancy
  Cs  Cs0  1  0.56940054  0.08177522  0.69083744  1
  Cs  Cs1  1  0.93059946  0.58177522  0.80916256  1
  Cs  Cs2  1  0.43059946  0.91822478  0.30916256  1
  Cs  Cs3  1  0.06940054  0.41822478  0.19083744  1
  Br  Br4  1  0.11946833  0.07730703  0.87930610  1
  Br  Br5  1  0.38053167  0.57730703  0.62069390  1
  Br  Br6  1  0.88053167  0.92269297  0.12069390  1
  Br  Br7  1  0.61946833  0.42269297  0.37930610  1
  Br  Br8  1  0.53473050  0.27735676  0.01699605  1
  Br  Br9  1  0.96526950  0.77735676  0.48300395  1
  Br  Br10  1  0.46526950  0.72264324  0.98300395  1
  Br  Br11  1  0.03473050  0.22264324  0.51699605  1
  F  F12  1  0.18514958  0.89103327  0.80198933  1
  F  F13  1  0.31485042  0.39103327  0.69801067  1
  F  F14  1  0.81485042  0.10896673  0.19801067  1
  F  F15  1  0.68514958  0.60896673  0.30198933  1
  F  F16  1  0.04258413  0.26499837  0.95488250  1
  F  F17  1  0.45741587  0.76499837  0.54511750  1
  F  F18  1  0.95741587  0.73500163  0.04511750  1
  F  F19  1  0.54258413  0.23500163  0.45488250  1
  F  F20  1  0.89823420  0.02717532  0.84667444  1
  F  F21  1  0.60176580  0.52717532  0.65332556  1
  F  F22  1  0.10176580  0.97282468  0.15332556  1
  F  F23  1  0.39823420  0.47282468  0.34667444  1
  F  F24  1  0.37984933  0.12162764  0.91801568  1
  F  F25  1  0.12015067  0.62162764  0.58198432  1
  F  F26  1  0.62015067  0.87837236  0.08198432  1
  F  F27  1  0.87984933  0.37837236  0.41801568  1
  F  F28  1  0.42417338  0.22517560  0.14962674  1
  F  F29  1  0.07582662  0.72517560  0.35037326  1
  F  F30  1  0.57582662  0.77482440  0.85037326  1
  F  F31  1  0.92417338  0.27482440  0.64962674  1
  F  F32  1  0.67651041  0.41008590  0.09367140  1
  F  F33  1  0.82348959  0.91008590  0.40632860  1
  F  F34  1  0.32348959  0.58991410  0.90632860  1
  F  F35  1  0.17651041  0.08991410  0.59367140  1
  F  F36  1  0.65274651  0.33938174  0.88989371  1
  F  F37  1  0.84725349  0.83938174  0.61010629  1
  F  F38  1  0.34725349  0.66061826  0.11010629  1
  F  F39  1  0.15274651  0.16061826  0.38989371  1
