# generated using pymatgen
data_Cs4U(Ge2O5)4
_symmetry_space_group_name_H-M   'P 1'
_cell_length_a   7.56351697
_cell_length_b   12.43998768
_cell_length_c   12.52889981
_cell_angle_alpha   90.00000000
_cell_angle_beta   90.00000000
_cell_angle_gamma   90.29856719
_symmetry_Int_Tables_number   1
_chemical_formula_structural   Cs4U(Ge2O5)4
_chemical_formula_sum   'Cs8 U2 Ge16 O40'
_cell_volume   1178.82890421
_cell_formula_units_Z   2
loop_
 _symmetry_equiv_pos_site_id
 _symmetry_equiv_pos_as_xyz
  1  'x, y, z'
loop_
 _atom_site_type_symbol
 _atom_site_label
 _atom_site_symmetry_multiplicity
 _atom_site_fract_x
 _atom_site_fract_y
 _atom_site_fract_z
 _atom_site_occupancy
  Cs  Cs0  1  0.49947246  0.83372730  0.57666958  1
  Cs  Cs1  1  0.99947246  0.33372730  0.92333042  1
  Cs  Cs2  1  0.50052754  0.16627270  0.42333042  1
  Cs  Cs3  1  0.00052754  0.66627270  0.07666958  1
  Cs  Cs4  1  0.01289073  0.32106190  0.55911709  1
  Cs  Cs5  1  0.51289073  0.82106190  0.94088291  1
  Cs  Cs6  1  0.98710927  0.67893810  0.44088291  1
  Cs  Cs7  1  0.48710927  0.17893810  0.05911709  1
  U  U8  1  0.50000000  0.50000000  0.50000000  1
  U  U9  1  0.00000000  0.00000000  -0.00000000  1
  Ge  Ge10  1  0.53242052  0.49729070  0.89138052  1
  Ge  Ge11  1  0.03242052  0.99729070  0.60861948  1
  Ge  Ge12  1  0.46757948  0.50270930  0.10861948  1
  Ge  Ge13  1  0.96757948  0.00270930  0.39138052  1
  Ge  Ge14  1  0.78222306  0.42618730  0.26499760  1
  Ge  Ge15  1  0.28222306  0.92618730  0.23500240  1
  Ge  Ge16  1  0.21777694  0.57381270  0.73500240  1
  Ge  Ge17  1  0.71777694  0.07381270  0.76499760  1
  Ge  Ge18  1  0.80336860  0.60008460  0.72885164  1
  Ge  Ge19  1  0.30336860  0.10008460  0.77114836  1
  Ge  Ge20  1  0.19663140  0.39991540  0.27114836  1
  Ge  Ge21  1  0.69663140  0.89991540  0.22885164  1
  Ge  Ge22  1  0.55282182  0.30456667  0.72292941  1
  Ge  Ge23  1  0.05282182  0.80456667  0.77707059  1
  Ge  Ge24  1  0.44717818  0.69543333  0.27707059  1
  Ge  Ge25  1  0.94717818  0.19543333  0.22292941  1
  O  O26  1  0.66185636  0.40232135  0.80014798  1
  O  O27  1  0.16185636  0.90232135  0.69985202  1
  O  O28  1  0.33814364  0.59767865  0.19985202  1
  O  O29  1  0.83814364  0.09767865  0.30014798  1
  O  O30  1  0.66633835  0.52250780  0.18936049  1
  O  O31  1  0.16633835  0.02250780  0.31063951  1
  O  O32  1  0.33366165  0.47749220  0.81063951  1
  O  O33  1  0.83366165  0.97749220  0.68936049  1
  O  O34  1  0.67510650  0.60962556  0.84724768  1
  O  O35  1  0.17510650  0.10962556  0.65275232  1
  O  O36  1  0.32489350  0.39037444  0.15275232  1
  O  O37  1  0.82489350  0.89037444  0.34724768  1
  O  O38  1  0.57991293  0.41313413  0.00566150  1
  O  O39  1  0.07991293  0.91313413  0.49433850  1
  O  O40  1  0.42008707  0.58686587  0.99433850  1
  O  O41  1  0.92008707  0.08686587  0.50566150  1
  O  O42  1  0.72532732  0.20406756  0.70437211  1
  O  O43  1  0.22532732  0.70406756  0.79562789  1
  O  O44  1  0.27467268  0.79593244  0.29562789  1
  O  O45  1  0.77467268  0.29593244  0.20437211  1
  O  O46  1  0.00313388  0.47981035  0.25102781  1
  O  O47  1  0.50313388  0.97981035  0.24897219  1
  O  O48  1  0.99686612  0.52018965  0.74897219  1
  O  O49  1  0.49686612  0.02018965  0.75102781  1
  O  O50  1  0.71807132  0.42593713  0.39954918  1
  O  O51  1  0.21807132  0.92593713  0.10045082  1
  O  O52  1  0.28192868  0.57406287  0.60045082  1
  O  O53  1  0.78192868  0.07406287  0.89954918  1
  O  O54  1  0.37946966  0.23612357  0.79455332  1
  O  O55  1  0.87946966  0.73612357  0.70544668  1
  O  O56  1  0.62053034  0.76387643  0.20544668  1
  O  O57  1  0.12053034  0.26387643  0.29455332  1
  O  O58  1  0.69739998  0.56900802  0.60840216  1
  O  O59  1  0.19739998  0.06900802  0.89159784  1
  O  O60  1  0.30260002  0.43099198  0.39159784  1
  O  O61  1  0.80260002  0.93099198  0.10840216  1
  O  O62  1  0.48865535  0.34780359  0.59512818  1
  O  O63  1  0.98865535  0.84780359  0.90487182  1
  O  O64  1  0.51134465  0.65219641  0.40487182  1
  O  O65  1  0.01134465  0.15219641  0.09512818  1
