# generated using pymatgen
data_Be2NiH20N2(O3F4)2
_symmetry_space_group_name_H-M   'P 1'
_cell_length_a   6.28448567
_cell_length_b   9.32309293
_cell_length_c   12.66665654
_cell_angle_alpha   90.00000000
_cell_angle_beta   90.00000000
_cell_angle_gamma   106.97855061
_symmetry_Int_Tables_number   1
_chemical_formula_structural   Be2NiH20N2(O3F4)2
_chemical_formula_sum   'Be4 Ni2 H40 N4 O12 F16'
_cell_volume   709.80284752
_cell_formula_units_Z   2
loop_
 _symmetry_equiv_pos_site_id
 _symmetry_equiv_pos_as_xyz
  1  'x, y, z'
loop_
 _atom_site_type_symbol
 _atom_site_label
 _atom_site_symmetry_multiplicity
 _atom_site_fract_x
 _atom_site_fract_y
 _atom_site_fract_z
 _atom_site_occupancy
  Be  Be0  1  0.74573130  0.90230232  0.35267046  1
  Be  Be1  1  0.25426870  0.59769768  0.85267046  1
  Be  Be2  1  0.25426870  0.09769768  0.64732954  1
  Be  Be3  1  0.74573130  0.40230232  0.14732954  1
  Ni  Ni4  1  0.00000000  0.50000000  0.50000000  1
  Ni  Ni5  1  0.00000000  0.00000000  0.00000000  1
  H  H6  1  0.22238449  0.55081282  0.16418785  1
  H  H7  1  0.77761551  0.94918718  0.66418785  1
  H  H8  1  0.77761551  0.44918718  0.83581215  1
  H  H9  1  0.22238449  0.05081282  0.33581215  1
  H  H10  1  0.41873573  0.71780561  0.19402096  1
  H  H11  1  0.58126427  0.78219439  0.69402096  1
  H  H12  1  0.58126427  0.28219439  0.80597904  1
  H  H13  1  0.41873573  0.21780561  0.30597904  1
  H  H14  1  0.49827993  0.57772900  0.13908630  1
  H  H15  1  0.50172007  0.92227100  0.63908630  1
  H  H16  1  0.50172007  0.42227100  0.86091370  1
  H  H17  1  0.49827993  0.07772900  0.36091370  1
  H  H18  1  0.35547655  0.66779345  0.06654100  1
  H  H19  1  0.64452345  0.83220655  0.56654100  1
  H  H20  1  0.64452345  0.33220655  0.93345900  1
  H  H21  1  0.35547655  0.16779345  0.43345900  1
  H  H22  1  0.34223898  0.70980309  0.40938296  1
  H  H23  1  0.65776102  0.79019691  0.90938296  1
  H  H24  1  0.65776102  0.29019691  0.59061704  1
  H  H25  1  0.34223898  0.20980309  0.09061704  1
  H  H26  1  0.12081769  0.74758563  0.37327473  1
  H  H27  1  0.87918231  0.75241437  0.87327473  1
  H  H28  1  0.87918231  0.25241437  0.62672527  1
  H  H29  1  0.12081769  0.24758563  0.12672527  1
  H  H30  1  0.92427928  0.23249079  0.40021012  1
  H  H31  1  0.07572072  0.26750921  0.90021012  1
  H  H32  1  0.07572072  0.76750921  0.59978988  1
  H  H33  1  0.92427928  0.73249079  0.09978988  1
  H  H34  1  0.01286256  0.36234285  0.31691527  1
  H  H35  1  0.98713744  0.13765715  0.81691527  1
  H  H36  1  0.98713744  0.63765715  0.68308473  1
  H  H37  1  0.01286256  0.86234285  0.18308473  1
  H  H38  1  0.32723063  0.39715160  0.56318952  1
  H  H39  1  0.67276937  0.10284840  0.06318952  1
  H  H40  1  0.67276937  0.60284840  0.43681048  1
  H  H41  1  0.32723063  0.89715160  0.93681048  1
  H  H42  1  0.32714934  0.53192814  0.64123023  1
  H  H43  1  0.67285066  0.96807186  0.14123023  1
  H  H44  1  0.67285066  0.46807186  0.35876977  1
  H  H45  1  0.32714934  0.03192814  0.85876977  1
  N  N46  1  0.37100893  0.62767160  0.14194248  1
  N  N47  1  0.62899107  0.87232840  0.64194248  1
  N  N48  1  0.62899107  0.37232840  0.85805752  1
  N  N49  1  0.37100893  0.12767160  0.35805752  1
  O  O50  1  0.18287143  0.66554524  0.39219969  1
  O  O51  1  0.81712857  0.83445476  0.89219969  1
  O  O52  1  0.81712857  0.33445476  0.60780031  1
  O  O53  1  0.18287143  0.16554524  0.10780031  1
  O  O54  1  0.02698758  0.33543098  0.39158704  1
  O  O55  1  0.97301242  0.16456902  0.89158704  1
  O  O56  1  0.97301242  0.66456902  0.60841296  1
  O  O57  1  0.02698758  0.83543098  0.10841296  1
  O  O58  1  0.28982477  0.49293321  0.56859284  1
  O  O59  1  0.71017523  0.00706679  0.06859284  1
  O  O60  1  0.71017523  0.50706679  0.43140716  1
  O  O61  1  0.28982477  0.99293321  0.93140716  1
  F  F62  1  0.58776388  0.88388474  0.25440550  1
  F  F63  1  0.41223612  0.61611526  0.75440550  1
  F  F64  1  0.41223612  0.11611526  0.74559450  1
  F  F65  1  0.58776388  0.38388474  0.24559450  1
  F  F66  1  0.76281629  0.05583330  0.40503694  1
  F  F67  1  0.23718371  0.44416670  0.90503694  1
  F  F68  1  0.23718371  0.94416670  0.59496306  1
  F  F69  1  0.76281629  0.55583330  0.09496306  1
  F  F70  1  0.62964875  0.77311821  0.43314030  1
  F  F71  1  0.37035125  0.72688179  0.93314030  1
  F  F72  1  0.37035125  0.22688179  0.56685970  1
  F  F73  1  0.62964875  0.27311821  0.06685970  1
  F  F74  1  0.98085055  0.88861370  0.31950828  1
  F  F75  1  0.01914945  0.61138630  0.81950828  1
  F  F76  1  0.01914945  0.11138630  0.68049172  1
  F  F77  1  0.98085055  0.38861370  0.18049172  1
