# generated using pymatgen
data_Rb2Cu3(P2O7)2
_symmetry_space_group_name_H-M   'P 1'
_cell_length_a   7.82883347
_cell_length_b   7.90874192
_cell_length_c   10.77967059
_cell_angle_alpha   90.00000000
_cell_angle_beta   90.00000000
_cell_angle_gamma   104.02935705
_symmetry_Int_Tables_number   1
_chemical_formula_structural   Rb2Cu3(P2O7)2
_chemical_formula_sum   'Rb4 Cu6 P8 O28'
_cell_volume   647.52795937
_cell_formula_units_Z   2
loop_
 _symmetry_equiv_pos_site_id
 _symmetry_equiv_pos_as_xyz
  1  'x, y, z'
loop_
 _atom_site_type_symbol
 _atom_site_label
 _atom_site_symmetry_multiplicity
 _atom_site_fract_x
 _atom_site_fract_y
 _atom_site_fract_z
 _atom_site_occupancy
  Rb  Rb0  1  0.26128970  0.95406147  0.31051973  1
  Rb  Rb1  1  0.73871030  0.54593853  0.81051973  1
  Rb  Rb2  1  0.73871030  0.04593853  0.68948027  1
  Rb  Rb3  1  0.26128970  0.45406147  0.18948027  1
  Cu  Cu4  1  -0.00000000  0.50000000  0.50000000  1
  Cu  Cu5  1  -0.00000000  -0.00000000  0.00000000  1
  Cu  Cu6  1  0.72900745  0.73081102  0.39787593  1
  Cu  Cu7  1  0.27099255  0.76918898  0.89787593  1
  Cu  Cu8  1  0.27099255  0.26918898  0.60212407  1
  Cu  Cu9  1  0.72900745  0.23081102  0.10212407  1
  P  P10  1  0.38214323  0.66424004  0.55180099  1
  P  P11  1  0.61785677  0.83575996  0.05180099  1
  P  P12  1  0.61785677  0.33575996  0.44819901  1
  P  P13  1  0.38214323  0.16424004  0.94819901  1
  P  P14  1  0.12065905  0.84360458  0.66020804  1
  P  P15  1  0.87934095  0.65639542  0.16020804  1
  P  P16  1  0.87934095  0.15639542  0.33979196  1
  P  P17  1  0.12065905  0.34360458  0.83979196  1
  O  O18  1  0.58316856  0.48994258  0.37487527  1
  O  O19  1  0.41683144  0.01005742  0.87487527  1
  O  O20  1  0.41683144  0.51005742  0.62512473  1
  O  O21  1  0.58316856  0.98994258  0.12512473  1
  O  O22  1  0.97651959  0.70877448  0.59166496  1
  O  O23  1  0.02348041  0.79122552  0.09166496  1
  O  O24  1  0.02348041  0.29122552  0.40833504  1
  O  O25  1  0.97651959  0.20877448  0.90833504  1
  O  O26  1  0.55172140  0.79016099  0.50657475  1
  O  O27  1  0.44827860  0.70983901  0.00657475  1
  O  O28  1  0.44827860  0.20983901  0.49342525  1
  O  O29  1  0.55172140  0.29016099  0.99342525  1
  O  O30  1  0.91682389  0.66233821  0.30102325  1
  O  O31  1  0.08317611  0.83766179  0.80102325  1
  O  O32  1  0.08317611  0.33766179  0.69897675  1
  O  O33  1  0.91682389  0.16233821  0.19897675  1
  O  O34  1  0.30654207  0.78274638  0.65242831  1
  O  O35  1  0.69345793  0.71725362  0.15242831  1
  O  O36  1  0.69345793  0.21725362  0.34757169  1
  O  O37  1  0.30654207  0.28274638  0.84757169  1
  O  O38  1  0.14417084  0.02200062  0.60123660  1
  O  O39  1  0.85582916  0.47799938  0.10123660  1
  O  O40  1  0.85582916  0.97799938  0.39876340  1
  O  O41  1  0.14417084  0.52200062  0.89876340  1
  O  O42  1  0.24212614  0.61590154  0.44888697  1
  O  O43  1  0.75787386  0.88409846  0.94888697  1
  O  O44  1  0.75787386  0.38409846  0.55111303  1
  O  O45  1  0.24212614  0.11590154  0.05111303  1
