# generated using pymatgen
data_Cs5FeO4
_symmetry_space_group_name_H-M   'P 1'
_cell_length_a   7.41836113
_cell_length_b   11.54966583
_cell_length_c   13.08443663
_cell_angle_alpha   90.00000000
_cell_angle_beta   90.00000000
_cell_angle_gamma   98.96038290
_symmetry_Int_Tables_number   1
_chemical_formula_structural   Cs5FeO4
_chemical_formula_sum   'Cs20 Fe4 O16'
_cell_volume   1107.38796846
_cell_formula_units_Z   4
loop_
 _symmetry_equiv_pos_site_id
 _symmetry_equiv_pos_as_xyz
  1  'x, y, z'
loop_
 _atom_site_type_symbol
 _atom_site_label
 _atom_site_symmetry_multiplicity
 _atom_site_fract_x
 _atom_site_fract_y
 _atom_site_fract_z
 _atom_site_occupancy
  Cs  Cs0  1  0.99215872  0.23442446  0.29763148  1
  Cs  Cs1  1  0.50784128  0.76557554  0.79763148  1
  Cs  Cs2  1  0.00784128  0.76557554  0.70236852  1
  Cs  Cs3  1  0.49215872  0.23442446  0.20236852  1
  Cs  Cs4  1  0.83776857  0.14895068  0.82524370  1
  Cs  Cs5  1  0.66223143  0.85104932  0.32524370  1
  Cs  Cs6  1  0.16223143  0.85104932  0.17475630  1
  Cs  Cs7  1  0.33776857  0.14895068  0.67475630  1
  Cs  Cs8  1  0.55039174  0.36755109  0.92947362  1
  Cs  Cs9  1  0.94960826  0.63244891  0.42947362  1
  Cs  Cs10  1  0.44960826  0.63244891  0.07052638  1
  Cs  Cs11  1  0.05039174  0.36755109  0.57052638  1
  Cs  Cs12  1  0.76208631  0.00738897  0.07459403  1
  Cs  Cs13  1  0.73791369  0.99261103  0.57459403  1
  Cs  Cs14  1  0.23791369  0.99261103  0.92540597  1
  Cs  Cs15  1  0.26208631  0.00738897  0.42540597  1
  Cs  Cs16  1  0.92559366  0.50348328  0.13501440  1
  Cs  Cs17  1  0.57440634  0.49651672  0.63501440  1
  Cs  Cs18  1  0.07440634  0.49651672  0.86498560  1
  Cs  Cs19  1  0.42559366  0.50348328  0.36498560  1
  Fe  Fe20  1  0.61292720  0.25365358  0.46849695  1
  Fe  Fe21  1  0.88707280  0.74634642  0.96849695  1
  Fe  Fe22  1  0.38707280  0.74634642  0.53150305  1
  Fe  Fe23  1  0.11292720  0.25365358  0.03150305  1
  O  O24  1  0.81501344  0.75955913  0.11103636  1
  O  O25  1  0.68498656  0.24044087  0.61103636  1
  O  O26  1  0.18498656  0.24044087  0.88896364  1
  O  O27  1  0.31501344  0.75955913  0.38896364  1
  O  O28  1  0.64589566  0.11208854  0.39407507  1
  O  O29  1  0.85410434  0.88791146  0.89407507  1
  O  O30  1  0.35410434  0.88791146  0.60592493  1
  O  O31  1  0.14589566  0.11208854  0.10592493  1
  O  O32  1  0.75644739  0.39030701  0.40607650  1
  O  O33  1  0.74355261  0.60969299  0.90607650  1
  O  O34  1  0.24355261  0.60969299  0.59392350  1
  O  O35  1  0.25644739  0.39030701  0.09392350  1
  O  O36  1  0.85624312  0.27157791  0.03226456  1
  O  O37  1  0.64375688  0.72842209  0.53226456  1
  O  O38  1  0.14375688  0.72842209  0.96773544  1
  O  O39  1  0.35624312  0.27157791  0.46773544  1
