# generated using pymatgen
data_K2Na2Sm4Ta2O13
_symmetry_space_group_name_H-M   'P 1'
_cell_length_a   5.72043411
_cell_length_b   11.32647579
_cell_length_c   12.54388594
_cell_angle_alpha   115.67780249
_cell_angle_beta   103.18033991
_cell_angle_gamma   90.00000000
_symmetry_Int_Tables_number   1
_chemical_formula_structural   K2Na2Sm4Ta2O13
_chemical_formula_sum   'K4 Na4 Sm8 Ta4 O26'
_cell_volume   708.65415053
_cell_formula_units_Z   2
loop_
 _symmetry_equiv_pos_site_id
 _symmetry_equiv_pos_as_xyz
  1  'x, y, z'
loop_
 _atom_site_type_symbol
 _atom_site_label
 _atom_site_symmetry_multiplicity
 _atom_site_fract_x
 _atom_site_fract_y
 _atom_site_fract_z
 _atom_site_occupancy
  K  K0  1  0.19961962  0.86732165  0.50159975  1
  K  K1  1  0.69801987  0.63267835  0.49840025  1
  K  K2  1  0.80038038  0.13267835  0.49840025  1
  K  K3  1  0.30198013  0.36732165  0.50159975  1
  Na  Na4  1  0.12266196  0.52361285  0.31850689  1
  Na  Na5  1  0.80415507  0.97638715  0.68149311  1
  Na  Na6  1  0.87733804  0.47638715  0.68149311  1
  Na  Na7  1  0.19584493  0.02361285  0.31850689  1
  Sm  Sm8  1  0.39142966  0.04999423  0.87421178  1
  Sm  Sm9  1  0.51721788  0.45000577  0.12578822  1
  Sm  Sm10  1  0.60857034  0.95000577  0.12578822  1
  Sm  Sm11  1  0.48278212  0.54999423  0.87421178  1
  Sm  Sm12  1  0.02588169  0.67205176  0.12511479  1
  Sm  Sm13  1  0.90076690  0.82794824  0.87488521  1
  Sm  Sm14  1  0.97411831  0.32794824  0.87488521  1
  Sm  Sm15  1  0.09923310  0.17205176  0.12511479  1
  Ta  Ta16  1  0.31616118  0.71775394  0.69875282  1
  Ta  Ta17  1  0.61740836  0.78224606  0.30124718  1
  Ta  Ta18  1  0.68383882  0.28224606  0.30124718  1
  Ta  Ta19  1  0.38259164  0.21775394  0.69875282  1
  O  O20  1  0.09498661  0.85933876  0.73671033  1
  O  O21  1  0.35827628  0.64066124  0.26328967  1
  O  O22  1  0.90501339  0.14066124  0.26328967  1
  O  O23  1  0.64172372  0.35933876  0.73671033  1
  O  O24  1  0.14078631  0.12291329  0.73072658  1
  O  O25  1  0.41005974  0.37708671  0.26927342  1
  O  O26  1  0.85921369  0.87708671  0.26927342  1
  O  O27  1  0.58994026  0.62291329  0.73072658  1
  O  O28  1  0.82087108  0.63820572  0.26014963  1
  O  O29  1  0.56072145  0.86179428  0.73985037  1
  O  O30  1  0.17912892  0.36179428  0.73985037  1
  O  O31  1  0.43927855  0.13820572  0.26014963  1
  O  O32  1  0.20253746  0.62440973  0.53009514  1
  O  O33  1  0.67244232  0.87559027  0.46990486  1
  O  O34  1  0.79746254  0.37559027  0.46990486  1
  O  O35  1  0.32755768  0.12440973  0.53009514  1
  O  O36  1  0.75907467  0.75000000  1.00000000  1
  O  O37  1  0.24092533  0.25000000  0.00000000  1
  O  O38  1  0.62904475  0.15956353  0.79772691  1
  O  O39  1  0.83131784  0.34043647  0.20227309  1
  O  O40  1  0.37095525  0.84043647  0.20227309  1
  O  O41  1  0.16868216  0.65956353  0.79772691  1
  O  O42  1  0.24957212  0.97716178  0.00228934  1
  O  O43  1  0.24728278  0.52283822  0.99771066  1
  O  O44  1  0.75042788  0.02283822  0.99771066  1
  O  O45  1  0.75271722  0.47716178  0.00228934  1
