# generated using pymatgen
data_Gd2Re3Si5
_symmetry_space_group_name_H-M   'P 1'
_cell_length_a   5.58165514
_cell_length_b   10.98685251
_cell_length_c   10.98685251
_cell_angle_alpha   90.00000000
_cell_angle_beta   90.00000000
_cell_angle_gamma   90.00000000
_symmetry_Int_Tables_number   1
_chemical_formula_structural   Gd2Re3Si5
_chemical_formula_sum   'Gd8 Re12 Si20'
_cell_volume   673.76677215
_cell_formula_units_Z   4
loop_
 _symmetry_equiv_pos_site_id
 _symmetry_equiv_pos_as_xyz
  1  'x, y, z'
loop_
 _atom_site_type_symbol
 _atom_site_label
 _atom_site_symmetry_multiplicity
 _atom_site_fract_x
 _atom_site_fract_y
 _atom_site_fract_z
 _atom_site_occupancy
  Gd  Gd0  1  0.50000000  0.92255848  0.76247329  1
  Gd  Gd1  1  0.50000000  0.07744152  0.23752671  1
  Gd  Gd2  1  0.00000000  0.57744152  0.26247329  1
  Gd  Gd3  1  0.00000000  0.42255848  0.73752671  1
  Gd  Gd4  1  0.50000000  0.76247329  0.07744152  1
  Gd  Gd5  1  0.50000000  0.23752671  0.92255848  1
  Gd  Gd6  1  0.00000000  0.26247329  0.42255848  1
  Gd  Gd7  1  0.00000000  0.73752671  0.57744152  1
  Re  Re8  1  0.50000000  0.62332518  0.64686813  1
  Re  Re9  1  0.50000000  0.37667482  0.35313187  1
  Re  Re10  1  0.00000000  0.87667482  0.14686813  1
  Re  Re11  1  0.00000000  0.12332518  0.85313187  1
  Re  Re12  1  0.50000000  0.64686813  0.37667482  1
  Re  Re13  1  0.50000000  0.35313187  0.62332518  1
  Re  Re14  1  0.00000000  0.14686813  0.12332518  1
  Re  Re15  1  0.00000000  0.85313187  0.87667482  1
  Re  Re16  1  0.25000000  -0.00000000  0.50000000  1
  Re  Re17  1  0.75000000  0.50000000  0.00000000  1
  Re  Re18  1  0.25000000  0.50000000  0.00000000  1
  Re  Re19  1  0.75000000  -0.00000000  0.50000000  1
  Si  Si20  1  0.50000000  0.81490420  0.52697615  1
  Si  Si21  1  0.50000000  0.18509580  0.47302385  1
  Si  Si22  1  0.00000000  0.68509580  0.02697615  1
  Si  Si23  1  0.00000000  0.31490420  0.97302385  1
  Si  Si24  1  0.50000000  0.52697615  0.18509580  1
  Si  Si25  1  0.50000000  0.47302385  0.81490420  1
  Si  Si26  1  0.00000000  0.02697615  0.31490420  1
  Si  Si27  1  0.00000000  0.97302385  0.68509580  1
  Si  Si28  1  0.25000000  0.17195675  0.67195675  1
  Si  Si29  1  0.25000000  0.82804325  0.32804325  1
  Si  Si30  1  0.75000000  0.32804325  0.17195675  1
  Si  Si31  1  0.75000000  0.67195675  0.82804325  1
  Si  Si32  1  0.25000000  0.67195675  0.82804325  1
  Si  Si33  1  0.25000000  0.32804325  0.17195675  1
  Si  Si34  1  0.75000000  0.17195675  0.67195675  1
  Si  Si35  1  0.75000000  0.82804325  0.32804325  1
  Si  Si36  1  0.24399836  0.50000000  0.50000000  1
  Si  Si37  1  0.74399836  -0.00000000  0.00000000  1
  Si  Si38  1  0.75600164  0.50000000  0.50000000  1
  Si  Si39  1  0.25600164  -0.00000000  0.00000000  1
