# generated using pymatgen
data_GePb2(SeO3)4
_symmetry_space_group_name_H-M   'P 1'
_cell_length_a   6.76755497
_cell_length_b   9.15032024
_cell_length_c   9.47691161
_cell_angle_alpha   96.47042089
_cell_angle_beta   90.00000000
_cell_angle_gamma   90.00000000
_symmetry_Int_Tables_number   1
_chemical_formula_structural   GePb2(SeO3)4
_chemical_formula_sum   'Ge2 Pb4 Se8 O24'
_cell_volume   583.12234437
_cell_formula_units_Z   2
loop_
 _symmetry_equiv_pos_site_id
 _symmetry_equiv_pos_as_xyz
  1  'x, y, z'
loop_
 _atom_site_type_symbol
 _atom_site_label
 _atom_site_symmetry_multiplicity
 _atom_site_fract_x
 _atom_site_fract_y
 _atom_site_fract_z
 _atom_site_occupancy
  Ge  Ge0  1  0.50000000  -0.00000000  -0.00000000  1
  Ge  Ge1  1  -0.00000000  -0.00000000  0.50000000  1
  Pb  Pb2  1  0.73674325  0.53736163  0.90366114  1
  Pb  Pb3  1  0.23674325  0.46263837  0.59633886  1
  Pb  Pb4  1  0.26325675  0.46263837  0.09633886  1
  Pb  Pb5  1  0.76325675  0.53736163  0.40366114  1
  Se  Se6  1  0.68813878  0.84006509  0.70572557  1
  Se  Se7  1  0.18813878  0.15993491  0.79427443  1
  Se  Se8  1  0.31186122  0.15993491  0.29427443  1
  Se  Se9  1  0.81186122  0.84006509  0.20572557  1
  Se  Se10  1  0.68737534  0.23839056  0.63118427  1
  Se  Se11  1  0.18737534  0.76160944  0.86881573  1
  Se  Se12  1  0.31262466  0.76160944  0.36881573  1
  Se  Se13  1  0.81262466  0.23839056  0.13118427  1
  O  O14  1  0.88141760  0.96711036  0.67669225  1
  O  O15  1  0.38141760  0.03288964  0.82330775  1
  O  O16  1  0.11858240  0.03288964  0.32330775  1
  O  O17  1  0.61858240  0.96711036  0.17669225  1
  O  O18  1  0.69275128  0.87117245  0.89328906  1
  O  O19  1  0.19275128  0.12882755  0.60671094  1
  O  O20  1  0.30724872  0.12882755  0.10671094  1
  O  O21  1  0.80724872  0.87117245  0.39328906  1
  O  O22  1  0.80856462  0.67587672  0.68659829  1
  O  O23  1  0.30856462  0.32412328  0.81340171  1
  O  O24  1  0.19143538  0.32412328  0.31340171  1
  O  O25  1  0.69143538  0.67587672  0.18659829  1
  O  O26  1  0.86059741  0.34669485  0.72528223  1
  O  O27  1  0.36059741  0.65330515  0.77471777  1
  O  O28  1  0.13940259  0.65330515  0.27471777  1
  O  O29  1  0.63940259  0.34669485  0.22528223  1
  O  O30  1  0.56053103  0.37051783  0.54769264  1
  O  O31  1  0.06053103  0.62948217  0.95230736  1
  O  O32  1  0.43946897  0.62948217  0.45230736  1
  O  O33  1  0.93946897  0.37051783  0.04769264  1
  O  O34  1  0.83097069  0.16789479  0.48331674  1
  O  O35  1  0.33097069  0.83210521  0.01668326  1
  O  O36  1  0.16902931  0.83210521  0.51668326  1
  O  O37  1  0.66902931  0.16789479  0.98331674  1
