# generated using pymatgen
data_GaPH9C3Cl3O
_symmetry_space_group_name_H-M   'P 1'
_cell_length_a   6.92883725
_cell_length_b   6.92883725
_cell_length_c   13.04399331
_cell_angle_alpha   99.01474526
_cell_angle_beta   99.01474526
_cell_angle_gamma   103.22740542
_symmetry_Int_Tables_number   1
_chemical_formula_structural   GaPH9C3Cl3O
_chemical_formula_sum   'Ga2 P2 H18 C6 Cl6 O2'
_cell_volume   589.88548925
_cell_formula_units_Z   2
loop_
 _symmetry_equiv_pos_site_id
 _symmetry_equiv_pos_as_xyz
  1  'x, y, z'
loop_
 _atom_site_type_symbol
 _atom_site_label
 _atom_site_symmetry_multiplicity
 _atom_site_fract_x
 _atom_site_fract_y
 _atom_site_fract_z
 _atom_site_occupancy
  Ga  Ga0  1  0.45838105  0.95569478  0.48630016  1
  Ga  Ga1  1  0.95569478  0.45838105  0.98630016  1
  P  P2  1  0.27658954  0.76429034  0.67809588  1
  P  P3  1  0.76429034  0.27658954  0.17809588  1
  H  H4  1  0.13100212  0.45209770  0.55296208  1
  H  H5  1  0.45209770  0.13100212  0.05296208  1
  H  H6  1  0.06270954  0.43829106  0.67864980  1
  H  H7  1  0.43829106  0.06270954  0.17864980  1
  H  H8  1  0.94103510  0.56943962  0.59148804  1
  H  H9  1  0.56943962  0.94103510  0.09148804  1
  H  H10  1  0.60725508  0.83554715  0.78686553  1
  H  H11  1  0.83554715  0.60725508  0.28686553  1
  H  H12  1  0.45620621  0.58954213  0.78877773  1
  H  H13  1  0.58954213  0.45620621  0.28877773  1
  H  H14  1  0.56525802  0.63074072  0.67607969  1
  H  H15  1  0.63074072  0.56525802  0.17607969  1
  H  H16  1  0.04885265  0.94311561  0.74277508  1
  H  H17  1  0.94311561  0.04885265  0.24277508  1
  H  H18  1  0.15510013  0.81994990  0.84007703  1
  H  H19  1  0.81994990  0.15510013  0.34007703  1
  H  H20  1  0.30347344  0.04889751  0.81452872  1
  H  H21  1  0.04889751  0.30347344  0.31452872  1
  C  C22  1  0.08431918  0.53432541  0.61970534  1
  C  C23  1  0.53432541  0.08431918  0.11970534  1
  C  C24  1  0.49767497  0.69909509  0.73836046  1
  C  C25  1  0.69909509  0.49767497  0.23836046  1
  C  C26  1  0.18735334  0.90741141  0.77862278  1
  C  C27  1  0.90741141  0.18735334  0.27862278  1
  Cl  Cl28  1  0.76388849  0.91586372  0.52387380  1
  Cl  Cl29  1  0.91586372  0.76388849  0.02387380  1
  Cl  Cl30  1  0.46960949  0.27150518  0.47884206  1
  Cl  Cl31  1  0.27150518  0.46960949  0.97884206  1
  Cl  Cl32  1  0.28609420  0.75823501  0.33676599  1
  Cl  Cl33  1  0.75823501  0.28609420  0.83676599  1
  O  O34  1  0.32030024  0.89589485  0.59482983  1
  O  O35  1  0.89589485  0.32030024  0.09482983  1
