# generated using pymatgen
data_Dy6Al43Cr4
_symmetry_space_group_name_H-M   'P 1'
_cell_length_a   10.97058664
_cell_length_b   10.97020342
_cell_length_c   17.52616108
_cell_angle_alpha   90.00000000
_cell_angle_beta   90.00000000
_cell_angle_gamma   120.00115536
_symmetry_Int_Tables_number   1
_chemical_formula_structural   Dy6Al43Cr4
_chemical_formula_sum   'Dy12 Al86 Cr8'
_cell_volume   1826.65658350
_cell_formula_units_Z   2
loop_
 _symmetry_equiv_pos_site_id
 _symmetry_equiv_pos_as_xyz
  1  'x, y, z'
loop_
 _atom_site_type_symbol
 _atom_site_label
 _atom_site_symmetry_multiplicity
 _atom_site_fract_x
 _atom_site_fract_y
 _atom_site_fract_z
 _atom_site_occupancy
  Dy  Dy0  1  0.52973387  0.00000000  0.59529448  1
  Dy  Dy1  1  0.47025255  0.47025186  0.59530392  1
  Dy  Dy2  1  0.00000070  0.52974814  0.59530392  1
  Dy  Dy3  1  0.47026613  1.00000000  0.40470552  1
  Dy  Dy4  1  0.52974745  0.52974814  0.40469608  1
  Dy  Dy5  1  -0.00000070  0.47025186  0.40469608  1
  Dy  Dy6  1  0.47026613  1.00000000  0.09529448  1
  Dy  Dy7  1  0.52974745  0.52974814  0.09530392  1
  Dy  Dy8  1  -0.00000070  0.47025186  0.09530392  1
  Dy  Dy9  1  0.52973387  0.00000000  0.90470552  1
  Dy  Dy10  1  0.47025255  0.47025186  0.90469608  1
  Dy  Dy11  1  0.00000070  0.52974814  0.90469608  1
  Al  Al12  1  0.15996771  0.39083112  0.66518358  1
  Al  Al13  1  0.23086746  0.84005877  0.66519061  1
  Al  Al14  1  0.60918811  0.76909306  0.66517193  1
  Al  Al15  1  0.76913659  0.60916888  0.66518358  1
  Al  Al16  1  0.39080869  0.15994123  0.66519061  1
  Al  Al17  1  0.84009506  0.23090694  0.66517193  1
  Al  Al18  1  0.84003229  0.60916888  0.33481642  1
  Al  Al19  1  0.76913254  0.15994123  0.33480939  1
  Al  Al20  1  0.39081189  0.23090694  0.33482807  1
  Al  Al21  1  0.23086341  0.39083112  0.33481642  1
  Al  Al22  1  0.60919131  0.84005877  0.33480939  1
  Al  Al23  1  0.15990494  0.76909306  0.33482807  1
  Al  Al24  1  0.84003229  0.60916888  0.16518358  1
  Al  Al25  1  0.76913254  0.15994123  0.16519061  1
  Al  Al26  1  0.39081189  0.23090694  0.16517193  1
  Al  Al27  1  0.23086341  0.39083112  0.16518358  1
  Al  Al28  1  0.60919131  0.84005877  0.16519061  1
  Al  Al29  1  0.15990494  0.76909306  0.16517193  1
  Al  Al30  1  0.15996771  0.39083112  0.83481642  1
  Al  Al31  1  0.23086746  0.84005877  0.83480939  1
  Al  Al32  1  0.60918811  0.76909306  0.83482807  1
  Al  Al33  1  0.76913659  0.60916888  0.83481642  1
  Al  Al34  1  0.39080869  0.15994123  0.83480939  1
  Al  Al35  1  0.84009506  0.23090694  0.83482807  1
  Al  Al36  1  0.15471815  0.00000000  0.11573486  1
  Al  Al37  1  0.84520742  0.84521867  0.11576125  1
  Al  Al38  1  0.99998876  0.15478133  0.11576125  1
  Al  Al39  1  0.84528185  1.00000000  0.88426514  1
  Al  Al40  1  0.15479258  0.15478133  0.88423875  1
  Al  Al41  1  0.00001124  0.84521867  0.88423875  1
  Al  Al42  1  0.84528185  1.00000000  0.61573486  1
  Al  Al43  1  0.15479258  0.15478133  0.61576125  1
  Al  Al44  1  0.00001124  0.84521867  0.61576125  1
  Al  Al45  1  0.15471815  0.00000000  0.38426514  1
  Al  Al46  1  0.84520742  0.84521867  0.38423875  1
  Al  Al47  1  0.99998876  0.15478133  0.38423875  1
  Al  Al48  1  0.25146809  0.00000000  0.53071522  1
  Al  Al49  1  0.74853278  0.74851870  0.53070416  1
  Al  Al50  1  0.00001408  0.25148130  0.53070416  1
  Al  Al51  1  0.74853191  -0.00000000  0.46928478  1
  Al  Al52  1  0.25146722  0.25148130  0.46929584  1
  Al  Al53  1  0.99998592  0.74851870  0.46929584  1
  Al  Al54  1  0.74853191  -0.00000000  0.03071522  1
  Al  Al55  1  0.25146722  0.25148130  0.03070416  1
  Al  Al56  1  0.99998592  0.74851870  0.03070416  1
  Al  Al57  1  0.25146809  0.00000000  0.96928478  1
  Al  Al58  1  0.74853278  0.74851870  0.96929584  1
  Al  Al59  1  0.00001408  0.25148130  0.96929584  1
  Al  Al60  1  0.14416591  0.59561851  0.75000000  1
  Al  Al61  1  0.45144263  0.85581671  0.75000000  1
  Al  Al62  1  0.40436688  0.54854948  0.75000000  1
  Al  Al63  1  0.54854740  0.40438149  0.75000000  1
  Al  Al64  1  0.59562592  0.14418329  0.75000000  1
  Al  Al65  1  0.85581740  0.45145052  0.75000000  1
  Al  Al66  1  0.85583409  0.40438149  0.25000000  1
  Al  Al67  1  0.54855737  0.14418329  0.25000000  1
  Al  Al68  1  0.59563312  0.45145052  0.25000000  1
  Al  Al69  1  0.45145260  0.59561851  0.25000000  1
  Al  Al70  1  0.40437408  0.85581671  0.25000000  1
  Al  Al71  1  0.14418260  0.54854948  0.25000000  1
  Al  Al72  1  0.24691833  0.49383665  0.50000000  1
  Al  Al73  1  0.24691464  0.75307069  0.49999663  1
  Al  Al74  1  0.50615605  0.75307069  0.50000337  1
  Al  Al75  1  0.75308167  0.50616335  0.50000000  1
  Al  Al76  1  0.49384395  0.24692931  0.49999663  1
  Al  Al77  1  0.75308536  0.24692931  0.50000337  1
  Al  Al78  1  0.75308167  0.50616335  -0.00000000  1
  Al  Al79  1  0.75308536  0.24692931  0.99999663  1
  Al  Al80  1  0.49384395  0.24692931  0.00000337  1
  Al  Al81  1  0.24691833  0.49383665  -0.00000000  1
  Al  Al82  1  0.50615605  0.75307069  0.99999663  1
  Al  Al83  1  0.24691464  0.75307069  0.00000337  1
  Al  Al84  1  0.33332731  0.66666526  0.62751557  1
  Al  Al85  1  0.66666205  0.33333474  0.62751557  1
  Al  Al86  1  0.66667269  0.33333474  0.37248443  1
  Al  Al87  1  0.33333795  0.66666526  0.37248443  1
  Al  Al88  1  0.66667269  0.33333474  0.12751557  1
  Al  Al89  1  0.33333795  0.66666526  0.12751557  1
  Al  Al90  1  0.33332731  0.66666526  0.87248443  1
  Al  Al91  1  0.66666205  0.33333474  0.87248443  1
  Al  Al92  1  0.14520617  0.00000000  0.75000000  1
  Al  Al93  1  0.85489179  0.85479641  0.75000000  1
  Al  Al94  1  0.00009538  0.14520359  0.75000000  1
  Al  Al95  1  0.85479383  1.00000000  0.25000000  1
  Al  Al96  1  0.14510821  0.14520359  0.25000000  1
  Al  Al97  1  0.99990462  0.85479641  0.25000000  1
  Cr  Cr98  1  0.73040698  1.00000000  0.75000000  1
  Cr  Cr99  1  0.26986199  0.26988558  0.75000000  1
  Cr  Cr100  1  0.99997641  0.73011442  0.75000000  1
  Cr  Cr101  1  0.26959302  0.00000000  0.25000000  1
  Cr  Cr102  1  0.73013801  0.73011442  0.25000000  1
  Cr  Cr103  1  0.00002359  0.26988558  0.25000000  1
  Cr  Cr104  1  -0.00000000  -0.00000000  0.50000000  1
  Cr  Cr105  1  -0.00000000  -0.00000000  -0.00000000  1
