# generated using pymatgen
data_TlP2HO7
_symmetry_space_group_name_H-M   'P 1'
_cell_length_a   7.34018553
_cell_length_b   9.15796505
_cell_length_c   9.17070335
_cell_angle_alpha   90.00000000
_cell_angle_beta   90.00000000
_cell_angle_gamma   106.21702715
_symmetry_Int_Tables_number   1
_chemical_formula_structural   TlP2HO7
_chemical_formula_sum   'Tl4 P8 H4 O28'
_cell_volume   591.93663654
_cell_formula_units_Z   4
loop_
 _symmetry_equiv_pos_site_id
 _symmetry_equiv_pos_as_xyz
  1  'x, y, z'
loop_
 _atom_site_type_symbol
 _atom_site_label
 _atom_site_symmetry_multiplicity
 _atom_site_fract_x
 _atom_site_fract_y
 _atom_site_fract_z
 _atom_site_occupancy
  Tl  Tl0  1  0.96819720  0.00237537  0.79519111  1
  Tl  Tl1  1  0.46819720  0.50237537  0.70480889  1
  Tl  Tl2  1  0.03180280  0.99762463  0.20480889  1
  Tl  Tl3  1  0.53180280  0.49762463  0.29519111  1
  P  P4  1  0.82707000  0.76957233  0.49424342  1
  P  P5  1  0.32707000  0.26957233  0.00575658  1
  P  P6  1  0.17293000  0.23042767  0.50575658  1
  P  P7  1  0.67293000  0.73042767  0.99424342  1
  P  P8  1  0.18566124  0.75172476  0.64402459  1
  P  P9  1  0.68566124  0.25172476  0.85597541  1
  P  P10  1  0.81433876  0.24827524  0.35597541  1
  P  P11  1  0.31433876  0.74827524  0.14402459  1
  H  H12  1  0.37438862  0.82342213  0.45639751  1
  H  H13  1  0.87438862  0.32342213  0.04360249  1
  H  H14  1  0.62561138  0.17657787  0.54360249  1
  H  H15  1  0.12561138  0.67657787  0.95639751  1
  O  O16  1  0.82163743  0.90197974  0.59163182  1
  O  O17  1  0.32163743  0.40197974  0.90836818  1
  O  O18  1  0.17836257  0.09802026  0.40836818  1
  O  O19  1  0.67836257  0.59802026  0.09163182  1
  O  O20  1  0.84662861  0.80525121  0.33151495  1
  O  O21  1  0.34662861  0.30525121  0.16848505  1
  O  O22  1  0.15337139  0.19474879  0.66848505  1
  O  O23  1  0.65337139  0.69474879  0.83151495  1
  O  O24  1  0.64533366  0.63173299  0.50711043  1
  O  O25  1  0.14533366  0.13173299  0.99288957  1
  O  O26  1  0.35466634  0.36826701  0.49288957  1
  O  O27  1  0.85466634  0.86826701  0.00711043  1
  O  O28  1  0.99909949  0.70250443  0.54344673  1
  O  O29  1  0.49909949  0.20250443  0.95655327  1
  O  O30  1  0.00090051  0.29749557  0.45655327  1
  O  O31  1  0.50090051  0.79749557  0.04344673  1
  O  O32  1  0.15058533  0.83814427  0.77879331  1
  O  O33  1  0.65058533  0.33814427  0.72120669  1
  O  O34  1  0.84941467  0.16185573  0.22120669  1
  O  O35  1  0.34941467  0.66185573  0.27879331  1
  O  O36  1  0.34416123  0.86350051  0.55037500  1
  O  O37  1  0.84416123  0.36350051  0.94962500  1
  O  O38  1  0.65583877  0.13649949  0.44962500  1
  O  O39  1  0.15583877  0.63649949  0.05037500  1
  O  O40  1  0.22672322  0.60297532  0.68129054  1
  O  O41  1  0.72672322  0.10297532  0.81870946  1
  O  O42  1  0.77327678  0.39702468  0.31870946  1
  O  O43  1  0.27327678  0.89702468  0.18129054  1
