# generated using pymatgen
data_Cs3CaFe(P2O7)2
_symmetry_space_group_name_H-M   'P 1'
_cell_length_a   9.45464658
_cell_length_b   11.42138679
_cell_length_c   15.32278476
_cell_angle_alpha   90.00000000
_cell_angle_beta   90.00000000
_cell_angle_gamma   90.00000000
_symmetry_Int_Tables_number   1
_chemical_formula_structural   Cs3CaFe(P2O7)2
_chemical_formula_sum   'Cs12 Ca4 Fe4 P16 O56'
_cell_volume   1654.63360227
_cell_formula_units_Z   4
loop_
 _symmetry_equiv_pos_site_id
 _symmetry_equiv_pos_as_xyz
  1  'x, y, z'
loop_
 _atom_site_type_symbol
 _atom_site_label
 _atom_site_symmetry_multiplicity
 _atom_site_fract_x
 _atom_site_fract_y
 _atom_site_fract_z
 _atom_site_occupancy
  Cs  Cs0  1  0.37259830  0.37008806  0.37024495  1
  Cs  Cs1  1  0.12740170  0.62991194  0.87024495  1
  Cs  Cs2  1  0.87259830  0.12991194  0.62975505  1
  Cs  Cs3  1  0.62740170  0.87008806  0.12975505  1
  Cs  Cs4  1  0.27826062  0.71281541  0.30418397  1
  Cs  Cs5  1  0.22173938  0.28718459  0.80418397  1
  Cs  Cs6  1  0.77826062  0.78718459  0.69581603  1
  Cs  Cs7  1  0.72173938  0.21281541  0.19581603  1
  Cs  Cs8  1  0.82382672  0.48935969  0.41035053  1
  Cs  Cs9  1  0.67617328  0.51064031  0.91035053  1
  Cs  Cs10  1  0.32382672  0.01064031  0.58964947  1
  Cs  Cs11  1  0.17617328  0.98935969  0.08964947  1
  Ca  Ca12  1  0.54449466  0.36491291  0.61690050  1
  Ca  Ca13  1  0.95550534  0.63508709  0.11690050  1
  Ca  Ca14  1  0.04449466  0.13508709  0.38309950  1
  Ca  Ca15  1  0.45550534  0.86491291  0.88309950  1
  Fe  Fe16  1  0.65022154  0.87615497  0.42675618  1
  Fe  Fe17  1  0.84977846  0.12384503  0.92675618  1
  Fe  Fe18  1  0.15022154  0.62384503  0.57324382  1
  Fe  Fe19  1  0.34977846  0.37615497  0.07324382  1
  P  P20  1  0.47985892  0.64509152  0.52199887  1
  P  P21  1  0.02014108  0.35490848  0.02199887  1
  P  P22  1  0.97985892  0.85490848  0.47800113  1
  P  P23  1  0.52014108  0.14509152  0.97800113  1
  P  P24  1  0.41580543  0.62825785  0.70807863  1
  P  P25  1  0.08419457  0.37174215  0.20807863  1
  P  P26  1  0.91580543  0.87174215  0.29192137  1
  P  P27  1  0.58419457  0.12825785  0.79192137  1
  P  P28  1  0.41967765  0.03849439  0.32806962  1
  P  P29  1  0.08032235  0.96150561  0.82806962  1
  P  P30  1  0.91967765  0.46150561  0.67193038  1
  P  P31  1  0.58032235  0.53849439  0.17193038  1
  P  P32  1  0.65151106  0.14978631  0.43750462  1
  P  P33  1  0.84848894  0.85021369  0.93750462  1
  P  P34  1  0.15151106  0.35021369  0.56249538  1
  P  P35  1  0.34848894  0.64978631  0.06249538  1
  O  O36  1  0.57094549  0.73090935  0.46985119  1
  O  O37  1  0.92905451  0.26909065  0.96985119  1
  O  O38  1  0.07094549  0.76909065  0.53014881  1
  O  O39  1  0.42905451  0.23090935  0.03014881  1
  O  O40  1  0.47037836  0.50471352  0.72198934  1
  O  O41  1  0.02962164  0.49528648  0.22198934  1
  O  O42  1  0.97037836  0.99528648  0.27801066  1
  O  O43  1  0.52962164  0.00471352  0.77801066  1
  O  O44  1  0.41858164  0.03097973  0.22973883  1
  O  O45  1  0.08141836  0.96902027  0.72973883  1
  O  O46  1  0.91858164  0.46902027  0.77026117  1
  O  O47  1  0.58141836  0.53097973  0.27026117  1
  O  O48  1  0.28763942  0.08686526  0.37194783  1
  O  O49  1  0.21236058  0.91313474  0.87194783  1
  O  O50  1  0.78763942  0.41313474  0.62805217  1
  O  O51  1  0.71236058  0.58686526  0.12805217  1
  O  O52  1  0.50004531  0.68642533  0.62373752  1
  O  O53  1  0.99995469  0.31357467  0.12373752  1
  O  O54  1  0.00004531  0.81357467  0.37626248  1
  O  O55  1  0.49995469  0.18642533  0.87626248  1
  O  O56  1  0.44427412  0.71210774  0.78239713  1
  O  O57  1  0.05572588  0.28789226  0.28239713  1
  O  O58  1  0.94427412  0.78789226  0.21760287  1
  O  O59  1  0.55572588  0.21210774  0.71760287  1
  O  O60  1  0.54913241  0.13343594  0.35171986  1
  O  O61  1  0.95086759  0.86656406  0.85171986  1
  O  O62  1  0.04913241  0.36656406  0.64828014  1
  O  O63  1  0.45086759  0.63343594  0.14828014  1
  O  O64  1  0.52897910  0.51960271  0.51314120  1
  O  O65  1  0.97102090  0.48039729  0.01314120  1
  O  O66  1  0.02897910  0.98039729  0.48685880  1
  O  O67  1  0.47102090  0.01960271  0.98685880  1
  O  O68  1  0.46902138  0.92066011  0.37066853  1
  O  O69  1  0.03097862  0.07933989  0.87066853  1
  O  O70  1  0.96902138  0.57933989  0.62933147  1
  O  O71  1  0.53097862  0.42066011  0.12933147  1
  O  O72  1  0.75651267  0.87074585  0.31893380  1
  O  O73  1  0.74348733  0.12925415  0.81893380  1
  O  O74  1  0.25651267  0.62925415  0.68106620  1
  O  O75  1  0.24348733  0.37074585  0.18106620  1
  O  O76  1  0.32249827  0.66460600  0.50101323  1
  O  O77  1  0.17750173  0.33539400  0.00101323  1
  O  O78  1  0.82249827  0.83539400  0.49898677  1
  O  O79  1  0.67750173  0.16460600  0.99898677  1
  O  O80  1  0.79563410  0.18111852  0.40041963  1
  O  O81  1  0.70436590  0.81888148  0.90041963  1
  O  O82  1  0.29563410  0.31888148  0.59958037  1
  O  O83  1  0.20436590  0.68111852  0.09958037  1
  O  O84  1  0.58647201  0.24298381  0.49564944  1
  O  O85  1  0.91352799  0.75701619  0.99564944  1
  O  O86  1  0.08647201  0.25701619  0.50435056  1
  O  O87  1  0.41352799  0.74298381  0.00435056  1
  O  O88  1  0.65008698  0.02869685  0.48504003  1
  O  O89  1  0.84991302  0.97130315  0.98504003  1
  O  O90  1  0.15008698  0.47130315  0.51495997  1
  O  O91  1  0.34991302  0.52869685  0.01495997  1
