# generated using pymatgen
data_Eu4B4O11F2
_symmetry_space_group_name_H-M   'P 1'
_cell_length_a   4.73383339
_cell_length_b   7.38493767
_cell_length_c   13.94467273
_cell_angle_alpha   90.88842210
_cell_angle_beta   90.00000000
_cell_angle_gamma   108.69352722
_symmetry_Int_Tables_number   1
_chemical_formula_structural   Eu4B4O11F2
_chemical_formula_sum   'Eu8 B8 O22 F4'
_cell_volume   461.71389497
_cell_formula_units_Z   2
loop_
 _symmetry_equiv_pos_site_id
 _symmetry_equiv_pos_as_xyz
  1  'x, y, z'
loop_
 _atom_site_type_symbol
 _atom_site_label
 _atom_site_symmetry_multiplicity
 _atom_site_fract_x
 _atom_site_fract_y
 _atom_site_fract_z
 _atom_site_occupancy
  Eu  Eu0  1  0.45615915  0.87848528  0.12838138  1
  Eu  Eu1  1  0.57767386  0.12151472  0.37161862  1
  Eu  Eu2  1  0.54384085  0.12151472  0.87161862  1
  Eu  Eu3  1  0.42232614  0.87848528  0.62838138  1
  Eu  Eu4  1  0.73890770  0.44365576  0.12693562  1
  Eu  Eu5  1  0.29525195  0.55634424  0.37306438  1
  Eu  Eu6  1  0.26109230  0.55634424  0.87306438  1
  Eu  Eu7  1  0.70474805  0.44365576  0.62693562  1
  B  B8  1  0.06417589  0.18227432  0.21193103  1
  B  B9  1  0.88190157  0.81772568  0.28806897  1
  B  B10  1  0.93582411  0.81772568  0.78806897  1
  B  B11  1  0.11809843  0.18227432  0.71193103  1
  B  B12  1  0.86078191  0.80944649  0.97373791  1
  B  B13  1  0.05133542  0.19055351  0.52626209  1
  B  B14  1  0.13921809  0.19055351  0.02626209  1
  B  B15  1  0.94866458  0.80944649  0.47373791  1
  O  O16  1  0.95905514  0.17596927  0.10709405  1
  O  O17  1  0.78308587  0.82403073  0.39290595  1
  O  O18  1  0.04094486  0.82403073  0.89290595  1
  O  O19  1  0.21691413  0.17596927  0.60709405  1
  O  O20  1  0.65038444  0.65856581  0.24318426  1
  O  O21  1  0.99181862  0.34143419  0.25681574  1
  O  O22  1  0.34961556  0.34143419  0.75681574  1
  O  O23  1  0.00818138  0.65856581  0.74318426  1
  O  O24  1  0.59231261  0.84308442  0.96450233  1
  O  O25  1  0.74922819  0.15691558  0.53549767  1
  O  O26  1  0.40768739  0.15691558  0.03549767  1
  O  O27  1  0.25077181  0.84308442  0.46450233  1
  O  O28  1  0.84977045  0.00000000  0.25000000  1
  O  O29  1  0.15022955  0.00000000  0.75000000  1
  O  O30  1  0.94660019  0.77329779  0.06296721  1
  O  O31  1  0.17330240  0.22670221  0.43703279  1
  O  O32  1  0.05339981  0.22670221  0.93703279  1
  O  O33  1  0.82669760  0.77329779  0.56296721  1
  O  O34  1  0.37245283  0.19876546  0.22448217  1
  O  O35  1  0.17368737  0.80123454  0.27551783  1
  O  O36  1  0.62754717  0.80123454  0.77551783  1
  O  O37  1  0.82631263  0.19876546  0.72448217  1
  F  F38  1  0.29364840  0.53864513  0.07517146  1
  F  F39  1  0.75500327  0.46135487  0.42482854  1
  F  F40  1  0.70635160  0.46135487  0.92482854  1
  F  F41  1  0.24499673  0.53864513  0.57517146  1
