# generated using pymatgen
data_CdSnP14
_symmetry_space_group_name_H-M   'P 1'
_cell_length_a   9.89780812
_cell_length_b   11.05105799
_cell_length_c   13.27611160
_cell_angle_alpha   90.00000000
_cell_angle_beta   90.00000000
_cell_angle_gamma   90.00000000
_symmetry_Int_Tables_number   1
_chemical_formula_structural   CdSnP14
_chemical_formula_sum   'Cd4 Sn4 P56'
_cell_volume   1452.15770197
_cell_formula_units_Z   4
loop_
 _symmetry_equiv_pos_site_id
 _symmetry_equiv_pos_as_xyz
  1  'x, y, z'
loop_
 _atom_site_type_symbol
 _atom_site_label
 _atom_site_symmetry_multiplicity
 _atom_site_fract_x
 _atom_site_fract_y
 _atom_site_fract_z
 _atom_site_occupancy
  Cd  Cd0  1  0.25000000  0.49720623  0.68227693  1
  Cd  Cd1  1  0.25000000  0.00279377  0.18227693  1
  Cd  Cd2  1  0.75000000  0.50279377  0.31772307  1
  Cd  Cd3  1  0.75000000  0.99720623  0.81772307  1
  Sn  Sn4  1  0.25000000  0.89672804  0.83308641  1
  Sn  Sn5  1  0.25000000  0.60327196  0.33308641  1
  Sn  Sn6  1  0.75000000  0.10327196  0.16691359  1
  Sn  Sn7  1  0.75000000  0.39672804  0.66691359  1
  P  P8  1  0.25000000  0.66376040  0.53096990  1
  P  P9  1  0.25000000  0.83623960  0.03096990  1
  P  P10  1  0.75000000  0.33623960  0.46903010  1
  P  P11  1  0.75000000  0.16376040  0.96903010  1
  P  P12  1  0.25000000  0.27847129  0.94793203  1
  P  P13  1  0.25000000  0.22152871  0.44793203  1
  P  P14  1  0.75000000  0.72152871  0.05206797  1
  P  P15  1  0.75000000  0.77847129  0.55206797  1
  P  P16  1  0.25000000  0.10232380  0.58472890  1
  P  P17  1  0.25000000  0.39767620  0.08472890  1
  P  P18  1  0.75000000  0.89767620  0.41527110  1
  P  P19  1  0.75000000  0.60232380  0.91527110  1
  P  P20  1  0.25000000  0.65045572  0.83267887  1
  P  P21  1  0.25000000  0.84954428  0.33267887  1
  P  P22  1  0.75000000  0.34954428  0.16732113  1
  P  P23  1  0.75000000  0.15045572  0.66732113  1
  P  P24  1  0.07556420  0.15442590  0.97308975  1
  P  P25  1  0.42443580  0.34557410  0.47308975  1
  P  P26  1  0.57556420  0.84557410  0.02691025  1
  P  P27  1  0.92443580  0.65442590  0.52691025  1
  P  P28  1  0.92443580  0.84557410  0.02691025  1
  P  P29  1  0.57556420  0.65442590  0.52691025  1
  P  P30  1  0.42443580  0.15442590  0.97308975  1
  P  P31  1  0.07556420  0.34557410  0.47308975  1
  P  P32  1  0.08282230  0.79063984  0.56475369  1
  P  P33  1  0.41717770  0.70936016  0.06475369  1
  P  P34  1  0.58282230  0.20936016  0.43524631  1
  P  P35  1  0.91717770  0.29063984  0.93524631  1
  P  P36  1  0.91717770  0.20936016  0.43524631  1
  P  P37  1  0.58282230  0.29063984  0.93524631  1
  P  P38  1  0.41717770  0.79063984  0.56475369  1
  P  P39  1  0.08282230  0.70936016  0.06475369  1
  P  P40  1  0.07991185  0.58471075  0.92612140  1
  P  P41  1  0.42008815  0.91528925  0.42612140  1
  P  P42  1  0.57991185  0.41528925  0.07387860  1
  P  P43  1  0.92008815  0.08471075  0.57387860  1
  P  P44  1  0.92008815  0.41528925  0.07387860  1
  P  P45  1  0.57991185  0.08471075  0.57387860  1
  P  P46  1  0.42008815  0.58471075  0.92612140  1
  P  P47  1  0.07991185  0.91528925  0.42612140  1
  P  P48  1  0.07536815  0.16708062  0.67503271  1
  P  P49  1  0.42463185  0.33291938  0.17503271  1
  P  P50  1  0.57536815  0.83291938  0.32496729  1
  P  P51  1  0.92463185  0.66708062  0.82496729  1
  P  P52  1  0.92463185  0.83291938  0.32496729  1
  P  P53  1  0.57536815  0.66708062  0.82496729  1
  P  P54  1  0.42463185  0.16708062  0.67503271  1
  P  P55  1  0.07536815  0.33291938  0.17503271  1
  P  P56  1  0.04445554  0.35836837  0.63653431  1
  P  P57  1  0.45554446  0.14163163  0.13653431  1
  P  P58  1  0.54445554  0.64163163  0.36346569  1
  P  P59  1  0.95554446  0.85836837  0.86346569  1
  P  P60  1  0.95554446  0.64163163  0.36346569  1
  P  P61  1  0.54445554  0.85836837  0.86346569  1
  P  P62  1  0.45554446  0.35836837  0.63653431  1
  P  P63  1  0.04445554  0.14163163  0.13653431  1
