# generated using pymatgen
data_La6Co13Sn
_symmetry_space_group_name_H-M   'P 1'
_cell_length_a   8.05804075
_cell_length_b   8.05804075
_cell_length_c   12.84676917
_cell_angle_alpha   108.27760027
_cell_angle_beta   108.27760027
_cell_angle_gamma   90.00000000
_symmetry_Int_Tables_number   1
_chemical_formula_structural   La6Co13Sn
_chemical_formula_sum   'La12 Co26 Sn2'
_cell_volume   747.63089559
_cell_formula_units_Z   2
loop_
 _symmetry_equiv_pos_site_id
 _symmetry_equiv_pos_as_xyz
  1  'x, y, z'
loop_
 _atom_site_type_symbol
 _atom_site_label
 _atom_site_symmetry_multiplicity
 _atom_site_fract_x
 _atom_site_fract_y
 _atom_site_fract_z
 _atom_site_occupancy
  La  La0  1  0.60036832  0.60036832  0.20073664  1
  La  La1  1  0.10036832  0.10036832  0.20073664  1
  La  La2  1  0.39963168  0.39963168  0.79926336  1
  La  La3  1  0.89963168  0.89963168  0.79926336  1
  La  La4  1  0.98119256  0.48119256  0.63844886  1
  La  La5  1  0.65725631  0.15725631  0.63844886  1
  La  La6  1  0.15725631  0.98119256  0.63844886  1
  La  La7  1  0.48119256  0.65725631  0.63844886  1
  La  La8  1  0.01880744  0.51880744  0.36155114  1
  La  La9  1  0.34274369  0.84274369  0.36155114  1
  La  La10  1  0.84274369  0.01880744  0.36155114  1
  La  La11  1  0.51880744  0.34274369  0.36155114  1
  Co  Co12  1  -0.00000000  0.50000000  -0.00000000  1
  Co  Co13  1  0.50000000  -0.00000000  -0.00000000  1
  Co  Co14  1  0.71430877  0.56474636  1.00000000  1
  Co  Co15  1  0.28569123  0.43525364  0.00000000  1
  Co  Co16  1  0.78569123  0.06474636  1.00000000  1
  Co  Co17  1  0.21430877  0.93525364  0.00000000  1
  Co  Co18  1  0.56474636  0.28569123  1.00000000  1
  Co  Co19  1  0.43525364  0.71430877  0.00000000  1
  Co  Co20  1  0.06474636  0.21430877  1.00000000  1
  Co  Co21  1  0.93525364  0.78569123  0.00000000  1
  Co  Co22  1  0.12041343  0.62041343  0.88790609  1
  Co  Co23  1  0.76749267  0.26749267  0.88790609  1
  Co  Co24  1  0.26749267  0.12041343  0.88790609  1
  Co  Co25  1  0.62041343  0.76749267  0.88790609  1
  Co  Co26  1  0.87958657  0.37958657  0.11209391  1
  Co  Co27  1  0.23250733  0.73250733  0.11209391  1
  Co  Co28  1  0.73250733  0.87958657  0.11209391  1
  Co  Co29  1  0.37958657  0.23250733  0.11209391  1
  Co  Co30  1  0.29834403  0.79834403  0.82319868  1
  Co  Co31  1  0.52485466  0.02485466  0.82319868  1
  Co  Co32  1  0.02485466  0.29834403  0.82319868  1
  Co  Co33  1  0.79834403  0.52485466  0.82319868  1
  Co  Co34  1  0.70165597  0.20165597  0.17680132  1
  Co  Co35  1  0.47514534  0.97514534  0.17680132  1
  Co  Co36  1  0.97514534  0.70165597  0.17680132  1
  Co  Co37  1  0.20165597  0.47514534  0.17680132  1
  Sn  Sn38  1  0.25000000  0.25000000  0.50000000  1
  Sn  Sn39  1  0.75000000  0.75000000  0.50000000  1
