# generated using pymatgen
data_Ce4(YS2)11
_symmetry_space_group_name_H-M   'P 1'
_cell_length_a   3.95893189
_cell_length_b   11.40767871
_cell_length_c   19.72955249
_cell_angle_alpha   91.60623238
_cell_angle_beta   95.75817348
_cell_angle_gamma   90.00000000
_symmetry_Int_Tables_number   1
_chemical_formula_structural   Ce4(YS2)11
_chemical_formula_sum   'Ce4 Y11 S22'
_cell_volume   886.18261585
_cell_formula_units_Z   1
loop_
 _symmetry_equiv_pos_site_id
 _symmetry_equiv_pos_as_xyz
  1  'x, y, z'
loop_
 _atom_site_type_symbol
 _atom_site_label
 _atom_site_symmetry_multiplicity
 _atom_site_fract_x
 _atom_site_fract_y
 _atom_site_fract_z
 _atom_site_occupancy
  Ce  Ce0  1  0.10441815  0.01144818  0.20883629  1
  Ce  Ce1  1  0.89558185  0.98855182  0.79116371  1
  Ce  Ce2  1  0.36714924  0.34783729  0.73429848  1
  Ce  Ce3  1  0.63285076  0.65216271  0.26570152  1
  Y  Y4  1  0.79790695  0.05872901  0.59581390  1
  Y  Y5  1  0.20209305  0.94127099  0.40418610  1
  Y  Y6  1  0.46182629  0.27043261  0.92365257  1
  Y  Y7  1  0.53817371  0.72956739  0.07634743  1
  Y  Y8  1  0.65767004  0.30066265  0.31534008  1
  Y  Y9  1  0.34232996  0.69933735  0.68465992  1
  Y  Y10  1  0.26327372  0.35139170  0.52654743  1
  Y  Y11  1  0.73672628  0.64860830  0.47345257  1
  Y  Y12  1  0.06960722  0.36077719  0.13921444  1
  Y  Y13  1  0.93039278  0.63922281  0.86078556  1
  Y  Y14  1  0.00000000  0.00000000  0.00000000  1
  S  S15  1  0.08800675  0.75186663  0.17601350  1
  S  S16  1  0.91199325  0.24813337  0.82398650  1
  S  S17  1  0.18899873  0.69048754  0.37799747  1
  S  S18  1  0.81100127  0.30951246  0.62200253  1
  S  S19  1  0.28015081  0.58884604  0.56030162  1
  S  S20  1  0.71984919  0.41115396  0.43969838  1
  S  S21  1  0.44467132  0.49336075  0.88934265  1
  S  S22  1  0.55532868  0.50663925  0.11065735  1
  S  S23  1  0.13501210  0.45409669  0.27002420  1
  S  S24  1  0.86498790  0.54590331  0.72997580  1
  S  S25  1  0.59285444  0.21110245  0.18570887  1
  S  S26  1  0.40714556  0.78889755  0.81429113  1
  S  S27  1  0.45261444  0.03063420  0.90522887  1
  S  S28  1  0.54738556  0.96936580  0.09477113  1
  S  S29  1  0.35081930  0.09168521  0.70163860  1
  S  S30  1  0.64918070  0.90831479  0.29836140  1
  S  S31  1  0.16856196  0.15066649  0.33712392  1
  S  S32  1  0.83143804  0.84933351  0.66287608  1
  S  S33  1  0.00781611  0.24012341  0.01563222  1
  S  S34  1  0.99218389  0.75987659  0.98436778  1
  S  S35  1  0.25499547  0.11889428  0.50999095  1
  S  S36  1  0.74500453  0.88110572  0.49000905  1
