# generated using pymatgen
data_Ba2Cu2Te4Br2O11
_symmetry_space_group_name_H-M   'P 1'
_cell_length_a   9.39958816
_cell_length_b   9.39356704
_cell_length_c   9.69537509
_cell_angle_alpha   99.72849465
_cell_angle_beta   99.58845856
_cell_angle_gamma   108.33099704
_symmetry_Int_Tables_number   1
_chemical_formula_structural   Ba2Cu2Te4Br2O11
_chemical_formula_sum   'Ba4 Cu4 Te8 Br4 O22'
_cell_volume   778.53497134
_cell_formula_units_Z   2
loop_
 _symmetry_equiv_pos_site_id
 _symmetry_equiv_pos_as_xyz
  1  'x, y, z'
loop_
 _atom_site_type_symbol
 _atom_site_label
 _atom_site_symmetry_multiplicity
 _atom_site_fract_x
 _atom_site_fract_y
 _atom_site_fract_z
 _atom_site_occupancy
  Ba  Ba0  1  0.26409350  0.01770041  0.57025533  1
  Ba  Ba1  1  0.73590650  0.98229959  0.42974467  1
  Ba  Ba2  1  0.76938786  0.51880322  0.56970084  1
  Ba  Ba3  1  0.23061214  0.48119678  0.43029916  1
  Cu  Cu4  1  0.55041112  0.80147654  0.69921248  1
  Cu  Cu5  1  0.44958888  0.19852346  0.30078752  1
  Cu  Cu6  1  0.94899434  0.69800826  0.29864601  1
  Cu  Cu7  1  0.05100566  0.30199174  0.70135399  1
  Te  Te8  1  0.68587832  0.20819338  0.78687546  1
  Te  Te9  1  0.31412168  0.79180662  0.21312454  1
  Te  Te10  1  0.95748274  0.93407771  0.78683144  1
  Te  Te11  1  0.04251726  0.06592229  0.21316856  1
  Te  Te12  1  0.79645210  0.30217400  0.19931350  1
  Te  Te13  1  0.20354790  0.69782600  0.80068650  1
  Te  Te14  1  0.55709903  0.53940163  0.19535575  1
  Te  Te15  1  0.44290097  0.46059837  0.80464425  1
  Br  Br16  1  0.10296829  0.35115831  0.04660426  1
  Br  Br17  1  0.89703171  0.64884169  0.95339574  1
  Br  Br18  1  0.32662376  0.07915197  0.95702583  1
  Br  Br19  1  0.67337624  0.92084803  0.04297417  1
  O  O20  1  0.32807917  0.76620805  0.66977851  1
  O  O21  1  0.67192083  0.23379195  0.33022149  1
  O  O22  1  0.51258498  0.57829305  0.67076370  1
  O  O23  1  0.48741502  0.42170695  0.32923630  1
  O  O24  1  0.42489859  0.99123188  0.33445871  1
  O  O25  1  0.57510141  0.00876812  0.66554129  1
  O  O26  1  0.74140171  0.67791578  0.32762206  1
  O  O27  1  0.25859829  0.32208422  0.67237794  1
  O  O28  1  0.75608065  0.82282194  0.66440040  1
  O  O29  1  0.24391935  0.17717806  0.33559960  1
  O  O30  1  0.17072808  0.73413057  0.32814942  1
  O  O31  1  0.82927192  0.26586943  0.67185058  1
  O  O32  1  0.99292733  0.92214138  0.33222797  1
  O  O33  1  0.00707267  0.07785862  0.66777203  1
  O  O34  1  0.92555990  0.49111046  0.33414411  1
  O  O35  1  0.07444010  0.50888954  0.66585589  1
  O  O36  1  0.55207406  0.29498987  0.69030267  1
  O  O37  1  0.44792594  0.70501013  0.30969733  1
  O  O38  1  0.04046956  0.80073156  0.67989062  1
  O  O39  1  0.95953044  0.19926844  0.32010938  1
  O  O40  1  0.34499381  0.59972524  0.89225652  1
  O  O41  1  0.65500619  0.40027476  0.10774348  1
