# generated using pymatgen
data_Co(H3Br)2
_symmetry_space_group_name_H-M   'P 1'
_cell_length_a   7.34591165
_cell_length_b   4.96748599
_cell_length_c   8.88894554
_cell_angle_alpha   90.00000000
_cell_angle_beta   96.30320261
_cell_angle_gamma   90.00000000
_symmetry_Int_Tables_number   1
_chemical_formula_structural   Co(H3Br)2
_chemical_formula_sum   'Co2 H12 Br4'
_cell_volume   322.40312367
_cell_formula_units_Z   2
loop_
 _symmetry_equiv_pos_site_id
 _symmetry_equiv_pos_as_xyz
  1  'x, y, z'
loop_
 _atom_site_type_symbol
 _atom_site_label
 _atom_site_symmetry_multiplicity
 _atom_site_fract_x
 _atom_site_fract_y
 _atom_site_fract_z
 _atom_site_occupancy
  Co  Co0  1  0.00000000  0.25000000  -0.00000000  1
  Co  Co1  1  0.00000000  0.75000000  -0.00000000  1
  H  H2  1  0.33225474  -0.00000000  0.54392872  1
  H  H3  1  0.66774526  0.50000000  0.45607128  1
  H  H4  1  0.04678392  -0.00000000  0.83561866  1
  H  H5  1  0.95321608  0.50000000  0.16438134  1
  H  H6  1  0.42867793  -0.00000000  0.52521883  1
  H  H7  1  0.57132207  0.50000000  0.47478117  1
  H  H8  1  0.06196649  -0.00000000  0.11601648  1
  H  H9  1  0.93803351  0.50000000  0.88398352  1
  H  H10  1  0.94628219  -0.00000000  0.43213634  1
  H  H11  1  0.05371781  0.50000000  0.56786366  1
  H  H12  1  0.13755565  -0.00000000  0.90004247  1
  H  H13  1  0.86244435  0.50000000  0.09995753  1
  Br  Br14  1  0.16185534  0.50000000  0.44178293  1
  Br  Br15  1  0.83814466  0.00000000  0.55821707  1
  Br  Br16  1  0.27853766  0.50000000  0.04461880  1
  Br  Br17  1  0.72146234  0.00000000  0.95538120  1
