# generated using pymatgen
data_Ba5B3BrO9
_symmetry_space_group_name_H-M   'P 1'
_cell_length_a   8.14640688
_cell_length_b   9.23157425
_cell_length_c   9.23157425
_cell_angle_alpha   109.53888099
_cell_angle_beta   90.00000000
_cell_angle_gamma   90.00000000
_symmetry_Int_Tables_number   1
_chemical_formula_structural   Ba5B3BrO9
_chemical_formula_sum   'Ba10 B6 Br2 O18'
_cell_volume   654.27406841
_cell_formula_units_Z   2
loop_
 _symmetry_equiv_pos_site_id
 _symmetry_equiv_pos_as_xyz
  1  'x, y, z'
loop_
 _atom_site_type_symbol
 _atom_site_label
 _atom_site_symmetry_multiplicity
 _atom_site_fract_x
 _atom_site_fract_y
 _atom_site_fract_z
 _atom_site_occupancy
  Ba  Ba0  1  0.50000000  0.24158058  0.24158058  1
  Ba  Ba1  1  0.00000000  0.75841942  0.75841942  1
  Ba  Ba2  1  0.56575262  0.72986099  0.99270237  1
  Ba  Ba3  1  0.43424738  0.99270237  0.72986099  1
  Ba  Ba4  1  0.06575262  0.27013901  0.00729763  1
  Ba  Ba5  1  0.93424738  0.00729763  0.27013901  1
  Ba  Ba6  1  0.75000000  0.36154857  0.63845143  1
  Ba  Ba7  1  0.25000000  0.63845143  0.36154857  1
  Ba  Ba8  1  0.75000000  0.63997041  0.36002959  1
  Ba  Ba9  1  0.25000000  0.36002959  0.63997041  1
  B  B10  1  0.53042115  0.98335038  0.40176269  1
  B  B11  1  0.46957885  0.40176269  0.98335038  1
  B  B12  1  0.03042115  0.01664962  0.59823731  1
  B  B13  1  0.96957885  0.59823731  0.01664962  1
  B  B14  1  0.50000000  0.62478778  0.62478778  1
  B  B15  1  0.00000000  0.37521222  0.37521222  1
  Br  Br16  1  0.75000000  0.05551978  0.94448022  1
  Br  Br17  1  0.25000000  0.94448022  0.05551978  1
  O  O18  1  0.50000000  0.49262976  0.49262976  1
  O  O19  1  0.00000000  0.50737024  0.50737024  1
  O  O20  1  0.48998802  0.12986128  0.50550317  1
  O  O21  1  0.51001198  0.50550317  0.12986128  1
  O  O22  1  0.98998802  0.87013872  0.49449683  1
  O  O23  1  0.01001198  0.49449683  0.87013872  1
  O  O24  1  0.51368951  0.43211378  0.85030571  1
  O  O25  1  0.48631049  0.85030571  0.43211378  1
  O  O26  1  0.01368951  0.56788622  0.14969429  1
  O  O27  1  0.98631049  0.14969429  0.56788622  1
  O  O28  1  0.15021239  0.31290357  0.31225162  1
  O  O29  1  0.84978761  0.31225162  0.31290357  1
  O  O30  1  0.65021239  0.68709643  0.68774838  1
  O  O31  1  0.34978761  0.68774838  0.68709643  1
  O  O32  1  0.61932044  0.97100398  0.26947110  1
  O  O33  1  0.38067956  0.26947110  0.97100398  1
  O  O34  1  0.11932044  0.02899602  0.73052890  1
  O  O35  1  0.88067956  0.73052890  0.02899602  1
