# generated using pymatgen
data_Ho6Al43Cr4
_symmetry_space_group_name_H-M   'P 1'
_cell_length_a   10.91992139
_cell_length_b   10.92044137
_cell_length_c   17.47125821
_cell_angle_alpha   90.00000000
_cell_angle_beta   90.00000000
_cell_angle_gamma   119.99842893
_symmetry_Int_Tables_number   1
_chemical_formula_structural   Ho6Al43Cr4
_chemical_formula_sum   'Ho12 Al86 Cr8'
_cell_volume   1804.35252826
_cell_formula_units_Z   2
loop_
 _symmetry_equiv_pos_site_id
 _symmetry_equiv_pos_as_xyz
  1  'x, y, z'
loop_
 _atom_site_type_symbol
 _atom_site_label
 _atom_site_symmetry_multiplicity
 _atom_site_fract_x
 _atom_site_fract_y
 _atom_site_fract_z
 _atom_site_occupancy
  Ho  Ho0  1  0.52981215  1.00000000  0.59533100  1
  Ho  Ho1  1  0.47018806  0.47018868  0.59531768  1
  Ho  Ho2  1  -0.00000061  0.52981132  0.59531768  1
  Ho  Ho3  1  0.47018785  0.00000000  0.40466900  1
  Ho  Ho4  1  0.52981194  0.52981132  0.40468232  1
  Ho  Ho5  1  0.00000061  0.47018868  0.40468232  1
  Ho  Ho6  1  0.47018785  0.00000000  0.09533100  1
  Ho  Ho7  1  0.52981194  0.52981132  0.09531768  1
  Ho  Ho8  1  0.00000061  0.47018868  0.09531768  1
  Ho  Ho9  1  0.52981215  1.00000000  0.90466900  1
  Ho  Ho10  1  0.47018806  0.47018868  0.90468232  1
  Ho  Ho11  1  -0.00000061  0.52981132  0.90468232  1
  Al  Al12  1  0.15876126  0.39081250  0.66551569  1
  Al  Al13  1  0.23204776  0.84120379  0.66550485  1
  Al  Al14  1  0.60920228  0.76813519  0.66556567  1
  Al  Al15  1  0.76794876  0.60918750  0.66551569  1
  Al  Al16  1  0.39084397  0.15879621  0.66550485  1
  Al  Al17  1  0.84106709  0.23186481  0.66556567  1
  Al  Al18  1  0.84123874  0.60918750  0.33448431  1
  Al  Al19  1  0.76795224  0.15879621  0.33449515  1
  Al  Al20  1  0.39079772  0.23186481  0.33443433  1
  Al  Al21  1  0.23205124  0.39081250  0.33448431  1
  Al  Al22  1  0.60915603  0.84120379  0.33449515  1
  Al  Al23  1  0.15893291  0.76813519  0.33443433  1
  Al  Al24  1  0.84123874  0.60918750  0.16551569  1
  Al  Al25  1  0.76795224  0.15879621  0.16550485  1
  Al  Al26  1  0.39079772  0.23186481  0.16556567  1
  Al  Al27  1  0.23205124  0.39081250  0.16551569  1
  Al  Al28  1  0.60915603  0.84120379  0.16550485  1
  Al  Al29  1  0.15893291  0.76813519  0.16556567  1
  Al  Al30  1  0.15876126  0.39081250  0.83448431  1
  Al  Al31  1  0.23204776  0.84120379  0.83449515  1
  Al  Al32  1  0.60920228  0.76813519  0.83443433  1
  Al  Al33  1  0.76794876  0.60918750  0.83448431  1
  Al  Al34  1  0.39084397  0.15879621  0.83449515  1
  Al  Al35  1  0.84106709  0.23186481  0.83443433  1
  Al  Al36  1  0.15487192  0.00000000  0.11608495  1
  Al  Al37  1  0.84530240  0.84526606  0.11600512  1
  Al  Al38  1  0.00003633  0.15473394  0.11600512  1
  Al  Al39  1  0.84512808  1.00000000  0.88391505  1
  Al  Al40  1  0.15469760  0.15473394  0.88399488  1
  Al  Al41  1  0.99996367  0.84526606  0.88399488  1
  Al  Al42  1  0.84512808  1.00000000  0.61608495  1
  Al  Al43  1  0.15469760  0.15473394  0.61600512  1
  Al  Al44  1  0.99996367  0.84526606  0.61600512  1
  Al  Al45  1  0.15487192  0.00000000  0.38391505  1
  Al  Al46  1  0.84530240  0.84526606  0.38399488  1
  Al  Al47  1  0.00003633  0.15473394  0.38399488  1
  Al  Al48  1  0.25130068  0.00000000  0.53066025  1
  Al  Al49  1  0.74869645  0.74873328  0.53070285  1
  Al  Al50  1  0.99996317  0.25126672  0.53070285  1
  Al  Al51  1  0.74869932  1.00000000  0.46933975  1
  Al  Al52  1  0.25130355  0.25126672  0.46929715  1
  Al  Al53  1  0.00003683  0.74873328  0.46929715  1
  Al  Al54  1  0.74869932  1.00000000  0.03066025  1
  Al  Al55  1  0.25130355  0.25126672  0.03070285  1
  Al  Al56  1  0.00003683  0.74873328  0.03070285  1
  Al  Al57  1  0.25130068  0.00000000  0.96933975  1
  Al  Al58  1  0.74869645  0.74873328  0.96929715  1
  Al  Al59  1  0.99996317  0.25126672  0.96929715  1
  Al  Al60  1  0.14467986  0.59669042  0.75000000  1
  Al  Al61  1  0.45216767  0.85543333  0.75000000  1
  Al  Al62  1  0.40333367  0.54801373  0.75000000  1
  Al  Al63  1  0.54798944  0.40330958  0.75000000  1
  Al  Al64  1  0.59673433  0.14456667  0.75000000  1
  Al  Al65  1  0.85531994  0.45198627  0.75000000  1
  Al  Al66  1  0.85532014  0.40330958  0.25000000  1
  Al  Al67  1  0.54783233  0.14456667  0.25000000  1
  Al  Al68  1  0.59666633  0.45198627  0.25000000  1
  Al  Al69  1  0.45201056  0.59669042  0.25000000  1
  Al  Al70  1  0.40326567  0.85543333  0.25000000  1
  Al  Al71  1  0.14468006  0.54801373  0.25000000  1
  Al  Al72  1  0.24686808  0.49373615  0.50000000  1
  Al  Al73  1  0.24687351  0.75315699  0.50000135  1
  Al  Al74  1  0.50628348  0.75315699  0.49999865  1
  Al  Al75  1  0.75313192  0.50626385  0.50000000  1
  Al  Al76  1  0.49371652  0.24684301  0.50000135  1
  Al  Al77  1  0.75312649  0.24684301  0.49999865  1
  Al  Al78  1  0.75313192  0.50626385  -0.00000000  1
  Al  Al79  1  0.75312649  0.24684301  0.00000135  1
  Al  Al80  1  0.49371652  0.24684301  -0.00000135  1
  Al  Al81  1  0.24686808  0.49373615  -0.00000000  1
  Al  Al82  1  0.50628348  0.75315699  0.00000135  1
  Al  Al83  1  0.24687351  0.75315699  -0.00000135  1
  Al  Al84  1  0.33336727  0.66670849  0.62754706  1
  Al  Al85  1  0.66665879  0.33329151  0.62754706  1
  Al  Al86  1  0.66663273  0.33329151  0.37245294  1
  Al  Al87  1  0.33334121  0.66670849  0.37245294  1
  Al  Al88  1  0.66663273  0.33329151  0.12754706  1
  Al  Al89  1  0.33334121  0.66670849  0.12754706  1
  Al  Al90  1  0.33336727  0.66670849  0.87245294  1
  Al  Al91  1  0.66665879  0.33329151  0.87245294  1
  Al  Al92  1  0.14470898  1.00000000  0.75000000  1
  Al  Al93  1  0.85507793  0.85532166  0.75000000  1
  Al  Al94  1  0.99975627  0.14467834  0.75000000  1
  Al  Al95  1  0.85529102  0.00000000  0.25000000  1
  Al  Al96  1  0.14492207  0.14467834  0.25000000  1
  Al  Al97  1  0.00024373  0.85532166  0.25000000  1
  Cr  Cr98  1  0.72989847  0.00000000  0.75000000  1
  Cr  Cr99  1  0.26980665  0.26984556  0.75000000  1
  Cr  Cr100  1  -0.00003890  0.73015444  0.75000000  1
  Cr  Cr101  1  0.27010153  1.00000000  0.25000000  1
  Cr  Cr102  1  0.73019335  0.73015444  0.25000000  1
  Cr  Cr103  1  0.00003890  0.26984556  0.25000000  1
  Cr  Cr104  1  -0.00000000  -0.00000000  0.50000000  1
  Cr  Cr105  1  -0.00000000  -0.00000000  -0.00000000  1
