# generated using pymatgen
data_La4(ErS2)11
_symmetry_space_group_name_H-M   'P 1'
_cell_length_a   3.96612930
_cell_length_b   11.36874590
_cell_length_c   19.72780151
_cell_angle_alpha   91.38981804
_cell_angle_beta   95.76919118
_cell_angle_gamma   90.00000000
_symmetry_Int_Tables_number   1
_chemical_formula_structural   La4(ErS2)11
_chemical_formula_sum   'La4 Er11 S22'
_cell_volume   884.75637184
_cell_formula_units_Z   1
loop_
 _symmetry_equiv_pos_site_id
 _symmetry_equiv_pos_as_xyz
  1  'x, y, z'
loop_
 _atom_site_type_symbol
 _atom_site_label
 _atom_site_symmetry_multiplicity
 _atom_site_fract_x
 _atom_site_fract_y
 _atom_site_fract_z
 _atom_site_occupancy
  La  La0  1  0.10395589  0.01223875  0.20791178  1
  La  La1  1  0.89604411  0.98776125  0.79208822  1
  La  La2  1  0.36710350  0.34726111  0.73420700  1
  La  La3  1  0.63289650  0.65273889  0.26579300  1
  Er  Er4  1  0.79785495  0.05808497  0.59570990  1
  Er  Er5  1  0.20214505  0.94191503  0.40429010  1
  Er  Er6  1  0.46202611  0.27116944  0.92405222  1
  Er  Er7  1  0.53797389  0.72883056  0.07594778  1
  Er  Er8  1  0.65764149  0.30163123  0.31528298  1
  Er  Er9  1  0.34235851  0.69836877  0.68471702  1
  Er  Er10  1  0.26392112  0.35201918  0.52784223  1
  Er  Er11  1  0.73607888  0.64798082  0.47215777  1
  Er  Er12  1  0.06934534  0.36044153  0.13869067  1
  Er  Er13  1  0.93065466  0.63955847  0.86130933  1
  Er  Er14  1  0.00000000  -0.00000000  0.00000000  1
  S  S15  1  0.08693655  0.75176772  0.17387309  1
  S  S16  1  0.91306345  0.24823228  0.82612691  1
  S  S17  1  0.18923436  0.69211226  0.37846873  1
  S  S18  1  0.81076564  0.30788774  0.62153127  1
  S  S19  1  0.27995451  0.59003300  0.55990903  1
  S  S20  1  0.72004549  0.40996700  0.44009097  1
  S  S21  1  0.44578464  0.49549525  0.89156927  1
  S  S22  1  0.55421536  0.50450475  0.10843073  1
  S  S23  1  0.13438462  0.45227197  0.26876923  1
  S  S24  1  0.86561538  0.54772803  0.73123077  1
  S  S25  1  0.59290390  0.21340182  0.18580780  1
  S  S26  1  0.40709610  0.78659818  0.81419220  1
  S  S27  1  0.45356049  0.03173526  0.90712098  1
  S  S28  1  0.54643951  0.96826474  0.09287902  1
  S  S29  1  0.35028159  0.09117351  0.70056318  1
  S  S30  1  0.64971841  0.90882649  0.29943682  1
  S  S31  1  0.16857446  0.15217241  0.33714892  1
  S  S32  1  0.83142554  0.84782759  0.66285108  1
  S  S33  1  0.00774638  0.23892278  0.01549276  1
  S  S34  1  0.99225362  0.76107722  0.98450724  1
  S  S35  1  0.25532990  0.11901680  0.51065980  1
  S  S36  1  0.74467010  0.88098320  0.48934020  1
