# generated using pymatgen
data_BaU2S5
_symmetry_space_group_name_H-M   'P 1'
_cell_length_a   7.49639316
_cell_length_b   8.46903663
_cell_length_c   11.77012745
_cell_angle_alpha   90.57084128
_cell_angle_beta   90.00000000
_cell_angle_gamma   90.00000000
_symmetry_Int_Tables_number   1
_chemical_formula_structural   BaU2S5
_chemical_formula_sum   'Ba4 U8 S20'
_cell_volume   747.21568123
_cell_formula_units_Z   4
loop_
 _symmetry_equiv_pos_site_id
 _symmetry_equiv_pos_as_xyz
  1  'x, y, z'
loop_
 _atom_site_type_symbol
 _atom_site_label
 _atom_site_symmetry_multiplicity
 _atom_site_fract_x
 _atom_site_fract_y
 _atom_site_fract_z
 _atom_site_occupancy
  Ba  Ba0  1  0.55507539  0.49048095  0.16815084  1
  Ba  Ba1  1  0.05507539  0.50951905  0.33184916  1
  Ba  Ba2  1  0.44492461  0.50951905  0.83184916  1
  Ba  Ba3  1  0.94492461  0.49048095  0.66815084  1
  U  U4  1  0.52017895  0.99953692  0.18221968  1
  U  U5  1  0.02017895  0.00046308  0.31778032  1
  U  U6  1  0.47982105  0.00046308  0.81778032  1
  U  U7  1  0.97982105  0.99953692  0.68221968  1
  U  U8  1  0.56685712  0.75823838  0.49182690  1
  U  U9  1  0.06685712  0.24176162  0.00817310  1
  U  U10  1  0.43314288  0.24176162  0.50817310  1
  U  U11  1  0.93314288  0.75823838  0.99182690  1
  S  S12  1  0.16196279  0.95638954  0.09853307  1
  S  S13  1  0.66196279  0.04361046  0.40146693  1
  S  S14  1  0.83803721  0.04361046  0.90146693  1
  S  S15  1  0.33803721  0.95638954  0.59853307  1
  S  S16  1  0.94798815  0.79544809  0.49774092  1
  S  S17  1  0.44798815  0.20455191  0.00225908  1
  S  S18  1  0.05201185  0.20455191  0.50225908  1
  S  S19  1  0.55201185  0.79544809  0.99774092  1
  S  S20  1  0.34082396  0.78563185  0.31246164  1
  S  S21  1  0.84082396  0.21436815  0.18753836  1
  S  S22  1  0.65917604  0.21436815  0.68753836  1
  S  S23  1  0.15917604  0.78563185  0.81246164  1
  S  S24  1  0.81109796  0.77757009  0.21439914  1
  S  S25  1  0.31109796  0.22242991  0.28560086  1
  S  S26  1  0.18890204  0.22242991  0.78560086  1
  S  S27  1  0.68890204  0.77757009  0.71439914  1
  S  S28  1  0.67446621  0.46493231  0.42959950  1
  S  S29  1  0.17446621  0.53506769  0.07040050  1
  S  S30  1  0.32553379  0.53506769  0.57040050  1
  S  S31  1  0.82553379  0.46493231  0.92959950  1
