# generated using pymatgen
data_Pr12(ReC3)5
_symmetry_space_group_name_H-M   'P 1'
_cell_length_a   5.40230829
_cell_length_b   11.09259798
_cell_length_c   11.09264298
_cell_angle_alpha   119.99986805
_cell_angle_beta   90.00000000
_cell_angle_gamma   90.00000000
_symmetry_Int_Tables_number   1
_chemical_formula_structural   Pr12(ReC3)5
_chemical_formula_sum   'Pr12 Re5 C15'
_cell_volume   575.67700445
_cell_formula_units_Z   1
loop_
 _symmetry_equiv_pos_site_id
 _symmetry_equiv_pos_as_xyz
  1  'x, y, z'
loop_
 _atom_site_type_symbol
 _atom_site_label
 _atom_site_symmetry_multiplicity
 _atom_site_fract_x
 _atom_site_fract_y
 _atom_site_fract_z
 _atom_site_occupancy
  Pr  Pr0  1  0.00000000  0.27020552  0.45769603  1
  Pr  Pr1  1  -0.00000000  0.18746730  0.72977993  1
  Pr  Pr2  1  -0.00000000  0.54230694  0.81251967  1
  Pr  Pr3  1  0.00000000  0.81250949  0.54230397  1
  Pr  Pr4  1  -0.00000000  0.45768737  0.27022007  1
  Pr  Pr5  1  -0.00000000  0.72978727  0.18748033  1
  Pr  Pr6  1  0.50000000  0.42362840  1.00000000  1
  Pr  Pr7  1  0.50000000  0.57637250  0.57637646  1
  Pr  Pr8  1  0.50000000  0.99999604  0.42362354  1
  Pr  Pr9  1  0.50000000  0.79563940  0.00000000  1
  Pr  Pr10  1  0.50000000  0.20437093  0.20438142  1
  Pr  Pr11  1  0.50000000  0.99998951  0.79561858  1
  Re  Re12  1  -0.00000000  0.15416564  1.00000000  1
  Re  Re13  1  -0.00000000  0.84582453  0.84582511  1
  Re  Re14  1  0.00000000  -0.00000058  0.15417489  1
  Re  Re15  1  0.50000000  0.33332492  0.66667216  1
  Re  Re16  1  0.50000000  0.66665276  0.33332784  1
  C  C17  1  0.50000000  0.28164395  0.47442836  1
  C  C18  1  0.50000000  0.19276965  0.71837530  1
  C  C19  1  0.50000000  0.52558659  0.80722531  1
  C  C20  1  0.50000000  0.80721559  0.52557164  1
  C  C21  1  0.50000000  0.47439435  0.28162470  1
  C  C22  1  0.50000000  0.71836128  0.19277469  1
  C  C23  1  -0.00000000  0.32904034  0.00000000  1
  C  C24  1  0.00000000  0.67094666  0.67094554  1
  C  C25  1  -0.00000000  0.00000112  0.32905446  1
  C  C26  1  0.00000000  0.45110038  1.00000000  1
  C  C27  1  0.00000000  0.54888981  0.54889112  1
  C  C28  1  0.00000000  0.99999869  0.45110888  1
  C  C29  1  0.00000000  0.79508905  0.00000000  1
  C  C30  1  -0.00000000  0.20492817  0.20492177  1
  C  C31  1  -0.00000000  0.00000639  0.79507823  1
