# generated using pymatgen
data_CsY2CuTe4
_symmetry_space_group_name_H-M   'P 1'
_cell_length_a   4.54399600
_cell_length_b   18.89573393
_cell_length_c   21.03779641
_cell_angle_alpha   107.84624465
_cell_angle_beta   90.00000000
_cell_angle_gamma   96.90587735
_symmetry_Int_Tables_number   1
_chemical_formula_structural   CsY2CuTe4
_chemical_formula_sum   'Cs6 Y12 Cu6 Te24'
_cell_volume   1705.66015415
_cell_formula_units_Z   6
loop_
 _symmetry_equiv_pos_site_id
 _symmetry_equiv_pos_as_xyz
  1  'x, y, z'
loop_
 _atom_site_type_symbol
 _atom_site_label
 _atom_site_symmetry_multiplicity
 _atom_site_fract_x
 _atom_site_fract_y
 _atom_site_fract_z
 _atom_site_occupancy
  Cs  Cs0  1  0.23899229  0.47798458  0.11507030  1
  Cs  Cs1  1  0.76100771  0.52201542  0.88492970  1
  Cs  Cs2  1  0.11096345  0.22192691  0.45152482  1
  Cs  Cs3  1  0.88903655  0.77807309  0.54847518  1
  Cs  Cs4  1  0.01738713  0.03477426  0.24784417  1
  Cs  Cs5  1  0.98261287  0.96522574  0.75215583  1
  Y  Y6  1  0.00000000  0.00000000  -0.00000000  1
  Y  Y7  1  0.00000000  0.00000000  0.50000000  1
  Y  Y8  1  0.36914764  0.73829528  0.31006516  1
  Y  Y9  1  0.63085236  0.26170472  0.68993484  1
  Y  Y10  1  0.12187964  0.24375928  0.86233833  1
  Y  Y11  1  0.87812036  0.75624072  0.13766167  1
  Y  Y12  1  0.39755939  0.79511879  0.97394284  1
  Y  Y13  1  0.60244061  0.20488121  0.02605716  1
  Y  Y14  1  0.16706121  0.33412242  0.27881983  1
  Y  Y15  1  0.83293879  0.66587758  0.72118017  1
  Y  Y16  1  0.24142293  0.48284585  0.58344690  1
  Y  Y17  1  0.75857707  0.51715415  0.41655310  1
  Cu  Cu18  1  0.39054331  0.78108662  0.82747079  1
  Cu  Cu19  1  0.60945669  0.21891338  0.17252921  1
  Cu  Cu20  1  0.45231185  0.90462371  0.36034646  1
  Cu  Cu21  1  0.54768815  0.09537629  0.63965354  1
  Cu  Cu22  1  0.20108158  0.40216317  0.68025237  1
  Cu  Cu23  1  0.79891842  0.59783683  0.31974763  1
  Te  Te24  1  0.13971706  0.27943412  0.12999395  1
  Te  Te25  1  0.86028294  0.72056588  0.87000605  1
  Te  Te26  1  0.38343069  0.76686138  0.70232453  1
  Te  Te27  1  0.61656931  0.23313862  0.29767547  1
  Te  Te28  1  0.46050318  0.92100636  0.90548961  1
  Te  Te29  1  0.53949682  0.07899364  0.09451039  1
  Te  Te30  1  0.08006461  0.16012922  0.60500256  1
  Te  Te31  1  0.91993539  0.83987078  0.39499744  1
  Te  Te32  1  0.47656423  0.95312846  0.58122344  1
  Te  Te33  1  0.52343577  0.04687154  0.41877656  1
  Te  Te34  1  0.42422291  0.84844582  0.22611649  1
  Te  Te35  1  0.57577709  0.15155418  0.77388351  1
  Te  Te36  1  0.31752264  0.63504528  0.39977726  1
  Te  Te37  1  0.68247736  0.36495472  0.60022274  1
  Te  Te38  1  0.17620113  0.35240226  0.78124756  1
  Te  Te39  1  0.82379887  0.64759774  0.21875244  1
  Te  Te40  1  0.27589656  0.55179311  0.73214428  1
  Te  Te41  1  0.72410344  0.44820689  0.26785572  1
  Te  Te42  1  0.06195045  0.12390089  0.93463562  1
  Te  Te43  1  0.93804955  0.87609911  0.06536438  1
  Te  Te44  1  0.33579245  0.67158490  0.04055595  1
  Te  Te45  1  0.66420755  0.32841510  0.95944405  1
  Te  Te46  1  0.20775409  0.41550819  0.43174064  1
  Te  Te47  1  0.79224591  0.58449181  0.56825936  1
