# generated using pymatgen
data_HfH6O3F4
_symmetry_space_group_name_H-M   'P 1'
_cell_length_a   6.74972801
_cell_length_b   7.70722575
_cell_length_c   10.71897343
_cell_angle_alpha   90.00000000
_cell_angle_beta   90.00000000
_cell_angle_gamma   99.89736251
_symmetry_Int_Tables_number   1
_chemical_formula_structural   HfH6O3F4
_chemical_formula_sum   'Hf4 H24 O12 F16'
_cell_volume   549.32006938
_cell_formula_units_Z   4
loop_
 _symmetry_equiv_pos_site_id
 _symmetry_equiv_pos_as_xyz
  1  'x, y, z'
loop_
 _atom_site_type_symbol
 _atom_site_label
 _atom_site_symmetry_multiplicity
 _atom_site_fract_x
 _atom_site_fract_y
 _atom_site_fract_z
 _atom_site_occupancy
  Hf  Hf0  1  0.74206672  0.45963285  0.54501676  1
  Hf  Hf1  1  0.25793328  0.04036715  0.04501676  1
  Hf  Hf2  1  0.25793328  0.54036715  0.45498324  1
  Hf  Hf3  1  0.74206672  0.95963285  0.95498324  1
  H  H4  1  0.60336203  0.39032074  0.11906348  1
  H  H5  1  0.39663797  0.10967926  0.61906348  1
  H  H6  1  0.39663797  0.60967926  0.88093652  1
  H  H7  1  0.60336203  0.89032074  0.38093652  1
  H  H8  1  0.82496188  0.38404798  0.08412932  1
  H  H9  1  0.17503812  0.11595202  0.58412932  1
  H  H10  1  0.17503812  0.61595202  0.91587068  1
  H  H11  1  0.82496188  0.88404798  0.41587068  1
  H  H12  1  0.76403071  0.34724736  0.29304076  1
  H  H13  1  0.23596929  0.15275264  0.79304076  1
  H  H14  1  0.23596929  0.65275264  0.70695924  1
  H  H15  1  0.76403071  0.84724736  0.20695924  1
  H  H16  1  0.76100236  0.16621737  0.37459533  1
  H  H17  1  0.23899764  0.33378263  0.87459533  1
  H  H18  1  0.23899764  0.83378263  0.62540467  1
  H  H19  1  0.76100236  0.66621737  0.12540467  1
  H  H20  1  0.73247036  0.56830886  0.79906103  1
  H  H21  1  0.26752964  0.93169114  0.29906103  1
  H  H22  1  0.26752964  0.43169114  0.20093897  1
  H  H23  1  0.73247036  0.06830886  0.70093897  1
  H  H24  1  0.76183754  0.36556645  0.80348510  1
  H  H25  1  0.23816246  0.13443355  0.30348510  1
  H  H26  1  0.23816246  0.63443355  0.19651490  1
  H  H27  1  0.76183754  0.86556645  0.69651490  1
  O  O28  1  0.74396652  0.44247213  0.14066305  1
  O  O29  1  0.25603348  0.05752787  0.64066305  1
  O  O30  1  0.25603348  0.55752787  0.85933695  1
  O  O31  1  0.74396652  0.94247213  0.35933695  1
  O  O32  1  0.75608287  0.29521274  0.37817384  1
  O  O33  1  0.24391713  0.20478726  0.87817384  1
  O  O34  1  0.24391713  0.70478726  0.62182616  1
  O  O35  1  0.75608287  0.79521274  0.12182616  1
  O  O36  1  0.77206467  0.47167125  0.74888474  1
  O  O37  1  0.22793533  0.02832875  0.24888474  1
  O  O38  1  0.22793533  0.52832875  0.25111526  1
  O  O39  1  0.77206467  0.97167125  0.75111526  1
  F  F40  1  0.02803771  0.39246592  0.57632991  1
  F  F41  1  0.97196229  0.10753408  0.07632991  1
  F  F42  1  0.97196229  0.60753408  0.42367009  1
  F  F43  1  0.02803771  0.89246592  0.92367009  1
  F  F44  1  0.43282560  0.44256813  0.59669436  1
  F  F45  1  0.56717440  0.05743187  0.09669436  1
  F  F46  1  0.56717440  0.55743187  0.40330564  1
  F  F47  1  0.43282560  0.94256813  0.90330564  1
  F  F48  1  0.76173933  0.71563574  0.59477962  1
  F  F49  1  0.23826067  0.78436426  0.09477962  1
  F  F50  1  0.23826067  0.28436426  0.40522038  1
  F  F51  1  0.76173933  0.21563574  0.90522038  1
  F  F52  1  0.65421087  0.20171572  0.60230663  1
  F  F53  1  0.34578913  0.29828428  0.10230663  1
  F  F54  1  0.34578913  0.79828428  0.39769337  1
  F  F55  1  0.65421087  0.70171572  0.89769337  1
