# generated using pymatgen
data_K2Zr2NiH12(OF2)6
_symmetry_space_group_name_H-M   'P 1'
_cell_length_a   6.75830667
_cell_length_b   10.06376578
_cell_length_c   12.02602048
_cell_angle_alpha   90.00000000
_cell_angle_beta   97.02800465
_cell_angle_gamma   90.00000000
_symmetry_Int_Tables_number   1
_chemical_formula_structural   K2Zr2NiH12(OF2)6
_chemical_formula_sum   'K4 Zr4 Ni2 H24 O12 F24'
_cell_volume   811.79233882
_cell_formula_units_Z   2
loop_
 _symmetry_equiv_pos_site_id
 _symmetry_equiv_pos_as_xyz
  1  'x, y, z'
loop_
 _atom_site_type_symbol
 _atom_site_label
 _atom_site_symmetry_multiplicity
 _atom_site_fract_x
 _atom_site_fract_y
 _atom_site_fract_z
 _atom_site_occupancy
  K  K0  1  0.02724520  0.21483822  0.41198624  1
  K  K1  1  0.52724520  0.28516178  0.91198624  1
  K  K2  1  0.97275480  0.78516178  0.58801376  1
  K  K3  1  0.47275480  0.71483822  0.08801376  1
  Zr  Zr4  1  0.96230359  0.48670608  0.14803526  1
  Zr  Zr5  1  0.46230359  0.01329392  0.64803526  1
  Zr  Zr6  1  0.03769641  0.51329392  0.85196474  1
  Zr  Zr7  1  0.53769641  0.98670608  0.35196474  1
  Ni  Ni8  1  0.50000000  0.50000000  0.50000000  1
  Ni  Ni9  1  -0.00000000  0.00000000  0.00000000  1
  H  H10  1  0.35370412  0.31628942  0.61868168  1
  H  H11  1  0.85370412  0.18371058  0.11868168  1
  H  H12  1  0.64629588  0.68371058  0.38131832  1
  H  H13  1  0.14629588  0.81628942  0.88131832  1
  H  H14  1  0.20267004  0.43657480  0.61279147  1
  H  H15  1  0.70267004  0.06342520  0.11279147  1
  H  H16  1  0.79732996  0.56342520  0.38720853  1
  H  H17  1  0.29732996  0.93657480  0.88720853  1
  H  H18  1  0.68499036  0.30677060  0.60861096  1
  H  H19  1  0.18499036  0.19322940  0.10861096  1
  H  H20  1  0.31500964  0.69322940  0.39138904  1
  H  H21  1  0.81500964  0.80677060  0.89138904  1
  H  H22  1  0.83758745  0.42663410  0.60734221  1
  H  H23  1  0.33758745  0.07336590  0.10734221  1
  H  H24  1  0.16241255  0.57336590  0.39265779  1
  H  H25  1  0.66241255  0.92663410  0.89265779  1
  H  H26  1  0.46463726  0.68733194  0.66277321  1
  H  H27  1  0.96463726  0.81266806  0.16277321  1
  H  H28  1  0.53536274  0.31266806  0.33722679  1
  H  H29  1  0.03536274  0.18733194  0.83722679  1
  H  H30  1  0.59765668  0.56606645  0.71677334  1
  H  H31  1  0.09765668  0.93393355  0.21677334  1
  H  H32  1  0.40234332  0.43393355  0.28322666  1
  H  H33  1  0.90234332  0.06606645  0.78322666  1
  O  O34  1  0.28667735  0.38388322  0.56718962  1
  O  O35  1  0.78667735  0.11611678  0.06718962  1
  O  O36  1  0.71332265  0.61611678  0.43281038  1
  O  O37  1  0.21332265  0.88388322  0.93281038  1
  O  O38  1  0.73611791  0.37446267  0.55979169  1
  O  O39  1  0.23611791  0.12553733  0.05979169  1
  O  O40  1  0.26388209  0.62553733  0.44020831  1
  O  O41  1  0.76388209  0.87446267  0.94020831  1
  O  O42  1  0.55123575  0.61256704  0.64616915  1
  O  O43  1  0.05123575  0.88743296  0.14616915  1
  O  O44  1  0.44876425  0.38743296  0.35383085  1
  O  O45  1  0.94876425  0.11256704  0.85383085  1
  F  F46  1  0.96417079  0.61590778  0.00326309  1
  F  F47  1  0.46417079  0.88409222  0.50326309  1
  F  F48  1  0.03582921  0.38409222  0.99673691  1
  F  F49  1  0.53582921  0.11590778  0.49673691  1
  F  F50  1  0.02471938  0.28582830  0.18926637  1
  F  F51  1  0.52471938  0.21417170  0.68926637  1
  F  F52  1  0.97528062  0.71417170  0.81073363  1
  F  F53  1  0.47528062  0.78582830  0.31073363  1
  F  F54  1  0.67955632  0.43117456  0.09867455  1
  F  F55  1  0.17955632  0.06882544  0.59867455  1
  F  F56  1  0.32044368  0.56882544  0.90132545  1
  F  F57  1  0.82044368  0.93117456  0.40132545  1
  F  F58  1  0.96935696  0.47715574  0.32395756  1
  F  F59  1  0.46935696  0.02284426  0.82395756  1
  F  F60  1  0.03064304  0.52284426  0.67604244  1
  F  F61  1  0.53064304  0.97715574  0.17604244  1
  F  F62  1  0.85070609  0.66850456  0.19173714  1
  F  F63  1  0.35070609  0.83149544  0.69173714  1
  F  F64  1  0.14929391  0.33149544  0.80826286  1
  F  F65  1  0.64929391  0.16850456  0.30826286  1
  F  F66  1  0.25989125  0.53030613  0.18244911  1
  F  F67  1  0.75989125  0.96969387  0.68244911  1
  F  F68  1  0.74010875  0.46969387  0.81755089  1
  F  F69  1  0.24010875  0.03030613  0.31755089  1
