# generated using pymatgen
data_Co2NO6
_symmetry_space_group_name_H-M   'P 1'
_cell_length_a   5.38692896
_cell_length_b   5.80745275
_cell_length_c   7.10062416
_cell_angle_alpha   90.00000000
_cell_angle_beta   97.85576961
_cell_angle_gamma   90.00000000
_symmetry_Int_Tables_number   1
_chemical_formula_structural   Co2NO6
_chemical_formula_sum   'Co4 N2 O12'
_cell_volume   220.05359970
_cell_formula_units_Z   2
loop_
 _symmetry_equiv_pos_site_id
 _symmetry_equiv_pos_as_xyz
  1  'x, y, z'
loop_
 _atom_site_type_symbol
 _atom_site_label
 _atom_site_symmetry_multiplicity
 _atom_site_fract_x
 _atom_site_fract_y
 _atom_site_fract_z
 _atom_site_occupancy
  Co  Co0  1  0.00115537  0.26133705  0.00269741  1
  Co  Co1  1  -0.00115537  0.76133705  -0.00269741  1
  Co  Co2  1  0.49961827  0.00962760  -0.00378529  1
  Co  Co3  1  0.50038173  0.50962760  0.00378529  1
  N  N4  1  0.22500894  0.49686613  0.39530272  1
  N  N5  1  0.77499106  0.99686613  0.60469728  1
  O  O6  1  0.59912007  0.10771337  0.52855791  1
  O  O7  1  0.40087993  0.60771337  0.47144209  1
  O  O8  1  0.13123910  0.00907799  0.12993087  1
  O  O9  1  0.86876090  0.50907799  0.87006913  1
  O  O10  1  0.07034429  0.38205286  0.46092671  1
  O  O11  1  0.92965571  0.88205286  0.53907329  1
  O  O12  1  0.30144427  0.26305295  0.89222332  1
  O  O13  1  0.69855573  0.76305295  0.10777668  1
  O  O14  1  0.69641982  0.25597836  0.10683786  1
  O  O15  1  0.30358018  0.75597836  0.89316214  1
  O  O16  1  0.19853896  0.50329370  0.18759098  1
  O  O17  1  0.80146104  0.00329370  0.81240902  1
