# generated using pymatgen
data_KPr(PO3)4
_symmetry_space_group_name_H-M   'P 1'
_cell_length_a   7.39729611
_cell_length_b   8.14962788
_cell_length_c   8.59989198
_cell_angle_alpha   90.00000000
_cell_angle_beta   90.00000000
_cell_angle_gamma   91.95040639
_symmetry_Int_Tables_number   1
_chemical_formula_structural   KPr(PO3)4
_chemical_formula_sum   'K2 Pr2 P8 O24'
_cell_volume   518.14594297
_cell_formula_units_Z   2
loop_
 _symmetry_equiv_pos_site_id
 _symmetry_equiv_pos_as_xyz
  1  'x, y, z'
loop_
 _atom_site_type_symbol
 _atom_site_label
 _atom_site_symmetry_multiplicity
 _atom_site_fract_x
 _atom_site_fract_y
 _atom_site_fract_z
 _atom_site_occupancy
  K  K0  1  0.77218343  0.71961159  0.18545824  1
  K  K1  1  0.22781657  0.28038841  0.68545824  1
  Pr  Pr2  1  0.26496503  0.75791865  0.38059583  1
  Pr  Pr3  1  0.73503497  0.24208135  0.88059583  1
  P  P4  1  0.50084200  0.38024523  0.23332634  1
  P  P5  1  0.49915800  0.61975477  0.73332634  1
  P  P6  1  0.93454503  0.09883601  0.25668596  1
  P  P7  1  0.06545497  0.90116399  0.75668596  1
  P  P8  1  0.12229497  0.39509328  0.12792317  1
  P  P9  1  0.87770503  0.60490672  0.62792317  1
  P  P10  1  0.60349666  0.10474034  0.45818349  1
  P  P11  1  0.39650334  0.89525966  0.95818349  1
  O  O12  1  0.04290843  0.27368711  0.26263849  1
  O  O13  1  0.95709157  0.72631289  0.76263849  1
  O  O14  1  0.81327357  0.12672072  0.41021415  1
  O  O15  1  0.18672643  0.87327928  0.91021415  1
  O  O16  1  0.96159018  0.65082297  0.47470402  1
  O  O17  1  0.03840982  0.34917703  0.97470402  1
  O  O18  1  0.11145851  0.56780695  0.18604777  1
  O  O19  1  0.88854149  0.43219305  0.68604777  1
  O  O20  1  0.33025803  0.34290309  0.12097707  1
  O  O21  1  0.66974197  0.65709691  0.62097707  1
  O  O22  1  0.66707204  0.38593352  0.13289567  1
  O  O23  1  0.33292796  0.61406648  0.63289567  1
  O  O24  1  0.18198690  0.92567939  0.61553946  1
  O  O25  1  0.81801310  0.07432061  0.11553946  1
  O  O26  1  0.41331374  0.82434471  0.11784216  1
  O  O27  1  0.58668626  0.17565529  0.61784216  1
  O  O28  1  0.53728907  0.93130828  0.42774384  1
  O  O29  1  0.46271093  0.06869172  0.92774384  1
  O  O30  1  0.49285244  0.21633722  0.33723266  1
  O  O31  1  0.50714756  0.78366278  0.83723266  1
  O  O32  1  0.06399895  0.96498620  0.28918221  1
  O  O33  1  0.93600105  0.03501380  0.78918221  1
  O  O34  1  0.46917662  0.52797685  0.33271448  1
  O  O35  1  0.53082338  0.47202315  0.83271448  1
