# generated using pymatgen
data_ZnIn2(SeO3)4
_symmetry_space_group_name_H-M   'P 1'
_cell_length_a   4.89608857
_cell_length_b   8.61469115
_cell_length_c   14.97387244
_cell_angle_alpha   101.51649475
_cell_angle_beta   90.00000000
_cell_angle_gamma   90.00000000
_symmetry_Int_Tables_number   1
_chemical_formula_structural   ZnIn2(SeO3)4
_chemical_formula_sum   'Zn2 In4 Se8 O24'
_cell_volume   618.85707084
_cell_formula_units_Z   2
loop_
 _symmetry_equiv_pos_site_id
 _symmetry_equiv_pos_as_xyz
  1  'x, y, z'
loop_
 _atom_site_type_symbol
 _atom_site_label
 _atom_site_symmetry_multiplicity
 _atom_site_fract_x
 _atom_site_fract_y
 _atom_site_fract_z
 _atom_site_occupancy
  Zn  Zn0  1  -0.00000000  0.00000000  -0.00000000  1
  Zn  Zn1  1  0.50000000  0.50000000  0.50000000  1
  In  In2  1  0.46303938  0.05762632  0.21273756  1
  In  In3  1  0.03696062  0.55762632  0.71273756  1
  In  In4  1  0.53696062  0.94237368  0.78726244  1
  In  In5  1  0.96303938  0.44237368  0.28726244  1
  Se  Se6  1  0.42814194  0.33535107  0.11030257  1
  Se  Se7  1  0.07185806  0.83535107  0.61030257  1
  Se  Se8  1  0.57185806  0.66464893  0.88969743  1
  Se  Se9  1  0.92814194  0.16464893  0.38969743  1
  Se  Se10  1  0.99247064  0.78055241  0.12830398  1
  Se  Se11  1  0.50752936  0.28055241  0.62830398  1
  Se  Se12  1  0.00752936  0.21944759  0.87169602  1
  Se  Se13  1  0.49247064  0.71944759  0.37169602  1
  O  O14  1  0.22912936  0.84923471  0.21294629  1
  O  O15  1  0.27087064  0.34923471  0.71294629  1
  O  O16  1  0.77087064  0.15076529  0.78705371  1
  O  O17  1  0.72912936  0.65076529  0.28705371  1
  O  O18  1  0.17227692  0.45657721  0.16256018  1
  O  O19  1  0.32772308  0.95657721  0.66256018  1
  O  O20  1  0.82772308  0.54342279  0.83743982  1
  O  O21  1  0.67227692  0.04342279  0.33743982  1
  O  O22  1  0.79299455  0.95085713  0.12397155  1
  O  O23  1  0.70700545  0.45085713  0.62397155  1
  O  O24  1  0.20700545  0.04914287  0.87602845  1
  O  O25  1  0.29299455  0.54914287  0.37602845  1
  O  O26  1  0.29169578  0.14424213  0.09463927  1
  O  O27  1  0.20830422  0.64424213  0.59463927  1
  O  O28  1  0.70830422  0.85575787  0.90536073  1
  O  O29  1  0.79169578  0.35575787  0.40536073  1
  O  O30  1  0.63112064  0.29983883  0.20170216  1
  O  O31  1  0.86887936  0.79983883  0.70170216  1
  O  O32  1  0.36887936  0.70016117  0.79829784  1
  O  O33  1  0.13112064  0.20016117  0.29829784  1
  O  O34  1  0.16036628  0.79247694  0.02915011  1
  O  O35  1  0.33963372  0.29247694  0.52915011  1
  O  O36  1  0.83963372  0.20752306  0.97084989  1
  O  O37  1  0.66036628  0.70752306  0.47084989  1
