# generated using pymatgen
data_B8H4PbO15
_symmetry_space_group_name_H-M   'P 1'
_cell_length_a   8.10498971
_cell_length_b   10.02814650
_cell_length_c   14.35216320
_cell_angle_alpha   90.00000000
_cell_angle_beta   90.00000000
_cell_angle_gamma   90.36147580
_symmetry_Int_Tables_number   1
_chemical_formula_structural   B8H4PbO15
_chemical_formula_sum   'B32 H16 Pb4 O60'
_cell_volume   1166.49225285
_cell_formula_units_Z   4
loop_
 _symmetry_equiv_pos_site_id
 _symmetry_equiv_pos_as_xyz
  1  'x, y, z'
loop_
 _atom_site_type_symbol
 _atom_site_label
 _atom_site_symmetry_multiplicity
 _atom_site_fract_x
 _atom_site_fract_y
 _atom_site_fract_z
 _atom_site_occupancy
  B  B0  1  0.76031965  0.87492555  0.54036363  1
  B  B1  1  0.26031965  0.37492555  0.95963637  1
  B  B2  1  0.23968035  0.12507445  0.45963637  1
  B  B3  1  0.73968035  0.62507445  0.04036363  1
  B  B4  1  0.70196836  0.01023798  0.68203704  1
  B  B5  1  0.20196836  0.51023798  0.81796296  1
  B  B6  1  0.29803164  0.98976202  0.31796296  1
  B  B7  1  0.79803164  0.48976202  0.18203704  1
  B  B8  1  0.70466900  0.74773305  0.68825671  1
  B  B9  1  0.20466900  0.24773305  0.81174329  1
  B  B10  1  0.29533100  0.25226695  0.31174329  1
  B  B11  1  0.79533100  0.75226695  0.18825671  1
  B  B12  1  0.44335945  0.11265457  0.75001584  1
  B  B13  1  0.94335945  0.61265457  0.74998416  1
  B  B14  1  0.55664055  0.88734543  0.24998416  1
  B  B15  1  0.05664055  0.38734543  0.25001584  1
  B  B16  1  0.51574898  0.88394642  0.80267128  1
  B  B17  1  0.01574898  0.38394642  0.69732872  1
  B  B18  1  0.48425102  0.11605358  0.19732872  1
  B  B19  1  0.98425102  0.61605358  0.30267128  1
  B  B20  1  0.44803804  0.64626974  0.75941680  1
  B  B21  1  0.94803804  0.14626974  0.74058320  1
  B  B22  1  0.55196196  0.35373026  0.24058320  1
  B  B23  1  0.05196196  0.85373026  0.25941680  1
  B  B24  1  0.68505972  0.99983028  0.93075270  1
  B  B25  1  0.18505972  0.49983028  0.56924730  1
  B  B26  1  0.31494028  0.00016972  0.06924730  1
  B  B27  1  0.81494028  0.50016972  0.43075270  1
  B  B28  1  0.70664439  0.25116500  0.92662092  1
  B  B29  1  0.20664439  0.75116500  0.57337908  1
  B  B30  1  0.29335561  0.74883500  0.07337908  1
  B  B31  1  0.79335561  0.24883500  0.42662092  1
  H  H32  1  0.82974881  0.78876035  0.42202769  1
  H  H33  1  0.32974881  0.28876035  0.07797231  1
  H  H34  1  0.17025119  0.21123965  0.57797231  1
  H  H35  1  0.67025119  0.71123965  0.92202769  1
  H  H36  1  0.77496371  0.88891429  0.03441167  1
  H  H37  1  0.27496371  0.38891429  0.46558833  1
  H  H38  1  0.22503629  0.11108571  0.96558833  1
  H  H39  1  0.72503629  0.61108571  0.53441167  1
  H  H40  1  0.67973523  0.44669421  0.89560095  1
  H  H41  1  0.17973523  0.94669421  0.60439905  1
  H  H42  1  0.32026477  0.55330579  0.10439905  1
  H  H43  1  0.82026477  0.05330579  0.39560095  1
  H  H44  1  0.79354327  0.36211388  0.03131359  1
  H  H45  1  0.29354327  0.86211388  0.46868641  1
  H  H46  1  0.20645673  0.63788612  0.96868641  1
  H  H47  1  0.70645673  0.13788612  0.53131359  1
  Pb  Pb48  1  0.62846476  0.37496378  0.66722581  1
  Pb  Pb49  1  0.12846476  0.87496378  0.83277419  1
  Pb  Pb50  1  0.37153524  0.62503622  0.33277419  1
  Pb  Pb51  1  0.87153524  0.12503622  0.16722581  1
  O  O52  1  0.80366499  0.87774074  0.44743857  1
  O  O53  1  0.30366499  0.37774074  0.05256143  1
  O  O54  1  0.19633501  0.12225926  0.55256143  1
  O  O55  1  0.69633501  0.62225926  0.94743857  1
  O  O56  1  0.73016871  0.99565391  0.58171263  1
  O  O57  1  0.23016871  0.49565391  0.91828737  1
  O  O58  1  0.26983129  0.00434609  0.41828737  1
  O  O59  1  0.76983129  0.50434609  0.08171263  1
  O  O60  1  0.74515806  0.75710762  0.58846982  1
  O  O61  1  0.24515806  0.25710762  0.91153018  1
  O  O62  1  0.25484194  0.24289238  0.41153018  1
  O  O63  1  0.75484194  0.74289238  0.08846982  1
  O  O64  1  0.62684174  0.87966927  0.71787604  1
  O  O65  1  0.12684174  0.37966927  0.78212396  1
  O  O66  1  0.37315826  0.12033073  0.28212396  1
  O  O67  1  0.87315826  0.62033073  0.21787604  1
  O  O68  1  0.58327437  0.63999421  0.70131114  1
  O  O69  1  0.08327437  0.13999421  0.79868886  1
  O  O70  1  0.41672563  0.36000579  0.29868886  1
  O  O71  1  0.91672563  0.86000579  0.20131114  1
  O  O72  1  0.85152296  0.72553014  0.74501251  1
  O  O73  1  0.35152296  0.22553014  0.75498749  1
  O  O74  1  0.14847704  0.27446986  0.25498749  1
  O  O75  1  0.64847704  0.77446986  0.24501251  1
  O  O76  1  0.85603212  0.03319417  0.73207961  1
  O  O77  1  0.35603212  0.53319417  0.76792039  1
  O  O78  1  0.14396788  0.96680583  0.26792039  1
  O  O79  1  0.64396788  0.46680583  0.23207961  1
  O  O80  1  0.58324981  0.11831379  0.69519862  1
  O  O81  1  0.08324981  0.61831379  0.80480138  1
  O  O82  1  0.41675019  0.88168621  0.30480138  1
  O  O83  1  0.91675019  0.38168621  0.19519862  1
  O  O84  1  0.39961776  0.99461337  0.79357429  1
  O  O85  1  0.89961776  0.49461337  0.70642571  1
  O  O86  1  0.60038224  0.00538663  0.20642571  1
  O  O87  1  0.10038224  0.50538663  0.29357429  1
  O  O88  1  0.41202864  0.76341191  0.80579976  1
  O  O89  1  0.91202864  0.26341191  0.69420024  1
  O  O90  1  0.58797136  0.23658809  0.19420024  1
  O  O91  1  0.08797136  0.73658809  0.30579976  1
  O  O92  1  0.61473538  0.89099227  0.88829938  1
  O  O93  1  0.11473538  0.39099227  0.61170062  1
  O  O94  1  0.38526462  0.10900773  0.11170062  1
  O  O95  1  0.88526462  0.60900773  0.38829938  1
  O  O96  1  0.78130606  0.98210154  0.00918603  1
  O  O97  1  0.28130606  0.48210154  0.49081397  1
  O  O98  1  0.21869394  0.01789846  0.99081397  1
  O  O99  1  0.71869394  0.51789846  0.50918603  1
  O  O100  1  0.66148217  0.12652337  0.89513430  1
  O  O101  1  0.16148217  0.62652337  0.60486570  1
  O  O102  1  0.33851783  0.87347663  0.10486570  1
  O  O103  1  0.83851783  0.37347663  0.39513430  1
  O  O104  1  0.66174756  0.35647821  0.86957005  1
  O  O105  1  0.16174756  0.85647821  0.63042995  1
  O  O106  1  0.33825244  0.64352179  0.13042995  1
  O  O107  1  0.83825244  0.14352179  0.36957005  1
  O  O108  1  0.79149973  0.26696402  0.00878634  1
  O  O109  1  0.29149973  0.76696402  0.49121366  1
  O  O110  1  0.20850027  0.73303598  0.99121366  1
  O  O111  1  0.70850027  0.23303598  0.50878634  1
