# generated using pymatgen
data_CsGaP3HO10
_symmetry_space_group_name_H-M   'P 1'
_cell_length_a   5.05459746
_cell_length_b   8.96048940
_cell_length_c   11.25476117
_cell_angle_alpha   108.60113750
_cell_angle_beta   90.00000000
_cell_angle_gamma   90.00000000
_symmetry_Int_Tables_number   1
_chemical_formula_structural   CsGaP3HO10
_chemical_formula_sum   'Cs2 Ga2 P6 H2 O20'
_cell_volume   483.11877609
_cell_formula_units_Z   2
loop_
 _symmetry_equiv_pos_site_id
 _symmetry_equiv_pos_as_xyz
  1  'x, y, z'
loop_
 _atom_site_type_symbol
 _atom_site_label
 _atom_site_symmetry_multiplicity
 _atom_site_fract_x
 _atom_site_fract_y
 _atom_site_fract_z
 _atom_site_occupancy
  Cs  Cs0  1  0.50923781  0.75000000  0.25000000  1
  Cs  Cs1  1  0.49076219  0.25000000  0.75000000  1
  Ga  Ga2  1  0.50000000  0.50000000  0.50000000  1
  Ga  Ga3  1  0.50000000  -0.00000000  -0.00000000  1
  P  P4  1  0.00144992  0.72816755  0.50672642  1
  P  P5  1  0.99855008  0.27183245  0.49327358  1
  P  P6  1  0.00144992  0.77183245  0.99327358  1
  P  P7  1  0.99855008  0.22816755  0.00672642  1
  P  P8  1  0.74054818  0.25000000  0.25000000  1
  P  P9  1  0.25945182  0.75000000  0.75000000  1
  H  H10  1  0.00000000  -0.00000000  0.50000000  1
  H  H11  1  0.00000000  0.50000000  -0.00000000  1
  O  O12  1  0.18697943  0.59110359  0.44583609  1
  O  O13  1  0.81302057  0.40889641  0.55416391  1
  O  O14  1  0.18697943  0.90889641  0.05416391  1
  O  O15  1  0.81302057  0.09110359  0.94583609  1
  O  O16  1  0.70809734  0.68617410  0.49590911  1
  O  O17  1  0.29190266  0.31382590  0.50409089  1
  O  O18  1  0.70809734  0.81382590  0.00409089  1
  O  O19  1  0.29190266  0.18617410  0.99590911  1
  O  O20  1  0.58652381  0.39567025  0.32008643  1
  O  O21  1  0.41347619  0.60432975  0.67991357  1
  O  O22  1  0.58652381  0.10432975  0.17991357  1
  O  O23  1  0.41347619  0.89567025  0.82008643  1
  O  O24  1  0.93405944  0.29931808  0.15671115  1
  O  O25  1  0.06594056  0.70068192  0.84328885  1
  O  O26  1  0.93405944  0.20068192  0.34328885  1
  O  O27  1  0.06594056  0.79931808  0.65671115  1
  O  O28  1  0.05438265  0.86305557  0.45309103  1
  O  O29  1  0.94561735  0.13694443  0.54690897  1
  O  O30  1  0.05438265  0.63694443  0.04690897  1
  O  O31  1  0.94561735  0.36305557  0.95309103  1
