# generated using pymatgen
data_B5Pb2IO9
_symmetry_space_group_name_H-M   'P 1'
_cell_length_a   6.58680862
_cell_length_b   11.69691143
_cell_length_c   11.83889664
_cell_angle_alpha   90.00000000
_cell_angle_beta   90.00000000
_cell_angle_gamma   90.00000000
_symmetry_Int_Tables_number   1
_chemical_formula_structural   B5Pb2IO9
_chemical_formula_sum   'B20 Pb8 I4 O36'
_cell_volume   912.13154497
_cell_formula_units_Z   4
loop_
 _symmetry_equiv_pos_site_id
 _symmetry_equiv_pos_as_xyz
  1  'x, y, z'
loop_
 _atom_site_type_symbol
 _atom_site_label
 _atom_site_symmetry_multiplicity
 _atom_site_fract_x
 _atom_site_fract_y
 _atom_site_fract_z
 _atom_site_occupancy
  B  B0  1  0.74467152  0.76683040  0.45585237  1
  B  B1  1  0.74467152  0.23316960  0.54414763  1
  B  B2  1  0.24467152  0.73316960  0.95585237  1
  B  B3  1  0.24467152  0.26683040  0.04414763  1
  B  B4  1  0.58258058  0.00853179  0.25157565  1
  B  B5  1  0.58258058  0.99146821  0.74842435  1
  B  B6  1  0.08258058  0.49146821  0.75157565  1
  B  B7  1  0.08258058  0.50853179  0.24842435  1
  B  B8  1  0.70929618  0.20237039  0.32102850  1
  B  B9  1  0.70929618  0.79762961  0.67897150  1
  B  B10  1  0.20929618  0.29762961  0.82102850  1
  B  B11  1  0.20929618  0.70237039  0.17897150  1
  B  B12  1  0.52480959  0.78496438  0.28715152  1
  B  B13  1  0.52480959  0.21503562  0.71284848  1
  B  B14  1  0.02480959  0.71503562  0.78715152  1
  B  B15  1  0.02480959  0.28496438  0.21284848  1
  B  B16  1  0.85794833  0.68010318  0.27015953  1
  B  B17  1  0.85794833  0.31989682  0.72984047  1
  B  B18  1  0.35794833  0.81989682  0.77015953  1
  B  B19  1  0.35794833  0.18010318  0.22984047  1
  Pb  Pb20  1  0.71376201  0.76852786  0.03529577  1
  Pb  Pb21  1  0.71376201  0.23147214  0.96470423  1
  Pb  Pb22  1  0.21376201  0.73147214  0.53529577  1
  Pb  Pb23  1  0.21376201  0.26852786  0.46470423  1
  Pb  Pb24  1  0.56034218  0.54962109  0.76215435  1
  Pb  Pb25  1  0.56034218  0.45037891  0.23784565  1
  Pb  Pb26  1  0.06034218  0.95037891  0.26215435  1
  Pb  Pb27  1  0.06034218  0.04962109  0.73784565  1
  I  I28  1  0.76120530  0.50000000  -0.00000000  1
  I  I29  1  0.26120530  0.00000000  0.50000000  1
  I  I30  1  0.49901718  0.50000000  0.50000000  1
  I  I31  1  0.99901718  0.00000000  -0.00000000  1
  O  O32  1  0.73456420  0.07792487  0.29235016  1
  O  O33  1  0.73456420  0.92207513  0.70764984  1
  O  O34  1  0.23456420  0.42207513  0.79235016  1
  O  O35  1  0.23456420  0.57792487  0.20764984  1
  O  O36  1  0.55239812  0.78617281  0.41370941  1
  O  O37  1  0.55239812  0.21382719  0.58629059  1
  O  O38  1  0.05239812  0.71382719  0.91370941  1
  O  O39  1  0.05239812  0.28617281  0.08629059  1
  O  O40  1  0.89951520  0.73728530  0.38068368  1
  O  O41  1  0.89951520  0.26271470  0.61931632  1
  O  O42  1  0.39951520  0.76271470  0.88068368  1
  O  O43  1  0.39951520  0.23728530  0.11931632  1
  O  O44  1  0.62256484  0.89324030  0.23873714  1
  O  O45  1  0.62256484  0.10675970  0.76126286  1
  O  O46  1  0.12256484  0.60675970  0.73873714  1
  O  O47  1  0.12256484  0.39324030  0.26126286  1
  O  O48  1  0.98867818  0.73081623  0.18069258  1
  O  O49  1  0.98867818  0.26918377  0.81930742  1
  O  O50  1  0.48867818  0.76918377  0.68069258  1
  O  O51  1  0.48867818  0.23081623  0.31930742  1
  O  O52  1  0.80224670  0.22387690  0.43339175  1
  O  O53  1  0.80224670  0.77612310  0.56660825  1
  O  O54  1  0.30224670  0.27612310  0.93339175  1
  O  O55  1  0.30224670  0.72387690  0.06660825  1
  O  O56  1  0.64382165  0.69054299  0.23684613  1
  O  O57  1  0.64382165  0.30945701  0.76315387  1
  O  O58  1  0.14382165  0.80945701  0.73684613  1
  O  O59  1  0.14382165  0.19054299  0.26315387  1
  O  O60  1  0.80938615  0.72327590  0.76351499  1
  O  O61  1  0.80938615  0.27672410  0.23648501  1
  O  O62  1  0.30938615  0.77672410  0.26351499  1
  O  O63  1  0.30938615  0.22327590  0.73648501  1
  O  O64  1  0.89885333  0.55461990  0.28128257  1
  O  O65  1  0.89885333  0.44538010  0.71871743  1
  O  O66  1  0.39885333  0.94538010  0.78128257  1
  O  O67  1  0.39885333  0.05461990  0.21871743  1
