# generated using pymatgen
data_Sc2Nb3Si4
_symmetry_space_group_name_H-M   'P 1'
_cell_length_a   6.72379776
_cell_length_b   6.90368060
_cell_length_c   13.19516347
_cell_angle_alpha   90.00000000
_cell_angle_beta   90.00000000
_cell_angle_gamma   90.00000000
_symmetry_Int_Tables_number   1
_chemical_formula_structural   Sc2Nb3Si4
_chemical_formula_sum   'Sc8 Nb12 Si16'
_cell_volume   612.50566178
_cell_formula_units_Z   4
loop_
 _symmetry_equiv_pos_site_id
 _symmetry_equiv_pos_as_xyz
  1  'x, y, z'
loop_
 _atom_site_type_symbol
 _atom_site_label
 _atom_site_symmetry_multiplicity
 _atom_site_fract_x
 _atom_site_fract_y
 _atom_site_fract_z
 _atom_site_occupancy
  Sc  Sc0  1  0.50126813  0.32502584  0.90489447  1
  Sc  Sc1  1  0.00126813  0.17497416  0.59510553  1
  Sc  Sc2  1  0.49873187  0.67497416  0.40489447  1
  Sc  Sc3  1  0.99873187  0.82502584  0.09510553  1
  Sc  Sc4  1  0.49873187  0.67497416  0.09510553  1
  Sc  Sc5  1  0.99873187  0.82502584  0.40489447  1
  Sc  Sc6  1  0.50126813  0.32502584  0.59510553  1
  Sc  Sc7  1  0.00126813  0.17497416  0.90489447  1
  Nb  Nb8  1  0.33951316  0.82499094  0.87484402  1
  Nb  Nb9  1  0.83951316  0.67500906  0.62515598  1
  Nb  Nb10  1  0.66048684  0.17500906  0.37484402  1
  Nb  Nb11  1  0.16048684  0.32499094  0.12515598  1
  Nb  Nb12  1  0.66048684  0.17500906  0.12515598  1
  Nb  Nb13  1  0.16048684  0.32499094  0.37484402  1
  Nb  Nb14  1  0.33951316  0.82499094  0.62515598  1
  Nb  Nb15  1  0.83951316  0.67500906  0.87484402  1
  Nb  Nb16  1  0.16457241  0.50581327  0.75000000  1
  Nb  Nb17  1  0.66457241  0.99418673  0.75000000  1
  Nb  Nb18  1  0.83542759  0.49418673  0.25000000  1
  Nb  Nb19  1  0.33542759  0.00581327  0.25000000  1
  Si  Si20  1  0.32980486  0.03322244  0.03886589  1
  Si  Si21  1  0.82980486  0.46677756  0.46113411  1
  Si  Si22  1  0.67019514  0.96677756  0.53886589  1
  Si  Si23  1  0.17019514  0.53322244  0.96113411  1
  Si  Si24  1  0.67019514  0.96677756  0.96113411  1
  Si  Si25  1  0.17019514  0.53322244  0.53886589  1
  Si  Si26  1  0.32980486  0.03322244  0.46113411  1
  Si  Si27  1  0.82980486  0.46677756  0.03886589  1
  Si  Si28  1  0.54314255  0.61339845  0.75000000  1
  Si  Si29  1  0.04314255  0.88660155  0.75000000  1
  Si  Si30  1  0.45685745  0.38660155  0.25000000  1
  Si  Si31  1  0.95685745  0.11339845  0.25000000  1
  Si  Si32  1  0.29762033  0.13844874  0.75000000  1
  Si  Si33  1  0.79762033  0.36155126  0.75000000  1
  Si  Si34  1  0.70237967  0.86155126  0.25000000  1
  Si  Si35  1  0.20237967  0.63844874  0.25000000  1
