# generated using pymatgen
data_Dy7C2I12O
_symmetry_space_group_name_H-M   'P 1'
_cell_length_a   9.93647231
_cell_length_b   10.59896298
_cell_length_c   16.99444822
_cell_angle_alpha   101.58465399
_cell_angle_beta   92.90014585
_cell_angle_gamma   112.96752859
_symmetry_Int_Tables_number   1
_chemical_formula_structural   Dy7C2I12O
_chemical_formula_sum   'Dy14 C4 I24 O2'
_cell_volume   1597.75495637
_cell_formula_units_Z   2
loop_
 _symmetry_equiv_pos_site_id
 _symmetry_equiv_pos_as_xyz
  1  'x, y, z'
loop_
 _atom_site_type_symbol
 _atom_site_label
 _atom_site_symmetry_multiplicity
 _atom_site_fract_x
 _atom_site_fract_y
 _atom_site_fract_z
 _atom_site_occupancy
  Dy  Dy0  1  0.66419829  0.54811061  0.88647891  1
  Dy  Dy1  1  0.33580171  0.45188939  0.11352109  1
  Dy  Dy2  1  0.93445921  0.57142486  0.73736080  1
  Dy  Dy3  1  0.06554079  0.42857514  0.26263920  1
  Dy  Dy4  1  0.86838746  0.88303492  0.85719160  1
  Dy  Dy5  1  0.13161254  0.11696508  0.14280840  1
  Dy  Dy6  1  0.45492941  0.74681313  0.81024356  1
  Dy  Dy7  1  0.54507059  0.25318687  0.18975644  1
  Dy  Dy8  1  0.72163179  0.75906020  0.65703064  1
  Dy  Dy9  1  0.27836821  0.24093980  0.34296936  1
  Dy  Dy10  1  0.52471290  0.44035772  0.68580850  1
  Dy  Dy11  1  0.47528710  0.55964228  0.31419150  1
  Dy  Dy12  1  0.35756100  0.54899803  0.51991281  1
  Dy  Dy13  1  0.64243900  0.45100197  0.48008719  1
  C  C14  1  0.63583940  0.67904930  0.78170129  1
  C  C15  1  0.36416060  0.32095070  0.21829871  1
  C  C16  1  0.75388238  0.63843115  0.76401755  1
  C  C17  1  0.24611762  0.36156885  0.23598245  1
  I  I18  1  0.66113830  0.02616443  0.91040688  1
  I  I19  1  0.33886170  0.97383557  0.08959312  1
  I  I20  1  0.94889157  0.05473713  0.72899917  1
  I  I21  1  0.05110843  0.94526287  0.27100083  1
  I  I22  1  0.43908875  0.25238745  0.80114356  1
  I  I23  1  0.56091125  0.74761255  0.19885644  1
  I  I24  1  0.90444032  0.42994760  0.87338287  1
  I  I25  1  0.09555968  0.57005240  0.12661713  1
  I  I26  1  0.45608013  0.84920953  0.64770494  1
  I  I27  1  0.54391987  0.15079047  0.35229506  1
  I  I28  1  0.21591936  0.47022492  0.68394000  1
  I  I29  1  0.78408064  0.52977508  0.31606000  1
  I  I30  1  0.72595453  0.29631554  0.60787955  1
  I  I31  1  0.27404547  0.70368446  0.39212045  1
  I  I32  1  0.17485821  0.84613950  0.83450827  1
  I  I33  1  0.82514179  0.15386050  0.16549173  1
  I  I34  1  0.60616913  0.39807429  0.05043674  1
  I  I35  1  0.39383087  0.60192571  0.94956326  1
  I  I36  1  0.69202293  0.80296915  0.47146432  1
  I  I37  1  0.30797707  0.19703085  0.52853568  1
  I  I38  1  0.87591430  0.80223080  0.01881976  1
  I  I39  1  0.12408570  0.19776920  0.98118024  1
  I  I40  1  0.96305277  0.67554179  0.57381677  1
  I  I41  1  0.03694723  0.32445821  0.42618323  1
  O  O42  1  0.55717364  0.54689102  0.58126824  1
  O  O43  1  0.44282636  0.45310898  0.41873176  1
