# generated using pymatgen
data_CsNpMoO7
_symmetry_space_group_name_H-M   'P 1'
_cell_length_a   8.19897618
_cell_length_b   9.44856915
_cell_length_c   10.54391167
_cell_angle_alpha   90.00000000
_cell_angle_beta   90.00000000
_cell_angle_gamma   90.00000000
_symmetry_Int_Tables_number   1
_chemical_formula_structural   CsNpMoO7
_chemical_formula_sum   'Cs4 Np4 Mo4 O28'
_cell_volume   816.82200597
_cell_formula_units_Z   4
loop_
 _symmetry_equiv_pos_site_id
 _symmetry_equiv_pos_as_xyz
  1  'x, y, z'
loop_
 _atom_site_type_symbol
 _atom_site_label
 _atom_site_symmetry_multiplicity
 _atom_site_fract_x
 _atom_site_fract_y
 _atom_site_fract_z
 _atom_site_occupancy
  Cs  Cs0  1  0.50000000  0.75000000  0.06687901  1
  Cs  Cs1  1  -0.00000000  0.75000000  0.43312099  1
  Cs  Cs2  1  0.50000000  0.25000000  0.93312099  1
  Cs  Cs3  1  -0.00000000  0.25000000  0.56687901  1
  Np  Np4  1  0.25000000  0.06898761  0.25000000  1
  Np  Np5  1  0.75000000  0.43101239  0.25000000  1
  Np  Np6  1  0.75000000  0.93101239  0.75000000  1
  Np  Np7  1  0.25000000  0.56898761  0.75000000  1
  Mo  Mo8  1  -0.00000000  0.75000000  0.04589973  1
  Mo  Mo9  1  0.50000000  0.75000000  0.45410027  1
  Mo  Mo10  1  -0.00000000  0.25000000  0.95410027  1
  Mo  Mo11  1  0.50000000  0.25000000  0.54589973  1
  O  O12  1  0.43881755  0.05347136  0.15987846  1
  O  O13  1  0.56118245  0.44652864  0.15987846  1
  O  O14  1  0.06118245  0.05347136  0.34012154  1
  O  O15  1  0.93881755  0.44652864  0.34012154  1
  O  O16  1  0.56118245  0.94652864  0.84012154  1
  O  O17  1  0.43881755  0.55347136  0.84012154  1
  O  O18  1  0.93881755  0.94652864  0.65987846  1
  O  O19  1  0.06118245  0.55347136  0.65987846  1
  O  O20  1  0.13668707  0.85133742  0.14547784  1
  O  O21  1  0.86331293  0.64866258  0.14547784  1
  O  O22  1  0.36331293  0.85133742  0.35452216  1
  O  O23  1  0.63668707  0.64866258  0.35452216  1
  O  O24  1  0.86331293  0.14866258  0.85452216  1
  O  O25  1  0.13668707  0.35133742  0.85452216  1
  O  O26  1  0.63668707  0.14866258  0.64547784  1
  O  O27  1  0.36331293  0.35133742  0.64547784  1
  O  O28  1  0.87891070  0.86548664  0.94968536  1
  O  O29  1  0.12108930  0.63451336  0.94968536  1
  O  O30  1  0.62108930  0.86548664  0.55031464  1
  O  O31  1  0.37891070  0.63451336  0.55031464  1
  O  O32  1  0.12108930  0.13451336  0.05031464  1
  O  O33  1  0.87891070  0.36548664  0.05031464  1
  O  O34  1  0.37891070  0.13451336  0.44968536  1
  O  O35  1  0.62108930  0.36548664  0.44968536  1
  O  O36  1  0.25000000  0.26742992  0.25000000  1
  O  O37  1  0.75000000  0.23257008  0.25000000  1
  O  O38  1  0.75000000  0.73257008  0.75000000  1
  O  O39  1  0.25000000  0.76742992  0.75000000  1
