# generated using pymatgen
data_KErF4
_symmetry_space_group_name_H-M   'P 1'
_cell_length_a   10.28207297
_cell_length_b   14.15674272
_cell_length_c   14.15674272
_cell_angle_alpha   119.99999635
_cell_angle_beta   90.00000000
_cell_angle_gamma   90.00000000
_symmetry_Int_Tables_number   1
_chemical_formula_structural   KErF4
_chemical_formula_sum   'K18 Er18 F72'
_cell_volume   1784.58816334
_cell_formula_units_Z   18
loop_
 _symmetry_equiv_pos_site_id
 _symmetry_equiv_pos_as_xyz
  1  'x, y, z'
loop_
 _atom_site_type_symbol
 _atom_site_label
 _atom_site_symmetry_multiplicity
 _atom_site_fract_x
 _atom_site_fract_y
 _atom_site_fract_z
 _atom_site_occupancy
  K  K0  1  0.01429444  0.06155220  0.27942903  1
  K  K1  1  0.34762844  0.72057097  0.78212316  1
  K  K2  1  0.68096144  0.21787684  0.93844780  1
  K  K3  1  0.98530477  0.04688206  0.77993200  1
  K  K4  1  0.31863877  0.22006800  0.26695006  1
  K  K5  1  0.65197177  0.73304994  0.95311794  1
  K  K6  1  0.01841003  0.70942036  0.60517834  1
  K  K7  1  0.35174403  0.39482166  0.10424201  1
  K  K8  1  0.68507703  0.89575799  0.29057964  1
  K  K9  1  0.98812473  0.73241195  0.12215813  1
  K  K10  1  0.32145873  0.87784187  0.61025383  1
  K  K11  1  0.65479173  0.38974617  0.26758805  1
  K  K12  1  0.98876583  0.38616024  0.43760633  1
  K  K13  1  0.32209983  0.56239367  0.94855391  1
  K  K14  1  0.65543283  0.05144609  0.61383976  1
  K  K15  1  0.01913814  0.39046760  0.93460997  1
  K  K16  1  0.35247214  0.06539003  0.45585763  1
  K  K17  1  0.68580514  0.54414237  0.60953240  1
  Er  Er18  1  0.00364580  0.24097150  0.11064481  1
  Er  Er19  1  0.33697980  0.88935519  0.13032669  1
  Er  Er20  1  0.67031280  0.86967331  0.75902850  1
  Er  Er21  1  0.01402998  0.55035625  0.26878575  1
  Er  Er22  1  0.34736398  0.73121425  0.28157050  1
  Er  Er23  1  0.68069698  0.71842950  0.44964375  1
  Er  Er24  1  0.99632779  0.57342728  0.79412510  1
  Er  Er25  1  0.32966179  0.20587490  0.77930217  1
  Er  Er26  1  0.66299479  0.22069783  0.42657272  1
  Er  Er27  1  0.00809582  0.88305947  0.94111225  1
  Er  Er28  1  0.34142982  0.05888775  0.94194722  1
  Er  Er29  1  0.67476282  0.05805278  0.11694053  1
  Er  Er30  1  0.00926851  0.90803932  0.45516951  1
  Er  Er31  1  0.34260251  0.54483049  0.45286981  1
  Er  Er32  1  0.67593551  0.54713019  0.09196068  1
  Er  Er33  1  0.99011514  0.21710498  0.61249144  1
  Er  Er34  1  0.32344914  0.38750856  0.60461354  1
  Er  Er35  1  0.65678214  0.39538646  0.78289502  1
  F  F36  1  0.21933386  0.19504491  0.06343676  1
  F  F37  1  0.55266786  0.93656324  0.13160815  1
  F  F38  1  0.88600086  0.86839185  0.80495509  1
  F  F39  1  0.79522945  0.19072314  0.12238868  1
  F  F40  1  0.12856345  0.87761132  0.06833446  1
  F  F41  1  0.46189645  0.93166554  0.80927686  1
  F  F42  1  0.86507556  0.61517247  0.40451438  1
  F  F43  1  0.19840956  0.59548562  0.21065810  1
  F  F44  1  0.53174256  0.78934190  0.38482753  1
  F  F45  1  0.67842457  0.60773917  0.27063056  1
  F  F46  1  0.01175857  0.72936944  0.33710861  1
  F  F47  1  0.34509157  0.66289139  0.39226083  1
  F  F48  1  0.77967855  0.53222336  0.79646802  1
  F  F49  1  0.11301255  0.20353198  0.73575534  1
  F  F50  1  0.44634555  0.26424466  0.46777664  1
  F  F51  1  0.20335761  0.51975979  0.73076925  1
  F  F52  1  0.53669161  0.26923075  0.78899054  1
  F  F53  1  0.87002461  0.21100946  0.48024021  1
  F  F54  1  0.67051279  0.94146198  0.93940514  1
  F  F55  1  0.00384679  0.06059486  0.00205683  1
  F  F56  1  0.33717979  0.99794317  0.05853802  1
  F  F57  1  0.85670343  0.95268864  0.07533430  1
  F  F58  1  0.19003743  0.92466570  0.87735434  1
  F  F59  1  0.52337043  0.12264566  0.04731136  1
  F  F60  1  0.80159024  0.85292521  0.46182533  1
  F  F61  1  0.13492424  0.53817467  0.39109988  1
  F  F62  1  0.46825724  0.60890012  0.14707479  1
  F  F63  1  0.22535793  0.86590256  0.40823522  1
  F  F64  1  0.55869193  0.59176478  0.45766735  1
  F  F65  1  0.89202493  0.54233265  0.13409744  1
  F  F66  1  0.80301242  0.25751323  0.71109670  1
  F  F67  1  0.13634642  0.28890330  0.54641653  1
  F  F68  1  0.46967942  0.45358347  0.74248677  1
  F  F69  1  0.65983016  0.33804964  0.60517605  1
  F  F70  1  0.99316416  0.39482395  0.73287359  1
  F  F71  1  0.32649716  0.26712641  0.66195036  1
  F  F72  1  0.26943073  0.03721761  0.26946148  1
  F  F73  1  0.60276473  0.73053852  0.76775612  1
  F  F74  1  0.93609773  0.23224388  0.96278239  1
  F  F75  1  0.75954672  0.08519736  0.27666778  1
  F  F76  1  0.09288072  0.72333222  0.80852958  1
  F  F77  1  0.42621372  0.19147042  0.91480264  1
  F  F78  1  0.72775893  0.02399272  0.77621219  1
  F  F79  1  0.06109293  0.22378781  0.24778053  1
  F  F80  1  0.39442593  0.75221947  0.97600728  1
  F  F81  1  0.90430306  0.73313727  0.92474910  1
  F  F82  1  0.23763706  0.07525090  0.80838817  1
  F  F83  1  0.57097006  0.19161183  0.26686273  1
  F  F84  1  0.76634150  0.73812300  0.60666928  1
  F  F85  1  0.09967550  0.39333072  0.13145372  1
  F  F86  1  0.43300850  0.86854628  0.26187700  1
  F  F87  1  0.27301087  0.68894832  0.59596022  1
  F  F88  1  0.60634487  0.40403978  0.09298810  1
  F  F89  1  0.93967787  0.90701190  0.31105168  1
  F  F90  1  0.91024001  0.39763050  0.24432461  1
  F  F91  1  0.24357401  0.75567539  0.15330588  1
  F  F92  1  0.57690701  0.84669412  0.60236950  1
  F  F93  1  0.73049529  0.70417444  0.11651871  1
  F  F94  1  0.06382929  0.88348129  0.58765573  1
  F  F95  1  0.39716229  0.41234427  0.29582556  1
  F  F96  1  0.73393732  0.36191465  0.42556908  1
  F  F97  1  0.06727132  0.57443092  0.93634556  1
  F  F98  1  0.40060432  0.06365444  0.63808535  1
  F  F99  1  0.90884854  0.05687783  0.58830203  1
  F  F100  1  0.24218254  0.41169797  0.46857580  1
  F  F101  1  0.57551554  0.53142420  0.94312217  1
  F  F102  1  0.76508702  0.41560182  0.93190013  1
  F  F103  1  0.09842102  0.06809987  0.48370168  1
  F  F104  1  0.43175402  0.51629832  0.58439818  1
  F  F105  1  0.27611046  0.36472602  0.91308787  1
  F  F106  1  0.60944446  0.08691213  0.45163815  1
  F  F107  1  0.94277746  0.54836185  0.63527398  1
