# generated using pymatgen
data_Dy6Al43W4
_symmetry_space_group_name_H-M   'P 1'
_cell_length_a   11.06033899
_cell_length_b   11.06029337
_cell_length_c   17.60830267
_cell_angle_alpha   90.00000000
_cell_angle_beta   90.00000000
_cell_angle_gamma   120.00014015
_symmetry_Int_Tables_number   1
_chemical_formula_structural   Dy6Al43W4
_chemical_formula_sum   'Dy12 Al86 W8'
_cell_volume   1865.44563846
_cell_formula_units_Z   2
loop_
 _symmetry_equiv_pos_site_id
 _symmetry_equiv_pos_as_xyz
  1  'x, y, z'
loop_
 _atom_site_type_symbol
 _atom_site_label
 _atom_site_symmetry_multiplicity
 _atom_site_fract_x
 _atom_site_fract_y
 _atom_site_fract_z
 _atom_site_occupancy
  Dy  Dy0  1  0.53092970  1.00000000  0.59562272  1
  Dy  Dy1  1  0.46906790  0.46907103  0.59561999  1
  Dy  Dy2  1  0.99999687  0.53092897  0.59561999  1
  Dy  Dy3  1  0.46907030  0.00000000  0.40437728  1
  Dy  Dy4  1  0.53093210  0.53092897  0.40438001  1
  Dy  Dy5  1  0.00000313  0.46907103  0.40438001  1
  Dy  Dy6  1  0.46907030  0.00000000  0.09562272  1
  Dy  Dy7  1  0.53093210  0.53092897  0.09561999  1
  Dy  Dy8  1  0.00000313  0.46907103  0.09561999  1
  Dy  Dy9  1  0.53092970  1.00000000  0.90437728  1
  Dy  Dy10  1  0.46906790  0.46907103  0.90438001  1
  Dy  Dy11  1  0.99999687  0.53092897  0.90438001  1
  Al  Al12  1  0.15857461  0.39492619  0.66357711  1
  Al  Al13  1  0.23634257  0.84143325  0.66358108  1
  Al  Al14  1  0.60507158  0.76364891  0.66357757  1
  Al  Al15  1  0.76364842  0.60507381  0.66357711  1
  Al  Al16  1  0.39490932  0.15856675  0.66358108  1
  Al  Al17  1  0.84142268  0.23635109  0.66357757  1
  Al  Al18  1  0.84142539  0.60507381  0.33642289  1
  Al  Al19  1  0.76365743  0.15856675  0.33641892  1
  Al  Al20  1  0.39492842  0.23635109  0.33642243  1
  Al  Al21  1  0.23635158  0.39492619  0.33642289  1
  Al  Al22  1  0.60509068  0.84143325  0.33641892  1
  Al  Al23  1  0.15857732  0.76364891  0.33642243  1
  Al  Al24  1  0.84142539  0.60507381  0.16357711  1
  Al  Al25  1  0.76365743  0.15856675  0.16358108  1
  Al  Al26  1  0.39492842  0.23635109  0.16357757  1
  Al  Al27  1  0.23635158  0.39492619  0.16357711  1
  Al  Al28  1  0.60509068  0.84143325  0.16358108  1
  Al  Al29  1  0.15857732  0.76364891  0.16357757  1
  Al  Al30  1  0.15857461  0.39492619  0.83642289  1
  Al  Al31  1  0.23634257  0.84143325  0.83641892  1
  Al  Al32  1  0.60507158  0.76364891  0.83642243  1
  Al  Al33  1  0.76364842  0.60507381  0.83642289  1
  Al  Al34  1  0.39490932  0.15856675  0.83641892  1
  Al  Al35  1  0.84142268  0.23635109  0.83642243  1
  Al  Al36  1  0.15960387  0.00000000  0.11470913  1
  Al  Al37  1  0.84039775  0.84039646  0.11470865  1
  Al  Al38  1  0.00000129  0.15960354  0.11470865  1
  Al  Al39  1  0.84039613  1.00000000  0.88529087  1
  Al  Al40  1  0.15960225  0.15960354  0.88529135  1
  Al  Al41  1  0.99999871  0.84039646  0.88529135  1
  Al  Al42  1  0.84039613  1.00000000  0.61470913  1
  Al  Al43  1  0.15960225  0.15960354  0.61470865  1
  Al  Al44  1  0.99999871  0.84039646  0.61470865  1
  Al  Al45  1  0.15960387  0.00000000  0.38529087  1
  Al  Al46  1  0.84039775  0.84039646  0.38529135  1
  Al  Al47  1  0.00000129  0.15960354  0.38529135  1
  Al  Al48  1  0.25420395  1.00000000  0.53087109  1
  Al  Al49  1  0.74579520  0.74579440  0.53087195  1
  Al  Al50  1  0.00000080  0.25420560  0.53087195  1
  Al  Al51  1  0.74579605  0.00000000  0.46912891  1
  Al  Al52  1  0.25420480  0.25420560  0.46912805  1
  Al  Al53  1  0.99999920  0.74579440  0.46912805  1
  Al  Al54  1  0.74579605  0.00000000  0.03087109  1
  Al  Al55  1  0.25420480  0.25420560  0.03087195  1
  Al  Al56  1  0.99999920  0.74579440  0.03087195  1
  Al  Al57  1  0.25420395  1.00000000  0.96912891  1
  Al  Al58  1  0.74579520  0.74579440  0.96912805  1
  Al  Al59  1  0.00000080  0.25420560  0.96912805  1
  Al  Al60  1  0.14705098  0.59514676  0.75000000  1
  Al  Al61  1  0.44809134  0.85294568  0.75000000  1
  Al  Al62  1  0.40485146  0.55191264  0.75000000  1
  Al  Al63  1  0.55190422  0.40485324  0.75000000  1
  Al  Al64  1  0.59514566  0.14705432  0.75000000  1
  Al  Al65  1  0.85293882  0.44808736  0.75000000  1
  Al  Al66  1  0.85294902  0.40485324  0.25000000  1
  Al  Al67  1  0.55190866  0.14705432  0.25000000  1
  Al  Al68  1  0.59514854  0.44808736  0.25000000  1
  Al  Al69  1  0.44809578  0.59514676  0.25000000  1
  Al  Al70  1  0.40485434  0.85294568  0.25000000  1
  Al  Al71  1  0.14706118  0.55191264  0.25000000  1
  Al  Al72  1  0.24688880  0.49377759  0.50000000  1
  Al  Al73  1  0.24688285  0.75311402  0.49999379  1
  Al  Al74  1  0.50623117  0.75311402  0.50000621  1
  Al  Al75  1  0.75311120  0.50622241  0.50000000  1
  Al  Al76  1  0.49376883  0.24688598  0.49999379  1
  Al  Al77  1  0.75311715  0.24688598  0.50000621  1
  Al  Al78  1  0.75311120  0.50622241  -0.00000000  1
  Al  Al79  1  0.75311715  0.24688598  0.99999379  1
  Al  Al80  1  0.49376883  0.24688598  0.00000621  1
  Al  Al81  1  0.24688880  0.49377759  -0.00000000  1
  Al  Al82  1  0.50623117  0.75311402  0.99999379  1
  Al  Al83  1  0.24688285  0.75311402  0.00000621  1
  Al  Al84  1  0.33332468  0.66667461  0.62624006  1
  Al  Al85  1  0.66665006  0.33332539  0.62624006  1
  Al  Al86  1  0.66667532  0.33332539  0.37375994  1
  Al  Al87  1  0.33334994  0.66667461  0.37375994  1
  Al  Al88  1  0.66667532  0.33332539  0.12624006  1
  Al  Al89  1  0.33334994  0.66667461  0.12624006  1
  Al  Al90  1  0.33332468  0.66667461  0.87375994  1
  Al  Al91  1  0.66665006  0.33332539  0.87375994  1
  Al  Al92  1  0.14774072  0.00000000  0.75000000  1
  Al  Al93  1  0.85225403  0.85225353  0.75000000  1
  Al  Al94  1  0.00000051  0.14774647  0.75000000  1
  Al  Al95  1  0.85225928  1.00000000  0.25000000  1
  Al  Al96  1  0.14774597  0.14774647  0.25000000  1
  Al  Al97  1  -0.00000051  0.85225353  0.25000000  1
  W  W98  1  0.72928759  0.00000000  0.75000000  1
  W  W99  1  0.27070736  0.27071363  0.75000000  1
  W  W100  1  0.99999373  0.72928637  0.75000000  1
  W  W101  1  0.27071241  1.00000000  0.25000000  1
  W  W102  1  0.72929264  0.72928637  0.25000000  1
  W  W103  1  0.00000627  0.27071363  0.25000000  1
  W  W104  1  -0.00000000  -0.00000000  0.50000000  1
  W  W105  1  -0.00000000  -0.00000000  -0.00000000  1
