# generated using pymatgen
data_La2ZrSe5
_symmetry_space_group_name_H-M   'P 1'
_cell_length_a   7.85218516
_cell_length_b   8.49629504
_cell_length_c   12.32040404
_cell_angle_alpha   90.00000000
_cell_angle_beta   90.00000000
_cell_angle_gamma   90.00000000
_symmetry_Int_Tables_number   1
_chemical_formula_structural   La2ZrSe5
_chemical_formula_sum   'La8 Zr4 Se20'
_cell_volume   821.94937144
_cell_formula_units_Z   4
loop_
 _symmetry_equiv_pos_site_id
 _symmetry_equiv_pos_as_xyz
  1  'x, y, z'
loop_
 _atom_site_type_symbol
 _atom_site_label
 _atom_site_symmetry_multiplicity
 _atom_site_fract_x
 _atom_site_fract_y
 _atom_site_fract_z
 _atom_site_occupancy
  La  La0  1  0.46947762  0.99808828  0.67727219  1
  La  La1  1  0.03052238  0.50191172  0.17727219  1
  La  La2  1  0.53052238  0.49808828  0.32272781  1
  La  La3  1  0.96947762  0.00191172  0.82272781  1
  La  La4  1  0.53052238  0.00191172  0.32272781  1
  La  La5  1  0.96947762  0.49808828  0.82272781  1
  La  La6  1  0.46947762  0.50191172  0.67727219  1
  La  La7  1  0.03052238  0.99808828  0.17727219  1
  Zr  Zr8  1  0.92151370  0.25000000  0.50813243  1
  Zr  Zr9  1  0.57848630  0.25000000  0.00813243  1
  Zr  Zr10  1  0.07848630  0.75000000  0.49186757  1
  Zr  Zr11  1  0.42151370  0.75000000  0.99186757  1
  Se  Se12  1  0.33583561  0.03726223  0.91498002  1
  Se  Se13  1  0.16416439  0.46273777  0.41498002  1
  Se  Se14  1  0.66416439  0.53726223  0.08501998  1
  Se  Se15  1  0.83583561  0.96273777  0.58501998  1
  Se  Se16  1  0.66416439  0.96273777  0.08501998  1
  Se  Se17  1  0.83583561  0.53726223  0.58501998  1
  Se  Se18  1  0.33583561  0.46273777  0.91498002  1
  Se  Se19  1  0.16416439  0.03726223  0.41498002  1
  Se  Se20  1  0.15842134  0.25000000  0.68171298  1
  Se  Se21  1  0.34157866  0.25000000  0.18171298  1
  Se  Se22  1  0.84157866  0.75000000  0.31828702  1
  Se  Se23  1  0.65842134  0.75000000  0.81828702  1
  Se  Se24  1  0.94412368  0.25000000  0.00587432  1
  Se  Se25  1  0.55587632  0.25000000  0.50587432  1
  Se  Se26  1  0.05587632  0.75000000  0.99412568  1
  Se  Se27  1  0.44412368  0.75000000  0.49412568  1
  Se  Se28  1  0.68115853  0.25000000  0.79367713  1
  Se  Se29  1  0.81884147  0.25000000  0.29367713  1
  Se  Se30  1  0.31884147  0.75000000  0.20632287  1
  Se  Se31  1  0.18115853  0.75000000  0.70632287  1
