# generated using pymatgen
data_RbNb3(TeO6)2
_symmetry_space_group_name_H-M   'P 1'
_cell_length_a   4.11685792
_cell_length_b   15.23981974
_cell_length_c   17.82833135
_cell_angle_alpha   90.00000000
_cell_angle_beta   90.00000000
_cell_angle_gamma   90.00000000
_symmetry_Int_Tables_number   1
_chemical_formula_structural   RbNb3(TeO6)2
_chemical_formula_sum   'Rb4 Nb12 Te8 O48'
_cell_volume   1118.55258600
_cell_formula_units_Z   4
loop_
 _symmetry_equiv_pos_site_id
 _symmetry_equiv_pos_as_xyz
  1  'x, y, z'
loop_
 _atom_site_type_symbol
 _atom_site_label
 _atom_site_symmetry_multiplicity
 _atom_site_fract_x
 _atom_site_fract_y
 _atom_site_fract_z
 _atom_site_occupancy
  Rb  Rb0  1  0.21938633  0.07402602  0.75000000  1
  Rb  Rb1  1  0.78061367  0.92597398  0.25000000  1
  Rb  Rb2  1  0.21938633  0.42597398  0.25000000  1
  Rb  Rb3  1  0.78061367  0.57402602  0.75000000  1
  Nb  Nb4  1  0.24017576  0.79314079  0.75000000  1
  Nb  Nb5  1  0.75982424  0.20685921  0.25000000  1
  Nb  Nb6  1  0.24017576  0.70685921  0.25000000  1
  Nb  Nb7  1  0.75982424  0.29314079  0.75000000  1
  Nb  Nb8  1  0.76555418  0.15078223  0.56941823  1
  Nb  Nb9  1  0.23444582  0.84921777  0.06941823  1
  Nb  Nb10  1  0.76555418  0.34921777  0.43058177  1
  Nb  Nb11  1  0.23444582  0.65078223  0.93058177  1
  Nb  Nb12  1  0.23444582  0.84921777  0.43058177  1
  Nb  Nb13  1  0.76555418  0.15078223  0.93058177  1
  Nb  Nb14  1  0.23444582  0.65078223  0.56941823  1
  Nb  Nb15  1  0.76555418  0.34921777  0.06941823  1
  Te  Te16  1  0.61357351  0.91373040  0.59676863  1
  Te  Te17  1  0.38642649  0.08626960  0.09676863  1
  Te  Te18  1  0.61357351  0.58626960  0.40323137  1
  Te  Te19  1  0.38642649  0.41373040  0.90323137  1
  Te  Te20  1  0.38642649  0.08626960  0.40323137  1
  Te  Te21  1  0.61357351  0.91373040  0.90323137  1
  Te  Te22  1  0.38642649  0.41373040  0.59676863  1
  Te  Te23  1  0.61357351  0.58626960  0.09676863  1
  O  O24  1  0.28476858  0.93201169  0.52321931  1
  O  O25  1  0.71523142  0.06798831  0.02321931  1
  O  O26  1  0.28476858  0.56798831  0.47678069  1
  O  O27  1  0.71523142  0.43201169  0.97678069  1
  O  O28  1  0.71523142  0.06798831  0.47678069  1
  O  O29  1  0.28476858  0.93201169  0.97678069  1
  O  O30  1  0.71523142  0.43201169  0.52321931  1
  O  O31  1  0.28476858  0.56798831  0.02321931  1
  O  O32  1  0.69851131  0.03094647  0.62734143  1
  O  O33  1  0.30148869  0.96905353  0.12734143  1
  O  O34  1  0.69851131  0.46905353  0.37265857  1
  O  O35  1  0.30148869  0.53094647  0.87265857  1
  O  O36  1  0.30148869  0.96905353  0.37265857  1
  O  O37  1  0.69851131  0.03094647  0.87265857  1
  O  O38  1  0.30148869  0.53094647  0.62734143  1
  O  O39  1  0.69851131  0.46905353  0.12734143  1
  O  O40  1  0.29651727  0.89501408  0.67340871  1
  O  O41  1  0.70348273  0.10498592  0.17340871  1
  O  O42  1  0.29651727  0.60498592  0.32659129  1
  O  O43  1  0.70348273  0.39501408  0.82659129  1
  O  O44  1  0.70348273  0.10498592  0.32659129  1
  O  O45  1  0.29651727  0.89501408  0.82659129  1
  O  O46  1  0.70348273  0.39501408  0.67340871  1
  O  O47  1  0.29651727  0.60498592  0.17340871  1
  O  O48  1  0.29304641  0.70775135  0.66779419  1
  O  O49  1  0.70695359  0.29224865  0.16779419  1
  O  O50  1  0.29304641  0.79224865  0.33220581  1
  O  O51  1  0.70695359  0.20775135  0.83220581  1
  O  O52  1  0.70695359  0.29224865  0.33220581  1
  O  O53  1  0.29304641  0.70775135  0.83220581  1
  O  O54  1  0.70695359  0.20775135  0.66779419  1
  O  O55  1  0.29304641  0.79224865  0.16779419  1
  O  O56  1  0.79569696  0.79928835  0.75000000  1
  O  O57  1  0.20430304  0.20071165  0.25000000  1
  O  O58  1  0.79569696  0.70071165  0.25000000  1
  O  O59  1  0.20430304  0.29928835  0.75000000  1
  O  O60  1  0.70351472  0.25000000  0.50000000  1
  O  O61  1  0.29648528  0.75000000  0.00000000  1
  O  O62  1  0.29648528  0.75000000  0.50000000  1
  O  O63  1  0.70351472  0.25000000  -0.00000000  1
  O  O64  1  0.20791438  0.14685172  0.56793701  1
  O  O65  1  0.79208562  0.85314828  0.06793701  1
  O  O66  1  0.20791438  0.35314828  0.43206299  1
  O  O67  1  0.79208562  0.64685172  0.93206299  1
  O  O68  1  0.79208562  0.85314828  0.43206299  1
  O  O69  1  0.20791438  0.14685172  0.93206299  1
  O  O70  1  0.79208562  0.64685172  0.56793701  1
  O  O71  1  0.20791438  0.35314828  0.06793701  1
