# generated using pymatgen
data_ZrFeGe2
_symmetry_space_group_name_H-M   'P 1'
_cell_length_a   7.98878066
_cell_length_b   9.23268939
_cell_length_c   10.24036243
_cell_angle_alpha   90.00000000
_cell_angle_beta   90.00000000
_cell_angle_gamma   90.00000000
_symmetry_Int_Tables_number   1
_chemical_formula_structural   ZrFeGe2
_chemical_formula_sum   'Zr12 Fe12 Ge24'
_cell_volume   755.30793978
_cell_formula_units_Z   12
loop_
 _symmetry_equiv_pos_site_id
 _symmetry_equiv_pos_as_xyz
  1  'x, y, z'
loop_
 _atom_site_type_symbol
 _atom_site_label
 _atom_site_symmetry_multiplicity
 _atom_site_fract_x
 _atom_site_fract_y
 _atom_site_fract_z
 _atom_site_occupancy
  Zr  Zr0  1  0.74645667  0.82690949  0.04896817  1
  Zr  Zr1  1  0.74645667  0.17309051  0.95103183  1
  Zr  Zr2  1  0.25354333  0.67309051  0.54896817  1
  Zr  Zr3  1  0.25354333  0.32690949  0.45103183  1
  Zr  Zr4  1  0.25354333  0.17309051  0.95103183  1
  Zr  Zr5  1  0.25354333  0.82690949  0.04896817  1
  Zr  Zr6  1  0.74645667  0.32690949  0.45103183  1
  Zr  Zr7  1  0.74645667  0.67309051  0.54896817  1
  Zr  Zr8  1  0.50000000  0.83575848  0.32225541  1
  Zr  Zr9  1  0.50000000  0.16424152  0.67774459  1
  Zr  Zr10  1  0.50000000  0.66424152  0.82225541  1
  Zr  Zr11  1  0.50000000  0.33575848  0.17774459  1
  Fe  Fe12  1  0.74925207  0.59209840  0.25209679  1
  Fe  Fe13  1  0.74925207  0.40790160  0.74790321  1
  Fe  Fe14  1  0.25074793  0.90790160  0.75209679  1
  Fe  Fe15  1  0.25074793  0.09209840  0.24790321  1
  Fe  Fe16  1  0.25074793  0.40790160  0.74790321  1
  Fe  Fe17  1  0.25074793  0.59209840  0.25209679  1
  Fe  Fe18  1  0.74925207  0.09209840  0.24790321  1
  Fe  Fe19  1  0.74925207  0.90790160  0.75209679  1
  Fe  Fe20  1  0.74627522  0.00000000  0.50000000  1
  Fe  Fe21  1  0.25372478  0.50000000  0.00000000  1
  Fe  Fe22  1  0.25372478  0.00000000  0.50000000  1
  Fe  Fe23  1  0.74627522  0.50000000  0.00000000  1
  Ge  Ge24  1  0.84371838  0.84285915  0.31943062  1
  Ge  Ge25  1  0.84371838  0.15714085  0.68056938  1
  Ge  Ge26  1  0.15628162  0.65714085  0.81943062  1
  Ge  Ge27  1  0.15628162  0.34285915  0.18056938  1
  Ge  Ge28  1  0.15628162  0.15714085  0.68056938  1
  Ge  Ge29  1  0.15628162  0.84285915  0.31943062  1
  Ge  Ge30  1  0.84371838  0.34285915  0.18056938  1
  Ge  Ge31  1  0.84371838  0.65714085  0.81943062  1
  Ge  Ge32  1  0.50000000  0.54001592  0.37905266  1
  Ge  Ge33  1  0.50000000  0.45998408  0.62094734  1
  Ge  Ge34  1  0.50000000  0.95998408  0.87905266  1
  Ge  Ge35  1  0.50000000  0.04001592  0.12094734  1
  Ge  Ge36  1  -0.00000000  0.55268457  0.37940230  1
  Ge  Ge37  1  -0.00000000  0.44731543  0.62059770  1
  Ge  Ge38  1  -0.00000000  0.94731543  0.87940230  1
  Ge  Ge39  1  -0.00000000  0.05268457  0.12059770  1
  Ge  Ge40  1  0.50000000  0.62878786  0.10299425  1
  Ge  Ge41  1  0.50000000  0.37121214  0.89700575  1
  Ge  Ge42  1  0.50000000  0.87121214  0.60299425  1
  Ge  Ge43  1  0.50000000  0.12878786  0.39700575  1
  Ge  Ge44  1  -0.00000000  0.62278409  0.10140642  1
  Ge  Ge45  1  -0.00000000  0.37721591  0.89859358  1
  Ge  Ge46  1  -0.00000000  0.87721591  0.60140642  1
  Ge  Ge47  1  -0.00000000  0.12278409  0.39859358  1
