# generated using pymatgen
data_CsMoIO6
_symmetry_space_group_name_H-M   'P 1'
_cell_length_a   7.53607256
_cell_length_b   8.05007559
_cell_length_c   10.68408678
_cell_angle_alpha   90.00000000
_cell_angle_beta   90.00000000
_cell_angle_gamma   90.00000000
_symmetry_Int_Tables_number   1
_chemical_formula_structural   CsMoIO6
_chemical_formula_sum   'Cs4 Mo4 I4 O24'
_cell_volume   648.16031456
_cell_formula_units_Z   4
loop_
 _symmetry_equiv_pos_site_id
 _symmetry_equiv_pos_as_xyz
  1  'x, y, z'
loop_
 _atom_site_type_symbol
 _atom_site_label
 _atom_site_symmetry_multiplicity
 _atom_site_fract_x
 _atom_site_fract_y
 _atom_site_fract_z
 _atom_site_occupancy
  Cs  Cs0  1  0.37173765  0.48530631  0.12304864  1
  Cs  Cs1  1  0.87173765  0.51469369  0.87695136  1
  Cs  Cs2  1  0.87173765  0.01469369  0.62304864  1
  Cs  Cs3  1  0.37173765  0.98530631  0.37695136  1
  Mo  Mo4  1  0.59357008  0.49191550  0.47354215  1
  Mo  Mo5  1  0.09357008  0.50808450  0.52645785  1
  Mo  Mo6  1  0.09357008  0.00808450  0.97354215  1
  Mo  Mo7  1  0.59357008  0.99191550  0.02645785  1
  I  I8  1  0.42680014  0.27360043  0.73958045  1
  I  I9  1  0.92680014  0.72639957  0.26041955  1
  I  I10  1  0.92680014  0.22639957  0.23958045  1
  I  I11  1  0.42680014  0.77360043  0.76041955  1
  O  O12  1  0.54043749  0.63951067  0.35864719  1
  O  O13  1  0.04043749  0.36048933  0.64135281  1
  O  O14  1  0.04043749  0.86048933  0.85864719  1
  O  O15  1  0.54043749  0.13951067  0.14135281  1
  O  O16  1  0.62740798  0.30911000  0.38622207  1
  O  O17  1  0.12740798  0.69089000  0.61377793  1
  O  O18  1  0.12740798  0.19089000  0.88622207  1
  O  O19  1  0.62740798  0.80911000  0.11377793  1
  O  O20  1  0.33641579  0.44638702  0.51144645  1
  O  O21  1  0.83641579  0.55361298  0.48855355  1
  O  O22  1  0.83641579  0.05361298  0.01144645  1
  O  O23  1  0.33641579  0.94638702  0.98855355  1
  O  O24  1  0.41509331  0.07416632  0.65728847  1
  O  O25  1  0.91509331  0.92583368  0.34271153  1
  O  O26  1  0.91509331  0.42583368  0.15728847  1
  O  O27  1  0.41509331  0.57416632  0.84271153  1
  O  O28  1  0.62256869  0.36121194  0.65486665  1
  O  O29  1  0.12256869  0.63878806  0.34513335  1
  O  O30  1  0.12256869  0.13878806  0.15486665  1
  O  O31  1  0.62256869  0.86121194  0.84513335  1
  O  O32  1  0.55022888  0.21770458  0.88172502  1
  O  O33  1  0.05022888  0.78229542  0.11827498  1
  O  O34  1  0.05022888  0.28229542  0.38172502  1
  O  O35  1  0.55022888  0.71770458  0.61827498  1
