# generated using pymatgen
data_K2LaCl5
_symmetry_space_group_name_H-M   'P 1'
_cell_length_a   8.13159574
_cell_length_b   8.94371255
_cell_length_c   12.96326072
_cell_angle_alpha   90.00000000
_cell_angle_beta   90.00000000
_cell_angle_gamma   90.00000000
_symmetry_Int_Tables_number   1
_chemical_formula_structural   K2LaCl5
_chemical_formula_sum   'K8 La4 Cl20'
_cell_volume   942.77458839
_cell_formula_units_Z   4
loop_
 _symmetry_equiv_pos_site_id
 _symmetry_equiv_pos_as_xyz
  1  'x, y, z'
loop_
 _atom_site_type_symbol
 _atom_site_label
 _atom_site_symmetry_multiplicity
 _atom_site_fract_x
 _atom_site_fract_y
 _atom_site_fract_z
 _atom_site_occupancy
  K  K0  1  0.04763108  0.50530932  0.82846476  1
  K  K1  1  0.45236892  0.99469068  0.32846476  1
  K  K2  1  0.95236892  0.00530932  0.17153524  1
  K  K3  1  0.54763108  0.49469068  0.67153524  1
  K  K4  1  0.95236892  0.49469068  0.17153524  1
  K  K5  1  0.54763108  0.00530932  0.67153524  1
  K  K6  1  0.04763108  0.99469068  0.82846476  1
  K  K7  1  0.45236892  0.50530932  0.32846476  1
  La  La8  1  0.57674719  0.75000000  0.99380226  1
  La  La9  1  0.92325281  0.75000000  0.49380226  1
  La  La10  1  0.42325281  0.25000000  0.00619774  1
  La  La11  1  0.07674719  0.25000000  0.50619774  1
  Cl  Cl12  1  0.42654193  0.25000000  0.50679563  1
  Cl  Cl13  1  0.07345807  0.25000000  0.00679563  1
  Cl  Cl14  1  0.57345807  0.75000000  0.49320437  1
  Cl  Cl15  1  0.92654193  0.75000000  0.99320437  1
  Cl  Cl16  1  0.83168688  0.75000000  0.70597678  1
  Cl  Cl17  1  0.66831312  0.75000000  0.20597678  1
  Cl  Cl18  1  0.16831312  0.25000000  0.29402322  1
  Cl  Cl19  1  0.33168688  0.25000000  0.79402322  1
  Cl  Cl20  1  0.36928896  0.75000000  0.81960076  1
  Cl  Cl21  1  0.13071104  0.75000000  0.31960076  1
  Cl  Cl22  1  0.63071104  0.25000000  0.18039924  1
  Cl  Cl23  1  0.86928896  0.25000000  0.68039924  1
  Cl  Cl24  1  0.66367528  0.45736781  0.92100973  1
  Cl  Cl25  1  0.83632472  0.04263219  0.42100973  1
  Cl  Cl26  1  0.33632472  0.95736781  0.07899027  1
  Cl  Cl27  1  0.16367528  0.54263219  0.57899027  1
  Cl  Cl28  1  0.33632472  0.54263219  0.07899027  1
  Cl  Cl29  1  0.16367528  0.95736781  0.57899027  1
  Cl  Cl30  1  0.66367528  0.04263219  0.92100973  1
  Cl  Cl31  1  0.83632472  0.45736781  0.42100973  1
