# generated using pymatgen
data_SmCO4
_symmetry_space_group_name_H-M   'P 1'
_cell_length_a   9.82199680
_cell_length_b   12.37622367
_cell_length_c   12.37622963
_cell_angle_alpha   120.00005770
_cell_angle_beta   90.00000000
_cell_angle_gamma   90.00000000
_symmetry_Int_Tables_number   1
_chemical_formula_structural   SmCO4
_chemical_formula_sum   'Sm18 C18 O72'
_cell_volume   1302.88677566
_cell_formula_units_Z   18
loop_
 _symmetry_equiv_pos_site_id
 _symmetry_equiv_pos_as_xyz
  1  'x, y, z'
loop_
 _atom_site_type_symbol
 _atom_site_label
 _atom_site_symmetry_multiplicity
 _atom_site_fract_x
 _atom_site_fract_y
 _atom_site_fract_z
 _atom_site_occupancy
  Sm  Sm0  1  0.23993393  0.88163617  0.77009027  1
  Sm  Sm1  1  0.23993415  0.22990766  0.11154416  1
  Sm  Sm2  1  0.23993399  0.88845774  0.11836717  1
  Sm  Sm3  1  0.76006607  0.88163617  0.77009027  1
  Sm  Sm4  1  0.76006585  0.22990766  0.11154416  1
  Sm  Sm5  1  0.76006601  0.88845774  0.11836717  1
  Sm  Sm6  1  0.25673665  0.21554567  0.43775804  1
  Sm  Sm7  1  0.25673709  0.56224666  0.77779093  1
  Sm  Sm8  1  0.25673724  0.22221049  0.78445213  1
  Sm  Sm9  1  0.74326335  0.21554567  0.43775804  1
  Sm  Sm10  1  0.74326291  0.56224666  0.77779093  1
  Sm  Sm11  1  0.74326276  0.22221049  0.78445213  1
  Sm  Sm12  1  0.25634429  0.89657544  0.45447143  1
  Sm  Sm13  1  0.25634432  0.54552465  0.44210347  1
  Sm  Sm14  1  0.25634580  0.55789673  0.10342235  1
  Sm  Sm15  1  0.74365571  0.89657544  0.45447143  1
  Sm  Sm16  1  0.74365568  0.54552465  0.44210347  1
  Sm  Sm17  1  0.74365420  0.55789673  0.10342235  1
  C  C18  1  0.00000000  0.35296229  0.49014181  1
  C  C19  1  0.00000000  0.50985980  0.86282171  1
  C  C20  1  0.00000000  0.13717966  0.64703620  1
  C  C21  1  0.00000000  0.79707360  0.88779337  1
  C  C22  1  0.00000000  0.11220787  0.90928043  1
  C  C23  1  0.00000000  0.09071810  0.20292770  1
  C  C24  1  0.00000000  0.83640827  0.53211658  1
  C  C25  1  0.00000000  0.46787716  0.30429032  1
  C  C26  1  0.00000000  0.69570968  0.16359147  1
  C  C27  1  0.50000000  0.12947185  0.57783108  1
  C  C28  1  0.50000000  0.42216890  0.55164141  1
  C  C29  1  0.50000000  0.44836101  0.87052993  1
  C  C30  1  0.50000000  0.76287015  0.22519729  1
  C  C31  1  0.50000000  0.77480030  0.53766936  1
  C  C32  1  0.50000000  0.46232547  0.23712908  1
  C  C33  1  0.50000000  0.79802317  0.81911020  1
  C  C34  1  0.50000000  0.18089162  0.97891038  1
  C  C35  1  0.50000000  0.02109072  0.20198200  1
  O  O36  1  0.00000000  0.24536628  0.48536972  1
  O  O37  1  0.00000000  0.51463342  0.75999900  1
  O  O38  1  0.00000000  0.24000374  0.75463212  1
  O  O39  1  0.11576174  0.40243441  0.49091951  1
  O  O40  1  0.11576233  0.50908134  0.91151578  1
  O  O41  1  0.11576197  0.08848536  0.59756260  1
  O  O42  1  0.88423826  0.40243441  0.49091951  1
  O  O43  1  0.88423767  0.50908134  0.91151578  1
  O  O44  1  0.88423803  0.08848536  0.59756260  1
  O  O45  1  0.00000000  0.85908964  0.82881864  1
  O  O46  1  0.00000000  0.17117955  0.03026956  1
  O  O47  1  0.00000000  0.96972789  0.14091084  1
  O  O48  1  0.11526660  0.08377298  0.85095206  1
  O  O49  1  0.11526681  0.14904593  0.23281990  1
  O  O50  1  0.11526639  0.76718171  0.91622896  1
  O  O51  1  0.88473340  0.08377298  0.85095206  1
  O  O52  1  0.88473319  0.14904593  0.23281990  1
  O  O53  1  0.88473361  0.76718171  0.91622896  1
  O  O54  1  0.00000000  0.84114484  0.42991835  1
  O  O55  1  0.00000000  0.57007690  0.41122544  1
  O  O56  1  0.00000000  0.58877377  0.15885367  1
  O  O57  1  0.11513708  0.83629118  0.58193728  1
  O  O58  1  0.11513659  0.41805641  0.25435312  1
  O  O59  1  0.11513673  0.74564751  0.16370895  1
  O  O60  1  0.88486292  0.83629118  0.58193728  1
  O  O61  1  0.88486341  0.41805641  0.25435312  1
  O  O62  1  0.88486327  0.74564751  0.16370895  1
  O  O63  1  0.50000000  0.30184955  0.49766594  1
  O  O64  1  0.50000000  0.50233775  0.80418690  1
  O  O65  1  0.50000000  0.19581809  0.69815107  1
  O  O66  1  0.38539752  0.09640104  0.51832520  1
  O  O67  1  0.38539752  0.48167581  0.57807849  1
  O  O68  1  0.38539787  0.42192400  0.90359956  1
  O  O69  1  0.61460248  0.09640104  0.51832520  1
  O  O70  1  0.61460248  0.48167581  0.57807849  1
  O  O71  1  0.61460213  0.42192400  0.90359956  1
  O  O72  1  0.50000000  0.83956637  0.48132657  1
  O  O73  1  0.50000000  0.51866737  0.35823795  1
  O  O74  1  0.50000000  0.64176143  0.16043229  1
  O  O75  1  0.38490037  0.82144259  0.25656226  1
  O  O76  1  0.38490073  0.74343571  0.56487709  1
  O  O77  1  0.38490036  0.43511821  0.17855634  1
  O  O78  1  0.61509963  0.82144259  0.25656226  1
  O  O79  1  0.61509927  0.74343571  0.56487709  1
  O  O80  1  0.61509964  0.43511821  0.17855634  1
  O  O81  1  0.50000000  0.90154343  0.81655196  1
  O  O82  1  0.50000000  0.18344775  0.08498865  1
  O  O83  1  0.50000000  0.91501204  0.09845983  1
  O  O84  1  0.38506815  0.74807468  0.81919250  1
  O  O85  1  0.38506836  0.18081005  0.92888080  1
  O  O86  1  0.38506883  0.07112088  0.25193027  1
  O  O87  1  0.61493185  0.74807468  0.81919250  1
  O  O88  1  0.61493164  0.18081005  0.92888080  1
  O  O89  1  0.61493117  0.07112088  0.25193027  1
  O  O90  1  0.25840001  0.00000030  0.00000012  1
  O  O91  1  0.74159999  0.00000030  0.00000012  1
  O  O92  1  0.24652784  0.33333637  0.66666866  1
  O  O93  1  0.75347216  0.33333637  0.66666866  1
  O  O94  1  0.24362704  0.66666309  0.33333193  1
  O  O95  1  0.75637296  0.66666309  0.33333193  1
  O  O96  1  0.30848885  0.32268841  0.32540894  1
  O  O97  1  0.30848816  0.67459279  0.99728235  1
  O  O98  1  0.30848668  0.00271839  0.67730821  1
  O  O99  1  0.69151115  0.32268841  0.32540894  1
  O  O100  1  0.69151184  0.67459279  0.99728235  1
  O  O101  1  0.69151332  0.00271839  0.67730821  1
  O  O102  1  0.19362666  0.99840463  0.34084385  1
  O  O103  1  0.19362602  0.65915768  0.65756149  1
  O  O104  1  0.19362573  0.34243762  0.00159442  1
  O  O105  1  0.80637334  0.99840463  0.34084385  1
  O  O106  1  0.80637398  0.65915768  0.65756149  1
  O  O107  1  0.80637427  0.34243762  0.00159442  1
