# generated using pymatgen
data_Pr(NO3)3
_symmetry_space_group_name_H-M   'P 1'
_cell_length_a   10.80463965
_cell_length_b   10.80463965
_cell_length_c   12.91758648
_cell_angle_alpha   99.27274476
_cell_angle_beta   99.27274476
_cell_angle_gamma   103.11417078
_symmetry_Int_Tables_number   1
_chemical_formula_structural   Pr(NO3)3
_chemical_formula_sum   'Pr8 N24 O72'
_cell_volume   1418.49158028
_cell_formula_units_Z   8
loop_
 _symmetry_equiv_pos_site_id
 _symmetry_equiv_pos_as_xyz
  1  'x, y, z'
loop_
 _atom_site_type_symbol
 _atom_site_label
 _atom_site_symmetry_multiplicity
 _atom_site_fract_x
 _atom_site_fract_y
 _atom_site_fract_z
 _atom_site_occupancy
  Pr  Pr0  1  -0.00000000  0.50000000  0.00000000  1
  Pr  Pr1  1  0.50000000  -0.00000000  0.50000000  1
  Pr  Pr2  1  0.72010260  0.27989740  0.25000000  1
  Pr  Pr3  1  0.27989740  0.72010260  0.75000000  1
  Pr  Pr4  1  0.76314843  0.78010564  0.24228481  1
  Pr  Pr5  1  0.21989436  0.23685157  0.25771519  1
  Pr  Pr6  1  0.23685157  0.21989436  0.75771519  1
  Pr  Pr7  1  0.78010564  0.76314843  0.74228481  1
  N  N8  1  0.63866838  0.49157265  0.13990513  1
  N  N9  1  0.50842735  0.36133162  0.36009487  1
  N  N10  1  0.36133162  0.50842735  0.86009487  1
  N  N11  1  0.49157265  0.63866838  0.63990513  1
  N  N12  1  0.74513047  0.17879217  0.45796687  1
  N  N13  1  0.82120783  0.25486953  0.04203313  1
  N  N14  1  0.25486953  0.82120783  0.54203313  1
  N  N15  1  0.17879217  0.74513047  0.95796687  1
  N  N16  1  0.75573495  0.54228046  0.86856694  1
  N  N17  1  0.45771954  0.24426505  0.63143306  1
  N  N18  1  0.24426505  0.45771954  0.13143306  1
  N  N19  1  0.54228046  0.75573495  0.36856694  1
  N  N20  1  0.00309398  0.68161487  0.20819665  1
  N  N21  1  0.31838513  0.99690602  0.29180335  1
  N  N22  1  0.99690602  0.31838513  0.79180335  1
  N  N23  1  0.68161487  0.00309398  0.70819665  1
  N  N24  1  0.83062710  0.86282483  0.97872852  1
  N  N25  1  0.13717517  0.16937290  0.52127148  1
  N  N26  1  0.16937290  0.13717517  0.02127148  1
  N  N27  1  0.86282483  0.83062710  0.47872852  1
  N  N28  1  0.61454453  0.97532117  0.17684871  1
  N  N29  1  0.02467883  0.38545547  0.32315129  1
  N  N30  1  0.38545547  0.02467883  0.82315129  1
  N  N31  1  0.97532117  0.61454453  0.67684871  1
  O  O32  1  0.72326471  0.52242197  0.23018442  1
  O  O33  1  0.47757803  0.27673529  0.26981558  1
  O  O34  1  0.27673529  0.47757803  0.76981558  1
  O  O35  1  0.52242197  0.72326471  0.73018442  1
  O  O36  1  0.58656289  0.37386403  0.10128345  1
  O  O37  1  0.62613597  0.41343711  0.39871655  1
  O  O38  1  0.41343711  0.62613597  0.89871655  1
  O  O39  1  0.37386403  0.58656289  0.60128345  1
  O  O40  1  0.61507604  0.58223961  0.09717325  1
  O  O41  1  0.41776039  0.38492396  0.40282675  1
  O  O42  1  0.38492396  0.41776039  0.90282675  1
  O  O43  1  0.58223961  0.61507604  0.59717325  1
  O  O44  1  0.63316785  0.14960702  0.39157475  1
  O  O45  1  0.85039298  0.36683215  0.10842525  1
  O  O46  1  0.36683215  0.85039298  0.60842525  1
  O  O47  1  0.14960702  0.63316785  0.89157475  1
  O  O48  1  0.75183997  0.12917722  0.53854193  1
  O  O49  1  0.87082278  0.24816003  0.96145807  1
  O  O50  1  0.24816003  0.87082278  0.46145807  1
  O  O51  1  0.12917722  0.75183997  0.03854193  1
  O  O52  1  0.83877470  0.25446968  0.43597719  1
  O  O53  1  0.74553032  0.16122530  0.06402281  1
  O  O54  1  0.16122530  0.74553032  0.56402281  1
  O  O55  1  0.25446968  0.83877470  0.93597719  1
  O  O56  1  0.74521200  0.45912245  0.92564192  1
  O  O57  1  0.54087755  0.25478800  0.57435808  1
  O  O58  1  0.25478800  0.54087755  0.07435808  1
  O  O59  1  0.45912245  0.74521200  0.42564192  1
  O  O60  1  0.86940978  0.62211024  0.87909516  1
  O  O61  1  0.37788976  0.13059022  0.62090484  1
  O  O62  1  0.13059022  0.37788976  0.12090484  1
  O  O63  1  0.62211024  0.86940978  0.37909516  1
  O  O64  1  0.66400853  0.55383410  0.80158032  1
  O  O65  1  0.44616590  0.33599147  0.69841968  1
  O  O66  1  0.33599147  0.44616590  0.19841968  1
  O  O67  1  0.55383410  0.66400853  0.30158032  1
  O  O68  1  0.08972177  0.62302677  0.20258145  1
  O  O69  1  0.37697323  0.91027823  0.29741855  1
  O  O70  1  0.91027823  0.37697323  0.79741855  1
  O  O71  1  0.62302677  0.08972177  0.70258145  1
  O  O72  1  0.00307674  0.76408766  0.28844960  1
  O  O73  1  0.23591234  0.99692326  0.21155040  1
  O  O74  1  0.99692326  0.23591234  0.71155040  1
  O  O75  1  0.76408766  0.00307674  0.78844960  1
  O  O76  1  0.90672211  0.65499463  0.12657851  1
  O  O77  1  0.34500537  0.09327789  0.37342149  1
  O  O78  1  0.09327789  0.34500537  0.87342149  1
  O  O79  1  0.65499463  0.90672211  0.62657851  1
  O  O80  1  0.71579140  0.80761510  0.92392666  1
  O  O81  1  0.19238490  0.28420860  0.57607334  1
  O  O82  1  0.28420860  0.19238490  0.07607334  1
  O  O83  1  0.80761510  0.71579140  0.42392666  1
  O  O84  1  0.85295042  0.88722616  0.07928399  1
  O  O85  1  0.11277384  0.14704958  0.42071601  1
  O  O86  1  0.14704958  0.11277384  0.92071601  1
  O  O87  1  0.88722616  0.85295042  0.57928399  1
  O  O88  1  0.92049209  0.88933976  0.92696815  1
  O  O89  1  0.11066024  0.07950791  0.57303185  1
  O  O90  1  0.07950791  0.11066024  0.07303185  1
  O  O91  1  0.88933976  0.92049209  0.42696815  1
  O  O92  1  0.57151457  0.85425054  0.14555075  1
  O  O93  1  0.14574946  0.42848543  0.35444925  1
  O  O94  1  0.42848543  0.14574946  0.85444925  1
  O  O95  1  0.85425054  0.57151457  0.64555075  1
  O  O96  1  0.54802060  0.05340169  0.15854753  1
  O  O97  1  0.94659831  0.45197940  0.34145247  1
  O  O98  1  0.45197940  0.94659831  0.84145247  1
  O  O99  1  0.05340169  0.54802060  0.65854753  1
  O  O100  1  0.73262136  0.02085858  0.23174613  1
  O  O101  1  0.97914142  0.26737864  0.26825387  1
  O  O102  1  0.26737864  0.97914142  0.76825387  1
  O  O103  1  0.02085858  0.73262136  0.73174613  1
