# generated using pymatgen
data_Na4Mn2P2O7F6
_symmetry_space_group_name_H-M   'P 1'
_cell_length_a   7.91707254
_cell_length_b   8.26874136
_cell_length_c   8.28550972
_cell_angle_alpha   90.00000000
_cell_angle_beta   97.86306342
_cell_angle_gamma   90.00000000
_symmetry_Int_Tables_number   1
_chemical_formula_structural   Na4Mn2P2O7F6
_chemical_formula_sum   'Na8 Mn4 P4 O14 F12'
_cell_volume   537.30471283
_cell_formula_units_Z   2
loop_
 _symmetry_equiv_pos_site_id
 _symmetry_equiv_pos_as_xyz
  1  'x, y, z'
loop_
 _atom_site_type_symbol
 _atom_site_label
 _atom_site_symmetry_multiplicity
 _atom_site_fract_x
 _atom_site_fract_y
 _atom_site_fract_z
 _atom_site_occupancy
  Na  Na0  1  0.25000000  0.72539352  0.75000000  1
  Na  Na1  1  0.75000000  0.27460648  0.25000000  1
  Na  Na2  1  0.25000000  0.74939501  0.25000000  1
  Na  Na3  1  0.75000000  0.25060499  0.75000000  1
  Na  Na4  1  0.75000000  0.81658173  0.25000000  1
  Na  Na5  1  0.25000000  0.18341827  0.75000000  1
  Na  Na6  1  0.50000000  0.50000000  0.50000000  1
  Na  Na7  1  0.00000000  0.50000000  -0.00000000  1
  Mn  Mn8  1  0.50000000  0.50000000  -0.00000000  1
  Mn  Mn9  1  0.00000000  0.50000000  0.50000000  1
  Mn  Mn10  1  -0.00000000  0.00000000  -0.00000000  1
  Mn  Mn11  1  0.50000000  0.00000000  0.50000000  1
  P  P12  1  0.63486885  0.86189812  0.86644519  1
  P  P13  1  0.36513115  0.13810188  0.13355481  1
  P  P14  1  0.86513115  0.86189812  0.63355481  1
  P  P15  1  0.13486885  0.13810188  0.36644519  1
  O  O16  1  0.74991736  0.00660642  0.93644571  1
  O  O17  1  0.25008264  0.99339358  0.06355429  1
  O  O18  1  0.75008264  0.00660642  0.56355429  1
  O  O19  1  0.24991736  0.99339358  0.43644571  1
  O  O20  1  0.75000000  0.76205148  0.75000000  1
  O  O21  1  0.25000000  0.23794852  0.25000000  1
  O  O22  1  0.97682118  0.07831399  0.25537127  1
  O  O23  1  0.02317882  0.92168601  0.74462873  1
  O  O24  1  0.52317882  0.07831399  0.24462873  1
  O  O25  1  0.47682118  0.92168601  0.75537127  1
  O  O26  1  0.59897080  0.74652785  0.99947108  1
  O  O27  1  0.40102920  0.25347215  0.00052892  1
  O  O28  1  0.90102920  0.74652785  0.50052892  1
  O  O29  1  0.09897080  0.25347215  0.49947108  1
  F  F30  1  0.44886224  0.50754658  0.77157965  1
  F  F31  1  0.55113776  0.49245342  0.22842035  1
  F  F32  1  0.05113776  0.50754658  0.72842035  1
  F  F33  1  0.94886224  0.49245342  0.27157965  1
  F  F34  1  0.98873169  0.78567330  0.07964694  1
  F  F35  1  0.01126831  0.21432670  0.92035306  1
  F  F36  1  0.51126831  0.78567330  0.42035306  1
  F  F37  1  0.48873169  0.21432670  0.57964694  1
  F  F38  1  0.28111476  0.59132808  0.02051054  1
  F  F39  1  0.71888524  0.40867192  0.97948946  1
  F  F40  1  0.21888524  0.59132808  0.47948946  1
  F  F41  1  0.78111476  0.40867192  0.52051054  1
