# generated using pymatgen
data_K12Sn4Au21
_symmetry_space_group_name_H-M   'P 1'
_cell_length_a   8.55189889
_cell_length_b   12.84583587
_cell_length_c   18.66907112
_cell_angle_alpha   90.00000000
_cell_angle_beta   90.00000000
_cell_angle_gamma   90.00000000
_symmetry_Int_Tables_number   1
_chemical_formula_structural   K12Sn4Au21
_chemical_formula_sum   'K24 Sn8 Au42'
_cell_volume   2050.91488199
_cell_formula_units_Z   2
loop_
 _symmetry_equiv_pos_site_id
 _symmetry_equiv_pos_as_xyz
  1  'x, y, z'
loop_
 _atom_site_type_symbol
 _atom_site_label
 _atom_site_symmetry_multiplicity
 _atom_site_fract_x
 _atom_site_fract_y
 _atom_site_fract_z
 _atom_site_occupancy
  K  K0  1  0.60440064  0.50821854  0.58078739  1
  K  K1  1  0.60440064  0.99178146  0.58078739  1
  K  K2  1  0.60440064  0.50821854  0.91921261  1
  K  K3  1  0.60440064  0.99178146  0.91921261  1
  K  K4  1  0.39559936  0.49178146  0.41921261  1
  K  K5  1  0.39559936  0.00821854  0.41921261  1
  K  K6  1  0.39559936  0.49178146  0.08078739  1
  K  K7  1  0.39559936  0.00821854  0.08078739  1
  K  K8  1  0.82578583  0.75000000  0.57362720  1
  K  K9  1  0.82578583  0.75000000  0.92637280  1
  K  K10  1  0.17421417  0.25000000  0.42637280  1
  K  K11  1  0.17421417  0.25000000  0.07362720  1
  K  K12  1  0.12124609  0.75000000  0.08787486  1
  K  K13  1  0.12124609  0.75000000  0.41212514  1
  K  K14  1  0.87875391  0.25000000  0.91212514  1
  K  K15  1  0.87875391  0.25000000  0.58787486  1
  K  K16  1  0.32832118  0.50222040  0.75000000  1
  K  K17  1  0.32832118  0.99777960  0.75000000  1
  K  K18  1  0.67167882  0.49777960  0.25000000  1
  K  K19  1  0.67167882  0.00222040  0.25000000  1
  K  K20  1  0.88816559  0.75000000  0.25000000  1
  K  K21  1  0.11183441  0.25000000  0.75000000  1
  K  K22  1  0.04046750  0.75000000  0.75000000  1
  K  K23  1  0.95953250  0.25000000  0.25000000  1
  Sn  Sn24  1  0.56793636  0.75000000  0.11615432  1
  Sn  Sn25  1  0.56793636  0.75000000  0.38384568  1
  Sn  Sn26  1  0.43206364  0.25000000  0.88384568  1
  Sn  Sn27  1  0.43206364  0.25000000  0.61615432  1
  Sn  Sn28  1  0.75847742  0.44295277  0.75000000  1
  Sn  Sn29  1  0.75847742  0.05704723  0.75000000  1
  Sn  Sn30  1  0.24152258  0.55704723  0.25000000  1
  Sn  Sn31  1  0.24152258  0.94295277  0.25000000  1
  Au  Au32  1  0.42043484  0.75000000  0.66717579  1
  Au  Au33  1  0.42043484  0.75000000  0.83282421  1
  Au  Au34  1  0.57956516  0.25000000  0.33282421  1
  Au  Au35  1  0.57956516  0.25000000  0.16717579  1
  Au  Au36  1  0.19273832  0.63529558  0.58416937  1
  Au  Au37  1  0.19273832  0.86470442  0.58416937  1
  Au  Au38  1  0.19273832  0.63529558  0.91583063  1
  Au  Au39  1  0.19273832  0.86470442  0.91583063  1
  Au  Au40  1  0.80726168  0.36470442  0.41583063  1
  Au  Au41  1  0.80726168  0.13529558  0.41583063  1
  Au  Au42  1  0.80726168  0.36470442  0.08416937  1
  Au  Au43  1  0.80726168  0.13529558  0.08416937  1
  Au  Au44  1  0.43239072  0.75000000  0.51453813  1
  Au  Au45  1  0.43239072  0.75000000  0.98546187  1
  Au  Au46  1  0.56760928  0.25000000  0.48546187  1
  Au  Au47  1  0.56760928  0.25000000  0.01453813  1
  Au  Au48  1  0.64888923  0.64103207  0.75000000  1
  Au  Au49  1  0.64888923  0.85896793  0.75000000  1
  Au  Au50  1  0.35111077  0.35896793  0.25000000  1
  Au  Au51  1  0.35111077  0.14103207  0.25000000  1
  Au  Au52  1  0.76476452  0.59153279  0.08586772  1
  Au  Au53  1  0.76476452  0.90846721  0.08586772  1
  Au  Au54  1  0.76476452  0.59153279  0.41413228  1
  Au  Au55  1  0.76476452  0.90846721  0.41413228  1
  Au  Au56  1  0.23523548  0.40846721  0.91413228  1
  Au  Au57  1  0.23523548  0.09153279  0.91413228  1
  Au  Au58  1  0.23523548  0.40846721  0.58586772  1
  Au  Au59  1  0.23523548  0.09153279  0.58586772  1
  Au  Au60  1  -0.00000000  0.50000000  0.50000000  1
  Au  Au61  1  -0.00000000  0.00000000  0.50000000  1
  Au  Au62  1  -0.00000000  0.50000000  0.00000000  1
  Au  Au63  1  -0.00000000  0.00000000  0.00000000  1
  Au  Au64  1  0.97150029  0.50143913  0.65134713  1
  Au  Au65  1  0.97150029  0.99856087  0.65134713  1
  Au  Au66  1  0.97150029  0.50143913  0.84865287  1
  Au  Au67  1  0.97150029  0.99856087  0.84865287  1
  Au  Au68  1  0.02849971  0.49856087  0.34865287  1
  Au  Au69  1  0.02849971  0.00143913  0.34865287  1
  Au  Au70  1  0.02849971  0.49856087  0.15134713  1
  Au  Au71  1  0.02849971  0.00143913  0.15134713  1
  Au  Au72  1  0.39809428  0.75000000  0.25000000  1
  Au  Au73  1  0.60190572  0.25000000  0.75000000  1
