# generated using pymatgen
data_ErNi5Ge3
_symmetry_space_group_name_H-M   'P 1'
_cell_length_a   3.84435337
_cell_length_b   6.85330245
_cell_length_c   19.05643072
_cell_angle_alpha   90.00000000
_cell_angle_beta   90.00000000
_cell_angle_gamma   90.00000000
_symmetry_Int_Tables_number   1
_chemical_formula_structural   ErNi5Ge3
_chemical_formula_sum   'Er4 Ni20 Ge12'
_cell_volume   502.07056390
_cell_formula_units_Z   4
loop_
 _symmetry_equiv_pos_site_id
 _symmetry_equiv_pos_as_xyz
  1  'x, y, z'
loop_
 _atom_site_type_symbol
 _atom_site_label
 _atom_site_symmetry_multiplicity
 _atom_site_fract_x
 _atom_site_fract_y
 _atom_site_fract_z
 _atom_site_occupancy
  Er  Er0  1  0.25000000  0.62150204  0.64545141  1
  Er  Er1  1  0.25000000  0.87849796  0.14545141  1
  Er  Er2  1  0.75000000  0.37849796  0.35454859  1
  Er  Er3  1  0.75000000  0.12150204  0.85454859  1
  Ni  Ni4  1  0.25000000  0.81244750  0.79892005  1
  Ni  Ni5  1  0.25000000  0.68755250  0.29892005  1
  Ni  Ni6  1  0.75000000  0.18755250  0.20107995  1
  Ni  Ni7  1  0.75000000  0.31244750  0.70107995  1
  Ni  Ni8  1  0.25000000  0.12964839  0.99614376  1
  Ni  Ni9  1  0.25000000  0.37035161  0.49614376  1
  Ni  Ni10  1  0.75000000  0.87035161  0.00385624  1
  Ni  Ni11  1  0.75000000  0.62964839  0.50385624  1
  Ni  Ni12  1  0.25000000  0.87923571  0.51210621  1
  Ni  Ni13  1  0.25000000  0.62076429  0.01210621  1
  Ni  Ni14  1  0.75000000  0.12076429  0.48789379  1
  Ni  Ni15  1  0.75000000  0.37923571  0.98789379  1
  Ni  Ni16  1  0.25000000  0.13901021  0.61172377  1
  Ni  Ni17  1  0.25000000  0.36098979  0.11172377  1
  Ni  Ni18  1  0.75000000  0.86098979  0.38827623  1
  Ni  Ni19  1  0.75000000  0.63901021  0.88827623  1
  Ni  Ni20  1  0.25000000  0.42479308  0.79334776  1
  Ni  Ni21  1  0.25000000  0.07520692  0.29334776  1
  Ni  Ni22  1  0.75000000  0.57520692  0.20665224  1
  Ni  Ni23  1  0.75000000  0.92479308  0.70665224  1
  Ge  Ge24  1  0.25000000  0.40258592  0.91478353  1
  Ge  Ge25  1  0.25000000  0.09741408  0.41478353  1
  Ge  Ge26  1  0.75000000  0.59741408  0.08521647  1
  Ge  Ge27  1  0.75000000  0.90258592  0.58521647  1
  Ge  Ge28  1  0.25000000  0.11721705  0.73677651  1
  Ge  Ge29  1  0.25000000  0.38278295  0.23677651  1
  Ge  Ge30  1  0.75000000  0.88278295  0.26322349  1
  Ge  Ge31  1  0.75000000  0.61721705  0.76322349  1
  Ge  Ge32  1  0.25000000  0.85244917  0.92271551  1
  Ge  Ge33  1  0.25000000  0.64755083  0.42271551  1
  Ge  Ge34  1  0.75000000  0.14755083  0.07728449  1
  Ge  Ge35  1  0.75000000  0.35244917  0.57728449  1
