# generated using pymatgen
data_CeCu(WO4)2
_symmetry_space_group_name_H-M   'P 1'
_cell_length_a   7.26944073
_cell_length_b   7.46893432
_cell_length_c   7.62736953
_cell_angle_alpha   113.96416412
_cell_angle_beta   116.23496142
_cell_angle_gamma   91.22248857
_symmetry_Int_Tables_number   1
_chemical_formula_structural   CeCu(WO4)2
_chemical_formula_sum   'Ce2 Cu2 W4 O16'
_cell_volume   329.09548500
_cell_formula_units_Z   2
loop_
 _symmetry_equiv_pos_site_id
 _symmetry_equiv_pos_as_xyz
  1  'x, y, z'
loop_
 _atom_site_type_symbol
 _atom_site_label
 _atom_site_symmetry_multiplicity
 _atom_site_fract_x
 _atom_site_fract_y
 _atom_site_fract_z
 _atom_site_occupancy
  Ce  Ce0  1  0.18500381  0.28814190  0.46517944  1
  Ce  Ce1  1  0.81499619  0.71185810  0.53482056  1
  Cu  Cu2  1  0.24244471  0.67636776  0.99130996  1
  Cu  Cu3  1  0.75755529  0.32363224  0.00869004  1
  W  W4  1  0.26422651  0.29367243  0.03262307  1
  W  W5  1  0.73577349  0.70632757  0.96737693  1
  W  W6  1  0.64966397  0.10413029  0.28845316  1
  W  W7  1  0.35033603  0.89586971  0.71154684  1
  O  O8  1  0.19019602  0.35627268  0.80226822  1
  O  O9  1  0.80980398  0.64372732  0.19773178  1
  O  O10  1  0.45697693  0.53754053  0.25577446  1
  O  O11  1  0.54302307  0.46245947  0.74422554  1
  O  O12  1  0.86208799  0.01059341  0.19897621  1
  O  O13  1  0.13791201  0.98940659  0.80102379  1
  O  O14  1  0.70807512  0.00642200  0.48091382  1
  O  O15  1  0.29192488  0.99357800  0.51908618  1
  O  O16  1  0.17519847  0.63684537  0.55397389  1
  O  O17  1  0.82480153  0.36315463  0.44602611  1
  O  O18  1  0.47916592  0.82684030  0.00653520  1
  O  O19  1  0.52083408  0.17315970  0.99346480  1
  O  O20  1  0.04166376  0.30756466  0.08781982  1
  O  O21  1  0.95833624  0.69243534  0.91218018  1
  O  O22  1  0.38571977  0.17565720  0.25816497  1
  O  O23  1  0.61428023  0.82434280  0.74183503  1
