# generated using pymatgen
data_Sr2PIO4
_symmetry_space_group_name_H-M   'P 1'
_cell_length_a   8.54095372
_cell_length_b   9.01982751
_cell_length_c   9.22496119
_cell_angle_alpha   90.00000000
_cell_angle_beta   112.51200747
_cell_angle_gamma   90.00000000
_symmetry_Int_Tables_number   1
_chemical_formula_structural   Sr2PIO4
_chemical_formula_sum   'Sr8 P4 I4 O16'
_cell_volume   656.51822083
_cell_formula_units_Z   4
loop_
 _symmetry_equiv_pos_site_id
 _symmetry_equiv_pos_as_xyz
  1  'x, y, z'
loop_
 _atom_site_type_symbol
 _atom_site_label
 _atom_site_symmetry_multiplicity
 _atom_site_fract_x
 _atom_site_fract_y
 _atom_site_fract_z
 _atom_site_occupancy
  Sr  Sr0  1  0.95910556  0.80489777  0.85149403  1
  Sr  Sr1  1  0.54089444  0.30489777  0.14850597  1
  Sr  Sr2  1  0.04089444  0.19510223  0.14850597  1
  Sr  Sr3  1  0.45910556  0.69510223  0.85149403  1
  Sr  Sr4  1  0.45144300  0.82887016  0.24731343  1
  Sr  Sr5  1  0.04855700  0.32887016  0.75268657  1
  Sr  Sr6  1  0.54855700  0.17112984  0.75268657  1
  Sr  Sr7  1  0.95144300  0.67112984  0.24731343  1
  P  P8  1  0.24269195  0.55345149  0.04447846  1
  P  P9  1  0.25730805  0.05345149  0.95552154  1
  P  P10  1  0.75730805  0.44654851  0.95552154  1
  P  P11  1  0.74269195  0.94654851  0.04447846  1
  I  I12  1  0.24362670  0.40383420  0.49333631  1
  I  I13  1  0.25637330  0.90383420  0.50666369  1
  I  I14  1  0.75637330  0.59616580  0.50666369  1
  I  I15  1  0.74362670  0.09616580  0.49333631  1
  O  O16  1  0.16202510  0.58289721  0.86287144  1
  O  O17  1  0.33797490  0.08289721  0.13712856  1
  O  O18  1  0.83797490  0.41710279  0.13712856  1
  O  O19  1  0.66202510  0.91710279  0.86287144  1
  O  O20  1  0.78593139  0.61181218  0.92784958  1
  O  O21  1  0.71406861  0.11181218  0.07215042  1
  O  O22  1  0.21406861  0.38818782  0.07215042  1
  O  O23  1  0.28593139  0.88818782  0.92784958  1
  O  O24  1  0.33092301  0.16501947  0.87038016  1
  O  O25  1  0.16907699  0.66501947  0.12961984  1
  O  O26  1  0.66907699  0.83498053  0.12961984  1
  O  O27  1  0.83092301  0.33498053  0.87038016  1
  O  O28  1  0.93722790  0.91710477  0.10407141  1
  O  O29  1  0.56277210  0.41710477  0.89592859  1
  O  O30  1  0.06277210  0.08289523  0.89592859  1
  O  O31  1  0.43722790  0.58289523  0.10407141  1
