# generated using pymatgen
data_Ba2GaBiS5
_symmetry_space_group_name_H-M   'P 1'
_cell_length_a   9.00877786
_cell_length_b   9.08075281
_cell_length_c   12.37686322
_cell_angle_alpha   90.00000000
_cell_angle_beta   90.00000000
_cell_angle_gamma   90.00000000
_symmetry_Int_Tables_number   1
_chemical_formula_structural   Ba2GaBiS5
_chemical_formula_sum   'Ba8 Ga4 Bi4 S20'
_cell_volume   1012.50767371
_cell_formula_units_Z   4
loop_
 _symmetry_equiv_pos_site_id
 _symmetry_equiv_pos_as_xyz
  1  'x, y, z'
loop_
 _atom_site_type_symbol
 _atom_site_label
 _atom_site_symmetry_multiplicity
 _atom_site_fract_x
 _atom_site_fract_y
 _atom_site_fract_z
 _atom_site_occupancy
  Ba  Ba0  1  0.00845812  0.11643910  0.82275899  1
  Ba  Ba1  1  0.49154188  0.38356090  0.32275899  1
  Ba  Ba2  1  0.50845812  0.88356090  0.17724101  1
  Ba  Ba3  1  0.99154188  0.61643910  0.67724101  1
  Ba  Ba4  1  0.99154188  0.88356090  0.17724101  1
  Ba  Ba5  1  0.50845812  0.61643910  0.67724101  1
  Ba  Ba6  1  0.49154188  0.11643910  0.82275899  1
  Ba  Ba7  1  0.00845812  0.38356090  0.32275899  1
  Ga  Ga8  1  0.25000000  0.32786825  0.59527613  1
  Ga  Ga9  1  0.25000000  0.17213175  0.09527613  1
  Ga  Ga10  1  0.75000000  0.67213175  0.40472387  1
  Ga  Ga11  1  0.75000000  0.82786825  0.90472387  1
  Bi  Bi12  1  0.25000000  0.96350759  0.51830871  1
  Bi  Bi13  1  0.25000000  0.53649241  0.01830871  1
  Bi  Bi14  1  0.75000000  0.03649241  0.48169129  1
  Bi  Bi15  1  0.75000000  0.46350759  0.98169129  1
  S  S16  1  0.05002604  0.17514380  0.55548576  1
  S  S17  1  0.44997396  0.32485620  0.05548576  1
  S  S18  1  0.55002604  0.82485620  0.44451424  1
  S  S19  1  0.94997396  0.67514380  0.94451424  1
  S  S20  1  0.94997396  0.82485620  0.44451424  1
  S  S21  1  0.55002604  0.67514380  0.94451424  1
  S  S22  1  0.44997396  0.17514380  0.55548576  1
  S  S23  1  0.05002604  0.32485620  0.05548576  1
  S  S24  1  0.25000000  0.87222998  0.71489422  1
  S  S25  1  0.25000000  0.62777002  0.21489422  1
  S  S26  1  0.75000000  0.12777002  0.28510578  1
  S  S27  1  0.75000000  0.37222998  0.78510578  1
  S  S28  1  0.25000000  0.37982382  0.77482616  1
  S  S29  1  0.25000000  0.12017618  0.27482616  1
  S  S30  1  0.75000000  0.62017618  0.22517384  1
  S  S31  1  0.75000000  0.87982382  0.72517384  1
  S  S32  1  0.25000000  0.96801932  0.99401215  1
  S  S33  1  0.25000000  0.53198068  0.49401215  1
  S  S34  1  0.75000000  0.03198068  0.00598785  1
  S  S35  1  0.75000000  0.46801932  0.50598785  1
