# generated using pymatgen
data_MnSeO3
_symmetry_space_group_name_H-M   'P 1'
_cell_length_a   8.19045264
_cell_length_b   8.49187523
_cell_length_c   8.97015400
_cell_angle_alpha   90.00000000
_cell_angle_beta   103.39266349
_cell_angle_gamma   90.00000000
_symmetry_Int_Tables_number   1
_chemical_formula_structural   MnSeO3
_chemical_formula_sum   'Mn8 Se8 O24'
_cell_volume   606.92837884
_cell_formula_units_Z   8
loop_
 _symmetry_equiv_pos_site_id
 _symmetry_equiv_pos_as_xyz
  1  'x, y, z'
loop_
 _atom_site_type_symbol
 _atom_site_label
 _atom_site_symmetry_multiplicity
 _atom_site_fract_x
 _atom_site_fract_y
 _atom_site_fract_z
 _atom_site_occupancy
  Mn  Mn0  1  0.07214362  0.12046842  0.37593537  1
  Mn  Mn1  1  0.42785638  0.62046842  0.12406463  1
  Mn  Mn2  1  0.92785638  0.87953158  0.62406463  1
  Mn  Mn3  1  0.57214362  0.37953158  0.87593537  1
  Mn  Mn4  1  0.48990601  0.20479467  0.51452696  1
  Mn  Mn5  1  0.01009399  0.70479467  0.98547304  1
  Mn  Mn6  1  0.51009399  0.79520533  0.48547304  1
  Mn  Mn7  1  0.98990601  0.29520533  0.01452696  1
  Se  Se8  1  0.72313496  0.36985900  0.28921144  1
  Se  Se9  1  0.77686504  0.86985900  0.21078856  1
  Se  Se10  1  0.27686504  0.63014100  0.71078856  1
  Se  Se11  1  0.22313496  0.13014100  0.78921144  1
  Se  Se12  1  0.80537762  0.49709028  0.66926194  1
  Se  Se13  1  0.69462238  0.99709028  0.83073806  1
  Se  Se14  1  0.19462238  0.50290972  0.33073806  1
  Se  Se15  1  0.30537762  0.00290972  0.16926194  1
  O  O16  1  0.84086918  0.51118998  0.87038415  1
  O  O17  1  0.65913082  0.01118998  0.62961585  1
  O  O18  1  0.15913082  0.48881002  0.12961585  1
  O  O19  1  0.34086918  0.98881002  0.37038415  1
  O  O20  1  0.74830171  0.68576995  0.60413111  1
  O  O21  1  0.75169829  0.18576995  0.89586889  1
  O  O22  1  0.25169829  0.31423005  0.39586889  1
  O  O23  1  0.24830171  0.81423005  0.10413111  1
  O  O24  1  0.58637301  0.41574782  0.11470983  1
  O  O25  1  0.91362699  0.91574782  0.38529017  1
  O  O26  1  0.41362699  0.58425218  0.88529017  1
  O  O27  1  0.08637301  0.08425218  0.61470983  1
  O  O28  1  0.60908638  0.41165621  0.64180944  1
  O  O29  1  0.89091362  0.91165621  0.85819056  1
  O  O30  1  0.39091362  0.58834379  0.35819056  1
  O  O31  1  0.10908638  0.08834379  0.14180944  1
  O  O32  1  0.89607272  0.29079149  0.23338871  1
  O  O33  1  0.60392728  0.79079149  0.26661129  1
  O  O34  1  0.10392728  0.70920851  0.76661129  1
  O  O35  1  0.39607272  0.20920851  0.73338871  1
  O  O36  1  0.63416056  0.20615015  0.34564533  1
  O  O37  1  0.86583944  0.70615015  0.15435467  1
  O  O38  1  0.36583944  0.79384985  0.65435467  1
  O  O39  1  0.13416056  0.29384985  0.84564533  1
