# generated using pymatgen
data_Ba3(AlAs2)2
_symmetry_space_group_name_H-M   'P 1'
_cell_length_a   7.56800260
_cell_length_b   11.98496459
_cell_length_c   12.02479745
_cell_angle_alpha   90.00000000
_cell_angle_beta   90.00000000
_cell_angle_gamma   90.00000000
_symmetry_Int_Tables_number   1
_chemical_formula_structural   Ba3(AlAs2)2
_chemical_formula_sum   'Ba12 Al8 As16'
_cell_volume   1090.67610248
_cell_formula_units_Z   4
loop_
 _symmetry_equiv_pos_site_id
 _symmetry_equiv_pos_as_xyz
  1  'x, y, z'
loop_
 _atom_site_type_symbol
 _atom_site_label
 _atom_site_symmetry_multiplicity
 _atom_site_fract_x
 _atom_site_fract_y
 _atom_site_fract_z
 _atom_site_occupancy
  Ba  Ba0  1  0.58161495  0.07729496  0.36140967  1
  Ba  Ba1  1  0.08161495  0.42270504  0.13859033  1
  Ba  Ba2  1  0.41838505  0.57729496  0.63859033  1
  Ba  Ba3  1  0.91838505  0.92270504  0.86140967  1
  Ba  Ba4  1  0.41838505  0.92270504  0.63859033  1
  Ba  Ba5  1  0.91838505  0.57729496  0.86140967  1
  Ba  Ba6  1  0.58161495  0.42270504  0.36140967  1
  Ba  Ba7  1  0.08161495  0.07729496  0.13859033  1
  Ba  Ba8  1  0.59335181  0.25000000  0.73891990  1
  Ba  Ba9  1  0.09335181  0.25000000  0.76108010  1
  Ba  Ba10  1  0.40664819  0.75000000  0.26108010  1
  Ba  Ba11  1  0.90664819  0.75000000  0.23891990  1
  Al  Al12  1  0.55971923  0.12538296  0.03719437  1
  Al  Al13  1  0.05971923  0.37461704  0.46280563  1
  Al  Al14  1  0.44028077  0.62538296  0.96280563  1
  Al  Al15  1  0.94028077  0.87461704  0.53719437  1
  Al  Al16  1  0.44028077  0.87461704  0.96280563  1
  Al  Al17  1  0.94028077  0.62538296  0.53719437  1
  Al  Al18  1  0.55971923  0.37461704  0.03719437  1
  Al  Al19  1  0.05971923  0.12538296  0.46280563  1
  As  As20  1  0.65789775  0.55912055  0.11270224  1
  As  As21  1  0.15789775  0.94087945  0.38729776  1
  As  As22  1  0.34210225  0.05912055  0.88729776  1
  As  As23  1  0.84210225  0.44087945  0.61270224  1
  As  As24  1  0.34210225  0.44087945  0.88729776  1
  As  As25  1  0.84210225  0.05912055  0.61270224  1
  As  As26  1  0.65789775  0.94087945  0.11270224  1
  As  As27  1  0.15789775  0.55912055  0.38729776  1
  As  As28  1  0.81339142  0.25000000  0.97196330  1
  As  As29  1  0.31339142  0.25000000  0.52803670  1
  As  As30  1  0.18660858  0.75000000  0.02803670  1
  As  As31  1  0.68660858  0.75000000  0.47196330  1
  As  As32  1  0.90840473  0.25000000  0.32592110  1
  As  As33  1  0.40840473  0.25000000  0.17407890  1
  As  As34  1  0.09159527  0.75000000  0.67407890  1
  As  As35  1  0.59159527  0.75000000  0.82592110  1
