# generated using pymatgen
data_Dy(Ni2B)6
_symmetry_space_group_name_H-M   'P 1'
_cell_length_a   6.03844120
_cell_length_b   6.03844120
_cell_length_c   10.94634791
_cell_angle_alpha   90.00000000
_cell_angle_beta   90.00000000
_cell_angle_gamma   104.87740642
_symmetry_Int_Tables_number   1
_chemical_formula_structural   Dy(Ni2B)6
_chemical_formula_sum   'Dy2 Ni24 B12'
_cell_volume   385.75417377
_cell_formula_units_Z   2
loop_
 _symmetry_equiv_pos_site_id
 _symmetry_equiv_pos_as_xyz
  1  'x, y, z'
loop_
 _atom_site_type_symbol
 _atom_site_label
 _atom_site_symmetry_multiplicity
 _atom_site_fract_x
 _atom_site_fract_y
 _atom_site_fract_z
 _atom_site_occupancy
  Dy  Dy0  1  0.83674012  0.83674012  0.49713742  1
  Dy  Dy1  1  0.16325988  0.16325988  0.99713742  1
  Ni  Ni2  1  0.56280604  0.56280604  0.92063277  1
  Ni  Ni3  1  0.43719396  0.43719396  0.42063277  1
  Ni  Ni4  1  0.78014904  0.78014904  0.09983516  1
  Ni  Ni5  1  0.21985096  0.21985096  0.59983516  1
  Ni  Ni6  1  0.80401112  0.54352922  0.73372930  1
  Ni  Ni7  1  0.54352922  0.80401112  0.73372930  1
  Ni  Ni8  1  0.19598888  0.45647078  0.23372930  1
  Ni  Ni9  1  0.45647078  0.19598888  0.23372930  1
  Ni  Ni10  1  0.88197705  0.14653221  0.75602784  1
  Ni  Ni11  1  0.14653221  0.88197705  0.75602784  1
  Ni  Ni12  1  0.11802295  0.85346779  0.25602784  1
  Ni  Ni13  1  0.85346779  0.11802295  0.25602784  1
  Ni  Ni14  1  0.27034623  0.66089603  0.56813143  1
  Ni  Ni15  1  0.66089603  0.27034623  0.56813143  1
  Ni  Ni16  1  0.72965377  0.33910397  0.06813143  1
  Ni  Ni17  1  0.33910397  0.72965377  0.06813143  1
  Ni  Ni18  1  0.99329656  0.62931242  0.93727693  1
  Ni  Ni19  1  0.62931242  0.99329656  0.93727693  1
  Ni  Ni20  1  0.00670344  0.37068758  0.43727693  1
  Ni  Ni21  1  0.37068758  0.00670344  0.43727693  1
  Ni  Ni22  1  0.21344433  0.47340678  0.77622816  1
  Ni  Ni23  1  0.47340678  0.21344433  0.77622816  1
  Ni  Ni24  1  0.78655567  0.52659322  0.27622816  1
  Ni  Ni25  1  0.52659322  0.78655567  0.27622816  1
  B  B26  1  0.83610094  0.83610094  0.83745854  1
  B  B27  1  0.16389906  0.16389906  0.33745854  1
  B  B28  1  0.49268683  0.49268683  0.64837975  1
  B  B29  1  0.50731317  0.50731317  0.14837975  1
  B  B30  1  0.75443245  0.32502192  0.88470946  1
  B  B31  1  0.32502192  0.75443245  0.88470946  1
  B  B32  1  0.24556755  0.67497808  0.38470946  1
  B  B33  1  0.67497808  0.24556755  0.38470946  1
  B  B34  1  0.99050836  0.40128446  0.62367507  1
  B  B35  1  0.40128446  0.99050836  0.62367507  1
  B  B36  1  0.00949164  0.59871554  0.12367507  1
  B  B37  1  0.59871554  0.00949164  0.12367507  1
