# generated using pymatgen
data_Cd3Ga5O12
_symmetry_space_group_name_H-M   'P 1'
_cell_length_a   10.79782888
_cell_length_b   10.79782888
_cell_length_c   10.79782888
_cell_angle_alpha   109.47122063
_cell_angle_beta   109.47122063
_cell_angle_gamma   109.47122063
_symmetry_Int_Tables_number   1
_chemical_formula_structural   Cd3Ga5O12
_chemical_formula_sum   'Cd12 Ga20 O48'
_cell_volume   969.14203562
_cell_formula_units_Z   4
loop_
 _symmetry_equiv_pos_site_id
 _symmetry_equiv_pos_as_xyz
  1  'x, y, z'
loop_
 _atom_site_type_symbol
 _atom_site_label
 _atom_site_symmetry_multiplicity
 _atom_site_fract_x
 _atom_site_fract_y
 _atom_site_fract_z
 _atom_site_occupancy
  Cd  Cd0  1  0.87500000  0.62500000  0.75000000  1
  Cd  Cd1  1  0.12500000  0.37500000  0.25000000  1
  Cd  Cd2  1  0.62500000  0.87500000  0.25000000  1
  Cd  Cd3  1  0.62500000  0.75000000  0.87500000  1
  Cd  Cd4  1  0.87500000  0.25000000  0.62500000  1
  Cd  Cd5  1  0.37500000  0.12500000  0.75000000  1
  Cd  Cd6  1  0.37500000  0.25000000  0.12500000  1
  Cd  Cd7  1  0.12500000  0.75000000  0.37500000  1
  Cd  Cd8  1  0.75000000  0.87500000  0.62500000  1
  Cd  Cd9  1  0.25000000  0.12500000  0.37500000  1
  Cd  Cd10  1  0.25000000  0.62500000  0.87500000  1
  Cd  Cd11  1  0.75000000  0.37500000  0.12500000  1
  Ga  Ga12  1  0.62500000  0.37500000  0.75000000  1
  Ga  Ga13  1  0.37500000  0.62500000  0.25000000  1
  Ga  Ga14  1  0.87500000  0.12500000  0.25000000  1
  Ga  Ga15  1  0.37500000  0.75000000  0.62500000  1
  Ga  Ga16  1  0.62500000  0.25000000  0.37500000  1
  Ga  Ga17  1  0.12500000  0.87500000  0.75000000  1
  Ga  Ga18  1  0.12500000  0.25000000  0.87500000  1
  Ga  Ga19  1  0.87500000  0.75000000  0.12500000  1
  Ga  Ga20  1  0.75000000  0.62500000  0.37500000  1
  Ga  Ga21  1  0.25000000  0.37500000  0.62500000  1
  Ga  Ga22  1  0.25000000  0.87500000  0.12500000  1
  Ga  Ga23  1  0.75000000  0.12500000  0.87500000  1
  Ga  Ga24  1  0.00000000  0.00000000  0.00000000  1
  Ga  Ga25  1  0.50000000  0.00000000  0.50000000  1
  Ga  Ga26  1  0.50000000  0.50000000  0.00000000  1
  Ga  Ga27  1  0.00000000  0.00000000  0.50000000  1
  Ga  Ga28  1  0.00000000  0.50000000  0.50000000  1
  Ga  Ga29  1  0.50000000  0.50000000  0.50000000  1
  Ga  Ga30  1  0.50000000  0.00000000  0.00000000  1
  Ga  Ga31  1  0.00000000  0.50000000  0.00000000  1
  O  O32  1  0.70080423  0.61912400  0.52299173  1
  O  O33  1  0.29919577  0.38087600  0.47700827  1
  O  O34  1  0.79919577  0.82218749  0.41831976  1
  O  O35  1  0.40386773  0.88087600  0.08168024  1
  O  O36  1  0.61912400  0.52299173  0.70080423  1
  O  O37  1  0.70080423  0.08168024  0.67781251  1
  O  O38  1  0.20080423  0.17781251  0.58168024  1
  O  O39  1  0.59613227  0.11912400  0.91831976  1
  O  O40  1  0.38087600  0.47700827  0.29919577  1
  O  O41  1  0.29919577  0.91831976  0.32218749  1
  O  O42  1  0.09613227  0.67781251  0.97700827  1
  O  O43  1  0.82218749  0.41831976  0.79919577  1
  O  O44  1  0.79919577  0.97700827  0.88087600  1
  O  O45  1  0.90386773  0.32218749  0.02299173  1
  O  O46  1  0.17781251  0.58168024  0.20080423  1
  O  O47  1  0.20080423  0.02299173  0.11912400  1
  O  O48  1  0.88087600  0.08168024  0.40386773  1
  O  O49  1  0.40386773  0.52299173  0.82218749  1
  O  O50  1  0.11912400  0.91831976  0.59613227  1
  O  O51  1  0.59613227  0.47700827  0.17781251  1
  O  O52  1  0.67781251  0.97700827  0.09613227  1
  O  O53  1  0.09613227  0.41831976  0.61912400  1
  O  O54  1  0.32218749  0.02299173  0.90386773  1
  O  O55  1  0.90386773  0.58168024  0.38087600  1
  O  O56  1  0.52299173  0.70080423  0.61912400  1
  O  O57  1  0.61912400  0.09613227  0.41831976  1
  O  O58  1  0.47700827  0.29919577  0.38087600  1
  O  O59  1  0.38087600  0.90386773  0.58168024  1
  O  O60  1  0.08168024  0.40386773  0.88087600  1
  O  O61  1  0.88087600  0.79919577  0.97700827  1
  O  O62  1  0.91831976  0.59613227  0.11912400  1
  O  O63  1  0.11912400  0.20080423  0.02299173  1
  O  O64  1  0.97700827  0.09613227  0.67781251  1
  O  O65  1  0.67781251  0.70080423  0.08168024  1
  O  O66  1  0.02299173  0.90386773  0.32218749  1
  O  O67  1  0.32218749  0.29919577  0.91831976  1
  O  O68  1  0.41831976  0.79919577  0.82218749  1
  O  O69  1  0.82218749  0.40386773  0.52299173  1
  O  O70  1  0.58168024  0.20080423  0.17781251  1
  O  O71  1  0.17781251  0.59613227  0.47700827  1
  O  O72  1  0.08168024  0.67781251  0.70080423  1
  O  O73  1  0.91831976  0.32218749  0.29919577  1
  O  O74  1  0.97700827  0.88087600  0.79919577  1
  O  O75  1  0.02299173  0.11912400  0.20080423  1
  O  O76  1  0.41831976  0.61912400  0.09613227  1
  O  O77  1  0.58168024  0.38087600  0.90386773  1
  O  O78  1  0.52299173  0.82218749  0.40386773  1
  O  O79  1  0.47700827  0.17781251  0.59613227  1
