# generated using pymatgen
data_Dy3(Si3Ru)4
_symmetry_space_group_name_H-M   'P 1'
_cell_length_a   8.13650832
_cell_length_b   8.13710234
_cell_length_c   10.11286533
_cell_angle_alpha   90.00000000
_cell_angle_beta   113.72110091
_cell_angle_gamma   90.00000000
_symmetry_Int_Tables_number   1
_chemical_formula_structural   Dy3(Si3Ru)4
_chemical_formula_sum   'Dy6 Si24 Ru8'
_cell_volume   612.98140838
_cell_formula_units_Z   2
loop_
 _symmetry_equiv_pos_site_id
 _symmetry_equiv_pos_as_xyz
  1  'x, y, z'
loop_
 _atom_site_type_symbol
 _atom_site_label
 _atom_site_symmetry_multiplicity
 _atom_site_fract_x
 _atom_site_fract_y
 _atom_site_fract_z
 _atom_site_occupancy
  Dy  Dy0  1  0.50000000  0.50000000  -0.00000000  1
  Dy  Dy1  1  0.00000000  -0.00000000  -0.00000000  1
  Dy  Dy2  1  0.00365665  0.75000000  0.50000000  1
  Dy  Dy3  1  0.49634335  0.25000000  0.50000000  1
  Dy  Dy4  1  0.99634335  0.25000000  0.50000000  1
  Dy  Dy5  1  0.50365665  0.75000000  0.50000000  1
  Si  Si6  1  0.20471932  0.50000000  0.40943865  1
  Si  Si7  1  0.70471932  -0.00000000  0.40943865  1
  Si  Si8  1  0.79528068  0.50000000  0.59056135  1
  Si  Si9  1  0.29528068  -0.00000000  0.59056135  1
  Si  Si10  1  0.33324052  0.83331231  1.00000000  1
  Si  Si11  1  0.66675948  0.16668769  0.00000000  1
  Si  Si12  1  0.16675948  0.33331231  0.00000000  1
  Si  Si13  1  0.83324052  0.66668769  1.00000000  1
  Si  Si14  1  0.88895802  0.72861705  0.76563910  1
  Si  Si15  1  0.87668109  0.27138295  0.76563910  1
  Si  Si16  1  0.37668109  0.22861705  0.76563910  1
  Si  Si17  1  0.38895802  0.77138295  0.76563910  1
  Si  Si18  1  0.11104198  0.27138295  0.23436090  1
  Si  Si19  1  0.12331891  0.72861705  0.23436090  1
  Si  Si20  1  0.62331891  0.77138295  0.23436090  1
  Si  Si21  1  0.61104198  0.22861705  0.23436090  1
  Si  Si22  1  0.11212869  0.50703627  0.76573630  1
  Si  Si23  1  0.65360761  0.49296373  0.76573630  1
  Si  Si24  1  0.15360761  0.00703627  0.76573630  1
  Si  Si25  1  0.61212869  0.99296373  0.76573630  1
  Si  Si26  1  0.88787131  0.49296373  0.23426370  1
  Si  Si27  1  0.34639239  0.50703627  0.23426370  1
  Si  Si28  1  0.84639239  0.99296373  0.23426370  1
  Si  Si29  1  0.38787131  0.00703627  0.23426370  1
  Ru  Ru30  1  0.33072940  0.50000000  0.66145880  1
  Ru  Ru31  1  0.83072940  -0.00000000  0.66145880  1
  Ru  Ru32  1  0.66927060  0.50000000  0.33854120  1
  Ru  Ru33  1  0.16927060  -0.00000000  0.33854120  1
  Ru  Ru34  1  0.12743660  0.62733585  0.00000000  1
  Ru  Ru35  1  0.87256340  0.37266415  1.00000000  1
  Ru  Ru36  1  0.37256340  0.12733585  1.00000000  1
  Ru  Ru37  1  0.62743660  0.87266415  0.00000000  1
