# generated using pymatgen
data_DyHSO5
_symmetry_space_group_name_H-M   'P 1'
_cell_length_a   8.04086495
_cell_length_b   8.22409947
_cell_length_c   10.99763528
_cell_angle_alpha   90.00000000
_cell_angle_beta   90.00000000
_cell_angle_gamma   93.95710615
_symmetry_Int_Tables_number   1
_chemical_formula_structural   DyHSO5
_chemical_formula_sum   'Dy8 H8 S8 O40'
_cell_volume   725.52743302
_cell_formula_units_Z   8
loop_
 _symmetry_equiv_pos_site_id
 _symmetry_equiv_pos_as_xyz
  1  'x, y, z'
loop_
 _atom_site_type_symbol
 _atom_site_label
 _atom_site_symmetry_multiplicity
 _atom_site_fract_x
 _atom_site_fract_y
 _atom_site_fract_z
 _atom_site_occupancy
  Dy  Dy0  1  0.68829931  0.90949237  0.92477878  1
  Dy  Dy1  1  0.18829931  0.40949237  0.57522122  1
  Dy  Dy2  1  0.31170069  0.09050763  0.07522122  1
  Dy  Dy3  1  0.81170069  0.59050763  0.42477878  1
  Dy  Dy4  1  0.66171367  0.37371143  0.93889197  1
  Dy  Dy5  1  0.16171367  0.87371143  0.56110803  1
  Dy  Dy6  1  0.33828633  0.62628857  0.06110803  1
  Dy  Dy7  1  0.83828633  0.12628857  0.43889197  1
  H  H8  1  0.65850214  0.12047411  0.12185603  1
  H  H9  1  0.15850214  0.62047411  0.37814397  1
  H  H10  1  0.34149786  0.87952589  0.87814397  1
  H  H11  1  0.84149786  0.37952589  0.62185603  1
  H  H12  1  0.31105905  0.34689182  0.90946723  1
  H  H13  1  0.81105905  0.84689182  0.59053277  1
  H  H14  1  0.68894095  0.65310818  0.09053277  1
  H  H15  1  0.18894095  0.15310818  0.40946723  1
  S  S16  1  0.99977481  0.63453854  0.82901010  1
  S  S17  1  0.49977481  0.13453854  0.67098990  1
  S  S18  1  0.00022519  0.36546146  0.17098990  1
  S  S19  1  0.50022519  0.86546146  0.32901010  1
  S  S20  1  0.04317356  0.13449682  0.80943633  1
  S  S21  1  0.54317356  0.63449682  0.69056367  1
  S  S22  1  0.95682644  0.86550318  0.19056367  1
  S  S23  1  0.45682644  0.36550318  0.30943633  1
  O  O24  1  0.92614493  0.78327169  0.87199516  1
  O  O25  1  0.42614493  0.28327169  0.62800484  1
  O  O26  1  0.07385507  0.21672831  0.12800484  1
  O  O27  1  0.57385507  0.71672831  0.37199516  1
  O  O28  1  0.06042827  0.65582580  0.69955035  1
  O  O29  1  0.56042827  0.15582580  0.80044965  1
  O  O30  1  0.93957173  0.34417420  0.30044965  1
  O  O31  1  0.43957173  0.84417420  0.19955035  1
  O  O32  1  0.87121229  0.49706094  0.82872232  1
  O  O33  1  0.37121229  0.99706094  0.67127768  1
  O  O34  1  0.12878771  0.50293906  0.17127768  1
  O  O35  1  0.62878771  0.00293906  0.32872232  1
  O  O36  1  0.14375046  0.59922432  0.90622248  1
  O  O37  1  0.64375046  0.09922432  0.59377752  1
  O  O38  1  0.85624954  0.40077568  0.09377752  1
  O  O39  1  0.35624954  0.90077568  0.40622248  1
  O  O40  1  0.87924494  0.14968190  0.87193995  1
  O  O41  1  0.37924494  0.64968190  0.62806005  1
  O  O42  1  0.12075506  0.85031810  0.12806005  1
  O  O43  1  0.62075506  0.35031810  0.37193995  1
  O  O44  1  0.11353484  0.29463794  0.76310634  1
  O  O45  1  0.61353484  0.79463794  0.73689366  1
  O  O46  1  0.88646516  0.70536206  0.23689366  1
  O  O47  1  0.38646516  0.20536206  0.26310634  1
  O  O48  1  0.01481057  0.02108472  0.70530095  1
  O  O49  1  0.51481057  0.52108472  0.79469905  1
  O  O50  1  0.98518943  0.97891528  0.29469905  1
  O  O51  1  0.48518943  0.47891528  0.20530095  1
  O  O52  1  0.16342517  0.07157827  0.89689708  1
  O  O53  1  0.66342517  0.57157827  0.60310292  1
  O  O54  1  0.83657483  0.92842173  0.10310292  1
  O  O55  1  0.33657483  0.42842173  0.39689708  1
  O  O56  1  0.59925414  0.13005780  0.04478077  1
  O  O57  1  0.09925414  0.63005780  0.45521923  1
  O  O58  1  0.40074586  0.86994220  0.95521923  1
  O  O59  1  0.90074586  0.36994220  0.54478077  1
  O  O60  1  0.37320557  0.35551364  0.98627024  1
  O  O61  1  0.87320557  0.85551364  0.51372976  1
  O  O62  1  0.62679443  0.64448636  0.01372976  1
  O  O63  1  0.12679443  0.14448636  0.48627024  1
