# generated using pymatgen
data_AgS2(O3F)2
_symmetry_space_group_name_H-M   'P 1'
_cell_length_a   8.04412455
_cell_length_b   9.27596392
_cell_length_c   10.61167998
_cell_angle_alpha   113.72978080
_cell_angle_beta   90.00000000
_cell_angle_gamma   90.00000000
_symmetry_Int_Tables_number   1
_chemical_formula_structural   AgS2(O3F)2
_chemical_formula_sum   'Ag4 S8 O24 F8'
_cell_volume   724.86694096
_cell_formula_units_Z   4
loop_
 _symmetry_equiv_pos_site_id
 _symmetry_equiv_pos_as_xyz
  1  'x, y, z'
loop_
 _atom_site_type_symbol
 _atom_site_label
 _atom_site_symmetry_multiplicity
 _atom_site_fract_x
 _atom_site_fract_y
 _atom_site_fract_z
 _atom_site_occupancy
  Ag  Ag0  1  0.50000000  0.00000000  -0.00000000  1
  Ag  Ag1  1  0.00000000  0.50000000  -0.00000000  1
  Ag  Ag2  1  0.50000000  0.50000000  0.50000000  1
  Ag  Ag3  1  0.00000000  0.00000000  0.50000000  1
  S  S4  1  0.71773492  0.32959513  0.14252064  1
  S  S5  1  0.21773492  0.17040487  0.85747936  1
  S  S6  1  0.28226508  0.67040487  0.85747936  1
  S  S7  1  0.78226508  0.82959513  0.14252064  1
  S  S8  1  0.76687582  0.79296221  0.65394608  1
  S  S9  1  0.26687582  0.70703779  0.34605392  1
  S  S10  1  0.23312418  0.20703779  0.34605392  1
  S  S11  1  0.73312418  0.29296221  0.65394608  1
  O  O12  1  0.70293052  0.17324183  0.02865335  1
  O  O13  1  0.20293052  0.32675817  0.97134665  1
  O  O14  1  0.29706948  0.82675817  0.97134665  1
  O  O15  1  0.79706948  0.67324183  0.02865335  1
  O  O16  1  0.87604918  0.40500733  0.13718240  1
  O  O17  1  0.37604918  0.09499267  0.86281760  1
  O  O18  1  0.12395082  0.59499267  0.86281760  1
  O  O19  1  0.62395082  0.90500733  0.13718240  1
  O  O20  1  0.67458104  0.33845298  0.27709146  1
  O  O21  1  0.17458104  0.16154702  0.72290854  1
  O  O22  1  0.32541896  0.66154702  0.72290854  1
  O  O23  1  0.82541896  0.83845298  0.27709146  1
  O  O24  1  0.66569934  0.69987176  0.53201797  1
  O  O25  1  0.16569934  0.80012824  0.46798203  1
  O  O26  1  0.33430066  0.30012824  0.46798203  1
  O  O27  1  0.83430066  0.19987176  0.53201797  1
  O  O28  1  0.83082611  0.93553945  0.64360711  1
  O  O29  1  0.33082611  0.56446055  0.35639289  1
  O  O30  1  0.16917389  0.06446055  0.35639289  1
  O  O31  1  0.66917389  0.43553945  0.64360711  1
  O  O32  1  0.69852532  0.81575526  0.78563131  1
  O  O33  1  0.19852532  0.68424474  0.21436869  1
  O  O34  1  0.30147468  0.18424474  0.21436869  1
  O  O35  1  0.80147468  0.31575526  0.78563131  1
  F  F36  1  0.58269112  0.43355493  0.10760699  1
  F  F37  1  0.08269112  0.06644507  0.89239301  1
  F  F38  1  0.41730888  0.56644507  0.89239301  1
  F  F39  1  0.91730888  0.93355493  0.10760699  1
  F  F40  1  0.92802399  0.68750238  0.63711014  1
  F  F41  1  0.42802399  0.81249762  0.36288986  1
  F  F42  1  0.07197601  0.31249762  0.36288986  1
  F  F43  1  0.57197601  0.18750238  0.63711014  1
