# generated using pymatgen
data_U(PO3)4
_symmetry_space_group_name_H-M   'P 1'
_cell_length_a   9.11730673
_cell_length_b   13.99799459
_cell_length_c   16.66299577
_cell_angle_alpha   65.16337170
_cell_angle_beta   90.04039903
_cell_angle_gamma   90.09618451
_symmetry_Int_Tables_number   1
_chemical_formula_structural   U(PO3)4
_chemical_formula_sum   'U8 P32 O96'
_cell_volume   1929.90472364
_cell_formula_units_Z   8
loop_
 _symmetry_equiv_pos_site_id
 _symmetry_equiv_pos_as_xyz
  1  'x, y, z'
loop_
 _atom_site_type_symbol
 _atom_site_label
 _atom_site_symmetry_multiplicity
 _atom_site_fract_x
 _atom_site_fract_y
 _atom_site_fract_z
 _atom_site_occupancy
  U  U0  1  0.75000000  0.06988769  0.86022461  1
  U  U1  1  0.25000000  0.93011231  0.13977539  1
  U  U2  1  0.74861458  0.06083196  0.36069224  1
  U  U3  1  0.75138542  0.57847580  0.36069224  1
  U  U4  1  0.25138542  0.93916804  0.63930776  1
  U  U5  1  0.24861458  0.42152420  0.63930776  1
  U  U6  1  0.75000000  0.56817306  0.86365388  1
  U  U7  1  0.25000000  0.43182694  0.13634612  1
  P  P8  1  0.98674664  0.84748408  0.51764121  1
  P  P9  1  0.51325336  0.63487471  0.51764121  1
  P  P10  1  0.01325336  0.15251592  0.48235879  1
  P  P11  1  0.48674664  0.36512529  0.48235879  1
  P  P12  1  0.97274949  0.34768096  0.51708700  1
  P  P13  1  0.52725051  0.13523204  0.51708700  1
  P  P14  1  0.02725051  0.65231904  0.48291300  1
  P  P15  1  0.47274949  0.86476796  0.48291300  1
  P  P16  1  0.98121676  0.13646791  0.01240351  1
  P  P17  1  0.51878324  0.85112858  0.01240351  1
  P  P18  1  0.01878324  0.86353209  0.98759649  1
  P  P19  1  0.48121676  0.14887142  0.98759649  1
  P  P20  1  0.97855016  0.63407478  0.02260845  1
  P  P21  1  0.52144984  0.34331677  0.02260845  1
  P  P22  1  0.02144984  0.36592522  0.97739155  1
  P  P23  1  0.47855016  0.65668323  0.97739155  1
  P  P24  1  0.36002272  0.01562654  0.31499181  1
  P  P25  1  0.13997728  0.66938164  0.31499181  1
  P  P26  1  0.63997728  0.98437346  0.68500819  1
  P  P27  1  0.86002272  0.33061836  0.68500819  1
  P  P28  1  0.36584609  0.51516586  0.31377918  1
  P  P29  1  0.13415391  0.17105497  0.31377918  1
  P  P30  1  0.63415391  0.48483414  0.68622082  1
  P  P31  1  0.86584609  0.82894503  0.68622082  1
  P  P32  1  0.63722552  0.32730303  0.18925771  1
  P  P33  1  0.86277448  0.48343926  0.18925771  1
  P  P34  1  0.36277448  0.67269697  0.81074229  1
  P  P35  1  0.13722552  0.51656074  0.81074229  1
  P  P36  1  0.63556480  0.83270640  0.18129558  1
  P  P37  1  0.86443520  0.98599802  0.18129558  1
  P  P38  1  0.36443520  0.16729360  0.81870442  1
  P  P39  1  0.13556480  0.01400198  0.81870442  1
  O  O40  1  0.95155986  0.25909505  0.48203962  1
  O  O41  1  0.54844014  0.25886534  0.48203962  1
  O  O42  1  0.04844014  0.74090495  0.51796038  1
  O  O43  1  0.45155986  0.74113466  0.51796038  1
  O  O44  1  0.75674817  0.43275484  0.64791402  1
  O  O45  1  0.74325183  0.91933114  0.64791402  1
  O  O46  1  0.24325183  0.56724516  0.35208598  1
  O  O47  1  0.25674817  0.08066886  0.35208598  1
  O  O48  1  0.75000000  0.92804166  0.14391667  1
  O  O49  1  0.25000000  0.07195834  0.85608333  1
  O  O50  1  0.75000000  0.42491408  0.15017184  1
  O  O51  1  0.25000000  0.57508592  0.84982816  1
  O  O52  1  0.36849154  0.70373660  0.89370657  1
  O  O53  1  0.13150846  0.40255684  0.89370657  1
  O  O54  1  0.63150846  0.29626340  0.10629343  1
  O  O55  1  0.86849154  0.59744316  0.10629343  1
  O  O56  1  0.37327821  0.19501836  0.90280349  1
  O  O57  1  0.12672179  0.90217815  0.90280349  1
  O  O58  1  0.62672179  0.80498164  0.09719651  1
  O  O59  1  0.87327821  0.09782185  0.09719651  1
  O  O60  1  0.12222508  0.19967423  0.39796034  1
  O  O61  1  0.37777492  0.40236543  0.39796034  1
  O  O62  1  0.87777492  0.80032577  0.60203966  1
  O  O63  1  0.62222508  0.59763457  0.60203966  1
  O  O64  1  0.13866355  0.69597248  0.40016695  1
  O  O65  1  0.36133645  0.90386056  0.40016695  1
  O  O66  1  0.86133645  0.30402752  0.59983305  1
  O  O67  1  0.63866355  0.09613944  0.59983305  1
  O  O68  1  0.04277540  0.24166528  0.01561364  1
  O  O69  1  0.45722460  0.74272108  0.01561364  1
  O  O70  1  0.95722460  0.75833472  0.98438636  1
  O  O71  1  0.54277540  0.25727892  0.98438636  1
  O  O72  1  0.11624943  0.89925624  0.53964111  1
  O  O73  1  0.38375057  0.56110265  0.53964111  1
  O  O74  1  0.88375057  0.10074376  0.46035889  1
  O  O75  1  0.61624943  0.43889735  0.46035889  1
  O  O76  1  0.09389619  0.08949262  0.56582865  1
  O  O77  1  0.40610381  0.34467872  0.56582865  1
  O  O78  1  0.90610381  0.91050738  0.43417135  1
  O  O79  1  0.59389619  0.65532128  0.43417135  1
  O  O80  1  0.12472822  0.35022764  0.55063695  1
  O  O81  1  0.37527178  0.09913540  0.55063695  1
  O  O82  1  0.87527178  0.64977236  0.44936305  1
  O  O83  1  0.62472822  0.90086460  0.44936305  1
  O  O84  1  0.91649309  0.44745093  0.44484066  1
  O  O85  1  0.58350691  0.10770841  0.44484066  1
  O  O86  1  0.08350691  0.55254907  0.55515934  1
  O  O87  1  0.41649309  0.89229159  0.55515934  1
  O  O88  1  0.39158108  0.90566386  0.03314330  1
  O  O89  1  0.10841892  0.06119284  0.03314330  1
  O  O90  1  0.60841892  0.09433614  0.96685670  1
  O  O91  1  0.89158108  0.93880716  0.96685670  1
  O  O92  1  0.60392302  0.91108747  0.92981558  1
  O  O93  1  0.89607698  0.15909695  0.92981558  1
  O  O94  1  0.39607698  0.08891253  0.07018442  1
  O  O95  1  0.10392302  0.84090305  0.07018442  1
  O  O96  1  0.36767988  0.34529770  0.05418277  1
  O  O97  1  0.13232012  0.60051953  0.05418277  1
  O  O98  1  0.63232012  0.65470230  0.94581723  1
  O  O99  1  0.86767988  0.39948047  0.94581723  1
  O  O100  1  0.58157438  0.44465140  0.95348035  1
  O  O101  1  0.91842562  0.60186824  0.95348035  1
  O  O102  1  0.41842562  0.55534860  0.04651965  1
  O  O103  1  0.08157438  0.39813176  0.04651965  1
  O  O104  1  0.50978969  0.06423550  0.29564988  1
  O  O105  1  0.99021031  0.64011462  0.29564988  1
  O  O106  1  0.49021031  0.93576450  0.70435012  1
  O  O107  1  0.00978969  0.35988538  0.70435012  1
  O  O108  1  0.21991294  0.75904940  0.24374997  1
  O  O109  1  0.28008706  0.99720064  0.24374997  1
  O  O110  1  0.78008706  0.24095060  0.75625003  1
  O  O111  1  0.71991294  0.00279936  0.75625003  1
  O  O112  1  0.50793295  0.57399726  0.29746472  1
  O  O113  1  0.99206705  0.12853802  0.29746472  1
  O  O114  1  0.49206705  0.42600274  0.70253528  1
  O  O115  1  0.00793295  0.87146198  0.70253528  1
  O  O116  1  0.20199998  0.26370070  0.23848297  1
  O  O117  1  0.29800002  0.49781633  0.23848297  1
  O  O118  1  0.79800002  0.73629930  0.76151703  1
  O  O119  1  0.70199998  0.50218367  0.76151703  1
  O  O120  1  0.98993828  0.56834789  0.79603915  1
  O  O121  1  0.51006172  0.63561296  0.79603915  1
  O  O122  1  0.01006172  0.43165211  0.20396085  1
  O  O123  1  0.48993828  0.36438704  0.20396085  1
  O  O124  1  0.28983294  0.76277324  0.73557920  1
  O  O125  1  0.21016706  0.50164756  0.73557920  1
  O  O126  1  0.71016706  0.23722676  0.26442080  1
  O  O127  1  0.78983294  0.49835244  0.26442080  1
  O  O128  1  0.99089434  0.06931661  0.79952626  1
  O  O129  1  0.50910566  0.13115712  0.79952626  1
  O  O130  1  0.00910566  0.93068339  0.20047374  1
  O  O131  1  0.49089434  0.86884288  0.20047374  1
  O  O132  1  0.28978651  0.25877736  0.74628630  1
  O  O133  1  0.21021349  0.99493634  0.74628630  1
  O  O134  1  0.71021349  0.74122264  0.25371370  1
  O  O135  1  0.78978651  0.00506366  0.25371370  1
