# generated using pymatgen
data_Ca10Ag(PO4)7
_symmetry_space_group_name_H-M   'P 1'
_cell_length_a   10.54691222
_cell_length_b   10.54699222
_cell_length_c   13.95615887
_cell_angle_alpha   67.79871548
_cell_angle_beta   67.79811354
_cell_angle_gamma   59.99975082
_symmetry_Int_Tables_number   1
_chemical_formula_structural   Ca10Ag(PO4)7
_chemical_formula_sum   'Ca20 Ag2 P14 O56'
_cell_volume   1209.73669056
_cell_formula_units_Z   2
loop_
 _symmetry_equiv_pos_site_id
 _symmetry_equiv_pos_as_xyz
  1  'x, y, z'
loop_
 _atom_site_type_symbol
 _atom_site_label
 _atom_site_symmetry_multiplicity
 _atom_site_fract_x
 _atom_site_fract_y
 _atom_site_fract_z
 _atom_site_occupancy
  Ca  Ca0  1  0.00144878  0.00145262  0.99564682  1
  Ca  Ca1  1  0.50144878  0.50145177  0.49564682  1
  Ca  Ca2  1  0.34464927  0.93925337  0.78781190  1
  Ca  Ca3  1  0.93925434  0.92827741  0.78781275  1
  Ca  Ca4  1  0.92828508  0.34464869  0.78781307  1
  Ca  Ca5  1  0.84464927  0.42828547  0.28781190  1
  Ca  Ca6  1  0.42828508  0.43925316  0.28781307  1
  Ca  Ca7  1  0.43925434  0.84465550  0.28781275  1
  Ca  Ca8  1  0.56856453  0.15154649  0.68864694  1
  Ca  Ca9  1  0.15155056  0.59123400  0.68864858  1
  Ca  Ca10  1  0.59124181  0.56856626  0.68864643  1
  Ca  Ca11  1  0.06856453  0.09124205  0.18864694  1
  Ca  Ca12  1  0.09124181  0.65154549  0.18864643  1
  Ca  Ca13  1  0.65155056  0.06856686  0.18864858  1
  Ca  Ca14  1  0.55478357  0.94263788  0.96935285  1
  Ca  Ca15  1  0.94263827  0.53322251  0.96935454  1
  Ca  Ca16  1  0.53322296  0.55478616  0.96935244  1
  Ca  Ca17  1  0.05478357  0.03322570  0.46935285  1
  Ca  Ca18  1  0.03322296  0.44263844  0.46935244  1
  Ca  Ca19  1  0.44263827  0.05478468  0.46935454  1
  Ag  Ag20  1  0.32226527  0.32223076  0.03327407  1
  Ag  Ag21  1  0.82226527  0.82222990  0.53327407  1
  P  P22  1  0.73520572  0.73519313  0.79440779  1
  P  P23  1  0.23520572  0.23519336  0.29440779  1
  P  P24  1  0.27809878  0.31436349  0.58866875  1
  P  P25  1  0.31435792  0.81886869  0.58866511  1
  P  P26  1  0.81886710  0.27810607  0.58866742  1
  P  P27  1  0.77809878  0.31886898  0.08866875  1
  P  P28  1  0.31886710  0.81435941  0.08866742  1
  P  P29  1  0.81435792  0.77810828  0.08866511  1
  P  P30  1  0.19568352  0.23365900  0.89196410  1
  P  P31  1  0.23365156  0.67869633  0.89196310  1
  P  P32  1  0.67869887  0.19568521  0.89195546  1
  P  P33  1  0.69568352  0.17869337  0.39196410  1
  P  P34  1  0.17869887  0.73366047  0.39195546  1
  P  P35  1  0.73365156  0.69568901  0.39196310  1
  O  O36  1  0.69374938  0.69374171  0.91876724  1
  O  O37  1  0.19374938  0.19374166  0.41876724  1
  O  O38  1  0.61129960  0.89216572  0.75539460  1
  O  O39  1  0.89218359  0.74113636  0.75539746  1
  O  O40  1  0.74115194  0.61128398  0.75539790  1
  O  O41  1  0.11129960  0.24114008  0.25539460  1
  O  O42  1  0.24115194  0.39216619  0.25539790  1
  O  O43  1  0.39218359  0.11128259  0.25539746  1
  O  O44  1  0.36254849  0.37323171  0.62062559  1
  O  O45  1  0.37323536  0.64359425  0.62062591  1
  O  O46  1  0.64358610  0.36254277  0.62062837  1
  O  O47  1  0.86254849  0.14359421  0.12062559  1
  O  O48  1  0.14358610  0.87324276  0.12062837  1
  O  O49  1  0.87323536  0.86254448  0.12062591  1
  O  O50  1  0.10617317  0.40913917  0.62532779  1
  O  O51  1  0.40913476  0.85935806  0.62532273  1
  O  O52  1  0.85936034  0.10617936  0.62532531  1
  O  O53  1  0.60617317  0.35935987  0.12532779  1
  O  O54  1  0.35936034  0.90913498  0.12532531  1
  O  O55  1  0.90913476  0.60618445  0.12532273  1
  O  O56  1  0.31629561  0.33746935  0.46617548  1
  O  O57  1  0.33746333  0.88005696  0.46617190  1
  O  O58  1  0.88005924  0.31629940  0.46617635  1
  O  O59  1  0.81629561  0.38005957  0.96617548  1
  O  O60  1  0.38005924  0.83746501  0.96617635  1
  O  O61  1  0.83746333  0.81630781  0.96617190  1
  O  O62  1  0.33024326  0.14352919  0.63895052  1
  O  O63  1  0.14352193  0.88728278  0.63894753  1
  O  O64  1  0.88726766  0.33025000  0.63895151  1
  O  O65  1  0.83024326  0.38727703  0.13895052  1
  O  O66  1  0.38726766  0.64353083  0.13895151  1
  O  O67  1  0.64352193  0.83024776  0.13894753  1
  O  O68  1  0.10979138  0.39777723  0.83111948  1
  O  O69  1  0.39777824  0.66131448  0.83111941  1
  O  O70  1  0.66131502  0.10978617  0.83111708  1
  O  O71  1  0.60979138  0.16131192  0.33111948  1
  O  O72  1  0.16131502  0.89778172  0.33111708  1
  O  O73  1  0.89777824  0.60978787  0.33111941  1
  O  O74  1  0.13030997  0.13951653  0.87653554  1
  O  O75  1  0.13950977  0.85364683  0.87653111  1
  O  O76  1  0.85364340  0.13030722  0.87652848  1
  O  O77  1  0.63030997  0.35363796  0.37653554  1
  O  O78  1  0.35364340  0.63952091  0.37652848  1
  O  O79  1  0.63950977  0.63031229  0.37653111  1
  O  O80  1  0.36821603  0.16052804  0.84947414  1
  O  O81  1  0.16052907  0.62178338  0.84947729  1
  O  O82  1  0.62178293  0.36821196  0.84947607  1
  O  O83  1  0.86821603  0.12178179  0.34947414  1
  O  O84  1  0.12178293  0.66052904  0.34947607  1
  O  O85  1  0.66052907  0.86821025  0.34947729  1
  O  O86  1  0.15484227  0.24011975  0.01066128  1
  O  O87  1  0.24010723  0.59438209  0.01066169  1
  O  O88  1  0.59437303  0.15484850  0.01066014  1
  O  O89  1  0.65484227  0.09437671  0.51066128  1
  O  O90  1  0.09437303  0.74011833  0.51066014  1
  O  O91  1  0.74010723  0.65484899  0.51066169  1
