# generated using pymatgen
data_Sc3B5O12
_symmetry_space_group_name_H-M   'P 1'
_cell_length_a   4.46486292
_cell_length_b   12.30880854
_cell_length_c   12.52665467
_cell_angle_alpha   90.00000000
_cell_angle_beta   90.00000000
_cell_angle_gamma   90.00000000
_symmetry_Int_Tables_number   1
_chemical_formula_structural   Sc3B5O12
_chemical_formula_sum   'Sc12 B20 O48'
_cell_volume   688.42915000
_cell_formula_units_Z   4
loop_
 _symmetry_equiv_pos_site_id
 _symmetry_equiv_pos_as_xyz
  1  'x, y, z'
loop_
 _atom_site_type_symbol
 _atom_site_label
 _atom_site_symmetry_multiplicity
 _atom_site_fract_x
 _atom_site_fract_y
 _atom_site_fract_z
 _atom_site_occupancy
  Sc  Sc0  1  0.00000000  0.00000000  0.62951710  1
  Sc  Sc1  1  -0.00000000  0.50000000  0.87048290  1
  Sc  Sc2  1  0.00000000  -0.00000000  0.37048290  1
  Sc  Sc3  1  -0.00000000  0.50000000  0.12951710  1
  Sc  Sc4  1  0.98769076  0.80465333  0.86433159  1
  Sc  Sc5  1  0.01230924  0.19534667  0.86433159  1
  Sc  Sc6  1  0.98769076  0.69534667  0.63566841  1
  Sc  Sc7  1  0.01230924  0.30465333  0.63566841  1
  Sc  Sc8  1  0.01230924  0.19534667  0.13566841  1
  Sc  Sc9  1  0.98769076  0.80465333  0.13566841  1
  Sc  Sc10  1  0.01230924  0.30465333  0.36433159  1
  Sc  Sc11  1  0.98769076  0.69534667  0.36433159  1
  B  B12  1  0.50000000  0.00000000  0.83760465  1
  B  B13  1  0.50000000  0.50000000  0.66239535  1
  B  B14  1  0.50000000  -0.00000000  0.16239535  1
  B  B15  1  0.50000000  0.50000000  0.33760465  1
  B  B16  1  0.45825021  0.64985052  0.79776617  1
  B  B17  1  0.54174979  0.35014948  0.79776617  1
  B  B18  1  0.45825021  0.85014948  0.70223383  1
  B  B19  1  0.54174979  0.14985052  0.70223383  1
  B  B20  1  0.54174979  0.35014948  0.20223383  1
  B  B21  1  0.45825021  0.64985052  0.20223383  1
  B  B22  1  0.54174979  0.14985052  0.29776617  1
  B  B23  1  0.45825021  0.85014948  0.29776617  1
  B  B24  1  0.46777468  0.14551758  0.50000000  1
  B  B25  1  0.53222532  0.85448242  0.50000000  1
  B  B26  1  0.46777468  0.35448242  -0.00000000  1
  B  B27  1  0.53222532  0.64551758  -0.00000000  1
  B  B28  1  0.53964492  0.63086480  0.50000000  1
  B  B29  1  0.46035508  0.36913520  0.50000000  1
  B  B30  1  0.53964492  0.86913520  -0.00000000  1
  B  B31  1  0.46035508  0.13086480  -0.00000000  1
  O  O32  1  0.23931240  0.06367953  0.50000000  1
  O  O33  1  0.76068760  0.93632047  0.50000000  1
  O  O34  1  0.23931240  0.43632047  -0.00000000  1
  O  O35  1  0.76068760  0.56367953  -0.00000000  1
  O  O36  1  0.22577873  0.64480227  0.50000000  1
  O  O37  1  0.77422127  0.35519773  0.50000000  1
  O  O38  1  0.22577873  0.85519773  -0.00000000  1
  O  O39  1  0.77422127  0.14480227  -0.00000000  1
  O  O40  1  0.77941085  0.65301026  0.79648598  1
  O  O41  1  0.22058915  0.34698974  0.79648598  1
  O  O42  1  0.77941085  0.84698974  0.70351402  1
  O  O43  1  0.22058915  0.15301026  0.70351402  1
  O  O44  1  0.22058915  0.34698974  0.20351402  1
  O  O45  1  0.77941085  0.65301026  0.20351402  1
  O  O46  1  0.22058915  0.15301026  0.29648598  1
  O  O47  1  0.77941085  0.84698974  0.29648598  1
  O  O48  1  0.32854238  0.64215788  0.90556481  1
  O  O49  1  0.67145762  0.35784212  0.90556481  1
  O  O50  1  0.32854238  0.85784212  0.59443519  1
  O  O51  1  0.67145762  0.14215788  0.59443519  1
  O  O52  1  0.67145762  0.35784212  0.09443519  1
  O  O53  1  0.32854238  0.64215788  0.09443519  1
  O  O54  1  0.67145762  0.14215788  0.40556481  1
  O  O55  1  0.32854238  0.85784212  0.40556481  1
  O  O56  1  0.33375361  0.07800740  0.90336038  1
  O  O57  1  0.66624639  0.92199260  0.90336038  1
  O  O58  1  0.33375361  0.42199260  0.59663962  1
  O  O59  1  0.66624639  0.57800740  0.59663962  1
  O  O60  1  0.66624639  0.92199260  0.09663962  1
  O  O61  1  0.33375361  0.07800740  0.09663962  1
  O  O62  1  0.66624639  0.57800740  0.40336038  1
  O  O63  1  0.33375361  0.42199260  0.40336038  1
  O  O64  1  0.32149561  0.75000000  0.75000000  1
  O  O65  1  0.67850439  0.25000000  0.75000000  1
  O  O66  1  0.67850439  0.25000000  0.25000000  1
  O  O67  1  0.32149561  0.75000000  0.25000000  1
  O  O68  1  0.70072763  0.75724764  -0.00000000  1
  O  O69  1  0.29927237  0.24275236  -0.00000000  1
  O  O70  1  0.70072763  0.74275236  0.50000000  1
  O  O71  1  0.29927237  0.25724764  0.50000000  1
  O  O72  1  0.29678025  0.93730963  0.76687697  1
  O  O73  1  0.70321975  0.06269037  0.76687697  1
  O  O74  1  0.29678025  0.56269037  0.73312303  1
  O  O75  1  0.70321975  0.43730963  0.73312303  1
  O  O76  1  0.70321975  0.06269037  0.23312303  1
  O  O77  1  0.29678025  0.93730963  0.23312303  1
  O  O78  1  0.70321975  0.43730963  0.26687697  1
  O  O79  1  0.29678025  0.56269037  0.26687697  1
