# generated using pymatgen
data_Na2NiPO4F
_symmetry_space_group_name_H-M   'P 1'
_cell_length_a   5.26264778
_cell_length_b   13.60447678
_cell_length_c   13.62655013
_cell_angle_alpha   118.78275863
_cell_angle_beta   90.00000000
_cell_angle_gamma   90.00000000
_symmetry_Int_Tables_number   1
_chemical_formula_structural   Na2NiPO4F
_chemical_formula_sum   'Na16 Ni8 P8 O32 F8'
_cell_volume   855.06673097
_cell_formula_units_Z   8
loop_
 _symmetry_equiv_pos_site_id
 _symmetry_equiv_pos_as_xyz
  1  'x, y, z'
loop_
 _atom_site_type_symbol
 _atom_site_label
 _atom_site_symmetry_multiplicity
 _atom_site_fract_x
 _atom_site_fract_y
 _atom_site_fract_z
 _atom_site_occupancy
  Na  Na0  1  0.72943478  0.16935417  0.08833513  1
  Na  Na1  1  0.22943478  0.33064583  0.41166487  1
  Na  Na2  1  0.27056522  0.83064583  0.91166487  1
  Na  Na3  1  0.77056522  0.66935417  0.58833513  1
  Na  Na4  1  0.76151989  0.41040302  0.58074779  1
  Na  Na5  1  0.26151989  0.08959698  0.91925221  1
  Na  Na6  1  0.23848011  0.58959698  0.41925221  1
  Na  Na7  1  0.73848011  0.91040302  0.08074779  1
  Na  Na8  1  0.24143125  0.33661524  0.91796250  1
  Na  Na9  1  0.74143125  0.16338476  0.58203750  1
  Na  Na10  1  0.75856875  0.66338476  0.08203750  1
  Na  Na11  1  0.25856875  0.83661524  0.41796250  1
  Na  Na12  1  0.23953852  0.33187939  0.66155413  1
  Na  Na13  1  0.73953852  0.16812061  0.83844587  1
  Na  Na14  1  0.76046148  0.66812061  0.33844587  1
  Na  Na15  1  0.26046148  0.83187939  0.16155413  1
  Ni  Ni16  1  0.21475540  0.32587399  0.14916073  1
  Ni  Ni17  1  0.71475540  0.17412601  0.35083927  1
  Ni  Ni18  1  0.78524460  0.67412601  0.85083927  1
  Ni  Ni19  1  0.28524460  0.82587399  0.64916073  1
  Ni  Ni20  1  0.77814190  0.39835414  0.07536176  1
  Ni  Ni21  1  0.27814190  0.10164586  0.42463824  1
  Ni  Ni22  1  0.22185810  0.60164586  0.92463824  1
  Ni  Ni23  1  0.72185810  0.89835414  0.57536176  1
  P  P24  1  0.29971038  0.58896515  0.67691287  1
  P  P25  1  0.79971038  0.91103485  0.82308713  1
  P  P26  1  0.70028962  0.41103485  0.32308713  1
  P  P27  1  0.20028962  0.08896515  0.17691287  1
  P  P28  1  0.20649286  0.07290463  0.66100320  1
  P  P29  1  0.70649286  0.42709537  0.83899680  1
  P  P30  1  0.79350714  0.92709537  0.33899680  1
  P  P31  1  0.29350714  0.57290463  0.16100320  1
  O  O32  1  0.91402893  0.04777257  0.65388802  1
  O  O33  1  0.41402893  0.45222743  0.84611198  1
  O  O34  1  0.08597107  0.95222743  0.34611198  1
  O  O35  1  0.58597107  0.54777257  0.15388802  1
  O  O36  1  0.90785849  0.09379334  0.20127871  1
  O  O37  1  0.40785849  0.40620666  0.29872129  1
  O  O38  1  0.09214151  0.90620666  0.79872129  1
  O  O39  1  0.59214151  0.59379334  0.70127871  1
  O  O40  1  0.14794825  0.45837799  0.11294473  1
  O  O41  1  0.64794825  0.04162201  0.38705527  1
  O  O42  1  0.85205175  0.54162201  0.88705527  1
  O  O43  1  0.35205175  0.95837799  0.61294473  1
  O  O44  1  0.73014550  0.87067414  0.41197262  1
  O  O45  1  0.23014550  0.62932586  0.08802738  1
  O  O46  1  0.26985450  0.12932586  0.58802738  1
  O  O47  1  0.76985450  0.37067414  0.91197262  1
  O  O48  1  0.78309727  0.53208253  0.40218033  1
  O  O49  1  0.28309727  0.96791747  0.09781967  1
  O  O50  1  0.21690273  0.46791747  0.59781967  1
  O  O51  1  0.71690273  0.03208253  0.90218033  1
  O  O52  1  0.28510840  0.15123064  0.78278701  1
  O  O53  1  0.78510840  0.34876936  0.71721299  1
  O  O54  1  0.71489160  0.84876936  0.21721299  1
  O  O55  1  0.21489160  0.65123064  0.28278701  1
  O  O56  1  0.73714324  0.83577492  0.87724052  1
  O  O57  1  0.23714324  0.66422508  0.62275948  1
  O  O58  1  0.26285676  0.16422508  0.12275948  1
  O  O59  1  0.76285676  0.33577492  0.37724052  1
  O  O60  1  0.15627850  0.63758679  0.79188158  1
  O  O61  1  0.65627850  0.86241321  0.70811842  1
  O  O62  1  0.84372150  0.36241321  0.20811842  1
  O  O63  1  0.34372150  0.13758679  0.29188158  1
  F  F64  1  0.49580840  0.25078737  0.49834100  1
  F  F65  1  0.99580840  0.24921263  0.00165900  1
  F  F66  1  0.50419160  0.74921263  0.50165900  1
  F  F67  1  0.00419160  0.75078737  0.99834100  1
  F  F68  1  0.49521098  0.28174886  0.02985176  1
  F  F69  1  0.99521098  0.21825114  0.47014824  1
  F  F70  1  0.50478902  0.71825114  0.97014824  1
  F  F71  1  0.00478902  0.78174886  0.52985176  1
