# generated using pymatgen
data_Mn3P3PbO12
_symmetry_space_group_name_H-M   'P 1'
_cell_length_a   6.73854757
_cell_length_b   9.40128191
_cell_length_c   9.40128191
_cell_angle_alpha   67.60682329
_cell_angle_beta   68.99898053
_cell_angle_gamma   68.99898053
_symmetry_Int_Tables_number   1
_chemical_formula_structural   Mn3P3PbO12
_chemical_formula_sum   'Mn6 P6 Pb2 O24'
_cell_volume   496.81942763
_cell_formula_units_Z   2
loop_
 _symmetry_equiv_pos_site_id
 _symmetry_equiv_pos_as_xyz
  1  'x, y, z'
loop_
 _atom_site_type_symbol
 _atom_site_label
 _atom_site_symmetry_multiplicity
 _atom_site_fract_x
 _atom_site_fract_y
 _atom_site_fract_z
 _atom_site_occupancy
  Mn  Mn0  1  0.38190752  0.11809248  0.61809248  1
  Mn  Mn1  1  0.61809248  0.38190752  0.88190752  1
  Mn  Mn2  1  0.38190752  0.61809248  0.11809248  1
  Mn  Mn3  1  0.61809248  0.88190752  0.38190752  1
  Mn  Mn4  1  0.00000000  0.50000000  0.50000000  1
  Mn  Mn5  1  0.50000000  -0.00000000  -0.00000000  1
  P  P6  1  0.65529448  0.75000000  0.75000000  1
  P  P7  1  0.34470552  0.25000000  0.25000000  1
  P  P8  1  0.17682096  0.32317904  0.82317904  1
  P  P9  1  0.82317904  0.17682096  0.67682096  1
  P  P10  1  0.17682096  0.82317904  0.32317904  1
  P  P11  1  0.82317904  0.67682096  0.17682096  1
  Pb  Pb12  1  0.13448273  0.75000000  0.75000000  1
  Pb  Pb13  1  0.86551727  0.25000000  0.25000000  1
  O  O14  1  0.87625272  0.66044777  0.66044777  1
  O  O15  1  0.12374728  0.33955223  0.33955223  1
  O  O16  1  0.30285173  0.16044777  0.16044777  1
  O  O17  1  0.69714827  0.83955223  0.83955223  1
  O  O18  1  0.51234158  0.86829664  0.63170336  1
  O  O19  1  0.48765842  0.36829664  0.13170336  1
  O  O20  1  0.48765842  0.13170336  0.36829664  1
  O  O21  1  0.51234158  0.63170336  0.86829664  1
  O  O22  1  0.93910867  0.34039478  0.92610879  1
  O  O23  1  0.06089133  0.07389121  0.65960522  1
  O  O24  1  0.29438776  0.84039478  0.42610879  1
  O  O25  1  0.70561224  0.57389121  0.15960522  1
  O  O26  1  0.06089133  0.65960522  0.07389121  1
  O  O27  1  0.93910867  0.92610879  0.34039478  1
  O  O28  1  0.70561224  0.15960522  0.57389121  1
  O  O29  1  0.29438776  0.42610879  0.84039478  1
  O  O30  1  0.19915988  0.36070799  0.63850224  1
  O  O31  1  0.80084012  0.36149776  0.63929201  1
  O  O32  1  0.30162989  0.86070799  0.13850224  1
  O  O33  1  0.69837011  0.86149776  0.13929201  1
  O  O34  1  0.80084012  0.63929201  0.36149776  1
  O  O35  1  0.19915988  0.63850224  0.36070799  1
  O  O36  1  0.69837011  0.13929201  0.86149776  1
  O  O37  1  0.30162989  0.13850224  0.86070799  1
