# generated using pymatgen
data_Mn2AsHO5
_symmetry_space_group_name_H-M   'P 1'
_cell_length_a   6.39930132
_cell_length_b   8.73755396
_cell_length_c   8.87708069
_cell_angle_alpha   90.00000000
_cell_angle_beta   90.00000000
_cell_angle_gamma   90.00000000
_symmetry_Int_Tables_number   1
_chemical_formula_structural   Mn2AsHO5
_chemical_formula_sum   'Mn8 As4 H4 O20'
_cell_volume   496.35522544
_cell_formula_units_Z   4
loop_
 _symmetry_equiv_pos_site_id
 _symmetry_equiv_pos_as_xyz
  1  'x, y, z'
loop_
 _atom_site_type_symbol
 _atom_site_label
 _atom_site_symmetry_multiplicity
 _atom_site_fract_x
 _atom_site_fract_y
 _atom_site_fract_z
 _atom_site_occupancy
  Mn  Mn0  1  0.74628467  0.50000000  0.50000000  1
  Mn  Mn1  1  0.75371533  -0.00000000  0.00000000  1
  Mn  Mn2  1  0.25371533  0.50000000  0.50000000  1
  Mn  Mn3  1  0.24628467  -0.00000000  -0.00000000  1
  Mn  Mn4  1  0.00000000  0.85975693  0.36791292  1
  Mn  Mn5  1  0.00000000  0.14024307  0.63208708  1
  Mn  Mn6  1  0.50000000  0.35975693  0.13208708  1
  Mn  Mn7  1  0.50000000  0.64024307  0.86791292  1
  As  As8  1  0.50000000  0.74373353  0.24315865  1
  As  As9  1  0.50000000  0.25626647  0.75684135  1
  As  As10  1  -0.00000000  0.24373353  0.25684135  1
  As  As11  1  -0.00000000  0.75626647  0.74315865  1
  H  H12  1  -0.00000000  0.78588218  0.09146245  1
  H  H13  1  -0.00000000  0.21411782  0.90853755  1
  H  H14  1  0.50000000  0.28588218  0.40853755  1
  H  H15  1  0.50000000  0.71411782  0.59146245  1
  O  O16  1  -0.00000000  0.89005907  0.13019252  1
  O  O17  1  -0.00000000  0.10994093  0.86980748  1
  O  O18  1  0.50000000  0.39005907  0.36980748  1
  O  O19  1  0.50000000  0.60994093  0.63019252  1
  O  O20  1  0.50000000  0.91390686  0.14289676  1
  O  O21  1  0.50000000  0.08609314  0.85710324  1
  O  O22  1  0.00000000  0.41390686  0.35710324  1
  O  O23  1  0.00000000  0.58609314  0.64289676  1
  O  O24  1  0.50000000  0.60280577  0.10718620  1
  O  O25  1  0.50000000  0.39719423  0.89281380  1
  O  O26  1  -0.00000000  0.10280577  0.39281380  1
  O  O27  1  0.00000000  0.89719423  0.60718620  1
  O  O28  1  0.71746557  0.72347030  0.35738681  1
  O  O29  1  0.71746557  0.27652970  0.64261319  1
  O  O30  1  0.78253443  0.22347030  0.14261319  1
  O  O31  1  0.78253443  0.77652970  0.85738681  1
  O  O32  1  0.28253443  0.27652970  0.64261319  1
  O  O33  1  0.28253443  0.72347030  0.35738681  1
  O  O34  1  0.21746557  0.77652970  0.85738681  1
  O  O35  1  0.21746557  0.22347030  0.14261319  1
