# generated using pymatgen
data_CaU2S5
_symmetry_space_group_name_H-M   'P 1'
_cell_length_a   7.28218415
_cell_length_b   7.80216881
_cell_length_c   11.85082528
_cell_angle_alpha   90.00000000
_cell_angle_beta   90.00000000
_cell_angle_gamma   90.00000000
_symmetry_Int_Tables_number   1
_chemical_formula_structural   CaU2S5
_chemical_formula_sum   'Ca4 U8 S20'
_cell_volume   673.32632581
_cell_formula_units_Z   4
loop_
 _symmetry_equiv_pos_site_id
 _symmetry_equiv_pos_as_xyz
  1  'x, y, z'
loop_
 _atom_site_type_symbol
 _atom_site_label
 _atom_site_symmetry_multiplicity
 _atom_site_fract_x
 _atom_site_fract_y
 _atom_site_fract_z
 _atom_site_occupancy
  Ca  Ca0  1  0.92769076  0.75000000  0.99342447  1
  Ca  Ca1  1  0.07230924  0.25000000  0.00657553  1
  Ca  Ca2  1  0.42769076  0.25000000  0.50657553  1
  Ca  Ca3  1  0.57230924  0.75000000  0.49342447  1
  U  U4  1  0.98831961  0.00145464  0.68121277  1
  U  U5  1  0.01168039  0.99854536  0.31878723  1
  U  U6  1  0.48831961  0.99854536  0.81878723  1
  U  U7  1  0.01168039  0.50145464  0.31878723  1
  U  U8  1  0.51168039  0.00145464  0.18121277  1
  U  U9  1  0.98831961  0.49854536  0.68121277  1
  U  U10  1  0.51168039  0.49854536  0.18121277  1
  U  U11  1  0.48831961  0.50145464  0.81878723  1
  S  S12  1  0.70502155  0.75000000  0.71318580  1
  S  S13  1  0.29497845  0.25000000  0.28681420  1
  S  S14  1  0.20502155  0.25000000  0.78681420  1
  S  S15  1  0.79497845  0.75000000  0.21318580  1
  S  S16  1  0.17702778  0.75000000  0.81294467  1
  S  S17  1  0.82297222  0.25000000  0.18705533  1
  S  S18  1  0.67702778  0.25000000  0.68705533  1
  S  S19  1  0.32297222  0.75000000  0.31294467  1
  S  S20  1  0.52415522  0.75000000  0.99711511  1
  S  S21  1  0.47584478  0.25000000  0.00288489  1
  S  S22  1  0.02415522  0.25000000  0.50288489  1
  S  S23  1  0.97584478  0.75000000  0.49711511  1
  S  S24  1  0.83332525  0.45844600  0.88687424  1
  S  S25  1  0.16667475  0.54155400  0.11312576  1
  S  S26  1  0.33332525  0.54155400  0.61312576  1
  S  S27  1  0.16667475  0.95844600  0.11312576  1
  S  S28  1  0.66667475  0.45844600  0.38687424  1
  S  S29  1  0.83332525  0.04155400  0.88687424  1
  S  S30  1  0.66667475  0.04155400  0.38687424  1
  S  S31  1  0.33332525  0.95844600  0.61312576  1
