# generated using pymatgen
data_Co2AsHO5
_symmetry_space_group_name_H-M   'P 1'
_cell_length_a   6.15402233
_cell_length_b   8.41106744
_cell_length_c   8.67319485
_cell_angle_alpha   90.00000000
_cell_angle_beta   90.00000000
_cell_angle_gamma   90.00000000
_symmetry_Int_Tables_number   1
_chemical_formula_structural   Co2AsHO5
_chemical_formula_sum   'Co8 As4 H4 O20'
_cell_volume   448.94101714
_cell_formula_units_Z   4
loop_
 _symmetry_equiv_pos_site_id
 _symmetry_equiv_pos_as_xyz
  1  'x, y, z'
loop_
 _atom_site_type_symbol
 _atom_site_label
 _atom_site_symmetry_multiplicity
 _atom_site_fract_x
 _atom_site_fract_y
 _atom_site_fract_z
 _atom_site_occupancy
  Co  Co0  1  0.74502416  0.50000000  0.50000000  1
  Co  Co1  1  0.75497584  0.00000000  0.00000000  1
  Co  Co2  1  0.25497584  0.50000000  0.50000000  1
  Co  Co3  1  0.24502416  0.00000000  0.00000000  1
  Co  Co4  1  0.50000000  0.63618634  0.12690589  1
  Co  Co5  1  0.50000000  0.36381366  0.87309411  1
  Co  Co6  1  -0.00000000  0.13618634  0.37309411  1
  Co  Co7  1  -0.00000000  0.86381366  0.62690589  1
  As  As8  1  -0.00000000  0.75035489  0.25510421  1
  As  As9  1  -0.00000000  0.24964511  0.74489579  1
  As  As10  1  0.50000000  0.25035489  0.24489579  1
  As  As11  1  0.50000000  0.74964511  0.75510421  1
  H  H12  1  0.50000000  0.71771017  0.40549332  1
  H  H13  1  0.50000000  0.28228983  0.59450668  1
  H  H14  1  -0.00000000  0.21771017  0.09450668  1
  H  H15  1  -0.00000000  0.78228983  0.90549332  1
  O  O16  1  -0.00000000  0.57323436  0.35594247  1
  O  O17  1  -0.00000000  0.42676564  0.64405753  1
  O  O18  1  0.50000000  0.07323436  0.14405753  1
  O  O19  1  0.50000000  0.92676564  0.85594247  1
  O  O20  1  0.50000000  0.60706899  0.37004082  1
  O  O21  1  0.50000000  0.39293101  0.62995918  1
  O  O22  1  -0.00000000  0.10706899  0.12995918  1
  O  O23  1  -0.00000000  0.89293101  0.87004082  1
  O  O24  1  -0.00000000  0.89755524  0.39369494  1
  O  O25  1  -0.00000000  0.10244476  0.60630506  1
  O  O26  1  0.50000000  0.39755524  0.10630506  1
  O  O27  1  0.50000000  0.60244476  0.89369494  1
  O  O28  1  0.77491322  0.77064388  0.13739160  1
  O  O29  1  0.77491322  0.22935612  0.86260840  1
  O  O30  1  0.72508678  0.27064388  0.36260840  1
  O  O31  1  0.72508678  0.72935612  0.63739160  1
  O  O32  1  0.22508678  0.22935612  0.86260840  1
  O  O33  1  0.22508678  0.77064388  0.13739160  1
  O  O34  1  0.27491322  0.72935612  0.63739160  1
  O  O35  1  0.27491322  0.27064388  0.36260840  1
