# generated using pymatgen
data_InP3Pb2O11
_symmetry_space_group_name_H-M   'P 1'
_cell_length_a   6.70345174
_cell_length_b   7.16664859
_cell_length_c   20.29828482
_cell_angle_alpha   90.00000000
_cell_angle_beta   99.43844001
_cell_angle_gamma   90.00000000
_symmetry_Int_Tables_number   1
_chemical_formula_structural   InP3Pb2O11
_chemical_formula_sum   'In4 P12 Pb8 O44'
_cell_volume   961.95434178
_cell_formula_units_Z   4
loop_
 _symmetry_equiv_pos_site_id
 _symmetry_equiv_pos_as_xyz
  1  'x, y, z'
loop_
 _atom_site_type_symbol
 _atom_site_label
 _atom_site_symmetry_multiplicity
 _atom_site_fract_x
 _atom_site_fract_y
 _atom_site_fract_z
 _atom_site_occupancy
  In  In0  1  0.32775324  0.63052747  0.37866943  1
  In  In1  1  0.17224676  0.13052747  0.12133057  1
  In  In2  1  0.67224676  0.36947253  0.62133057  1
  In  In3  1  0.82775324  0.86947253  0.87866943  1
  P  P4  1  0.09300004  0.96911472  0.27413367  1
  P  P5  1  0.40699996  0.46911472  0.22586633  1
  P  P6  1  0.90699996  0.03088528  0.72586633  1
  P  P7  1  0.59300004  0.53088528  0.77413367  1
  P  P8  1  0.15714278  0.36147487  0.59020316  1
  P  P9  1  0.34285722  0.86147487  0.90979684  1
  P  P10  1  0.84285722  0.63852513  0.40979684  1
  P  P11  1  0.65714278  0.13852513  0.09020316  1
  P  P12  1  0.36224817  0.69577788  0.54575491  1
  P  P13  1  0.13775183  0.19577788  0.95424509  1
  P  P14  1  0.63775183  0.30422212  0.45424509  1
  P  P15  1  0.86224817  0.80422212  0.04575491  1
  Pb  Pb16  1  0.09667110  0.12511727  0.42456557  1
  Pb  Pb17  1  0.40332890  0.62511727  0.07543443  1
  Pb  Pb18  1  0.90332890  0.87488273  0.57543443  1
  Pb  Pb19  1  0.59667110  0.37488273  0.92456557  1
  Pb  Pb20  1  0.60289819  0.97954725  0.27054790  1
  Pb  Pb21  1  0.89710181  0.47954725  0.22945210  1
  Pb  Pb22  1  0.39710181  0.02045275  0.72945210  1
  Pb  Pb23  1  0.10289819  0.52045275  0.77054790  1
  O  O24  1  0.98539935  0.14271654  0.29815583  1
  O  O25  1  0.51460065  0.64271654  0.20184417  1
  O  O26  1  0.01460065  0.85728346  0.70184417  1
  O  O27  1  0.48539935  0.35728346  0.79815583  1
  O  O28  1  0.24782594  0.90166632  0.33700281  1
  O  O29  1  0.25217406  0.40166632  0.16299719  1
  O  O30  1  0.75217406  0.09833368  0.66299719  1
  O  O31  1  0.74782594  0.59833368  0.83700281  1
  O  O32  1  0.93146591  0.82200679  0.24884210  1
  O  O33  1  0.56853409  0.32200679  0.25115790  1
  O  O34  1  0.06853409  0.17799321  0.75115790  1
  O  O35  1  0.43146591  0.67799321  0.74884210  1
  O  O36  1  0.22761940  0.01859016  0.22112776  1
  O  O37  1  0.27238060  0.51859016  0.27887224  1
  O  O38  1  0.77238060  0.98140984  0.77887224  1
  O  O39  1  0.72761940  0.48140984  0.72112776  1
  O  O40  1  0.99641912  0.46001471  0.62520663  1
  O  O41  1  0.50358088  0.96001471  0.87479337  1
  O  O42  1  0.00358088  0.53998529  0.37479337  1
  O  O43  1  0.49641912  0.03998529  0.12520663  1
  O  O44  1  0.07073395  0.19173667  0.55034744  1
  O  O45  1  0.42926605  0.69173667  0.94965256  1
  O  O46  1  0.92926605  0.80826333  0.44965256  1
  O  O47  1  0.57073395  0.30826333  0.05034744  1
  O  O48  1  0.22009449  0.50770743  0.53524747  1
  O  O49  1  0.27990551  0.00770743  0.96475253  1
  O  O50  1  0.77990551  0.49229257  0.46475253  1
  O  O51  1  0.72009449  0.99229257  0.03524747  1
  O  O52  1  0.35399306  0.32291972  0.63924026  1
  O  O53  1  0.14600694  0.82291972  0.86075974  1
  O  O54  1  0.64600694  0.67708028  0.36075974  1
  O  O55  1  0.85399306  0.17708028  0.13924026  1
  O  O56  1  0.42490054  0.36400101  0.41953163  1
  O  O57  1  0.07509946  0.86400101  0.08046837  1
  O  O58  1  0.57509946  0.63599899  0.58046837  1
  O  O59  1  0.92490054  0.13599899  0.91953163  1
  O  O60  1  0.73505172  0.16803902  0.41180267  1
  O  O61  1  0.76494828  0.66803902  0.08819733  1
  O  O62  1  0.26494828  0.83196098  0.58819733  1
  O  O63  1  0.23505172  0.33196098  0.91180267  1
  O  O64  1  0.37055509  0.76608929  0.47480102  1
  O  O65  1  0.12944491  0.26608929  0.02519898  1
  O  O66  1  0.62944491  0.23391071  0.52519898  1
  O  O67  1  0.87055509  0.73391071  0.97480102  1
