# generated using pymatgen
data_NdH3(SeO4)3
_symmetry_space_group_name_H-M   'P 1'
_cell_length_a   6.24387466
_cell_length_b   9.87358043
_cell_length_c   9.87379720
_cell_angle_alpha   120.00020998
_cell_angle_beta   90.00000000
_cell_angle_gamma   90.00000000
_symmetry_Int_Tables_number   1
_chemical_formula_structural   NdH3(SeO4)3
_chemical_formula_sum   'Nd2 H6 Se6 O24'
_cell_volume   527.16037774
_cell_formula_units_Z   2
loop_
 _symmetry_equiv_pos_site_id
 _symmetry_equiv_pos_as_xyz
  1  'x, y, z'
loop_
 _atom_site_type_symbol
 _atom_site_label
 _atom_site_symmetry_multiplicity
 _atom_site_fract_x
 _atom_site_fract_y
 _atom_site_fract_z
 _atom_site_occupancy
  Nd  Nd0  1  0.75000000  0.33333726  0.66666217  1
  Nd  Nd1  1  0.25000000  0.66666274  0.33333783  1
  H  H2  1  0.25000000  0.06953012  0.17394047  1
  H  H3  1  0.25000000  0.82606382  0.89558522  1
  H  H4  1  0.25000000  0.10441149  0.93047113  1
  H  H5  1  0.75000000  0.93046988  0.82605953  1
  H  H6  1  0.75000000  0.17393618  0.10441478  1
  H  H7  1  0.75000000  0.89558851  0.06952887  1
  Se  Se8  1  0.75000000  0.89598177  0.30073889  1
  Se  Se9  1  0.75000000  0.69926168  0.59524389  1
  Se  Se10  1  0.75000000  0.40475289  0.10401951  1
  Se  Se11  1  0.25000000  0.10401823  0.69926111  1
  Se  Se12  1  0.25000000  0.30073832  0.40475611  1
  Se  Se13  1  0.25000000  0.59524711  0.89598049  1
  O  O14  1  0.75000000  0.04354438  0.48028521  1
  O  O15  1  0.75000000  0.51971103  0.56325656  1
  O  O16  1  0.75000000  0.43674538  0.95645627  1
  O  O17  1  0.25000000  0.95645562  0.51971479  1
  O  O18  1  0.25000000  0.48028897  0.43674344  1
  O  O19  1  0.25000000  0.56325462  0.04354373  1
  O  O20  1  0.53183622  0.78741699  0.24755545  1
  O  O21  1  0.53183294  0.75244378  0.53986321  1
  O  O22  1  0.53183742  0.46013558  0.21257727  1
  O  O23  1  0.03183622  0.21258301  0.75244455  1
  O  O24  1  0.03183294  0.24755622  0.46013679  1
  O  O25  1  0.03183742  0.53986442  0.78742273  1
  O  O26  1  0.46816378  0.21258301  0.75244455  1
  O  O27  1  0.46816706  0.24755622  0.46013679  1
  O  O28  1  0.46816258  0.53986442  0.78742273  1
  O  O29  1  0.96816378  0.78741699  0.24755545  1
  O  O30  1  0.96816706  0.75244378  0.53986321  1
  O  O31  1  0.96816258  0.46013558  0.21257727  1
  O  O32  1  0.25000000  0.17778461  0.19455548  1
  O  O33  1  0.25000000  0.80544755  0.98324098  1
  O  O34  1  0.25000000  0.01676417  0.82221173  1
  O  O35  1  0.75000000  0.82221539  0.80544452  1
  O  O36  1  0.75000000  0.19455245  0.01675902  1
  O  O37  1  0.75000000  0.98323583  0.17778827  1
