# generated using pymatgen
data_Y5Zr3(Ni4As3)4
_symmetry_space_group_name_H-M   'P 1'
_cell_length_a   3.92905196
_cell_length_b   12.74326916
_cell_length_c   12.74839965
_cell_angle_alpha   119.98668567
_cell_angle_beta   90.00000000
_cell_angle_gamma   90.00000000
_symmetry_Int_Tables_number   1
_chemical_formula_structural   Y5Zr3(Ni4As3)4
_chemical_formula_sum   'Y5 Zr3 Ni16 As12'
_cell_volume   552.85746885
_cell_formula_units_Z   1
loop_
 _symmetry_equiv_pos_site_id
 _symmetry_equiv_pos_as_xyz
  1  'x, y, z'
loop_
 _atom_site_type_symbol
 _atom_site_label
 _atom_site_symmetry_multiplicity
 _atom_site_fract_x
 _atom_site_fract_y
 _atom_site_fract_z
 _atom_site_occupancy
  Y  Y0  1  0.50000000  0.00012291  0.18215593  1
  Y  Y1  1  0.50000000  0.18185886  1.00000000  1
  Y  Y2  1  0.50000000  0.81796698  0.81784407  1
  Y  Y3  1  0.00000000  0.33330186  0.66670328  1
  Y  Y4  1  -0.00000000  0.66659858  0.33329672  1
  Zr  Zr5  1  0.00000000  0.99984144  0.56235764  1
  Zr  Zr6  1  -0.00000000  0.56277137  0.00000000  1
  Zr  Zr7  1  0.00000000  0.43748380  0.43764236  1
  Ni  Ni8  1  0.50000000  0.99974365  0.72196488  1
  Ni  Ni9  1  0.50000000  0.72221772  0.00000000  1
  Ni  Ni10  1  0.50000000  0.27777877  0.27803512  1
  Ni  Ni11  1  0.00000000  0.19215555  0.37390222  1
  Ni  Ni12  1  0.00000000  0.18215885  0.80802694  1
  Ni  Ni13  1  -0.00000000  0.62628435  0.81897010  1
  Ni  Ni14  1  -0.00000000  0.81825333  0.62609778  1
  Ni  Ni15  1  0.00000000  0.37413191  0.19197306  1
  Ni  Ni16  1  -0.00000000  0.80731425  0.18102990  1
  Ni  Ni17  1  0.50000000  0.12143141  0.48161220  1
  Ni  Ni18  1  0.50000000  0.36006945  0.87868734  1
  Ni  Ni19  1  0.50000000  0.51838413  0.63927306  1
  Ni  Ni20  1  0.50000000  0.63981921  0.51838780  1
  Ni  Ni21  1  0.50000000  0.48138211  0.12131266  1
  Ni  Ni22  1  0.50000000  0.87911107  0.36072694  1
  Ni  Ni23  1  -0.00000000  -0.00001721  1.00000000  1
  As  As24  1  -0.00000000  0.00008651  0.82207039  1
  As  As25  1  -0.00000000  0.82210366  0.00000000  1
  As  As26  1  -0.00000000  0.17801612  0.17792961  1
  As  As27  1  0.50000000  0.30731964  0.47920088  1
  As  As28  1  0.50000000  0.17179493  0.69293804  1
  As  As29  1  0.50000000  0.52087362  0.82796279  1
  As  As30  1  0.50000000  0.82811876  0.52079912  1
  As  As31  1  0.50000000  0.47885690  0.30706196  1
  As  As32  1  0.50000000  0.69291083  0.17203721  1
  As  As33  1  -0.00000000  0.99966850  0.35594095  1
  As  As34  1  -0.00000000  0.35625863  1.00000000  1
  As  As35  1  -0.00000000  0.64372755  0.64405905  1
