# generated using pymatgen
data_BaYb2Si3O10
_symmetry_space_group_name_H-M   'P 1'
_cell_length_a   5.55063293
_cell_length_b   7.02073898
_cell_length_c   12.21455955
_cell_angle_alpha   90.00000000
_cell_angle_beta   90.00000000
_cell_angle_gamma   106.00754850
_symmetry_Int_Tables_number   1
_chemical_formula_structural   BaYb2Si3O10
_chemical_formula_sum   'Ba2 Yb4 Si6 O20'
_cell_volume   457.53926748
_cell_formula_units_Z   2
loop_
 _symmetry_equiv_pos_site_id
 _symmetry_equiv_pos_as_xyz
  1  'x, y, z'
loop_
 _atom_site_type_symbol
 _atom_site_label
 _atom_site_symmetry_multiplicity
 _atom_site_fract_x
 _atom_site_fract_y
 _atom_site_fract_z
 _atom_site_occupancy
  Ba  Ba0  1  0.25093618  0.00166530  0.75000000  1
  Ba  Ba1  1  0.74906382  0.99833470  0.25000000  1
  Yb  Yb2  1  0.85406455  0.32628090  0.60350328  1
  Yb  Yb3  1  0.14593545  0.67371910  0.10350328  1
  Yb  Yb4  1  0.14593545  0.67371910  0.39649672  1
  Yb  Yb5  1  0.85406455  0.32628090  0.89649672  1
  Si  Si6  1  0.41422029  0.51125325  0.75000000  1
  Si  Si7  1  0.58577971  0.48874675  0.25000000  1
  Si  Si8  1  0.69304221  0.78241849  0.56471545  1
  Si  Si9  1  0.30695779  0.21758151  0.06471545  1
  Si  Si10  1  0.30695779  0.21758151  0.43528455  1
  Si  Si11  1  0.69304221  0.78241849  0.93528455  1
  O  O12  1  0.61685315  0.38332659  0.75000000  1
  O  O13  1  0.38314685  0.61667341  0.25000000  1
  O  O14  1  0.13017172  0.36675380  0.75000000  1
  O  O15  1  0.86982828  0.63324620  0.25000000  1
  O  O16  1  0.44959484  0.66343475  0.64291475  1
  O  O17  1  0.55040516  0.33656525  0.14291475  1
  O  O18  1  0.55040516  0.33656525  0.35708525  1
  O  O19  1  0.44959484  0.66343475  0.85708525  1
  O  O20  1  0.57420148  0.81937321  0.44625614  1
  O  O21  1  0.42579852  0.18062679  0.94625614  1
  O  O22  1  0.42579852  0.18062679  0.55374386  1
  O  O23  1  0.57420148  0.81937321  0.05374386  1
  O  O24  1  0.82245548  0.99387795  0.62373408  1
  O  O25  1  0.17754452  0.00612205  0.12373408  1
  O  O26  1  0.17754452  0.00612205  0.37626592  1
  O  O27  1  0.82245548  0.99387795  0.87626592  1
  O  O28  1  0.88583008  0.64838191  0.54935984  1
  O  O29  1  0.11416992  0.35161809  0.04935984  1
  O  O30  1  0.11416992  0.35161809  0.45064016  1
  O  O31  1  0.88583008  0.64838191  0.95064016  1
