# generated using pymatgen
data_CeB4H2ClO8
_symmetry_space_group_name_H-M   'P 1'
_cell_length_a   6.56479345
_cell_length_b   6.56479345
_cell_length_c   9.82179878
_cell_angle_alpha   97.68790907
_cell_angle_beta   97.68790907
_cell_angle_gamma   119.50869424
_symmetry_Int_Tables_number   1
_chemical_formula_structural   CeB4H2ClO8
_chemical_formula_sum   'Ce2 B8 H4 Cl2 O16'
_cell_volume   355.14782812
_cell_formula_units_Z   2
loop_
 _symmetry_equiv_pos_site_id
 _symmetry_equiv_pos_as_xyz
  1  'x, y, z'
loop_
 _atom_site_type_symbol
 _atom_site_label
 _atom_site_symmetry_multiplicity
 _atom_site_fract_x
 _atom_site_fract_y
 _atom_site_fract_z
 _atom_site_occupancy
  Ce  Ce0  1  0.73091835  0.31848518  0.93362198  1
  Ce  Ce1  1  0.31848518  0.73091835  0.43362198  1
  B  B2  1  0.27851769  0.38815588  0.85285205  1
  B  B3  1  0.38815588  0.27851769  0.35285205  1
  B  B4  1  0.57895353  0.76839934  0.80712003  1
  B  B5  1  0.76839934  0.57895353  0.30712003  1
  B  B6  1  0.02341186  0.95763273  0.87087535  1
  B  B7  1  0.95763273  0.02341186  0.37087535  1
  B  B8  1  0.16798158  0.68001221  0.78251474  1
  B  B9  1  0.68001221  0.16798158  0.28251474  1
  H  H10  1  0.60299342  0.58875348  0.62703425  1
  H  H11  1  0.58875348  0.60299342  0.12703425  1
  H  H12  1  0.93828790  0.52938331  0.58369278  1
  H  H13  1  0.52938331  0.93828790  0.08369278  1
  Cl  Cl14  1  0.20611792  0.56105673  0.12901941  1
  Cl  Cl15  1  0.56105673  0.20611792  0.62901941  1
  O  O16  1  0.51898143  0.54891636  0.86414619  1
  O  O17  1  0.54891636  0.51898143  0.36414619  1
  O  O18  1  0.10135489  0.43445617  0.81168945  1
  O  O19  1  0.43445617  0.10135489  0.31168945  1
  O  O20  1  0.01139742  0.74125237  0.85197388  1
  O  O21  1  0.74125237  0.01139742  0.35197388  1
  O  O22  1  0.42231423  0.85452114  0.83872567  1
  O  O23  1  0.85452114  0.42231423  0.33872567  1
  O  O24  1  0.24092322  0.17097794  0.88286671  1
  O  O25  1  0.17097794  0.24092322  0.38286671  1
  O  O26  1  0.82436807  0.97091544  0.87954769  1
  O  O27  1  0.97091544  0.82436807  0.37954769  1
  O  O28  1  0.10631097  0.65428071  0.62695259  1
  O  O29  1  0.65428071  0.10631097  0.12695259  1
  O  O30  1  0.55644291  0.70726561  0.65075724  1
  O  O31  1  0.70726561  0.55644291  0.15075724  1
