# generated using pymatgen
data_Ce2Fe2S5
_symmetry_space_group_name_H-M   'P 1'
_cell_length_a   3.87816350
_cell_length_b   8.39453654
_cell_length_c   10.91960931
_cell_angle_alpha   90.00000000
_cell_angle_beta   90.00000000
_cell_angle_gamma   103.35555888
_symmetry_Int_Tables_number   1
_chemical_formula_structural   Ce2Fe2S5
_chemical_formula_sum   'Ce4 Fe4 S10'
_cell_volume   345.87792464
_cell_formula_units_Z   2
loop_
 _symmetry_equiv_pos_site_id
 _symmetry_equiv_pos_as_xyz
  1  'x, y, z'
loop_
 _atom_site_type_symbol
 _atom_site_label
 _atom_site_symmetry_multiplicity
 _atom_site_fract_x
 _atom_site_fract_y
 _atom_site_fract_z
 _atom_site_occupancy
  Ce  Ce0  1  0.38076067  0.76152134  0.30266285  1
  Ce  Ce1  1  0.61923933  0.23847866  0.80266285  1
  Ce  Ce2  1  0.62127006  0.24254012  0.18736271  1
  Ce  Ce3  1  0.37872994  0.75745988  0.68736271  1
  Fe  Fe4  1  0.09047586  0.18095172  0.46834984  1
  Fe  Fe5  1  0.90952414  0.81904828  0.96834984  1
  Fe  Fe6  1  0.31000328  0.62000656  0.99680506  1
  Fe  Fe7  1  0.68999672  0.37999344  0.49680506  1
  S  S8  1  0.46373433  0.92746866  0.05964866  1
  S  S9  1  0.53626567  0.07253134  0.55964866  1
  S  S10  1  0.00959757  0.01919514  0.29064516  1
  S  S11  1  0.99040243  0.98080486  0.79064516  1
  S  S12  1  0.15494829  0.30989657  0.99688875  1
  S  S13  1  0.84505171  0.69010343  0.49688875  1
  S  S14  1  0.19749261  0.39498522  0.64757444  1
  S  S15  1  0.80250739  0.60501478  0.14757444  1
  S  S16  1  0.20214578  0.40429156  0.34136252  1
  S  S17  1  0.79785422  0.59570844  0.84136252  1
