# generated using pymatgen
data_Er3C4
_symmetry_space_group_name_H-M   'P 1'
_cell_length_a   8.02762129
_cell_length_b   8.02762129
_cell_length_c   15.85733645
_cell_angle_alpha   90.00000000
_cell_angle_beta   90.00000000
_cell_angle_gamma   90.00000000
_symmetry_Int_Tables_number   1
_chemical_formula_structural   Er3C4
_chemical_formula_sum   'Er30 C40'
_cell_volume   1021.88963235
_cell_formula_units_Z   10
loop_
 _symmetry_equiv_pos_site_id
 _symmetry_equiv_pos_as_xyz
  1  'x, y, z'
loop_
 _atom_site_type_symbol
 _atom_site_label
 _atom_site_symmetry_multiplicity
 _atom_site_fract_x
 _atom_site_fract_y
 _atom_site_fract_z
 _atom_site_occupancy
  Er  Er0  1  0.50000000  0.50000000  0.50000000  1
  Er  Er1  1  0.00000000  0.00000000  -0.00000000  1
  Er  Er2  1  0.50000000  0.50000000  0.18752965  1
  Er  Er3  1  0.00000000  0.00000000  0.68752965  1
  Er  Er4  1  0.50000000  0.50000000  0.81247035  1
  Er  Er5  1  0.00000000  0.00000000  0.31247035  1
  Er  Er6  1  0.70251110  0.90461783  0.50000000  1
  Er  Er7  1  0.29748890  0.09538217  0.50000000  1
  Er  Er8  1  0.79748890  0.40461783  -0.00000000  1
  Er  Er9  1  0.20251110  0.59538217  0.00000000  1
  Er  Er10  1  0.90461783  0.29748890  0.50000000  1
  Er  Er11  1  0.09538217  0.70251110  0.50000000  1
  Er  Er12  1  0.40461783  0.20251110  -0.00000000  1
  Er  Er13  1  0.59538217  0.79748890  -0.00000000  1
  Er  Er14  1  0.78810896  0.60057405  0.35373752  1
  Er  Er15  1  0.21189104  0.39942595  0.35373752  1
  Er  Er16  1  0.71189104  0.10057405  0.85373752  1
  Er  Er17  1  0.28810896  0.89942595  0.85373752  1
  Er  Er18  1  0.60057405  0.21189104  0.35373752  1
  Er  Er19  1  0.39942595  0.78810896  0.35373752  1
  Er  Er20  1  0.10057405  0.28810896  0.85373752  1
  Er  Er21  1  0.89942595  0.71189104  0.85373752  1
  Er  Er22  1  0.21189104  0.39942595  0.64626248  1
  Er  Er23  1  0.78810896  0.60057405  0.64626248  1
  Er  Er24  1  0.28810896  0.89942595  0.14626248  1
  Er  Er25  1  0.71189104  0.10057405  0.14626248  1
  Er  Er26  1  0.39942595  0.78810896  0.64626248  1
  Er  Er27  1  0.60057405  0.21189104  0.64626248  1
  Er  Er28  1  0.89942595  0.71189104  0.14626248  1
  Er  Er29  1  0.10057405  0.28810896  0.14626248  1
  C  C30  1  0.50000000  0.50000000  0.95860664  1
  C  C31  1  0.00000000  0.00000000  0.45860664  1
  C  C32  1  0.50000000  0.50000000  0.04139336  1
  C  C33  1  0.00000000  0.00000000  0.54139336  1
  C  C34  1  0.50000000  0.50000000  0.34353706  1
  C  C35  1  0.00000000  0.00000000  0.84353706  1
  C  C36  1  0.50000000  0.50000000  0.65646294  1
  C  C37  1  0.00000000  0.00000000  0.15646294  1
  C  C38  1  0.60656519  0.19635752  0.50000000  1
  C  C39  1  0.39343481  0.80364248  0.50000000  1
  C  C40  1  0.89343481  0.69635752  0.00000000  1
  C  C41  1  0.10656519  0.30364248  -0.00000000  1
  C  C42  1  0.19635752  0.39343481  0.50000000  1
  C  C43  1  0.80364248  0.60656519  0.50000000  1
  C  C44  1  0.69635752  0.10656519  -0.00000000  1
  C  C45  1  0.30364248  0.89343481  0.00000000  1
  C  C46  1  0.69226919  0.90140268  0.32821112  1
  C  C47  1  0.30773081  0.09859732  0.32821112  1
  C  C48  1  0.80773081  0.40140268  0.82821112  1
  C  C49  1  0.19226919  0.59859732  0.82821112  1
  C  C50  1  0.90140268  0.30773081  0.32821112  1
  C  C51  1  0.09859732  0.69226919  0.32821112  1
  C  C52  1  0.40140268  0.19226919  0.82821112  1
  C  C53  1  0.59859732  0.80773081  0.82821112  1
  C  C54  1  0.30773081  0.09859732  0.67178888  1
  C  C55  1  0.69226919  0.90140268  0.67178888  1
  C  C56  1  0.19226919  0.59859732  0.17178888  1
  C  C57  1  0.80773081  0.40140268  0.17178888  1
  C  C58  1  0.09859732  0.69226919  0.67178888  1
  C  C59  1  0.90140268  0.30773081  0.67178888  1
  C  C60  1  0.59859732  0.80773081  0.17178888  1
  C  C61  1  0.40140268  0.19226919  0.17178888  1
  C  C62  1  0.64958886  0.85041114  0.25000000  1
  C  C63  1  0.35041114  0.14958886  0.25000000  1
  C  C64  1  0.85041114  0.35041114  0.75000000  1
  C  C65  1  0.14958886  0.64958886  0.75000000  1
  C  C66  1  0.85041114  0.35041114  0.25000000  1
  C  C67  1  0.14958886  0.64958886  0.25000000  1
  C  C68  1  0.35041114  0.14958886  0.75000000  1
  C  C69  1  0.64958886  0.85041114  0.75000000  1
