# generated using pymatgen
data_La3As2BrO7
_symmetry_space_group_name_H-M   'P 1'
_cell_length_a   5.67251513
_cell_length_b   13.17389702
_cell_length_c   13.17389702
_cell_angle_alpha   90.00000000
_cell_angle_beta   90.00000000
_cell_angle_gamma   90.00000000
_symmetry_Int_Tables_number   1
_chemical_formula_structural   La3As2BrO7
_chemical_formula_sum   'La12 As8 Br4 O28'
_cell_volume   984.47386521
_cell_formula_units_Z   4
loop_
 _symmetry_equiv_pos_site_id
 _symmetry_equiv_pos_as_xyz
  1  'x, y, z'
loop_
 _atom_site_type_symbol
 _atom_site_label
 _atom_site_symmetry_multiplicity
 _atom_site_fract_x
 _atom_site_fract_y
 _atom_site_fract_z
 _atom_site_occupancy
  La  La0  1  0.50000000  0.23750545  0.76249455  1
  La  La1  1  0.50000000  0.76249455  0.23750545  1
  La  La2  1  -0.00000000  0.26249455  0.26249455  1
  La  La3  1  -0.00000000  0.73750545  0.73750545  1
  La  La4  1  0.50000000  0.95326529  0.63706539  1
  La  La5  1  0.50000000  0.04673471  0.36293461  1
  La  La6  1  0.00000000  0.54673471  0.13706539  1
  La  La7  1  0.00000000  0.45326529  0.86293461  1
  La  La8  1  0.50000000  0.63706539  0.95326529  1
  La  La9  1  0.50000000  0.36293461  0.04673471  1
  La  La10  1  -0.00000000  0.13706539  0.54673471  1
  La  La11  1  -0.00000000  0.86293461  0.45326529  1
  As  As12  1  0.50000000  0.28884962  0.47271965  1
  As  As13  1  0.50000000  0.71115038  0.52728035  1
  As  As14  1  0.00000000  0.21115038  0.97271965  1
  As  As15  1  -0.00000000  0.78884962  0.02728035  1
  As  As16  1  0.50000000  0.47271965  0.28884962  1
  As  As17  1  0.50000000  0.52728035  0.71115038  1
  As  As18  1  -0.00000000  0.97271965  0.21115038  1
  As  As19  1  -0.00000000  0.02728035  0.78884962  1
  Br  Br20  1  0.50000000  0.85280430  0.85280430  1
  Br  Br21  1  0.50000000  0.14719570  0.14719570  1
  Br  Br22  1  0.00000000  0.64719570  0.35280430  1
  Br  Br23  1  0.00000000  0.35280430  0.64719570  1
  O  O24  1  0.25000000  0.00000000  0.50000000  1
  O  O25  1  0.75000000  0.50000000  -0.00000000  1
  O  O26  1  0.75000000  0.00000000  0.50000000  1
  O  O27  1  0.25000000  0.50000000  -0.00000000  1
  O  O28  1  0.50000000  0.20776898  0.58175239  1
  O  O29  1  0.50000000  0.79223102  0.41824761  1
  O  O30  1  -0.00000000  0.29223102  0.08175239  1
  O  O31  1  0.00000000  0.70776898  0.91824761  1
  O  O32  1  0.50000000  0.58175239  0.20776898  1
  O  O33  1  0.50000000  0.41824761  0.79223102  1
  O  O34  1  0.00000000  0.08175239  0.29223102  1
  O  O35  1  -0.00000000  0.91824761  0.70776898  1
  O  O36  1  0.26337487  0.22018476  0.40758828  1
  O  O37  1  0.26337487  0.77981524  0.59241172  1
  O  O38  1  0.76337487  0.27981524  0.90758828  1
  O  O39  1  0.76337487  0.72018476  0.09241172  1
  O  O40  1  0.73662513  0.77981524  0.59241172  1
  O  O41  1  0.73662513  0.22018476  0.40758828  1
  O  O42  1  0.23662513  0.72018476  0.09241172  1
  O  O43  1  0.23662513  0.27981524  0.90758828  1
  O  O44  1  0.26337487  0.40758828  0.22018476  1
  O  O45  1  0.26337487  0.59241172  0.77981524  1
  O  O46  1  0.76337487  0.90758828  0.27981524  1
  O  O47  1  0.76337487  0.09241172  0.72018476  1
  O  O48  1  0.73662513  0.59241172  0.77981524  1
  O  O49  1  0.73662513  0.40758828  0.22018476  1
  O  O50  1  0.23662513  0.09241172  0.72018476  1
  O  O51  1  0.23662513  0.90758828  0.27981524  1
