# generated using pymatgen
data_RbNi4(PO4)3
_symmetry_space_group_name_H-M   'P 1'
_cell_length_a   6.24317425
_cell_length_b   9.58384216
_cell_length_c   16.52598879
_cell_angle_alpha   90.00000000
_cell_angle_beta   90.00000000
_cell_angle_gamma   90.00000000
_symmetry_Int_Tables_number   1
_chemical_formula_structural   RbNi4(PO4)3
_chemical_formula_sum   'Rb4 Ni16 P12 O48'
_cell_volume   988.80934650
_cell_formula_units_Z   4
loop_
 _symmetry_equiv_pos_site_id
 _symmetry_equiv_pos_as_xyz
  1  'x, y, z'
loop_
 _atom_site_type_symbol
 _atom_site_label
 _atom_site_symmetry_multiplicity
 _atom_site_fract_x
 _atom_site_fract_y
 _atom_site_fract_z
 _atom_site_occupancy
  Rb  Rb0  1  0.50000000  0.69670115  0.03127597  1
  Rb  Rb1  1  0.50000000  0.30329885  0.96872403  1
  Rb  Rb2  1  -0.00000000  0.19670115  0.46872403  1
  Rb  Rb3  1  -0.00000000  0.80329885  0.53127597  1
  Ni  Ni4  1  0.50000000  0.53197365  0.59240421  1
  Ni  Ni5  1  0.50000000  0.46802635  0.40759579  1
  Ni  Ni6  1  -0.00000000  0.03197365  0.90759579  1
  Ni  Ni7  1  -0.00000000  0.96802635  0.09240421  1
  Ni  Ni8  1  0.50000000  0.01332387  0.35710824  1
  Ni  Ni9  1  0.50000000  0.98667613  0.64289176  1
  Ni  Ni10  1  -0.00000000  0.51332387  0.14289176  1
  Ni  Ni11  1  -0.00000000  0.48667613  0.85710824  1
  Ni  Ni12  1  0.75014681  0.75348629  0.29582453  1
  Ni  Ni13  1  0.75014681  0.24651371  0.70417547  1
  Ni  Ni14  1  0.74985319  0.25348629  0.20417547  1
  Ni  Ni15  1  0.74985319  0.74651371  0.79582453  1
  Ni  Ni16  1  0.24985319  0.24651371  0.70417547  1
  Ni  Ni17  1  0.24985319  0.75348629  0.29582453  1
  Ni  Ni18  1  0.25014681  0.74651371  0.79582453  1
  Ni  Ni19  1  0.25014681  0.25348629  0.20417547  1
  P  P20  1  0.50000000  0.96323964  0.16335220  1
  P  P21  1  0.50000000  0.03676036  0.83664780  1
  P  P22  1  -0.00000000  0.46323964  0.33664780  1
  P  P23  1  -0.00000000  0.53676036  0.66335220  1
  P  P24  1  0.50000000  0.54800275  0.22159211  1
  P  P25  1  0.50000000  0.45199725  0.77840789  1
  P  P26  1  -0.00000000  0.04800275  0.27840789  1
  P  P27  1  -0.00000000  0.95199725  0.72159211  1
  P  P28  1  0.50000000  0.79545007  0.46269732  1
  P  P29  1  0.50000000  0.20454993  0.53730268  1
  P  P30  1  -0.00000000  0.29545007  0.03730268  1
  P  P31  1  -0.00000000  0.70454993  0.96269732  1
  O  O32  1  0.50000000  0.12515805  0.17560830  1
  O  O33  1  0.50000000  0.87484195  0.82439170  1
  O  O34  1  -0.00000000  0.62515805  0.32439170  1
  O  O35  1  -0.00000000  0.37484195  0.67560830  1
  O  O36  1  0.50000000  0.61345765  0.77392650  1
  O  O37  1  0.50000000  0.38654235  0.22607350  1
  O  O38  1  -0.00000000  0.11345765  0.72607350  1
  O  O39  1  -0.00000000  0.88654235  0.27392650  1
  O  O40  1  0.70098913  0.91640786  0.11868316  1
  O  O41  1  0.70098913  0.08359214  0.88131684  1
  O  O42  1  0.79901087  0.41640786  0.38131684  1
  O  O43  1  0.79901087  0.58359214  0.61868316  1
  O  O44  1  0.29901087  0.08359214  0.88131684  1
  O  O45  1  0.29901087  0.91640786  0.11868316  1
  O  O46  1  0.20098913  0.58359214  0.61868316  1
  O  O47  1  0.20098913  0.41640786  0.38131684  1
  O  O48  1  0.50000000  0.61106414  0.31103129  1
  O  O49  1  0.50000000  0.38893586  0.68896871  1
  O  O50  1  -0.00000000  0.11106414  0.18896871  1
  O  O51  1  -0.00000000  0.88893586  0.81103129  1
  O  O52  1  0.50000000  0.88988589  0.25206819  1
  O  O53  1  0.50000000  0.11011411  0.74793181  1
  O  O54  1  -0.00000000  0.38988589  0.24793181  1
  O  O55  1  -0.00000000  0.61011411  0.75206819  1
  O  O56  1  0.50000000  0.13316646  0.45536664  1
  O  O57  1  0.50000000  0.86683354  0.54463336  1
  O  O58  1  -0.00000000  0.63316646  0.04463336  1
  O  O59  1  -0.00000000  0.36683354  0.95536664  1
  O  O60  1  0.69557447  0.84200917  0.40857736  1
  O  O61  1  0.69557447  0.15799083  0.59142264  1
  O  O62  1  0.80442553  0.34200917  0.09142264  1
  O  O63  1  0.80442553  0.65799083  0.90857736  1
  O  O64  1  0.30442553  0.15799083  0.59142264  1
  O  O65  1  0.30442553  0.84200917  0.40857736  1
  O  O66  1  0.19557447  0.65799083  0.90857736  1
  O  O67  1  0.19557447  0.34200917  0.09142264  1
  O  O68  1  0.70806157  0.60754763  0.18433196  1
  O  O69  1  0.70806157  0.39245237  0.81566804  1
  O  O70  1  0.79193843  0.10754763  0.31566804  1
  O  O71  1  0.79193843  0.89245237  0.68433196  1
  O  O72  1  0.29193843  0.39245237  0.81566804  1
  O  O73  1  0.29193843  0.60754763  0.18433196  1
  O  O74  1  0.20806157  0.89245237  0.68433196  1
  O  O75  1  0.20806157  0.10754763  0.31566804  1
  O  O76  1  0.50000000  0.63583428  0.48000889  1
  O  O77  1  0.50000000  0.36416572  0.51999111  1
  O  O78  1  -0.00000000  0.13583428  0.01999111  1
  O  O79  1  -0.00000000  0.86416572  0.98000889  1
