# generated using pymatgen
data_GdH(SeO4)2
_symmetry_space_group_name_H-M   'P 1'
_cell_length_a   9.40409275
_cell_length_b   10.23679322
_cell_length_c   13.76011237
_cell_angle_alpha   90.00000000
_cell_angle_beta   90.00000000
_cell_angle_gamma   90.00000000
_symmetry_Int_Tables_number   1
_chemical_formula_structural   GdH(SeO4)2
_chemical_formula_sum   'Gd8 H8 Se16 O64'
_cell_volume   1324.65509756
_cell_formula_units_Z   8
loop_
 _symmetry_equiv_pos_site_id
 _symmetry_equiv_pos_as_xyz
  1  'x, y, z'
loop_
 _atom_site_type_symbol
 _atom_site_label
 _atom_site_symmetry_multiplicity
 _atom_site_fract_x
 _atom_site_fract_y
 _atom_site_fract_z
 _atom_site_occupancy
  Gd  Gd0  1  0.28029845  0.05088851  0.39399130  1
  Gd  Gd1  1  0.78029845  0.94911149  0.10600870  1
  Gd  Gd2  1  0.71970155  0.44911149  0.89399130  1
  Gd  Gd3  1  0.21970155  0.55088851  0.60600870  1
  Gd  Gd4  1  0.71970155  0.94911149  0.60600870  1
  Gd  Gd5  1  0.21970155  0.05088851  0.89399130  1
  Gd  Gd6  1  0.28029845  0.55088851  0.10600870  1
  Gd  Gd7  1  0.78029845  0.44911149  0.39399130  1
  H  H8  1  0.83883414  0.75477580  0.31448645  1
  H  H9  1  0.33883414  0.24522420  0.18551355  1
  H  H10  1  0.16116586  0.74522420  0.81448645  1
  H  H11  1  0.66116586  0.25477580  0.68551355  1
  H  H12  1  0.16116586  0.24522420  0.68551355  1
  H  H13  1  0.66116586  0.75477580  0.81448645  1
  H  H14  1  0.83883414  0.25477580  0.18551355  1
  H  H15  1  0.33883414  0.74522420  0.31448645  1
  Se  Se16  1  0.18616175  0.90124848  0.15040831  1
  Se  Se17  1  0.68616175  0.09875152  0.34959169  1
  Se  Se18  1  0.81383825  0.59875152  0.65040831  1
  Se  Se19  1  0.31383825  0.40124848  0.84959169  1
  Se  Se20  1  0.81383825  0.09875152  0.84959169  1
  Se  Se21  1  0.31383825  0.90124848  0.65040831  1
  Se  Se22  1  0.18616175  0.40124848  0.34959169  1
  Se  Se23  1  0.68616175  0.59875152  0.15040831  1
  Se  Se24  1  0.00982250  0.78654579  0.43797401  1
  Se  Se25  1  0.50982250  0.21345421  0.06202599  1
  Se  Se26  1  0.99017750  0.71345421  0.93797401  1
  Se  Se27  1  0.49017750  0.28654579  0.56202599  1
  Se  Se28  1  0.99017750  0.21345421  0.56202599  1
  Se  Se29  1  0.49017750  0.78654579  0.93797401  1
  Se  Se30  1  0.00982250  0.28654579  0.06202599  1
  Se  Se31  1  0.50982250  0.71345421  0.43797401  1
  O  O32  1  0.01040899  0.91263607  0.15727736  1
  O  O33  1  0.51040899  0.08736393  0.34272264  1
  O  O34  1  0.98959101  0.58736393  0.65727736  1
  O  O35  1  0.48959101  0.41263607  0.84272264  1
  O  O36  1  0.98959101  0.08736393  0.84272264  1
  O  O37  1  0.48959101  0.91263607  0.65727736  1
  O  O38  1  0.01040899  0.41263607  0.34272264  1
  O  O39  1  0.51040899  0.58736393  0.15727736  1
  O  O40  1  0.26269730  0.01115419  0.22300372  1
  O  O41  1  0.76269730  0.98884581  0.27699628  1
  O  O42  1  0.73730270  0.48884581  0.72300372  1
  O  O43  1  0.23730270  0.51115419  0.77699628  1
  O  O44  1  0.73730270  0.98884581  0.77699628  1
  O  O45  1  0.23730270  0.01115419  0.72300372  1
  O  O46  1  0.26269730  0.51115419  0.27699628  1
  O  O47  1  0.76269730  0.48884581  0.22300372  1
  O  O48  1  0.23851706  0.92117745  0.03558400  1
  O  O49  1  0.73851706  0.07882255  0.46441600  1
  O  O50  1  0.76148294  0.57882255  0.53558400  1
  O  O51  1  0.26148294  0.42117745  0.96441600  1
  O  O52  1  0.76148294  0.07882255  0.96441600  1
  O  O53  1  0.26148294  0.92117745  0.53558400  1
  O  O54  1  0.23851706  0.42117745  0.46441600  1
  O  O55  1  0.73851706  0.57882255  0.03558400  1
  O  O56  1  0.24229289  0.75254705  0.18635973  1
  O  O57  1  0.74229289  0.24745295  0.31364027  1
  O  O58  1  0.75770711  0.74745295  0.68635973  1
  O  O59  1  0.25770711  0.25254705  0.81364027  1
  O  O60  1  0.75770711  0.24745295  0.81364027  1
  O  O61  1  0.25770711  0.75254705  0.68635973  1
  O  O62  1  0.24229289  0.25254705  0.31364027  1
  O  O63  1  0.74229289  0.74745295  0.18635973  1
  O  O64  1  0.11209181  0.66391997  0.47109152  1
  O  O65  1  0.61209181  0.33608003  0.02890848  1
  O  O66  1  0.88790819  0.83608003  0.97109152  1
  O  O67  1  0.38790819  0.16391997  0.52890848  1
  O  O68  1  0.88790819  0.33608003  0.52890848  1
  O  O69  1  0.38790819  0.66391997  0.97109152  1
  O  O70  1  0.11209181  0.16391997  0.02890848  1
  O  O71  1  0.61209181  0.83608003  0.47109152  1
  O  O72  1  0.08001851  0.14894031  0.47144148  1
  O  O73  1  0.58001851  0.85105969  0.02855852  1
  O  O74  1  0.91998149  0.35105969  0.97144148  1
  O  O75  1  0.41998149  0.64894031  0.52855852  1
  O  O76  1  0.91998149  0.85105969  0.52855852  1
  O  O77  1  0.41998149  0.14894031  0.97144148  1
  O  O78  1  0.08001851  0.64894031  0.02855852  1
  O  O79  1  0.58001851  0.35105969  0.47144148  1
  O  O80  1  0.08800415  0.89423051  0.36697475  1
  O  O81  1  0.58800415  0.10576949  0.13302525  1
  O  O82  1  0.91199585  0.60576949  0.86697475  1
  O  O83  1  0.41199585  0.39423051  0.63302525  1
  O  O84  1  0.91199585  0.10576949  0.63302525  1
  O  O85  1  0.41199585  0.89423051  0.86697475  1
  O  O86  1  0.08800415  0.39423051  0.13302525  1
  O  O87  1  0.58800415  0.60576949  0.36697475  1
  O  O88  1  0.89060505  0.69835837  0.36177067  1
  O  O89  1  0.39060505  0.30164163  0.13822933  1
  O  O90  1  0.10939495  0.80164163  0.86177067  1
  O  O91  1  0.60939495  0.19835837  0.63822933  1
  O  O92  1  0.10939495  0.30164163  0.63822933  1
  O  O93  1  0.60939495  0.69835837  0.86177067  1
  O  O94  1  0.89060505  0.19835837  0.13822933  1
  O  O95  1  0.39060505  0.80164163  0.36177067  1
