# generated using pymatgen
data_Pr4(TmS2)11
_symmetry_space_group_name_H-M   'P 1'
_cell_length_a   3.92832838
_cell_length_b   11.30193043
_cell_length_c   19.57072057
_cell_angle_alpha   91.44852093
_cell_angle_beta   95.76003714
_cell_angle_gamma   90.00000000
_symmetry_Int_Tables_number   1
_chemical_formula_structural   Pr4(TmS2)11
_chemical_formula_sum   'Pr4 Tm11 S22'
_cell_volume   864.22870013
_cell_formula_units_Z   1
loop_
 _symmetry_equiv_pos_site_id
 _symmetry_equiv_pos_as_xyz
  1  'x, y, z'
loop_
 _atom_site_type_symbol
 _atom_site_label
 _atom_site_symmetry_multiplicity
 _atom_site_fract_x
 _atom_site_fract_y
 _atom_site_fract_z
 _atom_site_occupancy
  Pr  Pr0  1  0.10451930  0.01287852  0.20903859  1
  Pr  Pr1  1  0.89548070  0.98712148  0.79096141  1
  Pr  Pr2  1  0.36693693  0.34866362  0.73387385  1
  Pr  Pr3  1  0.63306307  0.65133638  0.26612615  1
  Tm  Tm4  1  0.79763237  0.05822476  0.59526475  1
  Tm  Tm5  1  0.20236763  0.94177524  0.40473525  1
  Tm  Tm6  1  0.46184042  0.27066073  0.92368084  1
  Tm  Tm7  1  0.53815958  0.72933927  0.07631916  1
  Tm  Tm8  1  0.65775846  0.30082462  0.31551692  1
  Tm  Tm9  1  0.34224154  0.69917538  0.68448308  1
  Tm  Tm10  1  0.26341742  0.35175337  0.52683484  1
  Tm  Tm11  1  0.73658258  0.64824663  0.47316516  1
  Tm  Tm12  1  0.06966529  0.36105762  0.13933057  1
  Tm  Tm13  1  0.93033471  0.63894238  0.86066943  1
  Tm  Tm14  1  -0.00000000  -0.00000000  -0.00000000  1
  S  S15  1  0.08721807  0.75313881  0.17443614  1
  S  S16  1  0.91278193  0.24686119  0.82556386  1
  S  S17  1  0.18958842  0.69138127  0.37917683  1
  S  S18  1  0.81041158  0.30861873  0.62082317  1
  S  S19  1  0.28021780  0.58931259  0.56043561  1
  S  S20  1  0.71978220  0.41068741  0.43956439  1
  S  S21  1  0.44485148  0.49360071  0.88970295  1
  S  S22  1  0.55514852  0.50639929  0.11029705  1
  S  S23  1  0.13490809  0.45196978  0.26981618  1
  S  S24  1  0.86509191  0.54803022  0.73018382  1
  S  S25  1  0.59282466  0.21367043  0.18564933  1
  S  S26  1  0.40717534  0.78632957  0.81435067  1
  S  S27  1  0.45341988  0.03089702  0.90683976  1
  S  S28  1  0.54658012  0.96910298  0.09316024  1
  S  S29  1  0.34989530  0.09198132  0.69979060  1
  S  S30  1  0.65010470  0.90801868  0.30020940  1
  S  S31  1  0.16898341  0.15186215  0.33796681  1
  S  S32  1  0.83101659  0.84813785  0.66203319  1
  S  S33  1  0.00784638  0.23993549  0.01569276  1
  S  S34  1  0.99215362  0.76006451  0.98430724  1
  S  S35  1  0.25503960  0.11905984  0.51007919  1
  S  S36  1  0.74496040  0.88094016  0.48992081  1
