# generated using pymatgen
data_GaH3Br3N
_symmetry_space_group_name_H-M   'P 1'
_cell_length_a   12.31358977
_cell_length_b   12.92117493
_cell_length_c   20.85294382
_cell_angle_alpha   90.00000000
_cell_angle_beta   90.00000000
_cell_angle_gamma   90.00000000
_symmetry_Int_Tables_number   1
_chemical_formula_structural   GaH3Br3N
_chemical_formula_sum   'Ga16 H48 Br48 N16'
_cell_volume   3317.82946857
_cell_formula_units_Z   16
loop_
 _symmetry_equiv_pos_site_id
 _symmetry_equiv_pos_as_xyz
  1  'x, y, z'
loop_
 _atom_site_type_symbol
 _atom_site_label
 _atom_site_symmetry_multiplicity
 _atom_site_fract_x
 _atom_site_fract_y
 _atom_site_fract_z
 _atom_site_occupancy
  Ga  Ga0  1  0.70287073  0.46216736  0.21782686  1
  Ga  Ga1  1  0.20287073  0.03783264  0.78217314  1
  Ga  Ga2  1  0.29712927  0.96216736  0.28217314  1
  Ga  Ga3  1  0.79712927  0.53783264  0.71782686  1
  Ga  Ga4  1  0.29712927  0.53783264  0.78217314  1
  Ga  Ga5  1  0.79712927  0.96216736  0.21782686  1
  Ga  Ga6  1  0.70287073  0.03783264  0.71782686  1
  Ga  Ga7  1  0.20287073  0.46216736  0.28217314  1
  Ga  Ga8  1  0.27548411  0.74584793  0.02763955  1
  Ga  Ga9  1  0.77548411  0.75415207  0.97236045  1
  Ga  Ga10  1  0.72451589  0.24584793  0.47236045  1
  Ga  Ga11  1  0.22451589  0.25415207  0.52763955  1
  Ga  Ga12  1  0.72451589  0.25415207  0.97236045  1
  Ga  Ga13  1  0.22451589  0.24584793  0.02763955  1
  Ga  Ga14  1  0.27548411  0.75415207  0.52763955  1
  Ga  Ga15  1  0.77548411  0.74584793  0.47236045  1
  H  H16  1  0.84203356  0.49052059  0.31093901  1
  H  H17  1  0.34203356  0.00947941  0.68906099  1
  H  H18  1  0.15796644  0.99052059  0.18906099  1
  H  H19  1  0.65796644  0.50947941  0.81093901  1
  H  H20  1  0.15796644  0.50947941  0.68906099  1
  H  H21  1  0.65796644  0.99052059  0.31093901  1
  H  H22  1  0.84203356  0.00947941  0.81093901  1
  H  H23  1  0.34203356  0.49052059  0.18906099  1
  H  H24  1  0.74028249  0.57296351  0.32040758  1
  H  H25  1  0.24028249  0.92703649  0.67959242  1
  H  H26  1  0.25971751  0.07296351  0.17959242  1
  H  H27  1  0.75971751  0.42703649  0.82040758  1
  H  H28  1  0.25971751  0.42703649  0.67959242  1
  H  H29  1  0.75971751  0.07296351  0.32040758  1
  H  H30  1  0.74028249  0.92703649  0.82040758  1
  H  H31  1  0.24028249  0.57296351  0.17959242  1
  H  H32  1  0.72563330  0.45096811  0.34232346  1
  H  H33  1  0.22563330  0.04903189  0.65767654  1
  H  H34  1  0.27436670  0.95096811  0.15767654  1
  H  H35  1  0.77436670  0.54903189  0.84232346  1
  H  H36  1  0.27436670  0.54903189  0.65767654  1
  H  H37  1  0.77436670  0.95096811  0.34232346  1
  H  H38  1  0.72563330  0.04903189  0.84232346  1
  H  H39  1  0.22563330  0.45096811  0.15767654  1
  H  H40  1  0.15114818  0.71324030  0.92822411  1
  H  H41  1  0.65114818  0.78675970  0.07177589  1
  H  H42  1  0.84885182  0.21324030  0.57177589  1
  H  H43  1  0.34885182  0.28675970  0.42822411  1
  H  H44  1  0.84885182  0.28675970  0.07177589  1
  H  H45  1  0.34885182  0.21324030  0.92822411  1
  H  H46  1  0.15114818  0.78675970  0.42822411  1
  H  H47  1  0.65114818  0.71324030  0.57177589  1
  H  H48  1  0.13876696  0.83595399  0.94950465  1
  H  H49  1  0.63876696  0.66404601  0.05049535  1
  H  H50  1  0.86123304  0.33595399  0.55049535  1
  H  H51  1  0.36123304  0.16404601  0.44950465  1
  H  H52  1  0.86123304  0.16404601  0.05049535  1
  H  H53  1  0.36123304  0.33595399  0.94950465  1
  H  H54  1  0.13876696  0.66404601  0.44950465  1
  H  H55  1  0.63876696  0.83595399  0.55049535  1
  H  H56  1  0.24527361  0.79810658  0.90784399  1
  H  H57  1  0.74527361  0.70189342  0.09215601  1
  H  H58  1  0.75472639  0.29810658  0.59215601  1
  H  H59  1  0.25472639  0.20189342  0.40784399  1
  H  H60  1  0.75472639  0.20189342  0.09215601  1
  H  H61  1  0.25472639  0.29810658  0.90784399  1
  H  H62  1  0.24527361  0.70189342  0.40784399  1
  H  H63  1  0.74527361  0.79810658  0.59215601  1
  Br  Br64  1  0.56426395  0.58198084  0.19736888  1
  Br  Br65  1  0.06426395  0.91801916  0.80263112  1
  Br  Br66  1  0.43573605  0.08198084  0.30263112  1
  Br  Br67  1  0.93573605  0.41801916  0.69736888  1
  Br  Br68  1  0.43573605  0.41801916  0.80263112  1
  Br  Br69  1  0.93573605  0.08198084  0.19736888  1
  Br  Br70  1  0.56426395  0.91801916  0.69736888  1
  Br  Br71  1  0.06426395  0.58198084  0.30263112  1
  Br  Br72  1  0.64363528  0.29110653  0.22067431  1
  Br  Br73  1  0.14363528  0.20889347  0.77932569  1
  Br  Br74  1  0.35636472  0.79110653  0.27932569  1
  Br  Br75  1  0.85636472  0.70889347  0.72067431  1
  Br  Br76  1  0.35636472  0.70889347  0.77932569  1
  Br  Br77  1  0.85636472  0.79110653  0.22067431  1
  Br  Br78  1  0.64363528  0.20889347  0.72067431  1
  Br  Br79  1  0.14363528  0.29110653  0.27932569  1
  Br  Br80  1  0.84956843  0.48649786  0.14844757  1
  Br  Br81  1  0.34956843  0.01350214  0.85155243  1
  Br  Br82  1  0.15043157  0.98649786  0.35155243  1
  Br  Br83  1  0.65043157  0.51350214  0.64844757  1
  Br  Br84  1  0.15043157  0.51350214  0.85155243  1
  Br  Br85  1  0.65043157  0.98649786  0.14844757  1
  Br  Br86  1  0.84956843  0.01350214  0.64844757  1
  Br  Br87  1  0.34956843  0.48649786  0.35155243  1
  Br  Br88  1  0.14008875  0.73850982  0.10591747  1
  Br  Br89  1  0.64008875  0.76149018  0.89408253  1
  Br  Br90  1  0.85991125  0.23850982  0.39408253  1
  Br  Br91  1  0.35991125  0.26149018  0.60591747  1
  Br  Br92  1  0.85991125  0.26149018  0.89408253  1
  Br  Br93  1  0.35991125  0.23850982  0.10591747  1
  Br  Br94  1  0.14008875  0.76149018  0.60591747  1
  Br  Br95  1  0.64008875  0.73850982  0.39408253  1
  Br  Br96  1  0.39586072  0.88296398  0.04479739  1
  Br  Br97  1  0.89586072  0.61703602  0.95520261  1
  Br  Br98  1  0.60413928  0.38296398  0.45520261  1
  Br  Br99  1  0.10413928  0.11703602  0.54479739  1
  Br  Br100  1  0.60413928  0.11703602  0.95520261  1
  Br  Br101  1  0.10413928  0.38296398  0.04479739  1
  Br  Br102  1  0.39586072  0.61703602  0.54479739  1
  Br  Br103  1  0.89586072  0.88296398  0.45520261  1
  Br  Br104  1  0.36944340  0.59082282  0.01338318  1
  Br  Br105  1  0.86944340  0.90917718  0.98661682  1
  Br  Br106  1  0.63055660  0.09082282  0.48661682  1
  Br  Br107  1  0.13055660  0.40917718  0.51338318  1
  Br  Br108  1  0.63055660  0.40917718  0.98661682  1
  Br  Br109  1  0.13055660  0.09082282  0.01338318  1
  Br  Br110  1  0.36944340  0.90917718  0.51338318  1
  Br  Br111  1  0.86944340  0.59082282  0.48661682  1
  N  N112  1  0.75899470  0.49806665  0.30784698  1
  N  N113  1  0.25899470  0.00193335  0.69215302  1
  N  N114  1  0.24100530  0.99806665  0.19215302  1
  N  N115  1  0.74100530  0.50193335  0.80784698  1
  N  N116  1  0.24100530  0.50193335  0.69215302  1
  N  N117  1  0.74100530  0.99806665  0.30784698  1
  N  N118  1  0.75899470  0.00193335  0.80784698  1
  N  N119  1  0.25899470  0.49806665  0.19215302  1
  N  N120  1  0.19372606  0.77671178  0.94412702  1
  N  N121  1  0.69372606  0.72328822  0.05587298  1
  N  N122  1  0.80627394  0.27671178  0.55587298  1
  N  N123  1  0.30627394  0.22328822  0.44412702  1
  N  N124  1  0.80627394  0.22328822  0.05587298  1
  N  N125  1  0.30627394  0.27671178  0.94412702  1
  N  N126  1  0.19372606  0.72328822  0.44412702  1
  N  N127  1  0.69372606  0.77671178  0.55587298  1
