# generated using pymatgen
data_PH18PtC6S3BrF6
_symmetry_space_group_name_H-M   'P 1'
_cell_length_a   8.72195920
_cell_length_b   8.96830572
_cell_length_c   25.03111321
_cell_angle_alpha   90.00000000
_cell_angle_beta   90.00000000
_cell_angle_gamma   104.36366909
_symmetry_Int_Tables_number   1
_chemical_formula_structural   PH18PtC6S3BrF6
_chemical_formula_sum   'P4 H72 Pt4 C24 S12 Br4 F24'
_cell_volume   1896.75897622
_cell_formula_units_Z   4
loop_
 _symmetry_equiv_pos_site_id
 _symmetry_equiv_pos_as_xyz
  1  'x, y, z'
loop_
 _atom_site_type_symbol
 _atom_site_label
 _atom_site_symmetry_multiplicity
 _atom_site_fract_x
 _atom_site_fract_y
 _atom_site_fract_z
 _atom_site_occupancy
  P  P0  1  0.00626514  0.02791255  0.66294457  1
  P  P1  1  0.49373486  0.97208745  0.16294457  1
  P  P2  1  0.99373486  0.97208745  0.33705543  1
  P  P3  1  0.50626514  0.02791255  0.83705543  1
  H  H4  1  0.95546013  0.66974535  0.51291297  1
  H  H5  1  0.54453987  0.33025465  0.01291297  1
  H  H6  1  0.04453987  0.33025465  0.48708703  1
  H  H7  1  0.45546013  0.66974535  0.98708703  1
  H  H8  1  0.93702352  0.83211407  0.47369334  1
  H  H9  1  0.56297648  0.16788593  0.97369334  1
  H  H10  1  0.06297648  0.16788593  0.52630666  1
  H  H11  1  0.43702352  0.83211407  0.02630666  1
  H  H12  1  0.93913005  0.84379613  0.54609440  1
  H  H13  1  0.56086995  0.15620387  0.04609440  1
  H  H14  1  0.06086995  0.15620387  0.45390560  1
  H  H15  1  0.43913005  0.84379613  0.95390560  1
  H  H16  1  0.21505572  0.55992454  0.57644493  1
  H  H17  1  0.28494428  0.44007546  0.07644493  1
  H  H18  1  0.78494428  0.44007546  0.42355507  1
  H  H19  1  0.71505572  0.55992454  0.92355507  1
  H  H20  1  0.24464025  0.51380451  0.64497341  1
  H  H21  1  0.25535975  0.48619549  0.14497341  1
  H  H22  1  0.75535975  0.48619549  0.35502659  1
  H  H23  1  0.74464025  0.51380451  0.85502659  1
  H  H24  1  0.17801358  0.68374559  0.62891344  1
  H  H25  1  0.32198642  0.31625441  0.12891344  1
  H  H26  1  0.82198642  0.31625441  0.37108656  1
  H  H27  1  0.67801358  0.68374559  0.87108656  1
  H  H28  1  0.50906343  0.84831624  0.49544757  1
  H  H29  1  0.99093657  0.15168376  0.99544757  1
  H  H30  1  0.49093657  0.15168376  0.50455243  1
  H  H31  1  0.00906343  0.84831624  0.00455243  1
  H  H32  1  0.67531028  0.95025610  0.53542591  1
  H  H33  1  0.82468972  0.04974390  0.03542591  1
  H  H34  1  0.32468972  0.04974390  0.46457409  1
  H  H35  1  0.17531028  0.95025610  0.96457409  1
  H  H36  1  0.69751749  0.92677139  0.46450755  1
  H  H37  1  0.80248251  0.07322861  0.96450755  1
  H  H38  1  0.30248251  0.07322861  0.53549245  1
  H  H39  1  0.19751749  0.92677139  0.03549245  1
  H  H40  1  0.60146577  0.87190509  0.68011722  1
  H  H41  1  0.89853423  0.12809491  0.18011722  1
  H  H42  1  0.39853423  0.12809491  0.31988278  1
  H  H43  1  0.10146577  0.87190509  0.81988278  1
  H  H44  1  0.39182088  0.85354506  0.68706670  1
  H  H45  1  0.10817912  0.14645494  0.18706670  1
  H  H46  1  0.60817912  0.14645494  0.31293330  1
  H  H47  1  0.89182088  0.85354506  0.81293330  1
  H  H48  1  0.47447751  0.69654822  0.70558394  1
  H  H49  1  0.02552249  0.30345178  0.20558394  1
  H  H50  1  0.52552249  0.30345178  0.29441606  1
  H  H51  1  0.97447751  0.69654822  0.79441606  1
  H  H52  1  0.39492613  0.19154775  0.63971099  1
  H  H53  1  0.10507387  0.80845225  0.13971099  1
  H  H54  1  0.60507387  0.80845225  0.36028901  1
  H  H55  1  0.89492613  0.19154775  0.86028901  1
  H  H56  1  0.60377741  0.19773656  0.63535510  1
  H  H57  1  0.89622259  0.80226344  0.13535510  1
  H  H58  1  0.39622259  0.80226344  0.36464490  1
  H  H59  1  0.10377741  0.19773656  0.86464490  1
  H  H60  1  0.50536439  0.18102761  0.69945259  1
  H  H61  1  0.99463561  0.81897239  0.19945259  1
  H  H62  1  0.49463561  0.81897239  0.30054741  1
  H  H63  1  0.00536439  0.18102761  0.80054741  1
  H  H64  1  0.78295340  0.58660685  0.71078785  1
  H  H65  1  0.71704660  0.41339315  0.21078785  1
  H  H66  1  0.21704660  0.41339315  0.28921215  1
  H  H67  1  0.28295340  0.58660685  0.78921215  1
  H  H68  1  0.71763535  0.39426938  0.73861036  1
  H  H69  1  0.78236465  0.60573062  0.23861036  1
  H  H70  1  0.28236465  0.60573062  0.26138964  1
  H  H71  1  0.21763535  0.39426938  0.76138964  1
  H  H72  1  0.82675817  0.42496443  0.67680040  1
  H  H73  1  0.67324183  0.57503557  0.17680040  1
  H  H74  1  0.17324183  0.57503557  0.32319960  1
  H  H75  1  0.32675817  0.42496443  0.82319960  1
  Pt  Pt76  1  0.61314664  0.56790893  0.58790362  1
  Pt  Pt77  1  0.88685336  0.43209107  0.08790362  1
  Pt  Pt78  1  0.38685336  0.43209107  0.41209638  1
  Pt  Pt79  1  0.11314664  0.56790893  0.91209638  1
  C  C80  1  0.90407176  0.76926473  0.51113006  1
  C  C81  1  0.59592824  0.23073527  0.01113006  1
  C  C82  1  0.09592824  0.23073527  0.48886994  1
  C  C83  1  0.40407176  0.76926473  0.98886994  1
  C  C84  1  0.25175935  0.60739910  0.61608258  1
  C  C85  1  0.24824065  0.39260090  0.11608258  1
  C  C86  1  0.74824065  0.39260090  0.38391742  1
  C  C87  1  0.75175935  0.60739910  0.88391742  1
  C  C88  1  0.63755737  0.87469973  0.50093727  1
  C  C89  1  0.86244263  0.12530027  0.00093727  1
  C  C90  1  0.36244263  0.12530027  0.49906273  1
  C  C91  1  0.13755737  0.87469973  0.99906273  1
  C  C92  1  0.48333903  0.79293638  0.67790681  1
  C  C93  1  0.01666097  0.20706362  0.17790681  1
  C  C94  1  0.51666097  0.20706362  0.32209319  1
  C  C95  1  0.98333903  0.79293638  0.82209319  1
  C  C96  1  0.51089786  0.22897151  0.65905449  1
  C  C97  1  0.98910214  0.77102849  0.15905449  1
  C  C98  1  0.48910214  0.77102849  0.34094551  1
  C  C99  1  0.01089786  0.22897151  0.84094551  1
  C  C100  1  0.74090889  0.46312465  0.70203379  1
  C  C101  1  0.75909111  0.53687535  0.20203379  1
  C  C102  1  0.25909111  0.53687535  0.29796621  1
  C  C103  1  0.24090889  0.46312465  0.79796621  1
  S  S104  1  0.69192270  0.69438276  0.50766408  1
  S  S105  1  0.80807730  0.30561724  0.00766408  1
  S  S106  1  0.30807730  0.30561724  0.49233592  1
  S  S107  1  0.19192270  0.69438276  0.99233592  1
  S  S108  1  0.45132238  0.72632608  0.60984698  1
  S  S109  1  0.04867762  0.27367392  0.10984698  1
  S  S110  1  0.54867762  0.27367392  0.39015302  1
  S  S111  1  0.95132238  0.72632608  0.89015302  1
  S  S112  1  0.55373440  0.43479415  0.66765240  1
  S  S113  1  0.94626560  0.56520585  0.16765240  1
  S  S114  1  0.44626560  0.56520585  0.33234760  1
  S  S115  1  0.05373440  0.43479415  0.83234760  1
  Br  Br116  1  0.77421528  0.39266569  0.55716210  1
  Br  Br117  1  0.72578472  0.60733431  0.05716210  1
  Br  Br118  1  0.22578472  0.60733431  0.44283790  1
  Br  Br119  1  0.27421528  0.39266569  0.94283790  1
  F  F120  1  0.87399593  0.02043326  0.61532709  1
  F  F121  1  0.62600407  0.97956674  0.11532709  1
  F  F122  1  0.12600407  0.97956674  0.38467291  1
  F  F123  1  0.37399593  0.02043326  0.88467291  1
  F  F124  1  0.12592579  0.97882996  0.61845947  1
  F  F125  1  0.37407421  0.02117004  0.11845947  1
  F  F126  1  0.87407421  0.02117004  0.38154053  1
  F  F127  1  0.62592579  0.97882996  0.88154053  1
  F  F128  1  0.13846878  0.03369686  0.70945160  1
  F  F129  1  0.36153122  0.96630314  0.20945160  1
  F  F130  1  0.86153122  0.96630314  0.29054840  1
  F  F131  1  0.63846878  0.03369686  0.79054840  1
  F  F132  1  0.88681924  0.07649993  0.70615484  1
  F  F133  1  0.61318076  0.92350007  0.20615484  1
  F  F134  1  0.11318076  0.92350007  0.29384516  1
  F  F135  1  0.38681924  0.07649993  0.79384516  1
  F  F136  1  0.92940731  0.84432824  0.67586244  1
  F  F137  1  0.57059269  0.15567176  0.17586244  1
  F  F138  1  0.07059269  0.15567176  0.32413756  1
  F  F139  1  0.42940731  0.84432824  0.82413756  1
  F  F140  1  0.08398935  0.21027390  0.64904120  1
  F  F141  1  0.41601065  0.78972610  0.14904120  1
  F  F142  1  0.91601065  0.78972610  0.35095880  1
  F  F143  1  0.58398935  0.21027390  0.85095880  1
