# generated using pymatgen
data_K2BaCu(NO2)6
_symmetry_space_group_name_H-M   'P 1'
_cell_length_a   7.66908337
_cell_length_b   7.66908338
_cell_length_c   7.89215780
_cell_angle_alpha   118.90790704
_cell_angle_beta   118.90790710
_cell_angle_gamma   90.29058426
_symmetry_Int_Tables_number   1
_chemical_formula_structural   K2BaCu(NO2)6
_chemical_formula_sum   'K2 Ba1 Cu1 N6 O12'
_cell_volume   338.00386890
_cell_formula_units_Z   1
loop_
 _symmetry_equiv_pos_site_id
 _symmetry_equiv_pos_as_xyz
  1  'x, y, z'
loop_
 _atom_site_type_symbol
 _atom_site_label
 _atom_site_symmetry_multiplicity
 _atom_site_fract_x
 _atom_site_fract_y
 _atom_site_fract_z
 _atom_site_occupancy
  N  N0  1  0.18976393  0.81023607  0.00000000  1
  N  N1  1  0.81023607  0.18976393  0.00000000  1
  N  N2  1  0.79220074  0.79220074  0.58440148  1
  N  N3  1  0.20779926  0.20779926  0.41559852  1
  N  N4  1  0.19009468  0.19009468  0.00000000  1
  N  N5  1  0.80990532  0.80990532  0.00000000  1
  O  O6  1  0.65617413  0.65617413  0.81180779  1
  O  O7  1  0.34382587  0.34382587  0.18819221  1
  O  O8  1  0.15563366  0.15563366  0.81180779  1
  O  O9  1  0.83303607  0.63456454  0.46760061  1
  O  O10  1  0.63456454  0.83303607  0.46760061  1
  O  O11  1  0.36543546  0.16696393  0.53239939  1
  O  O12  1  0.65086512  0.14922621  1.00000000  1
  O  O13  1  0.14922621  0.65086512  0.00000000  1
  O  O14  1  0.85077379  0.34913488  0.00000000  1
  O  O15  1  0.34913488  0.85077379  0.00000000  1
  O  O16  1  0.16696393  0.36543546  0.53239939  1
  O  O17  1  0.84436634  0.84436634  0.18819221  1
  K  K18  1  0.25000000  0.75000000  0.50000000  1
  K  K19  1  0.75000000  0.25000000  0.50000000  1
  Cu  Cu20  1  0.00000000  0.00000000  0.00000000  1
  Ba  Ba21  1  0.50000000  0.50000000  0.00000000  1
