# generated using pymatgen
data_Ca2Fe6Se9Cl4O27
_symmetry_space_group_name_H-M   'P 1'
_cell_length_a   12.32443010
_cell_length_b   12.32460305
_cell_length_c   12.96189394
_cell_angle_alpha   90.00000000
_cell_angle_beta   90.00000000
_cell_angle_gamma   119.99942784
_symmetry_Int_Tables_number   1
_chemical_formula_structural   Ca2Fe6Se9Cl4O27
_chemical_formula_sum   'Ca4 Fe12 Se18 Cl8 O54'
_cell_volume   1705.06675052
_cell_formula_units_Z   2
loop_
 _symmetry_equiv_pos_site_id
 _symmetry_equiv_pos_as_xyz
  1  'x, y, z'
loop_
 _atom_site_type_symbol
 _atom_site_label
 _atom_site_symmetry_multiplicity
 _atom_site_fract_x
 _atom_site_fract_y
 _atom_site_fract_z
 _atom_site_occupancy
  Ca  Ca0  1  0.66663284  0.33331641  0.61505960  1
  Ca  Ca1  1  0.33336716  0.66668359  0.11505960  1
  Ca  Ca2  1  0.33336716  0.66668359  0.38494040  1
  Ca  Ca3  1  0.66663284  0.33331641  0.88494040  1
  Fe  Fe4  1  0.10661993  0.41531422  0.75000000  1
  Fe  Fe5  1  0.58467257  0.69130827  0.75000000  1
  Fe  Fe6  1  0.30869287  0.89337509  0.75000000  1
  Fe  Fe7  1  0.89338007  0.58468578  0.25000000  1
  Fe  Fe8  1  0.41532743  0.30869173  0.25000000  1
  Fe  Fe9  1  0.69130713  0.10662491  0.25000000  1
  Fe  Fe10  1  0.00000000  0.50000000  0.50000000  1
  Fe  Fe11  1  0.50000000  0.50000000  0.50000000  1
  Fe  Fe12  1  0.50000000  0.00000000  0.50000000  1
  Fe  Fe13  1  0.00000000  0.50000000  0.00000000  1
  Fe  Fe14  1  0.50000000  0.50000000  0.00000000  1
  Fe  Fe15  1  0.50000000  0.00000000  0.00000000  1
  Se  Se16  1  0.96903311  0.55543540  0.75000000  1
  Se  Se17  1  0.44455521  0.41360378  0.75000000  1
  Se  Se18  1  0.58639933  0.03095944  0.75000000  1
  Se  Se19  1  0.03096689  0.44456460  0.25000000  1
  Se  Se20  1  0.55544479  0.58639622  0.25000000  1
  Se  Se21  1  0.41360067  0.96904056  0.25000000  1
  Se  Se22  1  0.19331781  0.36425369  0.50953141  1
  Se  Se23  1  0.63575319  0.82906690  0.50953227  1
  Se  Se24  1  0.17093510  0.80667972  0.50953130  1
  Se  Se25  1  0.80668219  0.63574631  0.00953141  1
  Se  Se26  1  0.36424681  0.17093310  0.00953227  1
  Se  Se27  1  0.82906490  0.19332028  0.00953130  1
  Se  Se28  1  0.80668219  0.63574631  0.49046859  1
  Se  Se29  1  0.36424681  0.17093310  0.49046773  1
  Se  Se30  1  0.82906490  0.19332028  0.49046870  1
  Se  Se31  1  0.19331781  0.36425369  0.99046859  1
  Se  Se32  1  0.63575319  0.82906690  0.99046773  1
  Se  Se33  1  0.17093510  0.80667972  0.99046870  1
  Cl  Cl34  1  0.92736028  0.21810676  0.75000000  1
  Cl  Cl35  1  0.78188927  0.70925077  0.75000000  1
  Cl  Cl36  1  0.29074832  0.07264136  0.75000000  1
  Cl  Cl37  1  0.07263972  0.78189324  0.25000000  1
  Cl  Cl38  1  0.21811073  0.29074923  0.25000000  1
  Cl  Cl39  1  0.70925168  0.92735864  0.25000000  1
  Cl  Cl40  1  0.33339299  0.66669651  0.75000000  1
  Cl  Cl41  1  0.66660701  0.33330349  0.25000000  1
  O  O42  1  0.83465988  0.33382144  0.52174771  1
  O  O43  1  0.66617662  0.50084243  0.52174560  1
  O  O44  1  0.49915176  0.16533028  0.52174432  1
  O  O45  1  0.16534012  0.66617856  0.02174771  1
  O  O46  1  0.33382338  0.49915757  0.02174560  1
  O  O47  1  0.50084824  0.83466972  0.02174432  1
  O  O48  1  0.16534012  0.66617856  0.47825229  1
  O  O49  1  0.33382338  0.49915757  0.47825440  1
  O  O50  1  0.50084824  0.83466972  0.47825568  1
  O  O51  1  0.83465988  0.33382144  0.97825229  1
  O  O52  1  0.66617662  0.50084243  0.97825440  1
  O  O53  1  0.49915176  0.16533028  0.97825568  1
  O  O54  1  0.19114009  0.37938253  0.64021332  1
  O  O55  1  0.62062390  0.81176078  0.64021187  1
  O  O56  1  0.18824300  0.80886107  0.64021311  1
  O  O57  1  0.80885991  0.62061747  0.14021332  1
  O  O58  1  0.37937610  0.18823922  0.14021187  1
  O  O59  1  0.81175700  0.19113893  0.14021311  1
  O  O60  1  0.80885991  0.62061747  0.35978668  1
  O  O61  1  0.37937610  0.18823922  0.35978813  1
  O  O62  1  0.81175700  0.19113893  0.35978689  1
  O  O63  1  0.19114009  0.37938253  0.85978668  1
  O  O64  1  0.62062390  0.81176078  0.85978813  1
  O  O65  1  0.18824300  0.80886107  0.85978689  1
  O  O66  1  0.81646105  0.44308210  0.75000000  1
  O  O67  1  0.55690743  0.37338096  0.75000000  1
  O  O68  1  0.62661495  0.18352765  0.75000000  1
  O  O69  1  0.18353895  0.55691790  0.25000000  1
  O  O70  1  0.44309257  0.62661904  0.25000000  1
  O  O71  1  0.37338505  0.81647235  0.25000000  1
  O  O72  1  0.03511287  0.50048279  0.65488826  1
  O  O73  1  0.49951884  0.53462701  0.65488742  1
  O  O74  1  0.46537192  0.96489176  0.65488717  1
  O  O75  1  0.96488713  0.49951721  0.15488826  1
  O  O76  1  0.50048116  0.46537299  0.15488742  1
  O  O77  1  0.53462808  0.03510824  0.15488717  1
  O  O78  1  0.96488713  0.49951721  0.34511174  1
  O  O79  1  0.50048116  0.46537299  0.34511258  1
  O  O80  1  0.53462808  0.03510824  0.34511283  1
  O  O81  1  0.03511287  0.50048279  0.84511174  1
  O  O82  1  0.49951884  0.53462701  0.84511258  1
  O  O83  1  0.46537192  0.96489176  0.84511283  1
  O  O84  1  0.91157573  0.59264956  0.53823396  1
  O  O85  1  0.40735468  0.31892467  0.53823494  1
  O  O86  1  0.68107296  0.08842592  0.53823423  1
  O  O87  1  0.08842427  0.40735044  0.03823396  1
  O  O88  1  0.59264532  0.68107533  0.03823494  1
  O  O89  1  0.31892704  0.91157408  0.03823423  1
  O  O90  1  0.08842427  0.40735044  0.46176604  1
  O  O91  1  0.59264532  0.68107533  0.46176506  1
  O  O92  1  0.31892704  0.91157408  0.46176577  1
  O  O93  1  0.91157573  0.59264956  0.96176604  1
  O  O94  1  0.40735468  0.31892467  0.96176506  1
  O  O95  1  0.68107296  0.08842592  0.96176577  1
