# generated using pymatgen
data_LaNi3B
_symmetry_space_group_name_H-M   'P 1'
_cell_length_a   7.13031888
_cell_length_b   9.64092479
_cell_length_c   9.64092479
_cell_angle_alpha   118.56858848
_cell_angle_beta   90.00000000
_cell_angle_gamma   90.00000000
_symmetry_Int_Tables_number   1
_chemical_formula_structural   LaNi3B
_chemical_formula_sum   'La8 Ni24 B8'
_cell_volume   582.05251046
_cell_formula_units_Z   8
loop_
 _symmetry_equiv_pos_site_id
 _symmetry_equiv_pos_as_xyz
  1  'x, y, z'
loop_
 _atom_site_type_symbol
 _atom_site_label
 _atom_site_symmetry_multiplicity
 _atom_site_fract_x
 _atom_site_fract_y
 _atom_site_fract_z
 _atom_site_occupancy
  La  La0  1  0.75000000  0.96949739  0.54112820  1
  La  La1  1  0.25000000  0.54112820  0.96949739  1
  La  La2  1  0.25000000  0.03050261  0.45887180  1
  La  La3  1  0.75000000  0.45887180  0.03050261  1
  La  La4  1  0.75000000  0.53658333  0.46341667  1
  La  La5  1  0.25000000  0.46341667  0.53658333  1
  La  La6  1  0.75000000  0.03529240  0.96470760  1
  La  La7  1  0.25000000  0.96470760  0.03529240  1
  Ni  Ni8  1  0.57345789  0.99808479  0.25065052  1
  Ni  Ni9  1  0.42654211  0.25065052  0.99808479  1
  Ni  Ni10  1  0.92654211  0.99808479  0.25065052  1
  Ni  Ni11  1  0.07345789  0.25065052  0.99808479  1
  Ni  Ni12  1  0.42654211  0.00191521  0.74934948  1
  Ni  Ni13  1  0.57345789  0.74934948  0.00191521  1
  Ni  Ni14  1  0.07345789  0.00191521  0.74934948  1
  Ni  Ni15  1  0.92654211  0.74934948  0.00191521  1
  Ni  Ni16  1  0.57352698  0.25057995  0.49793409  1
  Ni  Ni17  1  0.42647302  0.49793409  0.25057995  1
  Ni  Ni18  1  0.92647302  0.25057995  0.49793409  1
  Ni  Ni19  1  0.07352698  0.49793409  0.25057995  1
  Ni  Ni20  1  0.42647302  0.74942005  0.50206591  1
  Ni  Ni21  1  0.57352698  0.50206591  0.74942005  1
  Ni  Ni22  1  0.07352698  0.74942005  0.50206591  1
  Ni  Ni23  1  0.92647302  0.50206591  0.74942005  1
  Ni  Ni24  1  0.51021502  0.74517205  0.25482795  1
  Ni  Ni25  1  0.48978498  0.25482795  0.74517205  1
  Ni  Ni26  1  0.98978498  0.74517205  0.25482795  1
  Ni  Ni27  1  0.01021502  0.25482795  0.74517205  1
  Ni  Ni28  1  0.50000000  0.24772642  0.24772642  1
  Ni  Ni29  1  0.00000000  0.24772642  0.24772642  1
  Ni  Ni30  1  0.50000000  0.75227358  0.75227358  1
  Ni  Ni31  1  0.00000000  0.75227358  0.75227358  1
  B  B32  1  0.75000000  0.18136003  0.31388785  1
  B  B33  1  0.25000000  0.31388785  0.18136003  1
  B  B34  1  0.25000000  0.81863997  0.68611215  1
  B  B35  1  0.75000000  0.68611215  0.81863997  1
  B  B36  1  0.75000000  0.81371972  0.18628028  1
  B  B37  1  0.25000000  0.18628028  0.81371972  1
  B  B38  1  0.75000000  0.31907776  0.68092224  1
  B  B39  1  0.25000000  0.68092224  0.31907776  1
