# generated using pymatgen
data_Ca2B3H4ClO8
_symmetry_space_group_name_H-M   'P 1'
_cell_length_a   7.32214128
_cell_length_b   8.13790853
_cell_length_c   12.72034416
_cell_angle_alpha   87.69263829
_cell_angle_beta   90.00000000
_cell_angle_gamma   90.00000000
_symmetry_Int_Tables_number   1
_chemical_formula_structural   Ca2B3H4ClO8
_chemical_formula_sum   'Ca8 B12 H16 Cl4 O32'
_cell_volume   757.35154259
_cell_formula_units_Z   4
loop_
 _symmetry_equiv_pos_site_id
 _symmetry_equiv_pos_as_xyz
  1  'x, y, z'
loop_
 _atom_site_type_symbol
 _atom_site_label
 _atom_site_symmetry_multiplicity
 _atom_site_fract_x
 _atom_site_fract_y
 _atom_site_fract_z
 _atom_site_occupancy
  Ca  Ca0  1  0.34171635  0.09694105  0.73863540  1
  Ca  Ca1  1  0.84171635  0.90305895  0.76136460  1
  Ca  Ca2  1  0.65828365  0.90305895  0.26136460  1
  Ca  Ca3  1  0.15828365  0.09694105  0.23863540  1
  Ca  Ca4  1  0.14415165  0.51891905  0.79970569  1
  Ca  Ca5  1  0.64415165  0.48108095  0.70029431  1
  Ca  Ca6  1  0.85584835  0.48108095  0.20029431  1
  Ca  Ca7  1  0.35584835  0.51891905  0.29970569  1
  B  B8  1  0.50126571  0.79205564  0.88941465  1
  B  B9  1  0.00126571  0.20794436  0.61058535  1
  B  B10  1  0.49873429  0.20794436  0.11058535  1
  B  B11  1  0.99873429  0.79205564  0.38941465  1
  B  B12  1  0.27718530  0.39664474  0.58799743  1
  B  B13  1  0.77718530  0.60335526  0.91200257  1
  B  B14  1  0.72281470  0.60335526  0.41200257  1
  B  B15  1  0.22281470  0.39664474  0.08799743  1
  B  B16  1  0.40786883  0.32663037  0.93126111  1
  B  B17  1  0.90786883  0.67336963  0.56873889  1
  B  B18  1  0.59213117  0.67336963  0.06873889  1
  B  B19  1  0.09213117  0.32663037  0.43126111  1
  H  H20  1  0.46198334  0.22860921  0.53425864  1
  H  H21  1  0.96198334  0.77139079  0.96574136  1
  H  H22  1  0.53801666  0.77139079  0.46574136  1
  H  H23  1  0.03801666  0.22860921  0.03425864  1
  H  H24  1  0.07109082  0.95964741  0.58073977  1
  H  H25  1  0.57109082  0.04035259  0.91926023  1
  H  H26  1  0.92890918  0.04035259  0.41926023  1
  H  H27  1  0.42890918  0.95964741  0.08073977  1
  H  H28  1  0.22922913  0.82967123  0.87771197  1
  H  H29  1  0.72922913  0.17032877  0.62228803  1
  H  H30  1  0.77077087  0.17032877  0.12228803  1
  H  H31  1  0.27077087  0.82967123  0.37771197  1
  H  H32  1  0.28924754  0.64864169  0.59501965  1
  H  H33  1  0.78924754  0.35135831  0.90498035  1
  H  H34  1  0.71075246  0.35135831  0.40498035  1
  H  H35  1  0.21075246  0.64864169  0.09501965  1
  Cl  Cl36  1  0.06756135  0.09019214  0.88756197  1
  Cl  Cl37  1  0.56756135  0.90980786  0.61243803  1
  Cl  Cl38  1  0.93243865  0.90980786  0.11243803  1
  Cl  Cl39  1  0.43243865  0.09019214  0.38756197  1
  O  O40  1  0.44425250  0.28805775  0.59960187  1
  O  O41  1  0.94425250  0.71194225  0.90039813  1
  O  O42  1  0.55574750  0.71194225  0.40039813  1
  O  O43  1  0.05574750  0.28805775  0.09960187  1
  O  O44  1  0.42378255  0.33764832  0.82477256  1
  O  O45  1  0.92378255  0.66235168  0.67522744  1
  O  O46  1  0.57621745  0.66235168  0.17522744  1
  O  O47  1  0.07621745  0.33764832  0.32477256  1
  O  O48  1  0.33281819  0.55298195  0.63655419  1
  O  O49  1  0.83281819  0.44701805  0.86344581  1
  O  O50  1  0.66718181  0.44701805  0.36344581  1
  O  O51  1  0.16718181  0.55298195  0.13655419  1
  O  O52  1  0.32023910  0.77033647  0.83773590  1
  O  O53  1  0.82023910  0.22966353  0.66226410  1
  O  O54  1  0.67976090  0.22966353  0.16226410  1
  O  O55  1  0.17976090  0.77033647  0.33773590  1
  O  O56  1  0.27227501  0.42161110  0.97785576  1
  O  O57  1  0.77227501  0.57838890  0.52214424  1
  O  O58  1  0.72772499  0.57838890  0.02214424  1
  O  O59  1  0.22772499  0.42161110  0.47785576  1
  O  O60  1  0.13052946  0.32324703  0.65408889  1
  O  O61  1  0.63052946  0.67675297  0.84591111  1
  O  O62  1  0.86947054  0.67675297  0.34591111  1
  O  O63  1  0.36947054  0.32324703  0.15408889  1
  O  O64  1  0.06740978  0.03351160  0.64026707  1
  O  O65  1  0.56740978  0.96648840  0.85973293  1
  O  O66  1  0.93259022  0.96648840  0.35973293  1
  O  O67  1  0.43259022  0.03351160  0.14026707  1
  O  O68  1  0.48358134  0.77711749  0.00522161  1
  O  O69  1  0.98358134  0.22288251  0.49477839  1
  O  O70  1  0.51641866  0.22288251  0.99477839  1
  O  O71  1  0.01641866  0.77711749  0.50522161  1
