# generated using pymatgen
data_U6Al43W4
_symmetry_space_group_name_H-M   'P 1'
_cell_length_a   11.01416591
_cell_length_b   11.01271291
_cell_length_c   17.55068431
_cell_angle_alpha   90.00000000
_cell_angle_beta   90.00000000
_cell_angle_gamma   120.00436262
_symmetry_Int_Tables_number   1
_chemical_formula_structural   U6Al43W4
_chemical_formula_sum   'U12 Al86 W8'
_cell_volume   1843.53558446
_cell_formula_units_Z   2
loop_
 _symmetry_equiv_pos_site_id
 _symmetry_equiv_pos_as_xyz
  1  'x, y, z'
loop_
 _atom_site_type_symbol
 _atom_site_label
 _atom_site_symmetry_multiplicity
 _atom_site_fract_x
 _atom_site_fract_y
 _atom_site_fract_z
 _atom_site_occupancy
  U  U0  1  0.52345846  0.00000000  0.58874755  1
  U  U1  1  0.47483577  0.47452065  0.58901672  1
  U  U2  1  0.00031512  0.52547935  0.58901672  1
  U  U3  1  0.47654154  1.00000000  0.41125245  1
  U  U4  1  0.52516423  0.52547935  0.41098328  1
  U  U5  1  0.99968488  0.47452065  0.41098328  1
  U  U6  1  0.47654154  1.00000000  0.08874755  1
  U  U7  1  0.52516423  0.52547935  0.08901672  1
  U  U8  1  0.99968488  0.47452065  0.08901672  1
  U  U9  1  0.52345846  0.00000000  0.91125245  1
  U  U10  1  0.47483577  0.47452065  0.91098328  1
  U  U11  1  0.00031512  0.52547935  0.91098328  1
  Al  Al12  1  0.15905423  0.39509095  0.66298661  1
  Al  Al13  1  0.23630440  0.84172834  0.66293476  1
  Al  Al14  1  0.60465478  0.76453809  0.66282501  1
  Al  Al15  1  0.76396328  0.60490905  0.66298661  1
  Al  Al16  1  0.39457606  0.15827166  0.66293476  1
  Al  Al17  1  0.84011669  0.23546191  0.66282501  1
  Al  Al18  1  0.84094577  0.60490905  0.33701339  1
  Al  Al19  1  0.76369560  0.15827166  0.33706524  1
  Al  Al20  1  0.39534522  0.23546191  0.33717499  1
  Al  Al21  1  0.23603672  0.39509095  0.33701339  1
  Al  Al22  1  0.60542394  0.84172834  0.33706524  1
  Al  Al23  1  0.15988331  0.76453809  0.33717499  1
  Al  Al24  1  0.84094577  0.60490905  0.16298661  1
  Al  Al25  1  0.76369560  0.15827166  0.16293476  1
  Al  Al26  1  0.39534522  0.23546191  0.16282501  1
  Al  Al27  1  0.23603672  0.39509095  0.16298661  1
  Al  Al28  1  0.60542394  0.84172834  0.16293476  1
  Al  Al29  1  0.15988331  0.76453809  0.16282501  1
  Al  Al30  1  0.15905423  0.39509095  0.83701339  1
  Al  Al31  1  0.23630440  0.84172834  0.83706524  1
  Al  Al32  1  0.60465478  0.76453809  0.83717499  1
  Al  Al33  1  0.76396328  0.60490905  0.83701339  1
  Al  Al34  1  0.39457606  0.15827166  0.83706524  1
  Al  Al35  1  0.84011669  0.23546191  0.83717499  1
  Al  Al36  1  0.16370863  1.00000000  0.11330916  1
  Al  Al37  1  0.83890104  0.83903323  0.11372965  1
  Al  Al38  1  -0.00013219  0.16096677  0.11372965  1
  Al  Al39  1  0.83629137  0.00000000  0.88669084  1
  Al  Al40  1  0.16109896  0.16096677  0.88627035  1
  Al  Al41  1  0.00013219  0.83903323  0.88627035  1
  Al  Al42  1  0.83629137  0.00000000  0.61330916  1
  Al  Al43  1  0.16109896  0.16096677  0.61372965  1
  Al  Al44  1  0.00013219  0.83903323  0.61372965  1
  Al  Al45  1  0.16370863  1.00000000  0.38669084  1
  Al  Al46  1  0.83890104  0.83903323  0.38627035  1
  Al  Al47  1  -0.00013219  0.16096677  0.38627035  1
  Al  Al48  1  0.25651320  0.00000000  0.52917462  1
  Al  Al49  1  0.74475445  0.74519929  0.52996219  1
  Al  Al50  1  0.99955516  0.25480071  0.52996219  1
  Al  Al51  1  0.74348680  -0.00000000  0.47082538  1
  Al  Al52  1  0.25524555  0.25480071  0.47003781  1
  Al  Al53  1  0.00044484  0.74519929  0.47003781  1
  Al  Al54  1  0.74348680  -0.00000000  0.02917462  1
  Al  Al55  1  0.25524555  0.25480071  0.02996219  1
  Al  Al56  1  0.00044484  0.74519929  0.02996219  1
  Al  Al57  1  0.25651320  0.00000000  0.97082538  1
  Al  Al58  1  0.74475445  0.74519929  0.97003781  1
  Al  Al59  1  0.99955516  0.25480071  0.97003781  1
  Al  Al60  1  0.14416225  0.59272915  0.75000000  1
  Al  Al61  1  0.44827636  0.85630182  0.75000000  1
  Al  Al62  1  0.40789201  0.55126998  0.75000000  1
  Al  Al63  1  0.55143310  0.40727085  0.75000000  1
  Al  Al64  1  0.59197454  0.14369818  0.75000000  1
  Al  Al65  1  0.85662203  0.44873002  0.75000000  1
  Al  Al66  1  0.85583775  0.40727085  0.25000000  1
  Al  Al67  1  0.55172364  0.14369818  0.25000000  1
  Al  Al68  1  0.59210799  0.44873002  0.25000000  1
  Al  Al69  1  0.44856690  0.59272915  0.25000000  1
  Al  Al70  1  0.40802546  0.85630182  0.25000000  1
  Al  Al71  1  0.14337797  0.55126998  0.25000000  1
  Al  Al72  1  0.24707984  0.49415967  0.50000000  1
  Al  Al73  1  0.24838959  0.75453081  0.49982539  1
  Al  Al74  1  0.50614122  0.75453081  0.50017461  1
  Al  Al75  1  0.75292016  0.50584033  0.50000000  1
  Al  Al76  1  0.49385878  0.24546919  0.49982539  1
  Al  Al77  1  0.75161041  0.24546919  0.50017461  1
  Al  Al78  1  0.75292016  0.50584033  -0.00000000  1
  Al  Al79  1  0.75161041  0.24546919  0.99982539  1
  Al  Al80  1  0.49385878  0.24546919  0.00017461  1
  Al  Al81  1  0.24707984  0.49415967  -0.00000000  1
  Al  Al82  1  0.50614122  0.75453081  0.99982539  1
  Al  Al83  1  0.24838959  0.75453081  0.00017461  1
  Al  Al84  1  0.33384567  0.66683583  0.62723903  1
  Al  Al85  1  0.66700984  0.33316417  0.62723903  1
  Al  Al86  1  0.66615433  0.33316417  0.37276097  1
  Al  Al87  1  0.33299016  0.66683583  0.37276097  1
  Al  Al88  1  0.66615433  0.33316417  0.12723903  1
  Al  Al89  1  0.33299016  0.66683583  0.12723903  1
  Al  Al90  1  0.33384567  0.66683583  0.87276097  1
  Al  Al91  1  0.66700984  0.33316417  0.87276097  1
  Al  Al92  1  0.14650691  0.00000000  0.75000000  1
  Al  Al93  1  0.85288087  0.85351026  0.75000000  1
  Al  Al94  1  0.99937061  0.14648974  0.75000000  1
  Al  Al95  1  0.85349309  1.00000000  0.25000000  1
  Al  Al96  1  0.14711913  0.14648974  0.25000000  1
  Al  Al97  1  0.00062939  0.85351026  0.25000000  1
  W  W98  1  0.72897184  1.00000000  0.75000000  1
  W  W99  1  0.27035942  0.27031877  0.75000000  1
  W  W100  1  0.00004065  0.72968123  0.75000000  1
  W  W101  1  0.27102816  0.00000000  0.25000000  1
  W  W102  1  0.72964058  0.72968123  0.25000000  1
  W  W103  1  0.99995935  0.27031877  0.25000000  1
  W  W104  1  -0.00000000  0.00000000  0.50000000  1
  W  W105  1  -0.00000000  0.00000000  -0.00000000  1
