# generated using pymatgen
data_Rb2UCr2O10
_symmetry_space_group_name_H-M   'P 1'
_cell_length_a   8.37094602
_cell_length_b   10.73183070
_cell_length_c   13.90977992
_cell_angle_alpha   102.56936703
_cell_angle_beta   106.61318175
_cell_angle_gamma   93.65416966
_symmetry_Int_Tables_number   1
_chemical_formula_structural   Rb2UCr2O10
_chemical_formula_sum   'Rb8 U4 Cr8 O40'
_cell_volume   1158.08627818
_cell_formula_units_Z   4
loop_
 _symmetry_equiv_pos_site_id
 _symmetry_equiv_pos_as_xyz
  1  'x, y, z'
loop_
 _atom_site_type_symbol
 _atom_site_label
 _atom_site_symmetry_multiplicity
 _atom_site_fract_x
 _atom_site_fract_y
 _atom_site_fract_z
 _atom_site_occupancy
  Rb  Rb0  1  0.93990465  0.50109779  0.66727368  1
  Rb  Rb1  1  0.06009535  0.49890221  0.33272632  1
  Rb  Rb2  1  0.37247635  0.23702594  0.49314552  1
  Rb  Rb3  1  0.62752365  0.76297406  0.50685448  1
  Rb  Rb4  1  0.05232919  0.30786833  0.97215479  1
  Rb  Rb5  1  0.94767081  0.69213167  0.02784521  1
  Rb  Rb6  1  0.62810936  0.96142039  0.85528327  1
  Rb  Rb7  1  0.37189064  0.03857961  0.14471673  1
  U  U8  1  0.17274119  0.89592473  0.57911675  1
  U  U9  1  0.82725881  0.10407527  0.42088325  1
  U  U10  1  0.39119703  0.65153051  0.94457214  1
  U  U11  1  0.60880297  0.34846949  0.05542786  1
  Cr  Cr12  1  0.11842234  0.89595271  0.84245399  1
  Cr  Cr13  1  0.88157766  0.10404729  0.15754601  1
  Cr  Cr14  1  0.39058844  0.61885768  0.65640221  1
  Cr  Cr15  1  0.60941156  0.38114232  0.34359779  1
  Cr  Cr16  1  0.39146649  0.63444237  0.17018809  1
  Cr  Cr17  1  0.60853351  0.36555763  0.82981191  1
  Cr  Cr18  1  0.12324783  0.85688059  0.33727177  1
  Cr  Cr19  1  0.87675217  0.14311941  0.66272823  1
  O  O20  1  0.24233741  0.78852314  0.42713033  1
  O  O21  1  0.75766259  0.21147686  0.57286967  1
  O  O22  1  0.34506656  0.75101849  0.10487032  1
  O  O23  1  0.65493344  0.24898151  0.89512968  1
  O  O24  1  0.38343376  0.76986987  0.63629837  1
  O  O25  1  0.61656624  0.23013013  0.36370163  1
  O  O26  1  0.18228667  0.55848889  0.90784939  1
  O  O27  1  0.81771333  0.44151111  0.09215061  1
  O  O28  1  0.47615907  0.53806461  0.08596102  1
  O  O29  1  0.52384093  0.46193539  0.91403898  1
  O  O30  1  0.27585774  0.83793739  0.92250137  1
  O  O31  1  0.72414226  0.16206261  0.07749863  1
  O  O32  1  0.00562830  0.76326550  0.55036244  1
  O  O33  1  0.99437170  0.23673450  0.44963756  1
  O  O34  1  0.19041788  0.93746147  0.74862614  1
  O  O35  1  0.80958212  0.06253853  0.25137386  1
  O  O36  1  0.59805873  0.74798448  0.98367426  1
  O  O37  1  0.40194127  0.25201552  0.01632574  1
  O  O38  1  0.03127320  0.95566330  0.41583580  1
  O  O39  1  0.96872680  0.04433670  0.58416420  1
  O  O40  1  0.34030866  0.02617666  0.60390974  1
  O  O41  1  0.65969134  0.97382334  0.39609026  1
  O  O42  1  0.06735694  0.02196930  0.91049526  1
  O  O43  1  0.93264306  0.97803070  0.08950474  1
  O  O44  1  0.57020415  0.57583632  0.64806236  1
  O  O45  1  0.42979585  0.42416368  0.35193764  1
  O  O46  1  0.37106796  0.62394326  0.77665580  1
  O  O47  1  0.62893204  0.37605674  0.22334420  1
  O  O48  1  0.23779367  0.51795417  0.56864820  1
  O  O49  1  0.76220633  0.48204583  0.43135180  1
  O  O50  1  0.21900807  0.55756414  0.17296508  1
  O  O51  1  0.78099193  0.44243586  0.82703492  1
  O  O52  1  0.52463387  0.68885325  0.28413249  1
  O  O53  1  0.47536613  0.31114675  0.71586751  1
  O  O54  1  0.95426529  0.78632496  0.79103975  1
  O  O55  1  0.04573471  0.21367504  0.20896025  1
  O  O56  1  0.98625629  0.74847361  0.24640639  1
  O  O57  1  0.01374371  0.25152639  0.75359361  1
  O  O58  1  0.23814433  0.94177124  0.29150885  1
  O  O59  1  0.76185567  0.05822876  0.70849115  1
