# generated using pymatgen
data_BaZn(SeO3)2
_symmetry_space_group_name_H-M   'P 1'
_cell_length_a   5.65431019
_cell_length_b   7.32175927
_cell_length_c   16.77955144
_cell_angle_alpha   90.00000000
_cell_angle_beta   90.00000000
_cell_angle_gamma   96.90326249
_symmetry_Int_Tables_number   1
_chemical_formula_structural   BaZn(SeO3)2
_chemical_formula_sum   'Ba4 Zn4 Se8 O24'
_cell_volume   689.62903302
_cell_formula_units_Z   4
loop_
 _symmetry_equiv_pos_site_id
 _symmetry_equiv_pos_as_xyz
  1  'x, y, z'
loop_
 _atom_site_type_symbol
 _atom_site_label
 _atom_site_symmetry_multiplicity
 _atom_site_fract_x
 _atom_site_fract_y
 _atom_site_fract_z
 _atom_site_occupancy
  Ba  Ba0  1  0.63400002  0.14983576  0.21760545  1
  Ba  Ba1  1  0.13400002  0.64983576  0.28239455  1
  Ba  Ba2  1  0.36599998  0.85016424  0.78239455  1
  Ba  Ba3  1  0.86599998  0.35016424  0.71760545  1
  Zn  Zn4  1  0.65018361  0.40546015  0.42107075  1
  Zn  Zn5  1  0.15018361  0.90546015  0.07892925  1
  Zn  Zn6  1  0.34981639  0.59453985  0.57892925  1
  Zn  Zn7  1  0.84981639  0.09453985  0.92107075  1
  Se  Se8  1  0.62248830  0.66595235  0.13208921  1
  Se  Se9  1  0.12248830  0.16595235  0.36791079  1
  Se  Se10  1  0.37751170  0.33404765  0.86791079  1
  Se  Se11  1  0.87751170  0.83404765  0.63208921  1
  Se  Se12  1  0.37774090  0.17019509  0.56592104  1
  Se  Se13  1  0.87774090  0.67019509  0.93407896  1
  Se  Se14  1  0.62225910  0.82980491  0.43407896  1
  Se  Se15  1  0.12225910  0.32980491  0.06592104  1
  O  O16  1  0.40142481  0.81067964  0.14852801  1
  O  O17  1  0.90142481  0.31067964  0.35147199  1
  O  O18  1  0.59857519  0.18932036  0.85147199  1
  O  O19  1  0.09857519  0.68932036  0.64852801  1
  O  O20  1  0.59552566  0.54262142  0.21750471  1
  O  O21  1  0.09552566  0.04262142  0.28249529  1
  O  O22  1  0.40447434  0.45737858  0.78249529  1
  O  O23  1  0.90447434  0.95737858  0.71750471  1
  O  O24  1  0.87394107  0.82340085  0.15141536  1
  O  O25  1  0.37394107  0.32340085  0.34858464  1
  O  O26  1  0.12605893  0.17659915  0.84858464  1
  O  O27  1  0.62605893  0.67659915  0.65141536  1
  O  O28  1  0.19331362  0.33663713  0.58948104  1
  O  O29  1  0.69331362  0.83663713  0.91051896  1
  O  O30  1  0.80668638  0.66336287  0.41051896  1
  O  O31  1  0.30668638  0.16336287  0.08948104  1
  O  O32  1  0.47999074  0.10452986  0.65488023  1
  O  O33  1  0.97999074  0.60452986  0.84511977  1
  O  O34  1  0.52000926  0.89547014  0.34511977  1
  O  O35  1  0.02000926  0.39547014  0.15488023  1
  O  O36  1  0.62354942  0.31621825  0.53157248  1
  O  O37  1  0.12354942  0.81621825  0.96842752  1
  O  O38  1  0.37645058  0.68378175  0.46842752  1
  O  O39  1  0.87645058  0.18378175  0.03157248  1
