# generated using pymatgen
data_Re2P3N2(Cl5O)3
_symmetry_space_group_name_H-M   'P 1'
_cell_length_a   12.26398688
_cell_length_b   12.90883307
_cell_length_c   19.77913129
_cell_angle_alpha   107.59785058
_cell_angle_beta   106.21777684
_cell_angle_gamma   84.67596629
_symmetry_Int_Tables_number   1
_chemical_formula_structural   Re2P3N2(Cl5O)3
_chemical_formula_sum   'Re8 P12 N8 Cl60 O12'
_cell_volume   2865.87771832
_cell_formula_units_Z   4
loop_
 _symmetry_equiv_pos_site_id
 _symmetry_equiv_pos_as_xyz
  1  'x, y, z'
loop_
 _atom_site_type_symbol
 _atom_site_label
 _atom_site_symmetry_multiplicity
 _atom_site_fract_x
 _atom_site_fract_y
 _atom_site_fract_z
 _atom_site_occupancy
  Re  Re0  1  0.17530558  0.04660994  0.11738861  1
  Re  Re1  1  0.82469442  0.95339006  0.88261139  1
  Re  Re2  1  0.90326550  0.89431096  0.06312611  1
  Re  Re3  1  0.09673450  0.10568904  0.93687389  1
  Re  Re4  1  0.61944105  0.44527133  0.40228110  1
  Re  Re5  1  0.38055895  0.55472867  0.59771890  1
  Re  Re6  1  0.34466591  0.59063525  0.41279334  1
  Re  Re7  1  0.65533409  0.40936475  0.58720666  1
  P  P8  1  0.25994737  0.00213436  0.30488007  1
  P  P9  1  0.74005263  0.99786564  0.69511993  1
  P  P10  1  0.60285483  0.77726357  0.02241837  1
  P  P11  1  0.39714517  0.22273643  0.97758163  1
  P  P12  1  0.90287951  0.30424636  0.38995498  1
  P  P13  1  0.09712049  0.69575364  0.61004502  1
  P  P14  1  0.31294740  0.58123244  0.21337606  1
  P  P15  1  0.68705260  0.41876756  0.78662394  1
  P  P16  1  0.20058776  0.49520287  0.86003842  1
  P  P17  1  0.79941224  0.50479713  0.13996158  1
  P  P18  1  0.21008703  0.09499669  0.62074985  1
  P  P19  1  0.78991297  0.90500331  0.37925015  1
  N  N20  1  0.14997329  0.07800963  0.03581841  1
  N  N21  1  0.85002671  0.92199037  0.96418159  1
  N  N22  1  0.02732501  0.96511525  0.09179257  1
  N  N23  1  0.97267499  0.03488475  0.90820743  1
  N  N24  1  0.50665161  0.48525467  0.59829450  1
  N  N25  1  0.49334839  0.51474533  0.40170550  1
  N  N26  1  0.35625812  0.57560554  0.49772515  1
  N  N27  1  0.64374188  0.42439446  0.50227485  1
  Cl  Cl28  1  0.25621164  0.87412547  0.08387373  1
  Cl  Cl29  1  0.74378836  0.12587453  0.91612627  1
  Cl  Cl30  1  0.35332522  0.12098403  0.17712965  1
  Cl  Cl31  1  0.64667478  0.87901597  0.82287035  1
  Cl  Cl32  1  0.09125227  0.20080412  0.18037597  1
  Cl  Cl33  1  0.90874773  0.79919588  0.81962403  1
  Cl  Cl34  1  0.28214680  0.15076221  0.37505797  1
  Cl  Cl35  1  0.71785320  0.84923779  0.62494203  1
  Cl  Cl36  1  0.17794838  0.91929433  0.34502130  1
  Cl  Cl37  1  0.82205162  0.08070567  0.65497870  1
  Cl  Cl38  1  0.41554650  0.93567453  0.31688189  1
  Cl  Cl39  1  0.58445350  0.06432547  0.68311811  1
  Cl  Cl40  1  0.78171377  0.03626508  0.10289411  1
  Cl  Cl41  1  0.21828623  0.96373492  0.89710589  1
  Cl  Cl42  1  0.91195905  0.83483041  0.16381183  1
  Cl  Cl43  1  0.08804095  0.16516959  0.83618817  1
  Cl  Cl44  1  0.96150068  0.72382180  0.00186439  1
  Cl  Cl45  1  0.03849932  0.27617820  0.99813561  1
  Cl  Cl46  1  0.54748923  0.62449390  0.98907960  1
  Cl  Cl47  1  0.45251077  0.37550610  0.01092040  1
  Cl  Cl48  1  0.48750156  0.85057405  0.95856712  1
  Cl  Cl49  1  0.51249844  0.14942595  0.04143288  1
  Cl  Cl50  1  0.57998586  0.83946131  0.12289662  1
  Cl  Cl51  1  0.42001414  0.16053869  0.87710338  1
  Cl  Cl52  1  0.74016220  0.59453109  0.45915628  1
  Cl  Cl53  1  0.25983780  0.40546891  0.54084372  1
  Cl  Cl54  1  0.44648683  0.73241494  0.64545623  1
  Cl  Cl55  1  0.55351317  0.26758506  0.35454377  1
  Cl  Cl56  1  0.64197257  0.43973495  0.28863404  1
  Cl  Cl57  1  0.35802743  0.56026505  0.71136596  1
  Cl  Cl58  1  0.99869866  0.42242470  0.39267716  1
  Cl  Cl59  1  0.00130134  0.57757530  0.60732284  1
  Cl  Cl60  1  0.99885183  0.77841175  0.54494460  1
  Cl  Cl61  1  0.00114817  0.22158825  0.45505540  1
  Cl  Cl62  1  0.11934394  0.79738622  0.71156888  1
  Cl  Cl63  1  0.88065606  0.20261378  0.28843112  1
  Cl  Cl64  1  0.25878909  0.42610914  0.33922338  1
  Cl  Cl65  1  0.74121091  0.57389086  0.66077662  1
  Cl  Cl66  1  0.43641038  0.75695132  0.45010405  1
  Cl  Cl67  1  0.56358962  0.24304868  0.54989595  1
  Cl  Cl68  1  0.16928709  0.67805844  0.39425908  1
  Cl  Cl69  1  0.83071291  0.32194156  0.60574092  1
  Cl  Cl70  1  0.17375602  0.65509379  0.16820598  1
  Cl  Cl71  1  0.82624398  0.34490621  0.83179402  1
  Cl  Cl72  1  0.29006831  0.42372259  0.16106738  1
  Cl  Cl73  1  0.70993169  0.57627741  0.83893262  1
  Cl  Cl74  1  0.43686267  0.62515295  0.18062277  1
  Cl  Cl75  1  0.56313733  0.37484705  0.81937723  1
  Cl  Cl76  1  0.20804925  0.65693894  0.88069463  1
  Cl  Cl77  1  0.79195075  0.34306106  0.11930537  1
  Cl  Cl78  1  0.14263825  0.47889015  0.94194421  1
  Cl  Cl79  1  0.85736175  0.52110985  0.05805579  1
  Cl  Cl80  1  0.06971241  0.44906558  0.77012198  1
  Cl  Cl81  1  0.93028759  0.55093442  0.22987802  1
  Cl  Cl82  1  0.27735559  0.02500498  0.53566419  1
  Cl  Cl83  1  0.72264441  0.97499502  0.46433581  1
  Cl  Cl84  1  0.27107170  0.00039905  0.68757416  1
  Cl  Cl85  1  0.72892830  0.99960095  0.31242584  1
  Cl  Cl86  1  0.29521589  0.23489813  0.67261750  1
  Cl  Cl87  1  0.70478411  0.76510187  0.32738250  1
  O  O88  1  0.19953099  0.99904121  0.22785568  1
  O  O89  1  0.80046901  0.00095879  0.77214432  1
  O  O90  1  0.72041779  0.78570037  0.01791633  1
  O  O91  1  0.27958221  0.21429963  0.98208367  1
  O  O92  1  0.79672803  0.34383017  0.41203748  1
  O  O93  1  0.20327197  0.65616983  0.58796252  1
  O  O94  1  0.33860266  0.60913997  0.29470492  1
  O  O95  1  0.66139734  0.39086003  0.70529508  1
  O  O96  1  0.30770184  0.43635669  0.85375356  1
  O  O97  1  0.69229816  0.56364331  0.14624644  1
  O  O98  1  0.08584431  0.10764834  0.60059339  1
  O  O99  1  0.91415569  0.89235166  0.39940661  1
