# generated using pymatgen
data_Ba2YCoO5
_symmetry_space_group_name_H-M   'P 1'
_cell_length_a   6.17962034
_cell_length_b   7.97593899
_cell_length_c   12.53419626
_cell_angle_alpha   91.61990505
_cell_angle_beta   90.00000000
_cell_angle_gamma   90.00000000
_symmetry_Int_Tables_number   1
_chemical_formula_structural   Ba2YCoO5
_chemical_formula_sum   'Ba8 Y4 Co4 O20'
_cell_volume   617.54201346
_cell_formula_units_Z   4
loop_
 _symmetry_equiv_pos_site_id
 _symmetry_equiv_pos_as_xyz
  1  'x, y, z'
loop_
 _atom_site_type_symbol
 _atom_site_label
 _atom_site_symmetry_multiplicity
 _atom_site_fract_x
 _atom_site_fract_y
 _atom_site_fract_z
 _atom_site_occupancy
  Ba  Ba0  1  0.75762191  0.49254829  0.36023398  1
  Ba  Ba1  1  0.74237809  0.99254829  0.86023398  1
  Ba  Ba2  1  0.24237809  0.50745171  0.63976602  1
  Ba  Ba3  1  0.25762191  0.00745171  0.13976602  1
  Ba  Ba4  1  0.75232511  0.99313004  0.38383846  1
  Ba  Ba5  1  0.74767489  0.49313004  0.88383846  1
  Ba  Ba6  1  0.24767489  0.00686996  0.61616154  1
  Ba  Ba7  1  0.25232511  0.50686996  0.11616154  1
  Y  Y8  1  0.74862755  0.26423254  0.62843837  1
  Y  Y9  1  0.75137245  0.76423254  0.12843837  1
  Y  Y10  1  0.25137245  0.73576746  0.37156163  1
  Y  Y11  1  0.24862755  0.23576746  0.87156163  1
  Co  Co12  1  0.74149852  0.74661599  0.59286369  1
  Co  Co13  1  0.75850148  0.24661599  0.09286369  1
  Co  Co14  1  0.25850148  0.25338401  0.40713631  1
  Co  Co15  1  0.24149852  0.75338401  0.90713631  1
  O  O16  1  0.75346844  0.97200121  0.63266099  1
  O  O17  1  0.74653156  0.47200121  0.13266099  1
  O  O18  1  0.24653156  0.02799879  0.36733901  1
  O  O19  1  0.25346844  0.52799879  0.86733901  1
  O  O20  1  0.73922886  0.05747411  0.17235580  1
  O  O21  1  0.76077114  0.55747411  0.67235580  1
  O  O22  1  0.26077114  0.94252589  0.82764420  1
  O  O23  1  0.23922886  0.44252589  0.32764420  1
  O  O24  1  0.53985502  0.74605039  0.26969227  1
  O  O25  1  0.96014498  0.24605039  0.76969227  1
  O  O26  1  0.46014498  0.25394961  0.73030773  1
  O  O27  1  0.03985502  0.75394961  0.23030773  1
  O  O28  1  0.52871907  0.22851830  0.98953577  1
  O  O29  1  0.97128093  0.72851830  0.48953577  1
  O  O30  1  0.47128093  0.77148170  0.01046423  1
  O  O31  1  0.02871907  0.27148170  0.51046423  1
  O  O32  1  0.02856089  0.23363748  0.01847078  1
  O  O33  1  0.47143911  0.73363748  0.51847078  1
  O  O34  1  0.97143911  0.76636252  0.98152922  1
  O  O35  1  0.52856089  0.26636252  0.48152922  1
