# generated using pymatgen
data_Ga3Ni27B14
_symmetry_space_group_name_H-M   'P 1'
_cell_length_a   8.64492518
_cell_length_b   8.81662689
_cell_length_c   10.71583983
_cell_angle_alpha   90.00000000
_cell_angle_beta   90.00000000
_cell_angle_gamma   90.73909348
_symmetry_Int_Tables_number   1
_chemical_formula_structural   Ga3Ni27B14
_chemical_formula_sum   'Ga6 Ni54 B28'
_cell_volume   816.68349864
_cell_formula_units_Z   2
loop_
 _symmetry_equiv_pos_site_id
 _symmetry_equiv_pos_as_xyz
  1  'x, y, z'
loop_
 _atom_site_type_symbol
 _atom_site_label
 _atom_site_symmetry_multiplicity
 _atom_site_fract_x
 _atom_site_fract_y
 _atom_site_fract_z
 _atom_site_occupancy
  Ga  Ga0  1  0.72232808  0.32986452  0.75000000  1
  Ga  Ga1  1  0.27767192  0.67013548  0.25000000  1
  Ga  Ga2  1  0.14060461  0.16393250  0.75000000  1
  Ga  Ga3  1  0.85939539  0.83606750  0.25000000  1
  Ga  Ga4  1  0.89380426  0.75314328  0.75000000  1
  Ga  Ga5  1  0.10619574  0.24685672  0.25000000  1
  Ni  Ni6  1  0.62648925  0.63052167  0.75000000  1
  Ni  Ni7  1  0.37351075  0.36947833  0.25000000  1
  Ni  Ni8  1  0.20852200  0.82575582  0.75000000  1
  Ni  Ni9  1  0.79147800  0.17424418  0.25000000  1
  Ni  Ni10  1  0.43116970  0.24161565  0.75000000  1
  Ni  Ni11  1  0.56883030  0.75838435  0.25000000  1
  Ni  Ni12  1  0.02691608  0.42965937  0.75000000  1
  Ni  Ni13  1  0.97308392  0.57034063  0.25000000  1
  Ni  Ni14  1  0.79464825  0.02262915  0.75000000  1
  Ni  Ni15  1  0.20535175  0.97737085  0.25000000  1
  Ni  Ni16  1  0.61214138  0.87145805  0.61488137  1
  Ni  Ni17  1  0.38785862  0.12854195  0.11488137  1
  Ni  Ni18  1  0.38785862  0.12854195  0.38511863  1
  Ni  Ni19  1  0.61214138  0.87145805  0.88511863  1
  Ni  Ni20  1  0.82574014  0.51616041  0.59900654  1
  Ni  Ni21  1  0.17425986  0.48383959  0.09900654  1
  Ni  Ni22  1  0.17425986  0.48383959  0.40099346  1
  Ni  Ni23  1  0.82574014  0.51616041  0.90099346  1
  Ni  Ni24  1  0.03687719  0.96234757  0.60738062  1
  Ni  Ni25  1  0.96312281  0.03765243  0.10738062  1
  Ni  Ni26  1  0.96312281  0.03765243  0.39261938  1
  Ni  Ni27  1  0.03687719  0.96234757  0.89261938  1
  Ni  Ni28  1  0.26270360  0.41838908  0.62127498  1
  Ni  Ni29  1  0.73729640  0.58161092  0.12127498  1
  Ni  Ni30  1  0.73729640  0.58161092  0.37872502  1
  Ni  Ni31  1  0.26270360  0.41838908  0.87872502  1
  Ni  Ni32  1  0.90767934  0.22397828  0.60656235  1
  Ni  Ni33  1  0.09232066  0.77602172  0.10656235  1
  Ni  Ni34  1  0.09232066  0.77602172  0.39343765  1
  Ni  Ni35  1  0.90767934  0.22397828  0.89343765  1
  Ni  Ni36  1  0.08900004  0.64904929  0.60037202  1
  Ni  Ni37  1  0.91099996  0.35095071  0.10037202  1
  Ni  Ni38  1  0.91099996  0.35095071  0.39962798  1
  Ni  Ni39  1  0.08900004  0.64904929  0.89962798  1
  Ni  Ni40  1  0.54245378  0.42951025  0.59369731  1
  Ni  Ni41  1  0.45754622  0.57048975  0.09369731  1
  Ni  Ni42  1  0.45754622  0.57048975  0.40630269  1
  Ni  Ni43  1  0.54245378  0.42951025  0.90630269  1
  Ni  Ni44  1  0.34513504  0.01785790  0.61644628  1
  Ni  Ni45  1  0.65486496  0.98214210  0.11644628  1
  Ni  Ni46  1  0.65486496  0.98214210  0.38355372  1
  Ni  Ni47  1  0.34513504  0.01785790  0.88355372  1
  Ni  Ni48  1  0.83840780  0.78501490  0.50571031  1
  Ni  Ni49  1  0.16159220  0.21498510  0.00571031  1
  Ni  Ni50  1  0.16159220  0.21498510  0.49428969  1
  Ni  Ni51  1  0.83840780  0.78501490  0.99428969  1
  Ni  Ni52  1  0.61627472  0.15051099  0.58524609  1
  Ni  Ni53  1  0.38372528  0.84948901  0.08524609  1
  Ni  Ni54  1  0.38372528  0.84948901  0.41475391  1
  Ni  Ni55  1  0.61627472  0.15051099  0.91475391  1
  Ni  Ni56  1  0.39136435  0.68658406  0.61828219  1
  Ni  Ni57  1  0.60863565  0.31341594  0.11828219  1
  Ni  Ni58  1  0.60863565  0.31341594  0.38171781  1
  Ni  Ni59  1  0.39136435  0.68658406  0.88171781  1
  B  B60  1  0.42336291  0.49809444  0.75000000  1
  B  B61  1  0.57663709  0.50190556  0.25000000  1
  B  B62  1  0.44426718  0.85530636  0.75000000  1
  B  B63  1  0.55573282  0.14469364  0.25000000  1
  B  B64  1  0.22714051  0.58883394  0.75000000  1
  B  B65  1  0.77285949  0.41116606  0.25000000  1
  B  B66  1  0.54345625  0.03459465  0.75000000  1
  B  B67  1  0.45654375  0.96540535  0.25000000  1
  B  B68  1  0.21891275  0.83038156  0.55240418  1
  B  B69  1  0.78108725  0.16961844  0.05240418  1
  B  B70  1  0.78108725  0.16961844  0.44759582  1
  B  B71  1  0.21891275  0.83038156  0.94759582  1
  B  B72  1  0.81151662  0.01044391  0.55170449  1
  B  B73  1  0.18848338  0.98955609  0.05170449  1
  B  B74  1  0.18848338  0.98955609  0.44829551  1
  B  B75  1  0.81151662  0.01044391  0.94829551  1
  B  B76  1  0.39892836  0.23379000  0.56044160  1
  B  B77  1  0.60107164  0.76621000  0.06044160  1
  B  B78  1  0.60107164  0.76621000  0.43955840  1
  B  B79  1  0.39892836  0.23379000  0.93955840  1
  B  B80  1  0.96346217  0.58186793  0.44607382  1
  B  B81  1  0.03653783  0.41813207  0.94607382  1
  B  B82  1  0.03653783  0.41813207  0.55392618  1
  B  B83  1  0.96346217  0.58186793  0.05392618  1
  B  B84  1  0.63344124  0.63914059  0.55726773  1
  B  B85  1  0.36655876  0.36085941  0.05726773  1
  B  B86  1  0.36655876  0.36085941  0.44273227  1
  B  B87  1  0.63344124  0.63914059  0.94273227  1
