# generated using pymatgen
data_Ba3YIr2O9
_symmetry_space_group_name_H-M   'P 1'
_cell_length_a   5.95654882
_cell_length_b   5.95654882
_cell_length_c   14.72769182
_cell_angle_alpha   90.00000000
_cell_angle_beta   90.00000000
_cell_angle_gamma   120.00304285
_symmetry_Int_Tables_number   1
_chemical_formula_structural   Ba3YIr2O9
_chemical_formula_sum   'Ba6 Y2 Ir4 O18'
_cell_volume   452.52378787
_cell_formula_units_Z   2
loop_
 _symmetry_equiv_pos_site_id
 _symmetry_equiv_pos_as_xyz
  1  'x, y, z'
loop_
 _atom_site_type_symbol
 _atom_site_label
 _atom_site_symmetry_multiplicity
 _atom_site_fract_x
 _atom_site_fract_y
 _atom_site_fract_z
 _atom_site_occupancy
  Ba  Ba0  1  0.00000715  0.99999285  0.75000000  1
  Ba  Ba1  1  0.99999285  0.00000715  0.25000000  1
  Ba  Ba2  1  0.66668471  0.33331529  0.40681882  1
  Ba  Ba3  1  0.33331529  0.66668471  0.59318118  1
  Ba  Ba4  1  0.33331529  0.66668471  0.90681882  1
  Ba  Ba5  1  0.66668471  0.33331529  0.09318118  1
  Y  Y6  1  -0.00000000  -0.00000000  0.50000000  1
  Y  Y7  1  -0.00000000  -0.00000000  -0.00000000  1
  Ir  Ir8  1  0.66663783  0.33336217  0.66417387  1
  Ir  Ir9  1  0.33336217  0.66663783  0.33582613  1
  Ir  Ir10  1  0.33336217  0.66663783  0.16417387  1
  Ir  Ir11  1  0.66663783  0.33336217  0.83582613  1
  O  O12  1  0.50941034  0.01890529  0.75000000  1
  O  O13  1  0.50951470  0.49048530  0.75000000  1
  O  O14  1  0.98109471  0.49058966  0.75000000  1
  O  O15  1  0.49058966  0.98109471  0.25000000  1
  O  O16  1  0.49048530  0.50951470  0.25000000  1
  O  O17  1  0.01890529  0.50941034  0.25000000  1
  O  O18  1  0.82370853  0.64736715  0.91301264  1
  O  O19  1  0.82367947  0.17632053  0.91302104  1
  O  O20  1  0.35263285  0.17629147  0.91301264  1
  O  O21  1  0.17629147  0.35263285  0.08698736  1
  O  O22  1  0.17632053  0.82367947  0.08697896  1
  O  O23  1  0.64736715  0.82370853  0.08698736  1
  O  O24  1  0.17629147  0.35263285  0.41301264  1
  O  O25  1  0.17632053  0.82367947  0.41302104  1
  O  O26  1  0.64736715  0.82370853  0.41301264  1
  O  O27  1  0.82370853  0.64736715  0.58698736  1
  O  O28  1  0.82367947  0.17632053  0.58697896  1
  O  O29  1  0.35263285  0.17629147  0.58698736  1
