# generated using pymatgen
data_PH6C(NF2)3
_symmetry_space_group_name_H-M   'P 1'
_cell_length_a   7.83162285
_cell_length_b   7.83162273
_cell_length_c   7.83162261
_cell_angle_alpha   64.18847650
_cell_angle_beta   64.18847679
_cell_angle_gamma   64.18847534
_symmetry_Int_Tables_number   1
_chemical_formula_structural   PH6C(NF2)3
_chemical_formula_sum   'P2 H12 C2 N6 F12'
_cell_volume   370.93967999
_cell_formula_units_Z   2
loop_
 _symmetry_equiv_pos_site_id
 _symmetry_equiv_pos_as_xyz
  1  'x, y, z'
loop_
 _atom_site_type_symbol
 _atom_site_label
 _atom_site_symmetry_multiplicity
 _atom_site_fract_x
 _atom_site_fract_y
 _atom_site_fract_z
 _atom_site_occupancy
  P  P0  1  -0.00000000  -0.00000000  0.00000000  1
  P  P1  1  0.50000000  0.50000000  0.50000000  1
  H  H2  1  0.49731054  0.98743106  0.77793643  1
  H  H3  1  0.49731054  0.77793643  0.98743106  1
  H  H4  1  0.77793643  0.49731054  0.98743106  1
  H  H5  1  0.98743106  0.49731054  0.77793643  1
  H  H6  1  0.98743106  0.77793643  0.49731054  1
  H  H7  1  0.77793643  0.98743106  0.49731054  1
  H  H8  1  0.50268946  0.01256894  0.22206357  1
  H  H9  1  0.50268946  0.22206357  0.01256894  1
  H  H10  1  0.22206357  0.50268946  0.01256894  1
  H  H11  1  0.01256894  0.50268946  0.22206357  1
  H  H12  1  0.01256894  0.22206357  0.50268946  1
  H  H13  1  0.22206357  0.01256894  0.50268946  1
  C  C14  1  0.75151727  0.75151727  0.75151727  1
  C  C15  1  0.24848273  0.24848273  0.24848273  1
  N  N16  1  0.56598304  0.84354278  0.84354278  1
  N  N17  1  0.84354278  0.56598304  0.84354278  1
  N  N18  1  0.84354278  0.84354278  0.56598304  1
  N  N19  1  0.43401696  0.15645722  0.15645722  1
  N  N20  1  0.15645722  0.43401696  0.15645722  1
  N  N21  1  0.15645722  0.15645722  0.43401696  1
  F  F22  1  0.13465127  0.85586321  0.85586321  1
  F  F23  1  0.85586321  0.13465127  0.85586321  1
  F  F24  1  0.85586321  0.85586321  0.13465127  1
  F  F25  1  0.86534873  0.14413679  0.14413679  1
  F  F26  1  0.14413679  0.86534873  0.14413679  1
  F  F27  1  0.14413679  0.14413679  0.86534873  1
  F  F28  1  0.73696043  0.45816430  0.45816430  1
  F  F29  1  0.45816430  0.73696043  0.45816430  1
  F  F30  1  0.45816430  0.45816430  0.73696043  1
  F  F31  1  0.26303957  0.54183570  0.54183570  1
  F  F32  1  0.54183570  0.26303957  0.54183570  1
  F  F33  1  0.54183570  0.54183570  0.26303957  1
