# generated using pymatgen
data_CaTlBr3
_symmetry_space_group_name_H-M   'P 1'
_cell_length_a   4.31992725
_cell_length_b   7.57100919
_cell_length_c   10.92747471
_cell_angle_alpha   90.00000000
_cell_angle_beta   90.00000000
_cell_angle_gamma   106.57642415
_symmetry_Int_Tables_number   1
_chemical_formula_structural   CaTlBr3
_chemical_formula_sum   'Ca2 Tl2 Br6'
_cell_volume   342.54289880
_cell_formula_units_Z   2
loop_
 _symmetry_equiv_pos_site_id
 _symmetry_equiv_pos_as_xyz
  1  'x, y, z'
loop_
 _atom_site_type_symbol
 _atom_site_label
 _atom_site_symmetry_multiplicity
 _atom_site_fract_x
 _atom_site_fract_y
 _atom_site_fract_z
 _atom_site_occupancy
  Ca  Ca0  1  0.00000000  0.00000000  0.00000000  1
  Ca  Ca1  1  0.00000000  0.00000000  0.50000000  1
  Tl  Tl2  1  0.74562522  0.49125044  0.25000000  1
  Tl  Tl3  1  0.25437478  0.50874956  0.75000000  1
  Br  Br4  1  0.36876183  0.73752366  0.05156280  1
  Br  Br5  1  0.63123817  0.26247634  0.94843720  1
  Br  Br6  1  0.63123817  0.26247634  0.55156280  1
  Br  Br7  1  0.36876183  0.73752366  0.44843720  1
  Br  Br8  1  0.07168862  0.14337725  0.25000000  1
  Br  Br9  1  0.92831138  0.85662275  0.75000000  1
