# generated using pymatgen
data_YSiRu2C
_symmetry_space_group_name_H-M   'P 1'
_cell_length_a   3.81438872
_cell_length_b   5.87858012
_cell_length_c   7.16478489
_cell_angle_alpha   90.00000000
_cell_angle_beta   90.00000000
_cell_angle_gamma   108.93111344
_symmetry_Int_Tables_number   1
_chemical_formula_structural   YSiRu2C
_chemical_formula_sum   'Y2 Si2 Ru4 C2'
_cell_volume   151.96726664
_cell_formula_units_Z   2
loop_
 _symmetry_equiv_pos_site_id
 _symmetry_equiv_pos_as_xyz
  1  'x, y, z'
loop_
 _atom_site_type_symbol
 _atom_site_label
 _atom_site_symmetry_multiplicity
 _atom_site_fract_x
 _atom_site_fract_y
 _atom_site_fract_z
 _atom_site_occupancy
  Y  Y0  1  0.45376691  0.90753382  0.25000000  1
  Y  Y1  1  0.54623309  0.09246618  0.75000000  1
  Si  Si2  1  0.73210725  0.46421449  0.25000000  1
  Si  Si3  1  0.26789275  0.53578551  0.75000000  1
  Ru  Ru4  1  0.16404699  0.32809399  0.05703681  1
  Ru  Ru5  1  0.83595301  0.67190601  0.94296319  1
  Ru  Ru6  1  0.83595301  0.67190601  0.55703681  1
  Ru  Ru7  1  0.16404699  0.32809399  0.44296319  1
  C  C8  1  0.00000000  -0.00000000  0.00000000  1
  C  C9  1  0.00000000  -0.00000000  0.50000000  1
