# generated using pymatgen
data_Na3VH11IO13
_symmetry_space_group_name_H-M   'P 1'
_cell_length_a   6.30672409
_cell_length_b   9.03130604
_cell_length_c   11.45427052
_cell_angle_alpha   70.05336809
_cell_angle_beta   83.90163754
_cell_angle_gamma   80.69654866
_symmetry_Int_Tables_number   1
_chemical_formula_structural   Na3VH11IO13
_chemical_formula_sum   'Na6 V2 H22 I2 O26'
_cell_volume   604.28874522
_cell_formula_units_Z   2
loop_
 _symmetry_equiv_pos_site_id
 _symmetry_equiv_pos_as_xyz
  1  'x, y, z'
loop_
 _atom_site_type_symbol
 _atom_site_label
 _atom_site_symmetry_multiplicity
 _atom_site_fract_x
 _atom_site_fract_y
 _atom_site_fract_z
 _atom_site_occupancy
  Na  Na0  1  0.32576233  0.92706201  0.84028953  1
  Na  Na1  1  0.67423767  0.07293799  0.15971047  1
  Na  Na2  1  0.39868649  0.52475198  0.14742744  1
  Na  Na3  1  0.60131351  0.47524802  0.85257256  1
  Na  Na4  1  0.42185609  0.76811950  0.57366977  1
  Na  Na5  1  0.57814391  0.23188050  0.42633023  1
  V  V6  1  0.94818922  0.82385315  0.46206575  1
  V  V7  1  0.05181078  0.17614685  0.53793425  1
  H  H8  1  0.29359835  0.86520412  0.29652960  1
  H  H9  1  0.70640165  0.13479588  0.70347040  1
  H  H10  1  0.55441243  0.81561866  0.06452112  1
  H  H11  1  0.44558757  0.18438134  0.93547888  1
  H  H12  1  0.87634432  0.84092869  0.00607569  1
  H  H13  1  0.12365568  0.15907131  0.99392431  1
  H  H14  1  0.88592074  0.75135805  0.15001852  1
  H  H15  1  0.11407926  0.24864195  0.84998148  1
  H  H16  1  0.19105673  0.40889641  0.01074464  1
  H  H17  1  0.80894327  0.59110359  0.98925536  1
  H  H18  1  0.00524411  0.48165352  0.29241255  1
  H  H19  1  0.99475589  0.51834648  0.70758745  1
  H  H20  1  0.07371863  0.62856323  0.31975809  1
  H  H21  1  0.92628137  0.37143677  0.68024191  1
  H  H22  1  0.31465322  0.86417023  0.09528280  1
  H  H23  1  0.68534678  0.13582977  0.90471720  1
  H  H24  1  0.15162001  0.59030610  0.92509912  1
  H  H25  1  0.84837999  0.40969390  0.07490088  1
  H  H26  1  0.35478229  0.43433023  0.64575995  1
  H  H27  1  0.64521771  0.56566977  0.35424005  1
  H  H28  1  0.39887008  0.57693050  0.38154429  1
  H  H29  1  0.60112992  0.42306950  0.61845571  1
  I  I30  1  0.84935572  0.86183332  0.72125551  1
  I  I31  1  0.15064428  0.13816668  0.27874449  1
  O  O32  1  0.02533176  0.72353810  0.64120508  1
  O  O33  1  0.97466824  0.27646190  0.35879492  1
  O  O34  1  0.67326266  0.03444693  0.77246995  1
  O  O35  1  0.32673734  0.96555307  0.22753005  1
  O  O36  1  0.95952729  0.76160057  0.87675800  1
  O  O37  1  0.04047271  0.23839943  0.12324200  1
  O  O38  1  0.78488052  0.97949332  0.55032609  1
  O  O39  1  0.21511948  0.02050668  0.44967391  1
  O  O40  1  0.08618143  0.99209778  0.68382967  1
  O  O41  1  0.91381857  0.00790222  0.31617033  1
  O  O42  1  0.61108878  0.75816295  0.75300251  1
  O  O43  1  0.38891122  0.24183705  0.24699749  1
  O  O44  1  0.74739525  0.73352355  0.45042545  1
  O  O45  1  0.25260475  0.26647645  0.54957455  1
  O  O46  1  0.18071522  0.72443740  0.41317309  1
  O  O47  1  0.81928478  0.27556260  0.58682691  1
  O  O48  1  0.40648323  0.80242054  0.04926711  1
  O  O49  1  0.59351677  0.19757946  0.95073289  1
  O  O50  1  0.81330824  0.84777741  0.08732360  1
  O  O51  1  0.18669176  0.15222259  0.91267640  1
  O  O52  1  0.26412023  0.50216874  0.96480319  1
  O  O53  1  0.73587977  0.49783126  0.03519681  1
  O  O54  1  0.48015894  0.48006033  0.65508358  1
  O  O55  1  0.51984106  0.51993967  0.34491642  1
  O  O56  1  0.03911307  0.59209898  0.25229854  1
  O  O57  1  0.96088693  0.40790102  0.74770146  1
