# generated using pymatgen
data_NdSiOs2C
_symmetry_space_group_name_H-M   'P 1'
_cell_length_a   3.97704972
_cell_length_b   5.91668476
_cell_length_c   7.21446058
_cell_angle_alpha   90.00000000
_cell_angle_beta   90.00000000
_cell_angle_gamma   109.63868805
_symmetry_Int_Tables_number   1
_chemical_formula_structural   NdSiOs2C
_chemical_formula_sum   'Nd2 Si2 Os4 C2'
_cell_volume   159.88811127
_cell_formula_units_Z   2
loop_
 _symmetry_equiv_pos_site_id
 _symmetry_equiv_pos_as_xyz
  1  'x, y, z'
loop_
 _atom_site_type_symbol
 _atom_site_label
 _atom_site_symmetry_multiplicity
 _atom_site_fract_x
 _atom_site_fract_y
 _atom_site_fract_z
 _atom_site_occupancy
  Nd  Nd0  1  0.45101182  0.90202364  0.25000000  1
  Nd  Nd1  1  0.54898818  0.09797636  0.75000000  1
  Si  Si2  1  0.72950046  0.45900092  0.25000000  1
  Si  Si3  1  0.27049954  0.54099908  0.75000000  1
  Os  Os4  1  0.16591129  0.33182258  0.05987501  1
  Os  Os5  1  0.83408871  0.66817742  0.94012499  1
  Os  Os6  1  0.83408871  0.66817742  0.55987501  1
  Os  Os7  1  0.16591129  0.33182258  0.44012499  1
  C  C8  1  -0.00000000  -0.00000000  0.00000000  1
  C  C9  1  -0.00000000  -0.00000000  0.50000000  1
