# generated using pymatgen
data_Rb2P2Pd
_symmetry_space_group_name_H-M   'P 1'
_cell_length_a   6.15183761
_cell_length_b   6.65652600
_cell_length_c   8.01874480
_cell_angle_alpha   114.52311689
_cell_angle_beta   90.00000000
_cell_angle_gamma   90.00000000
_symmetry_Int_Tables_number   1
_chemical_formula_structural   Rb2P2Pd
_chemical_formula_sum   'Rb4 P4 Pd2'
_cell_volume   298.74586281
_cell_formula_units_Z   2
loop_
 _symmetry_equiv_pos_site_id
 _symmetry_equiv_pos_as_xyz
  1  'x, y, z'
loop_
 _atom_site_type_symbol
 _atom_site_label
 _atom_site_symmetry_multiplicity
 _atom_site_fract_x
 _atom_site_fract_y
 _atom_site_fract_z
 _atom_site_occupancy
  Rb  Rb0  1  0.25000000  0.21415158  0.42830315  1
  Rb  Rb1  1  0.75000000  0.78584842  0.57169685  1
  Rb  Rb2  1  0.25000000  0.57917321  0.15834643  1
  Rb  Rb3  1  0.75000000  0.42082679  0.84165357  1
  P  P4  1  0.25000000  0.73128074  0.78939417  1
  P  P5  1  0.75000000  0.26871926  0.21060583  1
  P  P6  1  0.25000000  0.05811342  0.78939417  1
  P  P7  1  0.75000000  0.94188658  0.21060583  1
  Pd  Pd8  1  0.00000000  0.00000000  0.00000000  1
  Pd  Pd9  1  0.50000000  0.00000000  0.00000000  1
