# generated using pymatgen
data_Tm2CdCu2
_symmetry_space_group_name_H-M   'P 1'
_cell_length_a   3.58778574
_cell_length_b   7.49834464
_cell_length_c   7.49834464
_cell_angle_alpha   90.00000000
_cell_angle_beta   90.00000000
_cell_angle_gamma   90.00000000
_symmetry_Int_Tables_number   1
_chemical_formula_structural   Tm2CdCu2
_chemical_formula_sum   'Tm4 Cd2 Cu4'
_cell_volume   201.72387155
_cell_formula_units_Z   2
loop_
 _symmetry_equiv_pos_site_id
 _symmetry_equiv_pos_as_xyz
  1  'x, y, z'
loop_
 _atom_site_type_symbol
 _atom_site_label
 _atom_site_symmetry_multiplicity
 _atom_site_fract_x
 _atom_site_fract_y
 _atom_site_fract_z
 _atom_site_occupancy
  Tm  Tm0  1  0.50000000  0.17576192  0.67576192  1
  Tm  Tm1  1  0.50000000  0.82423808  0.32423808  1
  Tm  Tm2  1  0.50000000  0.32423808  0.17576192  1
  Tm  Tm3  1  0.50000000  0.67576192  0.82423808  1
  Cd  Cd4  1  -0.00000000  0.00000000  -0.00000000  1
  Cd  Cd5  1  -0.00000000  0.50000000  0.50000000  1
  Cu  Cu6  1  -0.00000000  0.61746488  0.11746488  1
  Cu  Cu7  1  0.00000000  0.38253512  0.88253512  1
  Cu  Cu8  1  0.00000000  0.88253512  0.61746488  1
  Cu  Cu9  1  -0.00000000  0.11746488  0.38253512  1
