# generated using pymatgen
data_Tb2Cl3
_symmetry_space_group_name_H-M   'P 1'
_cell_length_a   3.88850910
_cell_length_b   8.09090157
_cell_length_c   9.65404199
_cell_angle_alpha   70.80635223
_cell_angle_beta   78.38157895
_cell_angle_gamma   76.09566946
_symmetry_Int_Tables_number   1
_chemical_formula_structural   Tb2Cl3
_chemical_formula_sum   'Tb4 Cl6'
_cell_volume   275.94976466
_cell_formula_units_Z   2
loop_
 _symmetry_equiv_pos_site_id
 _symmetry_equiv_pos_as_xyz
  1  'x, y, z'
loop_
 _atom_site_type_symbol
 _atom_site_label
 _atom_site_symmetry_multiplicity
 _atom_site_fract_x
 _atom_site_fract_y
 _atom_site_fract_z
 _atom_site_occupancy
  Tb  Tb0  1  0.91404387  0.72148900  0.45042327  1
  Tb  Tb1  1  0.08595613  0.27851100  0.54957673  1
  Tb  Tb2  1  0.63778526  0.51537402  0.20905547  1
  Tb  Tb3  1  0.36221474  0.48462598  0.79094453  1
  Cl  Cl4  1  0.83907445  0.31445673  0.00739438  1
  Cl  Cl5  1  0.16092555  0.68554327  0.99260562  1
  Cl  Cl6  1  0.72453131  0.16801724  0.38292014  1
  Cl  Cl7  1  0.27546869  0.83198276  0.61707986  1
  Cl  Cl8  1  0.45550977  0.85147282  0.23750763  1
  Cl  Cl9  1  0.54449023  0.14852718  0.76249237  1
