# generated using pymatgen
data_LuMgGa
_symmetry_space_group_name_H-M   'P 1'
_cell_length_a   4.35952495
_cell_length_b   7.17630182
_cell_length_c   7.17630182
_cell_angle_alpha   119.99999227
_cell_angle_beta   90.00000000
_cell_angle_gamma   90.00000000
_symmetry_Int_Tables_number   1
_chemical_formula_structural   LuMgGa
_chemical_formula_sum   'Lu3 Mg3 Ga3'
_cell_volume   194.43355867
_cell_formula_units_Z   3
loop_
 _symmetry_equiv_pos_site_id
 _symmetry_equiv_pos_as_xyz
  1  'x, y, z'
loop_
 _atom_site_type_symbol
 _atom_site_label
 _atom_site_symmetry_multiplicity
 _atom_site_fract_x
 _atom_site_fract_y
 _atom_site_fract_z
 _atom_site_occupancy
  Lu  Lu0  1  0.00000000  0.42342611  0.42342611  1
  Lu  Lu1  1  -0.00000000  0.00000000  0.57657389  1
  Lu  Lu2  1  0.00000000  0.57657389  0.00000000  1
  Mg  Mg3  1  0.50000000  0.75413402  0.75413402  1
  Mg  Mg4  1  0.50000000  0.00000000  0.24586598  1
  Mg  Mg5  1  0.50000000  0.24586598  0.00000000  1
  Ga  Ga6  1  0.50000000  0.66666700  0.33333300  1
  Ga  Ga7  1  0.50000000  0.33333300  0.66666700  1
  Ga  Ga8  1  0.00000000  0.00000000  0.00000000  1
