# generated using pymatgen
data_Er7(TePt)2
_symmetry_space_group_name_H-M   'P 1'
_cell_length_a   3.94430177
_cell_length_b   9.34871482
_cell_length_c   9.34871482
_cell_angle_alpha   61.73848597
_cell_angle_beta   77.82172471
_cell_angle_gamma   77.82172471
_symmetry_Int_Tables_number   1
_chemical_formula_structural   Er7(TePt)2
_chemical_formula_sum   'Er7 Te2 Pt2'
_cell_volume   294.32012075
_cell_formula_units_Z   1
loop_
 _symmetry_equiv_pos_site_id
 _symmetry_equiv_pos_as_xyz
  1  'x, y, z'
loop_
 _atom_site_type_symbol
 _atom_site_label
 _atom_site_symmetry_multiplicity
 _atom_site_fract_x
 _atom_site_fract_y
 _atom_site_fract_z
 _atom_site_occupancy
  Er  Er0  1  0.13075974  0.45371632  0.28476420  1
  Er  Er1  1  0.86924026  0.71523580  0.54628368  1
  Er  Er2  1  0.31591672  0.06140081  0.30676576  1
  Er  Er3  1  0.68408328  0.69323424  0.93859919  1
  Er  Er4  1  0.35561337  0.37651681  0.91225644  1
  Er  Er5  1  0.64438663  0.08774356  0.62348319  1
  Er  Er6  1  0.00000000  0.99997041  0.00002959  1
  Te  Te7  1  0.50000000  0.73709264  0.26290736  1
  Te  Te8  1  0.00000000  0.33753506  0.66246494  1
  Pt  Pt9  1  0.23774008  0.83560709  0.68891274  1
  Pt  Pt10  1  0.76225992  0.31108726  0.16439291  1
