# generated using pymatgen
data_HoMgPd
_symmetry_space_group_name_H-M   'P 1'
_cell_length_a   4.00799174
_cell_length_b   7.50699229
_cell_length_c   7.50699229
_cell_angle_alpha   119.99999447
_cell_angle_beta   90.00000000
_cell_angle_gamma   90.00000000
_symmetry_Int_Tables_number   1
_chemical_formula_structural   HoMgPd
_chemical_formula_sum   'Ho3 Mg3 Pd3'
_cell_volume   195.60926159
_cell_formula_units_Z   3
loop_
 _symmetry_equiv_pos_site_id
 _symmetry_equiv_pos_as_xyz
  1  'x, y, z'
loop_
 _atom_site_type_symbol
 _atom_site_label
 _atom_site_symmetry_multiplicity
 _atom_site_fract_x
 _atom_site_fract_y
 _atom_site_fract_z
 _atom_site_occupancy
  Ho  Ho0  1  -0.00000000  0.41057536  0.41057536  1
  Ho  Ho1  1  0.00000000  0.00000000  0.58942464  1
  Ho  Ho2  1  -0.00000000  0.58942464  0.00000000  1
  Mg  Mg3  1  0.50000000  0.75193774  0.75193774  1
  Mg  Mg4  1  0.50000000  0.00000000  0.24806226  1
  Mg  Mg5  1  0.50000000  0.24806226  0.00000000  1
  Pd  Pd6  1  0.50000000  0.66666700  0.33333300  1
  Pd  Pd7  1  0.50000000  0.33333300  0.66666700  1
  Pd  Pd8  1  -0.00000000  0.00000000  0.00000000  1
