# generated using pymatgen
data_Y6MnBi2
_symmetry_space_group_name_H-M   'P 1'
_cell_length_a   4.31746153
_cell_length_b   8.32569136
_cell_length_c   8.32569136
_cell_angle_alpha   120.00000110
_cell_angle_beta   90.00000000
_cell_angle_gamma   90.00000000
_symmetry_Int_Tables_number   1
_chemical_formula_structural   Y6MnBi2
_chemical_formula_sum   'Y6 Mn1 Bi2'
_cell_volume   259.17894496
_cell_formula_units_Z   1
loop_
 _symmetry_equiv_pos_site_id
 _symmetry_equiv_pos_as_xyz
  1  'x, y, z'
loop_
 _atom_site_type_symbol
 _atom_site_label
 _atom_site_symmetry_multiplicity
 _atom_site_fract_x
 _atom_site_fract_y
 _atom_site_fract_z
 _atom_site_occupancy
  Y  Y0  1  0.50000000  0.76604067  0.76604067  1
  Y  Y1  1  0.50000000  1.00000000  0.23395933  1
  Y  Y2  1  0.50000000  0.23395933  1.00000000  1
  Y  Y3  1  0.00000000  0.39607900  0.39607900  1
  Y  Y4  1  -0.00000000  0.00000000  0.60392100  1
  Y  Y5  1  0.00000000  0.60392100  0.00000000  1
  Mn  Mn6  1  0.00000000  0.00000000  0.00000000  1
  Bi  Bi7  1  0.50000000  0.66666700  0.33333300  1
  Bi  Bi8  1  0.50000000  0.33333300  0.66666700  1
