# generated using pymatgen
data_Lu2MgCu2
_symmetry_space_group_name_H-M   'P 1'
_cell_length_a   3.55252206
_cell_length_b   7.60255300
_cell_length_c   7.60255300
_cell_angle_alpha   90.00000000
_cell_angle_beta   90.00000000
_cell_angle_gamma   90.00000000
_symmetry_Int_Tables_number   1
_chemical_formula_structural   Lu2MgCu2
_chemical_formula_sum   'Lu4 Mg2 Cu4'
_cell_volume   205.33155509
_cell_formula_units_Z   2
loop_
 _symmetry_equiv_pos_site_id
 _symmetry_equiv_pos_as_xyz
  1  'x, y, z'
loop_
 _atom_site_type_symbol
 _atom_site_label
 _atom_site_symmetry_multiplicity
 _atom_site_fract_x
 _atom_site_fract_y
 _atom_site_fract_z
 _atom_site_occupancy
  Lu  Lu0  1  0.50000000  0.17697412  0.67697412  1
  Lu  Lu1  1  0.50000000  0.82302588  0.32302588  1
  Lu  Lu2  1  0.50000000  0.32302588  0.17697412  1
  Lu  Lu3  1  0.50000000  0.67697412  0.82302588  1
  Mg  Mg4  1  0.00000000  -0.00000000  0.00000000  1
  Mg  Mg5  1  0.00000000  0.50000000  0.50000000  1
  Cu  Cu6  1  -0.00000000  0.61797191  0.11797191  1
  Cu  Cu7  1  0.00000000  0.38202809  0.88202809  1
  Cu  Cu8  1  0.00000000  0.88202809  0.61797191  1
  Cu  Cu9  1  -0.00000000  0.11797191  0.38202809  1
