# generated using pymatgen
data_Zr4ZnAg
_symmetry_space_group_name_H-M   'P 1'
_cell_length_a   8.95639622
_cell_length_b   8.95639622
_cell_length_c   8.95639622
_cell_angle_alpha   60.00000000
_cell_angle_beta   120.00000000
_cell_angle_gamma   120.00000000
_symmetry_Int_Tables_number   1
_chemical_formula_structural   Zr4ZnAg
_chemical_formula_sum   'Zr16 Zn4 Ag4'
_cell_volume   508.02477911
_cell_formula_units_Z   4
loop_
 _symmetry_equiv_pos_site_id
 _symmetry_equiv_pos_as_xyz
  1  'x, y, z'
loop_
 _atom_site_type_symbol
 _atom_site_label
 _atom_site_symmetry_multiplicity
 _atom_site_fract_x
 _atom_site_fract_y
 _atom_site_fract_z
 _atom_site_occupancy
  Zr  Zr0  1  0.50496080  0.51488241  0.99503920  1
  Zr  Zr1  1  0.50496080  0.99503920  0.99503920  1
  Zr  Zr2  1  0.50496080  0.99503920  0.51488241  1
  Zr  Zr3  1  0.98511759  0.99503920  0.99503920  1
  Zr  Zr4  1  0.06135470  0.81135470  0.43864530  1
  Zr  Zr5  1  0.68864530  0.43864530  0.81135470  1
  Zr  Zr6  1  0.06135470  0.81135470  0.81135470  1
  Zr  Zr7  1  0.68864530  0.43864530  0.43864530  1
  Zr  Zr8  1  0.06135470  0.43864530  0.81135470  1
  Zr  Zr9  1  0.68864530  0.81135470  0.43864530  1
  Zr  Zr10  1  0.93676438  0.18676438  0.56323562  1
  Zr  Zr11  1  0.31323562  0.56323562  0.18676438  1
  Zr  Zr12  1  0.93676438  0.18676438  0.18676438  1
  Zr  Zr13  1  0.31323562  0.56323562  0.56323562  1
  Zr  Zr14  1  0.93676438  0.56323562  0.18676438  1
  Zr  Zr15  1  0.31323562  0.18676438  0.56323562  1
  Zn  Zn16  1  0.71841933  0.15525798  0.78158067  1
  Zn  Zn17  1  0.71841933  0.78158067  0.78158067  1
  Zn  Zn18  1  0.71841933  0.78158067  0.15525798  1
  Zn  Zn19  1  0.34474202  0.78158067  0.78158067  1
  Ag  Ag20  1  0.29126415  0.87379245  0.20873585  1
  Ag  Ag21  1  0.29126415  0.20873585  0.20873585  1
  Ag  Ag22  1  0.29126415  0.20873585  0.87379245  1
  Ag  Ag23  1  0.62620755  0.20873585  0.20873585  1
