# generated using pymatgen
data_HoMgAg
_symmetry_space_group_name_H-M   'P 1'
_cell_length_a   4.09652013
_cell_length_b   7.74096031
_cell_length_c   7.74096031
_cell_angle_alpha   120.00000008
_cell_angle_beta   90.00000000
_cell_angle_gamma   90.00000000
_symmetry_Int_Tables_number   1
_chemical_formula_structural   HoMgAg
_chemical_formula_sum   'Ho3 Mg3 Ag3'
_cell_volume   212.58636498
_cell_formula_units_Z   3
loop_
 _symmetry_equiv_pos_site_id
 _symmetry_equiv_pos_as_xyz
  1  'x, y, z'
loop_
 _atom_site_type_symbol
 _atom_site_label
 _atom_site_symmetry_multiplicity
 _atom_site_fract_x
 _atom_site_fract_y
 _atom_site_fract_z
 _atom_site_occupancy
  Ho  Ho0  1  -0.00000000  0.41044357  0.41044357  1
  Ho  Ho1  1  -0.00000000  1.00000000  0.58955643  1
  Ho  Ho2  1  0.00000000  0.58955643  1.00000000  1
  Mg  Mg3  1  0.50000000  0.75147360  0.75147360  1
  Mg  Mg4  1  0.50000000  1.00000000  0.24852640  1
  Mg  Mg5  1  0.50000000  0.24852640  1.00000000  1
  Ag  Ag6  1  0.50000000  0.66666700  0.33333300  1
  Ag  Ag7  1  0.50000000  0.33333300  0.66666700  1
  Ag  Ag8  1  0.00000000  -0.00000000  -0.00000000  1
