# generated using pymatgen
data_ScIn2
_symmetry_space_group_name_H-M   'P 1'
_cell_length_a   4.52639279
_cell_length_b   4.49115641
_cell_length_c   7.19202081
_cell_angle_alpha   90.00000000
_cell_angle_beta   108.34159153
_cell_angle_gamma   90.00000000
_symmetry_Int_Tables_number   1
_chemical_formula_structural   ScIn2
_chemical_formula_sum   'Sc2 In4'
_cell_volume   138.77711254
_cell_formula_units_Z   2
loop_
 _symmetry_equiv_pos_site_id
 _symmetry_equiv_pos_as_xyz
  1  'x, y, z'
loop_
 _atom_site_type_symbol
 _atom_site_label
 _atom_site_symmetry_multiplicity
 _atom_site_fract_x
 _atom_site_fract_y
 _atom_site_fract_z
 _atom_site_occupancy
  Sc  Sc0  1  0.84432624  0.50000000  0.68865248  1
  Sc  Sc1  1  0.15567376  0.50000000  0.31134752  1
  In  In2  1  0.67576491  -0.00000000  0.35152982  1
  In  In3  1  0.32423509  0.00000000  0.64847018  1
  In  In4  1  0.50000000  0.50000000  0.00000000  1
  In  In5  1  0.00000000  -0.00000000  0.00000000  1
