# generated using pymatgen
data_Cs3IO
_symmetry_space_group_name_H-M   'P 1'
_cell_length_a   7.34018027
_cell_length_b   8.32221217
_cell_length_c   8.32221217
_cell_angle_alpha   120.00000768
_cell_angle_beta   90.00000000
_cell_angle_gamma   90.00000000
_symmetry_Int_Tables_number   1
_chemical_formula_structural   Cs3IO
_chemical_formula_sum   'Cs6 I2 O2'
_cell_volume   440.26573962
_cell_formula_units_Z   2
loop_
 _symmetry_equiv_pos_site_id
 _symmetry_equiv_pos_as_xyz
  1  'x, y, z'
loop_
 _atom_site_type_symbol
 _atom_site_label
 _atom_site_symmetry_multiplicity
 _atom_site_fract_x
 _atom_site_fract_y
 _atom_site_fract_z
 _atom_site_occupancy
  Cs  Cs0  1  0.75000000  0.84806789  0.15193211  1
  Cs  Cs1  1  0.25000000  0.15193211  0.84806789  1
  Cs  Cs2  1  0.75000000  0.30386421  0.15193211  1
  Cs  Cs3  1  0.25000000  0.69613579  0.84806789  1
  Cs  Cs4  1  0.75000000  0.84806789  0.69613579  1
  Cs  Cs5  1  0.25000000  0.15193211  0.30386421  1
  I  I6  1  0.25000000  0.66666700  0.33333300  1
  I  I7  1  0.75000000  0.33333300  0.66666700  1
  O  O8  1  0.00000000  -0.00000000  -0.00000000  1
  O  O9  1  0.50000000  -0.00000000  -0.00000000  1
