# generated using pymatgen
data_TbAlGe
_symmetry_space_group_name_H-M   'P 1'
_cell_length_a   4.09360143
_cell_length_b   5.63323196
_cell_length_c   5.78324812
_cell_angle_alpha   90.00000000
_cell_angle_beta   90.00000000
_cell_angle_gamma   111.30569590
_symmetry_Int_Tables_number   1
_chemical_formula_structural   TbAlGe
_chemical_formula_sum   'Tb2 Al2 Ge2'
_cell_volume   124.24822302
_cell_formula_units_Z   2
loop_
 _symmetry_equiv_pos_site_id
 _symmetry_equiv_pos_as_xyz
  1  'x, y, z'
loop_
 _atom_site_type_symbol
 _atom_site_label
 _atom_site_symmetry_multiplicity
 _atom_site_fract_x
 _atom_site_fract_y
 _atom_site_fract_z
 _atom_site_occupancy
  Tb  Tb0  1  0.31029473  0.62058947  0.25000000  1
  Tb  Tb1  1  0.68970527  0.37941053  0.75000000  1
  Al  Al2  1  0.00000000  0.00000000  -0.00000000  1
  Al  Al3  1  0.00000000  0.00000000  0.50000000  1
  Ge  Ge4  1  0.60574880  0.21149761  0.25000000  1
  Ge  Ge5  1  0.39425120  0.78850239  0.75000000  1
