# generated using pymatgen
data_ZnCu2Au
_symmetry_space_group_name_H-M   'P 1'
_cell_length_a   2.79686616
_cell_length_b   2.79686616
_cell_length_c   8.66477272
_cell_angle_alpha   80.71224368
_cell_angle_beta   99.28775632
_cell_angle_gamma   120.00000000
_symmetry_Int_Tables_number   1
_chemical_formula_structural   ZnCu2Au
_chemical_formula_sum   'Zn1 Cu2 Au1'
_cell_volume   57.67074044
_cell_formula_units_Z   1
loop_
 _symmetry_equiv_pos_site_id
 _symmetry_equiv_pos_as_xyz
  1  'x, y, z'
loop_
 _atom_site_type_symbol
 _atom_site_label
 _atom_site_symmetry_multiplicity
 _atom_site_fract_x
 _atom_site_fract_y
 _atom_site_fract_z
 _atom_site_occupancy
  Zn  Zn0  1  0.75604483  0.24395517  0.26813450  1
  Cu  Cu1  1  0.50127229  0.49872771  0.50381686  1
  Cu  Cu2  1  0.24416049  0.75583951  0.73248146  1
  Au  Au3  1  0.99852239  0.00147761  0.99556718  1
