# generated using pymatgen
data_Nd2GaNi2
_symmetry_space_group_name_H-M   'P 1'
_cell_length_a   4.25481837
_cell_length_b   5.51019020
_cell_length_c   5.51019020
_cell_angle_alpha   60.66609915
_cell_angle_beta   67.28879674
_cell_angle_gamma   67.28879674
_symmetry_Int_Tables_number   1
_chemical_formula_structural   Nd2GaNi2
_chemical_formula_sum   'Nd2 Ga1 Ni2'
_cell_volume   100.72547443
_cell_formula_units_Z   1
loop_
 _symmetry_equiv_pos_site_id
 _symmetry_equiv_pos_as_xyz
  1  'x, y, z'
loop_
 _atom_site_type_symbol
 _atom_site_label
 _atom_site_symmetry_multiplicity
 _atom_site_fract_x
 _atom_site_fract_y
 _atom_site_fract_z
 _atom_site_occupancy
  Nd  Nd0  1  0.20662046  0.29337954  0.29337954  1
  Nd  Nd1  1  0.79337954  0.70662046  0.70662046  1
  Ga  Ga2  1  0.00000000  0.00000000  0.00000000  1
  Ni  Ni3  1  0.50000000  0.27784447  0.72215553  1
  Ni  Ni4  1  0.50000000  0.72215553  0.27784447  1
