# generated using pymatgen
data_LaCoSi2
_symmetry_space_group_name_H-M   'P 1'
_cell_length_a   4.12264829
_cell_length_b   4.23854690
_cell_length_c   8.53773351
_cell_angle_alpha   104.37246390
_cell_angle_beta   90.00000000
_cell_angle_gamma   90.00000000
_symmetry_Int_Tables_number   1
_chemical_formula_structural   LaCoSi2
_chemical_formula_sum   'La2 Co2 Si4'
_cell_volume   144.51945837
_cell_formula_units_Z   2
loop_
 _symmetry_equiv_pos_site_id
 _symmetry_equiv_pos_as_xyz
  1  'x, y, z'
loop_
 _atom_site_type_symbol
 _atom_site_label
 _atom_site_symmetry_multiplicity
 _atom_site_fract_x
 _atom_site_fract_y
 _atom_site_fract_z
 _atom_site_occupancy
  La  La0  1  0.25000000  0.39285483  0.78570967  1
  La  La1  1  0.75000000  0.60714517  0.21429033  1
  Co  Co2  1  0.25000000  0.18249788  0.36499576  1
  Co  Co3  1  0.75000000  0.81750212  0.63500424  1
  Si  Si4  1  0.25000000  0.04379421  0.08758842  1
  Si  Si5  1  0.75000000  0.95620579  0.91241158  1
  Si  Si6  1  0.25000000  0.75020300  0.50040600  1
  Si  Si7  1  0.75000000  0.24979700  0.49959400  1
