# generated using pymatgen
data_RhI3
_symmetry_space_group_name_H-M   'P 1'
_cell_length_a   6.93037152
_cell_length_b   6.93037152
_cell_length_c   7.25070955
_cell_angle_alpha   99.21868326
_cell_angle_beta   99.21868326
_cell_angle_gamma   119.90730283
_symmetry_Int_Tables_number   1
_chemical_formula_structural   RhI3
_chemical_formula_sum   'Rh2 I6'
_cell_volume   286.00723156
_cell_formula_units_Z   2
loop_
 _symmetry_equiv_pos_site_id
 _symmetry_equiv_pos_as_xyz
  1  'x, y, z'
loop_
 _atom_site_type_symbol
 _atom_site_label
 _atom_site_symmetry_multiplicity
 _atom_site_fract_x
 _atom_site_fract_y
 _atom_site_fract_z
 _atom_site_occupancy
  Rh  Rh0  1  0.83327165  0.16672835  0.00000000  1
  Rh  Rh1  1  0.16672835  0.83327165  0.00000000  1
  I  I2  1  0.42623936  0.06888019  0.77944734  1
  I  I3  1  0.57376064  0.93111981  0.22055266  1
  I  I4  1  0.93111981  0.57376064  0.22055266  1
  I  I5  1  0.06888019  0.42623936  0.77944734  1
  I  I6  1  0.78239294  0.78239294  0.77921287  1
  I  I7  1  0.21760706  0.21760706  0.22078713  1
