# generated using pymatgen
data_BaYb2F8
_symmetry_space_group_name_H-M   'P 1'
_cell_length_a   4.23586092
_cell_length_b   6.39993289
_cell_length_c   6.39993289
_cell_angle_alpha   113.39062824
_cell_angle_beta   92.45755910
_cell_angle_gamma   92.45755910
_symmetry_Int_Tables_number   1
_chemical_formula_structural   BaYb2F8
_chemical_formula_sum   'Ba1 Yb2 F8'
_cell_volume   158.75286380
_cell_formula_units_Z   1
loop_
 _symmetry_equiv_pos_site_id
 _symmetry_equiv_pos_as_xyz
  1  'x, y, z'
loop_
 _atom_site_type_symbol
 _atom_site_label
 _atom_site_symmetry_multiplicity
 _atom_site_fract_x
 _atom_site_fract_y
 _atom_site_fract_z
 _atom_site_occupancy
  Ba  Ba0  1  0.00000000  0.00000000  0.00000000  1
  Yb  Yb1  1  0.50000000  0.68570856  0.31429144  1
  Yb  Yb2  1  0.50000000  0.31429144  0.68570856  1
  F  F3  1  0.45893303  0.67714794  0.93931529  1
  F  F4  1  0.54106697  0.32285206  0.06068471  1
  F  F5  1  0.54106697  0.06068471  0.32285206  1
  F  F6  1  0.45893303  0.93931529  0.67714794  1
  F  F7  1  0.81198657  0.58060083  0.58060083  1
  F  F8  1  0.18801343  0.41939917  0.41939917  1
  F  F9  1  0.00000000  0.75043055  0.24956945  1
  F  F10  1  0.00000000  0.24956945  0.75043055  1
