# generated using pymatgen
data_TbFeSi2
_symmetry_space_group_name_H-M   'P 1'
_cell_length_a   3.95061484
_cell_length_b   4.28490203
_cell_length_c   7.95105286
_cell_angle_alpha   103.09375452
_cell_angle_beta   90.00000000
_cell_angle_gamma   90.00000000
_symmetry_Int_Tables_number   1
_chemical_formula_structural   TbFeSi2
_chemical_formula_sum   'Tb2 Fe2 Si4'
_cell_volume   131.09601273
_cell_formula_units_Z   2
loop_
 _symmetry_equiv_pos_site_id
 _symmetry_equiv_pos_as_xyz
  1  'x, y, z'
loop_
 _atom_site_type_symbol
 _atom_site_label
 _atom_site_symmetry_multiplicity
 _atom_site_fract_x
 _atom_site_fract_y
 _atom_site_fract_z
 _atom_site_occupancy
  Tb  Tb0  1  0.75000000  0.59582618  0.20514415  1
  Tb  Tb1  1  0.25000000  0.40417382  0.79485585  1
  Fe  Fe2  1  0.75000000  0.88287517  0.60897590  1
  Fe  Fe3  1  0.25000000  0.11712483  0.39102410  1
  Si  Si4  1  0.75000000  0.95977730  0.90230469  1
  Si  Si5  1  0.25000000  0.04022270  0.09769531  1
  Si  Si6  1  0.75000000  0.32936916  0.50753110  1
  Si  Si7  1  0.25000000  0.67063084  0.49246890  1
