# generated using pymatgen
data_Yb3SbO7
_symmetry_space_group_name_H-M   'P 1'
_cell_length_a   6.30825621
_cell_length_b   6.30825621
_cell_length_c   7.84138113
_cell_angle_alpha   90.00000000
_cell_angle_beta   90.00000000
_cell_angle_gamma   107.81333065
_symmetry_Int_Tables_number   1
_chemical_formula_structural   Yb3SbO7
_chemical_formula_sum   'Yb6 Sb2 O14'
_cell_volume   297.08089822
_cell_formula_units_Z   2
loop_
 _symmetry_equiv_pos_site_id
 _symmetry_equiv_pos_as_xyz
  1  'x, y, z'
loop_
 _atom_site_type_symbol
 _atom_site_label
 _atom_site_symmetry_multiplicity
 _atom_site_fract_x
 _atom_site_fract_y
 _atom_site_fract_z
 _atom_site_occupancy
  Yb  Yb0  1  0.53705097  0.99150228  0.75218962  1
  Yb  Yb1  1  0.46294903  0.00849772  0.25218962  1
  Yb  Yb2  1  0.00849772  0.46294903  0.74781038  1
  Yb  Yb3  1  0.99150228  0.53705097  0.24781038  1
  Yb  Yb4  1  0.51032038  0.51032038  0.00000000  1
  Yb  Yb5  1  0.48967962  0.48967962  0.50000000  1
  Sb  Sb6  1  0.99627607  0.99627607  0.00000000  1
  Sb  Sb7  1  0.00372393  0.00372393  0.50000000  1
  O  O8  1  0.62010915  0.37989085  0.75000000  1
  O  O9  1  0.37989085  0.62010915  0.25000000  1
  O  O10  1  0.93373591  0.06626409  0.75000000  1
  O  O11  1  0.06626409  0.93373591  0.25000000  1
  O  O12  1  0.32718194  0.08499888  0.97310563  1
  O  O13  1  0.67281806  0.91500112  0.47310563  1
  O  O14  1  0.91500112  0.67281806  0.52689437  1
  O  O15  1  0.08499888  0.32718194  0.02689437  1
  O  O16  1  0.38364714  0.61635286  0.75000000  1
  O  O17  1  0.61635286  0.38364714  0.25000000  1
  O  O18  1  0.32767070  0.06761294  0.53266841  1
  O  O19  1  0.67232930  0.93238706  0.03266841  1
  O  O20  1  0.93238706  0.67232930  0.96733159  1
  O  O21  1  0.06761294  0.32767070  0.46733159  1
