# generated using pymatgen
data_YGeRh2
_symmetry_space_group_name_H-M   'P 1'
_cell_length_a   5.60533632
_cell_length_b   5.60533632
_cell_length_c   15.62904181
_cell_angle_alpha   90.00000000
_cell_angle_beta   90.00000000
_cell_angle_gamma   119.99999909
_symmetry_Int_Tables_number   1
_chemical_formula_structural   YGeRh2
_chemical_formula_sum   'Y6 Ge6 Rh12'
_cell_volume   425.27155956
_cell_formula_units_Z   6
loop_
 _symmetry_equiv_pos_site_id
 _symmetry_equiv_pos_as_xyz
  1  'x, y, z'
loop_
 _atom_site_type_symbol
 _atom_site_label
 _atom_site_symmetry_multiplicity
 _atom_site_fract_x
 _atom_site_fract_y
 _atom_site_fract_z
 _atom_site_occupancy
  Y  Y0  1  0.66666700  0.33333300  0.46213047  1
  Y  Y1  1  0.33333300  0.66666700  0.53786953  1
  Y  Y2  1  0.33333300  0.66666700  0.96213047  1
  Y  Y3  1  0.66666700  0.33333300  0.03786953  1
  Y  Y4  1  0.66666700  0.33333300  0.25000000  1
  Y  Y5  1  0.33333300  0.66666700  0.75000000  1
  Ge  Ge6  1  -0.00000000  -0.00000000  0.75000000  1
  Ge  Ge7  1  -0.00000000  -0.00000000  0.25000000  1
  Ge  Ge8  1  0.66666700  0.33333300  0.75000000  1
  Ge  Ge9  1  0.33333300  0.66666700  0.25000000  1
  Ge  Ge10  1  -0.00000000  -0.00000000  -0.00000000  1
  Ge  Ge11  1  -0.00000000  -0.00000000  0.50000000  1
  Rh  Rh12  1  0.83209222  0.16790778  0.87223270  1
  Rh  Rh13  1  0.16790778  0.83209222  0.12776730  1
  Rh  Rh14  1  0.33581555  0.16790778  0.87223270  1
  Rh  Rh15  1  0.16790778  0.83209222  0.37223270  1
  Rh  Rh16  1  0.66418445  0.83209222  0.12776730  1
  Rh  Rh17  1  0.83209222  0.16790778  0.62776730  1
  Rh  Rh18  1  0.83209222  0.66418445  0.87223270  1
  Rh  Rh19  1  0.66418445  0.83209222  0.37223270  1
  Rh  Rh20  1  0.16790778  0.33581555  0.12776730  1
  Rh  Rh21  1  0.33581555  0.16790778  0.62776730  1
  Rh  Rh22  1  0.16790778  0.33581555  0.37223270  1
  Rh  Rh23  1  0.83209222  0.66418445  0.62776730  1
