# generated using pymatgen
data_Yb2Sn5Pd3
_symmetry_space_group_name_H-M   'P 1'
_cell_length_a   4.52183894
_cell_length_b   7.41532375
_cell_length_c   26.78728687
_cell_angle_alpha   90.00000000
_cell_angle_beta   90.00000000
_cell_angle_gamma   90.00000000
_symmetry_Int_Tables_number   1
_chemical_formula_structural   Yb2Sn5Pd3
_chemical_formula_sum   'Yb8 Sn20 Pd12'
_cell_volume   898.20182888
_cell_formula_units_Z   4
loop_
 _symmetry_equiv_pos_site_id
 _symmetry_equiv_pos_as_xyz
  1  'x, y, z'
loop_
 _atom_site_type_symbol
 _atom_site_label
 _atom_site_symmetry_multiplicity
 _atom_site_fract_x
 _atom_site_fract_y
 _atom_site_fract_z
 _atom_site_occupancy
  Yb  Yb0  1  0.75000000  0.78307542  0.27291080  1
  Yb  Yb1  1  0.25000000  0.21692458  0.72708920  1
  Yb  Yb2  1  0.25000000  0.71692458  0.77291080  1
  Yb  Yb3  1  0.75000000  0.28307542  0.22708920  1
  Yb  Yb4  1  0.75000000  0.75121757  0.57691409  1
  Yb  Yb5  1  0.25000000  0.24878243  0.42308591  1
  Yb  Yb6  1  0.25000000  0.74878243  0.07691409  1
  Yb  Yb7  1  0.75000000  0.25121757  0.92308591  1
  Sn  Sn8  1  0.75000000  0.96106022  0.45665471  1
  Sn  Sn9  1  0.25000000  0.03893978  0.54334529  1
  Sn  Sn10  1  0.25000000  0.53893978  0.95665471  1
  Sn  Sn11  1  0.75000000  0.46106022  0.04334529  1
  Sn  Sn12  1  0.75000000  0.53646474  0.45665680  1
  Sn  Sn13  1  0.25000000  0.46353526  0.54334320  1
  Sn  Sn14  1  0.25000000  0.96353526  0.95665680  1
  Sn  Sn15  1  0.75000000  0.03646474  0.04334320  1
  Sn  Sn16  1  0.75000000  0.88017408  0.70141563  1
  Sn  Sn17  1  0.25000000  0.11982592  0.29858437  1
  Sn  Sn18  1  0.25000000  0.61982592  0.20141563  1
  Sn  Sn19  1  0.75000000  0.38017408  0.79858437  1
  Sn  Sn20  1  0.75000000  0.71559649  0.86896346  1
  Sn  Sn21  1  0.25000000  0.28440351  0.13103654  1
  Sn  Sn22  1  0.25000000  0.78440351  0.36896346  1
  Sn  Sn23  1  0.75000000  0.21559649  0.63103654  1
  Sn  Sn24  1  0.75000000  0.90657946  0.15349462  1
  Sn  Sn25  1  0.25000000  0.09342054  0.84650538  1
  Sn  Sn26  1  0.25000000  0.59342054  0.65349462  1
  Sn  Sn27  1  0.75000000  0.40657946  0.34650538  1
  Pd  Pd28  1  0.75000000  0.75723205  0.97205869  1
  Pd  Pd29  1  0.25000000  0.24276795  0.02794131  1
  Pd  Pd30  1  0.25000000  0.74276795  0.47205869  1
  Pd  Pd31  1  0.75000000  0.25723205  0.52794131  1
  Pd  Pd32  1  0.75000000  0.53476982  0.14339427  1
  Pd  Pd33  1  0.25000000  0.46523018  0.85660573  1
  Pd  Pd34  1  0.25000000  0.96523018  0.64339427  1
  Pd  Pd35  1  0.75000000  0.03476982  0.35660573  1
  Pd  Pd36  1  0.75000000  0.99874769  0.79883670  1
  Pd  Pd37  1  0.25000000  0.00125231  0.20116330  1
  Pd  Pd38  1  0.25000000  0.50125231  0.29883670  1
  Pd  Pd39  1  0.75000000  0.49874769  0.70116330  1
