# generated using pymatgen
data_ZnH7C3NO6
_symmetry_space_group_name_H-M   'P 1'
_cell_length_a   7.35322560
_cell_length_b   7.46898830
_cell_length_c   8.26014214
_cell_angle_alpha   90.93434320
_cell_angle_beta   89.99999996
_cell_angle_gamma   119.48860531
_symmetry_Int_Tables_number   1
_chemical_formula_structural   ZnH7C3NO6
_chemical_formula_sum   'Zn2 H14 C6 N2 O12'
_cell_volume   394.81768741
_cell_formula_units_Z   2
loop_
 _symmetry_equiv_pos_site_id
 _symmetry_equiv_pos_as_xyz
  1  'x, y, z'
loop_
 _atom_site_type_symbol
 _atom_site_label
 _atom_site_symmetry_multiplicity
 _atom_site_fract_x
 _atom_site_fract_y
 _atom_site_fract_z
 _atom_site_occupancy
  Zn  Zn0  1  0.33523351  0.66742160  0.25055201  1
  Zn  Zn1  1  0.66781190  0.33257840  0.74944799  1
  H  H2  1  0.99952449  0.41567452  0.49655163  1
  H  H3  1  0.41522136  0.00000000  0.50000000  1
  H  H4  1  0.58384996  0.58432548  0.50344837  1
  H  H5  1  0.99873532  0.58469353  0.99904258  1
  H  H6  1  0.58204328  1.00000000  1.00000000  1
  H  H7  1  0.41404178  0.41530647  0.00095742  1
  H  H8  1  0.89454107  0.92903486  0.34677710  1
  H  H9  1  0.08273835  0.15282463  0.27205095  1
  H  H10  1  0.96550621  0.07096514  0.65322290  1
  H  H11  1  0.92991372  0.84717537  0.72794905  1
  H  H12  1  0.92767257  0.03774527  0.84624659  1
  H  H13  1  0.15491523  0.06799133  0.77354450  1
  H  H14  1  0.88992730  0.96225473  0.15375341  1
  H  H15  1  0.08692390  0.93200867  0.22645550  1
  C  C16  1  0.00228931  0.56496498  0.50166236  1
  C  C17  1  0.56572312  0.00000000  0.50000000  1
  C  C18  1  0.43732433  0.43503502  0.49833764  1
  C  C19  1  0.00080163  0.43774964  0.99979129  1
  C  C20  1  0.43164278  1.00000000  1.00000000  1
  C  C21  1  0.56305199  0.56225036  0.00020871  1
  N  N22  1  0.99183377  0.99579675  0.24992121  1
  N  N23  1  0.99603702  0.00420325  0.75007879  1
  O  O24  1  0.11484509  0.69994409  0.40024401  1
  O  O25  1  0.58892768  0.88242826  0.39961124  1
  O  O26  1  0.30242545  0.41049036  0.39086438  1
  O  O27  1  0.41490100  0.30005591  0.59975599  1
  O  O28  1  0.70649941  0.11757174  0.60038876  1
  O  O29  1  0.89193510  0.58950964  0.60913562  1
  O  O30  1  0.88545390  0.29805845  0.89755234  1
  O  O31  1  0.40607026  0.10789221  0.89441037  1
  O  O32  1  0.69985680  0.58274889  0.89769143  1
  O  O33  1  0.58739545  0.70194155  0.10244766  1
  O  O34  1  0.29817805  0.89210779  0.10558963  1
  O  O35  1  0.11710791  0.41725111  0.10230857  1
