# generated using pymatgen
data_YbHfF7
_symmetry_space_group_name_H-M   'P 1'
_cell_length_a   6.04214821
_cell_length_b   6.01591025
_cell_length_c   8.10564842
_cell_angle_alpha   99.71430076
_cell_angle_beta   90.00000000
_cell_angle_gamma   90.00000000
_symmetry_Int_Tables_number   1
_chemical_formula_structural   YbHfF7
_chemical_formula_sum   'Yb2 Hf2 F14'
_cell_volume   290.40776697
_cell_formula_units_Z   2
loop_
 _symmetry_equiv_pos_site_id
 _symmetry_equiv_pos_as_xyz
  1  'x, y, z'
loop_
 _atom_site_type_symbol
 _atom_site_label
 _atom_site_symmetry_multiplicity
 _atom_site_fract_x
 _atom_site_fract_y
 _atom_site_fract_z
 _atom_site_occupancy
  Yb  Yb0  1  0.70318609  0.68545969  0.70315207  1
  Yb  Yb1  1  0.20318609  0.31454031  0.29684793  1
  Hf  Hf2  1  0.70413336  0.82487387  0.23593072  1
  Hf  Hf3  1  0.20413336  0.17512613  0.76406928  1
  F  F4  1  0.94768894  0.49560723  0.49867254  1
  F  F5  1  0.44768894  0.50439277  0.50132746  1
  F  F6  1  0.42728993  0.93765703  0.77468165  1
  F  F7  1  0.92728993  0.06234297  0.22531835  1
  F  F8  1  0.95649456  0.96385989  0.77666516  1
  F  F9  1  0.45649456  0.03614011  0.22333484  1
  F  F10  1  0.97642124  0.43141078  0.75059836  1
  F  F11  1  0.47642124  0.56858922  0.24940164  1
  F  F12  1  0.70495762  0.72223566  0.98856147  1
  F  F13  1  0.20495762  0.27776434  0.01143853  1
  F  F14  1  0.70397118  0.88218208  0.48490923  1
  F  F15  1  0.20397118  0.11781792  0.51509077  1
  F  F16  1  0.45221708  0.41042675  0.75080740  1
  F  F17  1  0.95221708  0.58957325  0.24919260  1
