# generated using pymatgen
data_YSeClO3
_symmetry_space_group_name_H-M   'P 1'
_cell_length_a   7.01457300
_cell_length_b   7.33025071
_cell_length_c   8.90108384
_cell_angle_alpha   90.00000000
_cell_angle_beta   90.00000000
_cell_angle_gamma   90.00000000
_symmetry_Int_Tables_number   1
_chemical_formula_structural   YSeClO3
_chemical_formula_sum   'Y4 Se4 Cl4 O12'
_cell_volume   457.68108006
_cell_formula_units_Z   4
loop_
 _symmetry_equiv_pos_site_id
 _symmetry_equiv_pos_as_xyz
  1  'x, y, z'
loop_
 _atom_site_type_symbol
 _atom_site_label
 _atom_site_symmetry_multiplicity
 _atom_site_fract_x
 _atom_site_fract_y
 _atom_site_fract_z
 _atom_site_occupancy
  Y  Y0  1  0.75000000  0.60187640  0.46013756  1
  Y  Y1  1  0.25000000  0.39812360  0.53986244  1
  Y  Y2  1  0.25000000  0.89812360  0.96013756  1
  Y  Y3  1  0.75000000  0.10187640  0.03986244  1
  Se  Se4  1  0.75000000  0.70495862  0.86967998  1
  Se  Se5  1  0.25000000  0.29504138  0.13032002  1
  Se  Se6  1  0.25000000  0.79504138  0.36967998  1
  Se  Se7  1  0.75000000  0.20495862  0.63032002  1
  Cl  Cl8  1  0.75000000  0.93462458  0.31460744  1
  Cl  Cl9  1  0.25000000  0.06537542  0.68539256  1
  Cl  Cl10  1  0.25000000  0.56537542  0.81460744  1
  Cl  Cl11  1  0.75000000  0.43462458  0.18539256  1
  O  O12  1  0.92767730  0.85433389  0.93410206  1
  O  O13  1  0.07232270  0.14566611  0.06589794  1
  O  O14  1  0.07232270  0.64566611  0.43410206  1
  O  O15  1  0.42767730  0.14566611  0.06589794  1
  O  O16  1  0.92767730  0.35433389  0.56589794  1
  O  O17  1  0.57232270  0.85433389  0.93410206  1
  O  O18  1  0.57232270  0.35433389  0.56589794  1
  O  O19  1  0.42767730  0.64566611  0.43410206  1
  O  O20  1  0.75000000  0.74333774  0.68137822  1
  O  O21  1  0.25000000  0.25666226  0.31862178  1
  O  O22  1  0.25000000  0.75666226  0.18137822  1
  O  O23  1  0.75000000  0.24333774  0.81862178  1
