# generated using pymatgen
data_USnRh2
_symmetry_space_group_name_H-M   'P 1'
_cell_length_a   4.41803952
_cell_length_b   9.85251103
_cell_length_c   7.01680400
_cell_angle_alpha   90.00000000
_cell_angle_beta   90.00000000
_cell_angle_gamma   90.00000000
_symmetry_Int_Tables_number   1
_chemical_formula_structural   USnRh2
_chemical_formula_sum   'U4 Sn4 Rh8'
_cell_volume   305.43293938
_cell_formula_units_Z   4
loop_
 _symmetry_equiv_pos_site_id
 _symmetry_equiv_pos_as_xyz
  1  'x, y, z'
loop_
 _atom_site_type_symbol
 _atom_site_label
 _atom_site_symmetry_multiplicity
 _atom_site_fract_x
 _atom_site_fract_y
 _atom_site_fract_z
 _atom_site_occupancy
  U  U0  1  0.75000000  0.90131966  0.69146280  1
  U  U1  1  0.25000000  0.09868034  0.30853720  1
  U  U2  1  0.25000000  0.59868034  0.19146280  1
  U  U3  1  0.75000000  0.40131966  0.80853720  1
  Sn  Sn4  1  0.75000000  0.85988041  0.21194239  1
  Sn  Sn5  1  0.25000000  0.14011959  0.78805761  1
  Sn  Sn6  1  0.25000000  0.64011959  0.71194239  1
  Sn  Sn7  1  0.75000000  0.35988041  0.28805761  1
  Rh  Rh8  1  0.75000000  0.60948568  0.47302153  1
  Rh  Rh9  1  0.25000000  0.39051432  0.52697847  1
  Rh  Rh10  1  0.25000000  0.89051432  0.97302153  1
  Rh  Rh11  1  0.75000000  0.10948568  0.02697847  1
  Rh  Rh12  1  0.75000000  0.67867867  0.92392265  1
  Rh  Rh13  1  0.25000000  0.32132133  0.07607735  1
  Rh  Rh14  1  0.25000000  0.82132133  0.42392265  1
  Rh  Rh15  1  0.75000000  0.17867867  0.57607735  1
