# generated using pymatgen
data_Yb2USe3O2
_symmetry_space_group_name_H-M   'P 1'
_cell_length_a   3.87354598
_cell_length_b   3.87354598
_cell_length_c   11.20024125
_cell_angle_alpha   80.04222072
_cell_angle_beta   80.04222072
_cell_angle_gamma   90.00000000
_symmetry_Int_Tables_number   1
_chemical_formula_structural   Yb2USe3O2
_chemical_formula_sum   'Yb2 U1 Se3 O2'
_cell_volume   162.94983694
_cell_formula_units_Z   1
loop_
 _symmetry_equiv_pos_site_id
 _symmetry_equiv_pos_as_xyz
  1  'x, y, z'
loop_
 _atom_site_type_symbol
 _atom_site_label
 _atom_site_symmetry_multiplicity
 _atom_site_fract_x
 _atom_site_fract_y
 _atom_site_fract_z
 _atom_site_occupancy
  Yb  Yb0  1  0.00732193  0.00732193  0.98535614  1
  Yb  Yb1  1  0.69210772  0.69210772  0.61578457  1
  U  U2  1  0.30415715  0.30415715  0.39168569  1
  Se  Se3  1  0.13814375  0.13814375  0.72371251  1
  Se  Se4  1  0.87195537  0.87195537  0.25608925  1
  Se  Se5  1  0.46626786  0.46626786  0.06746429  1
  O  O6  1  0.76002311  0.26002311  0.47995377  1
  O  O7  1  0.26002311  0.76002311  0.47995377  1
