# generated using pymatgen
data_Tm3(Al3Os)4
_symmetry_space_group_name_H-M   'P 1'
_cell_length_a   8.81112890
_cell_length_b   8.81112890
_cell_length_c   9.53163757
_cell_angle_alpha   90.00000000
_cell_angle_beta   90.00000000
_cell_angle_gamma   120.00000045
_symmetry_Int_Tables_number   1
_chemical_formula_structural   Tm3(Al3Os)4
_chemical_formula_sum   'Tm6 Al24 Os8'
_cell_volume   640.85718747
_cell_formula_units_Z   2
loop_
 _symmetry_equiv_pos_site_id
 _symmetry_equiv_pos_as_xyz
  1  'x, y, z'
loop_
 _atom_site_type_symbol
 _atom_site_label
 _atom_site_symmetry_multiplicity
 _atom_site_fract_x
 _atom_site_fract_y
 _atom_site_fract_z
 _atom_site_occupancy
  Tm  Tm0  1  0.80594910  0.19405090  0.75000000  1
  Tm  Tm1  1  0.19405090  0.80594910  0.25000000  1
  Tm  Tm2  1  0.38810181  0.19405090  0.75000000  1
  Tm  Tm3  1  0.61189819  0.80594910  0.25000000  1
  Tm  Tm4  1  0.80594910  0.61189819  0.75000000  1
  Tm  Tm5  1  0.19405090  0.38810181  0.25000000  1
  Al  Al6  1  0.66666700  0.33333300  0.98450919  1
  Al  Al7  1  0.33333300  0.66666700  0.01549081  1
  Al  Al8  1  0.33333300  0.66666700  0.48450919  1
  Al  Al9  1  0.66666700  0.33333300  0.51549081  1
  Al  Al10  1  0.83733499  0.16266501  0.42374251  1
  Al  Al11  1  0.16266501  0.83733499  0.57625749  1
  Al  Al12  1  0.32533003  0.16266501  0.42374251  1
  Al  Al13  1  0.16266501  0.83733499  0.92374251  1
  Al  Al14  1  0.67466997  0.83733499  0.57625749  1
  Al  Al15  1  0.83733499  0.16266501  0.07625749  1
  Al  Al16  1  0.83733499  0.67466997  0.42374251  1
  Al  Al17  1  0.67466997  0.83733499  0.92374251  1
  Al  Al18  1  0.16266501  0.32533003  0.57625749  1
  Al  Al19  1  0.32533003  0.16266501  0.07625749  1
  Al  Al20  1  0.16266501  0.32533003  0.92374251  1
  Al  Al21  1  0.83733499  0.67466997  0.07625749  1
  Al  Al22  1  0.44023477  0.55976523  0.75000000  1
  Al  Al23  1  0.55976523  0.44023477  0.25000000  1
  Al  Al24  1  0.11953047  0.55976523  0.75000000  1
  Al  Al25  1  0.88046953  0.44023477  0.25000000  1
  Al  Al26  1  0.44023477  0.88046953  0.75000000  1
  Al  Al27  1  0.55976523  0.11953047  0.25000000  1
  Al  Al28  1  -0.00000000  0.00000000  0.75000000  1
  Al  Al29  1  -0.00000000  0.00000000  0.25000000  1
  Os  Os30  1  0.50000000  0.50000000  -0.00000000  1
  Os  Os31  1  -0.00000000  0.50000000  -0.00000000  1
  Os  Os32  1  0.50000000  0.50000000  0.50000000  1
  Os  Os33  1  0.50000000  0.00000000  -0.00000000  1
  Os  Os34  1  -0.00000000  0.50000000  0.50000000  1
  Os  Os35  1  0.50000000  0.00000000  0.50000000  1
  Os  Os36  1  -0.00000000  0.00000000  -0.00000000  1
  Os  Os37  1  -0.00000000  0.00000000  0.50000000  1
