# generated using pymatgen
data_UAgF6
_symmetry_space_group_name_H-M   'P 1'
_cell_length_a   5.40780892
_cell_length_b   5.40780892
_cell_length_c   9.21894209
_cell_angle_alpha   90.00000000
_cell_angle_beta   90.00000000
_cell_angle_gamma   90.00000000
_symmetry_Int_Tables_number   1
_chemical_formula_structural   UAgF6
_chemical_formula_sum   'U2 Ag2 F12'
_cell_volume   269.60240531
_cell_formula_units_Z   2
loop_
 _symmetry_equiv_pos_site_id
 _symmetry_equiv_pos_as_xyz
  1  'x, y, z'
loop_
 _atom_site_type_symbol
 _atom_site_label
 _atom_site_symmetry_multiplicity
 _atom_site_fract_x
 _atom_site_fract_y
 _atom_site_fract_z
 _atom_site_occupancy
  U  U0  1  0.00000000  0.00000000  0.00000000  1
  U  U1  1  -0.00000000  0.00000000  0.50000000  1
  Ag  Ag2  1  0.50000000  0.50000000  0.25000000  1
  Ag  Ag3  1  0.50000000  0.50000000  0.75000000  1
  F  F4  1  0.27428671  0.27428671  0.00000000  1
  F  F5  1  0.72571329  0.72571329  0.00000000  1
  F  F6  1  0.72571329  0.27428671  0.50000000  1
  F  F7  1  0.27428671  0.72571329  0.50000000  1
  F  F8  1  0.20155428  0.20155428  0.34692474  1
  F  F9  1  0.79844572  0.79844572  0.65307526  1
  F  F10  1  0.79844572  0.79844572  0.34692474  1
  F  F11  1  0.79844572  0.20155428  0.84692474  1
  F  F12  1  0.79844572  0.20155428  0.15307526  1
  F  F13  1  0.20155428  0.20155428  0.65307526  1
  F  F14  1  0.20155428  0.79844572  0.15307526  1
  F  F15  1  0.20155428  0.79844572  0.84692474  1
