# generated using pymatgen
data_Yb6Nb4Al43
_symmetry_space_group_name_H-M   'P 1'
_cell_length_a   11.19542324
_cell_length_b   11.19542324
_cell_length_c   17.86464930
_cell_angle_alpha   90.00000000
_cell_angle_beta   90.00000000
_cell_angle_gamma   119.99999797
_symmetry_Int_Tables_number   1
_chemical_formula_structural   Yb6Nb4Al43
_chemical_formula_sum   'Yb12 Nb8 Al86'
_cell_volume   1939.12662104
_cell_formula_units_Z   2
loop_
 _symmetry_equiv_pos_site_id
 _symmetry_equiv_pos_as_xyz
  1  'x, y, z'
loop_
 _atom_site_type_symbol
 _atom_site_label
 _atom_site_symmetry_multiplicity
 _atom_site_fract_x
 _atom_site_fract_y
 _atom_site_fract_z
 _atom_site_occupancy
  Yb  Yb0  1  0.46902239  0.46902239  0.90547889  1
  Yb  Yb1  1  0.53097761  0.53097761  0.09452111  1
  Yb  Yb2  1  -0.00000000  0.53097761  0.90547889  1
  Yb  Yb3  1  0.53097761  0.53097761  0.40547889  1
  Yb  Yb4  1  -0.00000000  0.53097761  0.59452111  1
  Yb  Yb5  1  0.00000000  0.46902239  0.09452111  1
  Yb  Yb6  1  0.46902239  0.46902239  0.59452111  1
  Yb  Yb7  1  0.00000000  0.46902239  0.40547889  1
  Yb  Yb8  1  0.53097761  -0.00000000  0.90547889  1
  Yb  Yb9  1  0.46902239  0.00000000  0.09452111  1
  Yb  Yb10  1  0.46902239  0.00000000  0.40547889  1
  Yb  Yb11  1  0.53097761  -0.00000000  0.59452111  1
  Nb  Nb12  1  0.00000000  0.00000000  0.00000000  1
  Nb  Nb13  1  0.00000000  0.00000000  0.50000000  1
  Nb  Nb14  1  0.27017652  0.27017652  0.75000000  1
  Nb  Nb15  1  0.72982348  0.72982348  0.25000000  1
  Nb  Nb16  1  1.00000000  0.72982348  0.75000000  1
  Nb  Nb17  1  0.00000000  0.27017652  0.25000000  1
  Nb  Nb18  1  0.72982348  1.00000000  0.75000000  1
  Nb  Nb19  1  0.27017652  0.00000000  0.25000000  1
  Al  Al20  1  0.85057649  0.44704136  0.75000000  1
  Al  Al21  1  0.14942351  0.55295864  0.25000000  1
  Al  Al22  1  0.59646487  0.14942351  0.75000000  1
  Al  Al23  1  0.40353513  0.55295864  0.75000000  1
  Al  Al24  1  0.40353513  0.85057649  0.25000000  1
  Al  Al25  1  0.59646487  0.44704136  0.25000000  1
  Al  Al26  1  0.55295864  0.40353513  0.75000000  1
  Al  Al27  1  0.44704136  0.85057649  0.75000000  1
  Al  Al28  1  0.44704136  0.59646487  0.25000000  1
  Al  Al29  1  0.55295864  0.14942351  0.25000000  1
  Al  Al30  1  0.14942351  0.59646487  0.75000000  1
  Al  Al31  1  0.85057649  0.40353513  0.25000000  1
  Al  Al32  1  0.84062171  0.84062171  0.38516602  1
  Al  Al33  1  0.15937829  0.15937829  0.61483398  1
  Al  Al34  1  0.00000000  0.15937829  0.38516602  1
  Al  Al35  1  0.15937829  0.15937829  0.88516602  1
  Al  Al36  1  0.00000000  0.15937829  0.11483398  1
  Al  Al37  1  1.00000000  0.84062171  0.61483398  1
  Al  Al38  1  0.84062171  0.84062171  0.11483398  1
  Al  Al39  1  1.00000000  0.84062171  0.88516602  1
  Al  Al40  1  0.15937829  0.00000000  0.38516602  1
  Al  Al41  1  0.84062171  1.00000000  0.61483398  1
  Al  Al42  1  0.84062171  1.00000000  0.88516602  1
  Al  Al43  1  0.15937829  0.00000000  0.11483398  1
  Al  Al44  1  0.75298898  0.24701102  0.00000000  1
  Al  Al45  1  0.24701102  0.75298898  0.00000000  1
  Al  Al46  1  0.49402203  0.24701102  0.00000000  1
  Al  Al47  1  0.24701102  0.75298898  0.50000000  1
  Al  Al48  1  0.50597797  0.75298898  0.50000000  1
  Al  Al49  1  0.50597797  0.75298898  0.00000000  1
  Al  Al50  1  0.75298898  0.24701102  0.50000000  1
  Al  Al51  1  0.49402203  0.24701102  0.50000000  1
  Al  Al52  1  0.75298898  0.50597797  0.00000000  1
  Al  Al53  1  0.24701102  0.49402203  0.00000000  1
  Al  Al54  1  0.24701102  0.49402203  0.50000000  1
  Al  Al55  1  0.75298898  0.50597797  0.50000000  1
  Al  Al56  1  0.85197267  0.85197267  0.75000000  1
  Al  Al57  1  0.14802733  0.14802733  0.25000000  1
  Al  Al58  1  1.00000000  0.14802733  0.75000000  1
  Al  Al59  1  0.00000000  0.85197267  0.25000000  1
  Al  Al60  1  0.14802733  1.00000000  0.75000000  1
  Al  Al61  1  0.85197267  0.00000000  0.25000000  1
  Al  Al62  1  0.66666700  0.33333300  0.87423923  1
  Al  Al63  1  0.33333300  0.66666700  0.12576077  1
  Al  Al64  1  0.33333300  0.66666700  0.37423923  1
  Al  Al65  1  0.33333300  0.66666700  0.62576077  1
  Al  Al66  1  0.66666700  0.33333300  0.62576077  1
  Al  Al67  1  0.66666700  0.33333300  0.37423923  1
  Al  Al68  1  0.66666700  0.33333300  0.12576077  1
  Al  Al69  1  0.33333300  0.66666700  0.87423923  1
  Al  Al70  1  0.74550192  0.74550192  0.96868488  1
  Al  Al71  1  0.25449808  0.25449808  0.03131512  1
  Al  Al72  1  0.00000000  0.25449808  0.96868488  1
  Al  Al73  1  0.25449808  0.25449808  0.46868488  1
  Al  Al74  1  0.00000000  0.25449808  0.53131512  1
  Al  Al75  1  1.00000000  0.74550192  0.03131512  1
  Al  Al76  1  0.74550192  0.74550192  0.53131512  1
  Al  Al77  1  1.00000000  0.74550192  0.46868488  1
  Al  Al78  1  0.25449808  0.00000000  0.96868488  1
  Al  Al79  1  0.74550192  1.00000000  0.03131512  1
  Al  Al80  1  0.74550192  1.00000000  0.46868488  1
  Al  Al81  1  0.25449808  0.00000000  0.53131512  1
  Al  Al82  1  0.84244670  0.23724359  0.83622259  1
  Al  Al83  1  0.15755330  0.76275641  0.16377741  1
  Al  Al84  1  0.39479689  0.15755330  0.83622259  1
  Al  Al85  1  0.15755330  0.76275641  0.33622259  1
  Al  Al86  1  0.60520311  0.76275641  0.66377741  1
  Al  Al87  1  0.60520311  0.84244670  0.16377741  1
  Al  Al88  1  0.84244670  0.23724359  0.66377741  1
  Al  Al89  1  0.39479689  0.23724359  0.33622259  1
  Al  Al90  1  0.76275641  0.60520311  0.83622259  1
  Al  Al91  1  0.60520311  0.84244670  0.33622259  1
  Al  Al92  1  0.23724359  0.84244670  0.66377741  1
  Al  Al93  1  0.23724359  0.39479689  0.16377741  1
  Al  Al94  1  0.39479689  0.15755330  0.66377741  1
  Al  Al95  1  0.76275641  0.15755330  0.33622259  1
  Al  Al96  1  0.39479689  0.23724359  0.16377741  1
  Al  Al97  1  0.60520311  0.76275641  0.83622259  1
  Al  Al98  1  0.23724359  0.39479689  0.33622259  1
  Al  Al99  1  0.76275641  0.15755330  0.16377741  1
  Al  Al100  1  0.76275641  0.60520311  0.66377741  1
  Al  Al101  1  0.23724359  0.84244670  0.83622259  1
  Al  Al102  1  0.15755330  0.39479689  0.66377741  1
  Al  Al103  1  0.84244670  0.60520311  0.33622259  1
  Al  Al104  1  0.84244670  0.60520311  0.16377741  1
  Al  Al105  1  0.15755330  0.39479689  0.83622259  1
