# generated using pymatgen
data_Y2(Al3Ir)3
_symmetry_space_group_name_H-M   'P 1'
_cell_length_a   7.61832064
_cell_length_b   7.56752453
_cell_length_c   9.50005360
_cell_angle_alpha   90.00000000
_cell_angle_beta   90.00000000
_cell_angle_gamma   120.22229330
_symmetry_Int_Tables_number   1
_chemical_formula_structural   Y2(Al3Ir)3
_chemical_formula_sum   'Y4 Al18 Ir6'
_cell_volume   473.25215348
_cell_formula_units_Z   2
loop_
 _symmetry_equiv_pos_site_id
 _symmetry_equiv_pos_as_xyz
  1  'x, y, z'
loop_
 _atom_site_type_symbol
 _atom_site_label
 _atom_site_symmetry_multiplicity
 _atom_site_fract_x
 _atom_site_fract_y
 _atom_site_fract_z
 _atom_site_occupancy
  Y  Y0  1  0.33025485  0.32535240  0.75000000  1
  Y  Y1  1  0.66974515  0.67464760  0.25000000  1
  Y  Y2  1  0.00490245  0.67464760  0.75000000  1
  Y  Y3  1  0.99509755  0.32535240  0.25000000  1
  Al  Al4  1  0.87235973  -0.00000000  0.75000000  1
  Al  Al5  1  0.12764027  -0.00000000  0.25000000  1
  Al  Al6  1  0.66510102  0.66651653  0.92630113  1
  Al  Al7  1  0.33489898  0.33348347  0.07369887  1
  Al  Al8  1  0.33489898  0.33348347  0.42630113  1
  Al  Al9  1  0.99858449  0.33348347  0.57369887  1
  Al  Al10  1  0.66510102  0.66651653  0.57369887  1
  Al  Al11  1  0.00141551  0.66651653  0.42630113  1
  Al  Al12  1  0.00141551  0.66651653  0.07369887  1
  Al  Al13  1  0.99858449  0.33348347  0.92630113  1
  Al  Al14  1  0.66648694  -0.00000000  0.44719428  1
  Al  Al15  1  0.33351306  -0.00000000  0.55280572  1
  Al  Al16  1  0.33351306  -0.00000000  0.94719428  1
  Al  Al17  1  0.66648694  -0.00000000  0.05280572  1
  Al  Al18  1  0.45338864  0.79150862  0.75000000  1
  Al  Al19  1  0.54661136  0.20849138  0.25000000  1
  Al  Al20  1  0.66188002  0.20849138  0.75000000  1
  Al  Al21  1  0.33811998  0.79150862  0.25000000  1
  Ir  Ir22  1  0.67168551  0.34337102  -0.00000000  1
  Ir  Ir23  1  0.32831449  0.65662898  -0.00000000  1
  Ir  Ir24  1  0.32831449  0.65662898  0.50000000  1
  Ir  Ir25  1  0.67168551  0.34337102  0.50000000  1
  Ir  Ir26  1  -0.00000000  -0.00000000  -0.00000000  1
  Ir  Ir27  1  -0.00000000  -0.00000000  0.50000000  1
