# generated using pymatgen
data_VSi3Mo4
_symmetry_space_group_name_H-M   'P 1'
_cell_length_a   4.84054886
_cell_length_b   7.25022587
_cell_length_c   7.25022587
_cell_angle_alpha   83.60188928
_cell_angle_beta   70.49916749
_cell_angle_gamma   70.49916749
_symmetry_Int_Tables_number   1
_chemical_formula_structural   VSi3Mo4
_chemical_formula_sum   'V2 Si6 Mo8'
_cell_volume   226.09258304
_cell_formula_units_Z   2
loop_
 _symmetry_equiv_pos_site_id
 _symmetry_equiv_pos_as_xyz
  1  'x, y, z'
loop_
 _atom_site_type_symbol
 _atom_site_label
 _atom_site_symmetry_multiplicity
 _atom_site_fract_x
 _atom_site_fract_y
 _atom_site_fract_z
 _atom_site_occupancy
  V  V0  1  0.25000000  0.50000000  0.50000000  1
  V  V1  1  0.75000000  0.50000000  0.50000000  1
  Si  Si2  1  0.25000000  -0.00000000  -0.00000000  1
  Si  Si3  1  0.75000000  -0.00000000  0.00000000  1
  Si  Si4  1  0.16267067  0.50000000  0.17465865  1
  Si  Si5  1  0.83732933  0.50000000  0.82534135  1
  Si  Si6  1  0.33732933  0.82534135  0.50000000  1
  Si  Si7  1  0.66267067  0.17465865  0.50000000  1
  Mo  Mo8  1  0.07867154  0.14766112  0.69499581  1
  Mo  Mo9  1  0.92132846  0.85233888  0.30500419  1
  Mo  Mo10  1  0.77366734  0.30500419  0.14766112  1
  Mo  Mo11  1  0.42132846  0.30500419  0.85233888  1
  Mo  Mo12  1  0.22633266  0.69499581  0.85233888  1
  Mo  Mo13  1  0.57867154  0.69499581  0.14766112  1
  Mo  Mo14  1  0.72633266  0.85233888  0.69499581  1
  Mo  Mo15  1  0.27366734  0.14766112  0.30500419  1
