# generated using pymatgen
data_TmTl(WO4)2
_symmetry_space_group_name_H-M   'P 1'
_cell_length_a   7.59980656
_cell_length_b   7.59980656
_cell_length_c   7.46002963
_cell_angle_alpha   62.24916212
_cell_angle_beta   62.24916212
_cell_angle_gamma   88.07007557
_symmetry_Int_Tables_number   1
_chemical_formula_structural   TmTl(WO4)2
_chemical_formula_sum   'Tm2 Tl2 W4 O16'
_cell_volume   328.09819021
_cell_formula_units_Z   2
loop_
 _symmetry_equiv_pos_site_id
 _symmetry_equiv_pos_as_xyz
  1  'x, y, z'
loop_
 _atom_site_type_symbol
 _atom_site_label
 _atom_site_symmetry_multiplicity
 _atom_site_fract_x
 _atom_site_fract_y
 _atom_site_fract_z
 _atom_site_occupancy
  Tm  Tm0  1  0.22324856  0.77675144  0.75000000  1
  Tm  Tm1  1  0.77675144  0.22324856  0.25000000  1
  Tl  Tl2  1  0.79500340  0.20499660  0.75000000  1
  Tl  Tl3  1  0.20499660  0.79500340  0.25000000  1
  W  W4  1  0.29815972  0.30911607  0.71611641  1
  W  W5  1  0.70184028  0.69088393  0.28388359  1
  W  W6  1  0.69088393  0.70184028  0.78388359  1
  W  W7  1  0.30911607  0.29815972  0.21611641  1
  O  O8  1  0.37988135  0.24412923  0.94073563  1
  O  O9  1  0.62011865  0.75587077  0.05926437  1
  O  O10  1  0.75587077  0.62011865  0.55926437  1
  O  O11  1  0.24412923  0.37988135  0.44073563  1
  O  O12  1  0.63085609  0.94261703  0.61792473  1
  O  O13  1  0.36914391  0.05738297  0.38207527  1
  O  O14  1  0.05738297  0.36914391  0.88207527  1
  O  O15  1  0.94261703  0.63085609  0.11792473  1
  O  O16  1  0.40723377  0.62968579  0.53711790  1
  O  O17  1  0.59276623  0.37031421  0.46288210  1
  O  O18  1  0.37031421  0.59276623  0.96288210  1
  O  O19  1  0.62968579  0.40723377  0.03711790  1
  O  O20  1  0.21997588  0.04103220  0.80859032  1
  O  O21  1  0.78002412  0.95896780  0.19140968  1
  O  O22  1  0.95896780  0.78002412  0.69140968  1
  O  O23  1  0.04103220  0.21997588  0.30859032  1
