# generated using pymatgen
data_V4Bi6PbO20
_symmetry_space_group_name_H-M   'P 1'
_cell_length_a   7.25031124
_cell_length_b   8.08631557
_cell_length_c   9.47600697
_cell_angle_alpha   106.27568538
_cell_angle_beta   94.12151353
_cell_angle_gamma   112.30210524
_symmetry_Int_Tables_number   1
_chemical_formula_structural   V4Bi6PbO20
_chemical_formula_sum   'V4 Bi6 Pb1 O20'
_cell_volume   483.36734186
_cell_formula_units_Z   1
loop_
 _symmetry_equiv_pos_site_id
 _symmetry_equiv_pos_as_xyz
  1  'x, y, z'
loop_
 _atom_site_type_symbol
 _atom_site_label
 _atom_site_symmetry_multiplicity
 _atom_site_fract_x
 _atom_site_fract_y
 _atom_site_fract_z
 _atom_site_occupancy
  V  V0  1  0.04987921  0.27325563  0.75673160  1
  V  V1  1  0.95012079  0.72674437  0.24326840  1
  V  V2  1  0.34594905  0.39619447  0.25766008  1
  V  V3  1  0.65405095  0.60380553  0.74233992  1
  Bi  Bi4  1  0.34428396  0.12529485  0.51924161  1
  Bi  Bi5  1  0.65571604  0.87470515  0.48075839  1
  Bi  Bi6  1  0.43305878  0.80117030  0.08309965  1
  Bi  Bi7  1  0.56694122  0.19882970  0.91690035  1
  Bi  Bi8  1  0.79900826  0.29029185  0.32651781  1
  Bi  Bi9  1  0.20099174  0.70970815  0.67348219  1
  Pb  Pb10  1  -0.00000000  -0.00000000  -0.00000000  1
  O  O11  1  0.10572076  0.24791301  0.27308185  1
  O  O12  1  0.89427924  0.75208699  0.72691815  1
  O  O13  1  0.16141379  0.52146997  0.83177064  1
  O  O14  1  0.83858621  0.47853003  0.16822936  1
  O  O15  1  0.66180783  0.09267991  0.10421253  1
  O  O16  1  0.33819217  0.90732009  0.89578747  1
  O  O17  1  0.54896114  0.03170086  0.36647840  1
  O  O18  1  0.45103886  0.96829914  0.63352160  1
  O  O19  1  0.37664369  0.63295690  0.30798751  1
  O  O20  1  0.62335631  0.36704310  0.69201249  1
  O  O21  1  0.23283889  0.18078230  0.75395113  1
  O  O22  1  0.76716111  0.81921770  0.24604887  1
  O  O23  1  0.53262910  0.37653107  0.36996444  1
  O  O24  1  0.46737090  0.62346893  0.63003556  1
  O  O25  1  0.06259194  0.79915287  0.43055962  1
  O  O26  1  0.93740806  0.20084713  0.56944038  1
  O  O27  1  0.13163544  0.83273524  0.14532603  1
  O  O28  1  0.86836456  0.16726476  0.85467397  1
  O  O29  1  0.35468706  0.30471596  0.07092393  1
  O  O30  1  0.64531294  0.69528404  0.92907607  1
