# generated using pymatgen
data_Tm2Sc3Si4
_symmetry_space_group_name_H-M   'P 1'
_cell_length_a   7.05907396
_cell_length_b   7.34642711
_cell_length_c   13.93006714
_cell_angle_alpha   90.00000000
_cell_angle_beta   90.00000000
_cell_angle_gamma   90.00000000
_symmetry_Int_Tables_number   1
_chemical_formula_structural   Tm2Sc3Si4
_chemical_formula_sum   'Tm8 Sc12 Si16'
_cell_volume   722.39896611
_cell_formula_units_Z   4
loop_
 _symmetry_equiv_pos_site_id
 _symmetry_equiv_pos_as_xyz
  1  'x, y, z'
loop_
 _atom_site_type_symbol
 _atom_site_label
 _atom_site_symmetry_multiplicity
 _atom_site_fract_x
 _atom_site_fract_y
 _atom_site_fract_z
 _atom_site_occupancy
  Tm  Tm0  1  0.98779270  0.82442494  0.40311858  1
  Tm  Tm1  1  0.01220730  0.17557506  0.59688142  1
  Tm  Tm2  1  0.51220730  0.32442494  0.59688142  1
  Tm  Tm3  1  0.01220730  0.17557506  0.90311858  1
  Tm  Tm4  1  0.48779270  0.67557506  0.40311858  1
  Tm  Tm5  1  0.98779270  0.82442494  0.09688142  1
  Tm  Tm6  1  0.48779270  0.67557506  0.09688142  1
  Tm  Tm7  1  0.51220730  0.32442494  0.90311858  1
  Sc  Sc8  1  0.83907459  0.49620927  0.75000000  1
  Sc  Sc9  1  0.16092541  0.50379073  0.25000000  1
  Sc  Sc10  1  0.66092541  0.99620927  0.25000000  1
  Sc  Sc11  1  0.33907459  0.00379073  0.75000000  1
  Sc  Sc12  1  0.66979688  0.82311507  0.87522863  1
  Sc  Sc13  1  0.33020312  0.17688493  0.12477137  1
  Sc  Sc14  1  0.83020312  0.32311507  0.12477137  1
  Sc  Sc15  1  0.33020312  0.17688493  0.37522863  1
  Sc  Sc16  1  0.16979688  0.67688493  0.87522863  1
  Sc  Sc17  1  0.66979688  0.82311507  0.62477137  1
  Sc  Sc18  1  0.16979688  0.67688493  0.62477137  1
  Sc  Sc19  1  0.83020312  0.32311507  0.37522863  1
  Si  Si20  1  0.96725418  0.88370601  0.75000000  1
  Si  Si21  1  0.03274582  0.11629399  0.25000000  1
  Si  Si22  1  0.53274582  0.38370601  0.25000000  1
  Si  Si23  1  0.46725418  0.61629399  0.75000000  1
  Si  Si24  1  0.71499101  0.12815640  0.75000000  1
  Si  Si25  1  0.28500899  0.87184360  0.25000000  1
  Si  Si26  1  0.78500899  0.62815640  0.25000000  1
  Si  Si27  1  0.21499101  0.37184360  0.75000000  1
  Si  Si28  1  0.84096485  0.53477669  0.96054204  1
  Si  Si29  1  0.15903515  0.46522331  0.03945796  1
  Si  Si30  1  0.65903515  0.03477669  0.03945796  1
  Si  Si31  1  0.15903515  0.46522331  0.46054204  1
  Si  Si32  1  0.34096485  0.96522331  0.96054204  1
  Si  Si33  1  0.84096485  0.53477669  0.53945796  1
  Si  Si34  1  0.34096485  0.96522331  0.53945796  1
  Si  Si35  1  0.65903515  0.03477669  0.46054204  1
