# generated using pymatgen
data_Tm4CdPd
_symmetry_space_group_name_H-M   'P 1'
_cell_length_a   9.56313036
_cell_length_b   9.56313036
_cell_length_c   9.56313036
_cell_angle_alpha   60.00000000
_cell_angle_beta   60.00000000
_cell_angle_gamma   60.00000000
_symmetry_Int_Tables_number   1
_chemical_formula_structural   Tm4CdPd
_chemical_formula_sum   'Tm16 Cd4 Pd4'
_cell_volume   618.42242653
_cell_formula_units_Z   4
loop_
 _symmetry_equiv_pos_site_id
 _symmetry_equiv_pos_as_xyz
  1  'x, y, z'
loop_
 _atom_site_type_symbol
 _atom_site_label
 _atom_site_symmetry_multiplicity
 _atom_site_fract_x
 _atom_site_fract_y
 _atom_site_fract_z
 _atom_site_occupancy
  Tm  Tm0  1  0.64526107  0.64526107  0.64526107  1
  Tm  Tm1  1  0.06421680  0.64526107  0.64526107  1
  Tm  Tm2  1  0.64526107  0.06421680  0.64526107  1
  Tm  Tm3  1  0.64526107  0.64526107  0.06421680  1
  Tm  Tm4  1  0.81143348  0.81143348  0.18856652  1
  Tm  Tm5  1  0.18856652  0.18856652  0.81143348  1
  Tm  Tm6  1  0.81143348  0.18856652  0.81143348  1
  Tm  Tm7  1  0.18856652  0.81143348  0.18856652  1
  Tm  Tm8  1  0.18856652  0.81143348  0.81143348  1
  Tm  Tm9  1  0.81143348  0.18856652  0.18856652  1
  Tm  Tm10  1  0.43354481  0.43354481  0.06645519  1
  Tm  Tm11  1  0.06645519  0.06645519  0.43354481  1
  Tm  Tm12  1  0.43354481  0.06645519  0.43354481  1
  Tm  Tm13  1  0.06645519  0.43354481  0.06645519  1
  Tm  Tm14  1  0.06645519  0.43354481  0.43354481  1
  Tm  Tm15  1  0.43354481  0.06645519  0.06645519  1
  Cd  Cd16  1  0.41689287  0.41689287  0.41689287  1
  Cd  Cd17  1  0.74932140  0.41689287  0.41689287  1
  Cd  Cd18  1  0.41689287  0.74932140  0.41689287  1
  Cd  Cd19  1  0.41689287  0.41689287  0.74932140  1
  Pd  Pd20  1  0.85501758  0.85501758  0.85501758  1
  Pd  Pd21  1  0.43494725  0.85501758  0.85501758  1
  Pd  Pd22  1  0.85501758  0.43494725  0.85501758  1
  Pd  Pd23  1  0.85501758  0.85501758  0.43494725  1
