# generated using pymatgen
data_TlSO4
_symmetry_space_group_name_H-M   'P 1'
_cell_length_a   5.03004984
_cell_length_b   5.03004984
_cell_length_c   9.23854640
_cell_angle_alpha   74.20288867
_cell_angle_beta   74.20288867
_cell_angle_gamma   59.99999891
_symmetry_Int_Tables_number   1
_chemical_formula_structural   TlSO4
_chemical_formula_sum   'Tl2 S2 O8'
_cell_volume   192.17026535
_cell_formula_units_Z   2
loop_
 _symmetry_equiv_pos_site_id
 _symmetry_equiv_pos_as_xyz
  1  'x, y, z'
loop_
 _atom_site_type_symbol
 _atom_site_label
 _atom_site_symmetry_multiplicity
 _atom_site_fract_x
 _atom_site_fract_y
 _atom_site_fract_z
 _atom_site_occupancy
  Tl  Tl0  1  0.00000000  -0.00000000  -0.00000000  1
  Tl  Tl1  1  0.50000000  0.50000000  0.50000000  1
  S  S2  1  0.74062370  0.74062370  0.77812889  1
  S  S3  1  0.25937630  0.25937630  0.22187111  1
  O  O4  1  0.56584165  0.26736564  0.16418778  1
  O  O5  1  0.00260493  0.56584165  0.16418778  1
  O  O6  1  0.99739507  0.73263436  0.83581222  1
  O  O7  1  0.26736564  0.00260493  0.16418778  1
  O  O8  1  0.73263436  0.43415835  0.83581222  1
  O  O9  1  0.43415835  0.99739507  0.83581222  1
  O  O10  1  0.79635575  0.79635575  0.61093275  1
  O  O11  1  0.20364425  0.20364425  0.38906725  1
