# generated using pymatgen
data_Y6InCo2
_symmetry_space_group_name_H-M   'P 1'
_cell_length_a   8.44702689
_cell_length_b   8.44702689
_cell_length_c   8.44702689
_cell_angle_alpha   107.00565717
_cell_angle_beta   109.98482606
_cell_angle_gamma   111.45452238
_symmetry_Int_Tables_number   1
_chemical_formula_structural   Y6InCo2
_chemical_formula_sum   'Y12 In2 Co4'
_cell_volume   463.24910235
_cell_formula_units_Z   2
loop_
 _symmetry_equiv_pos_site_id
 _symmetry_equiv_pos_as_xyz
  1  'x, y, z'
loop_
 _atom_site_type_symbol
 _atom_site_label
 _atom_site_symmetry_multiplicity
 _atom_site_fract_x
 _atom_site_fract_y
 _atom_site_fract_z
 _atom_site_occupancy
  Y  Y0  1  0.79113295  0.76748358  0.55861652  1
  Y  Y1  1  0.20886705  0.23251642  0.44138348  1
  Y  Y2  1  0.20886705  0.76748358  0.97635063  1
  Y  Y3  1  0.79113295  0.23251642  0.02364937  1
  Y  Y4  1  0.52760074  0.71310517  0.81449557  1
  Y  Y5  1  0.47239926  0.28689483  0.18550443  1
  Y  Y6  1  0.10139039  0.28689483  0.81449557  1
  Y  Y7  1  0.89860961  0.71310517  0.18550443  1
  Y  Y8  1  0.69439330  0.37747158  0.68307828  1
  Y  Y9  1  0.30560670  0.62252842  0.31692172  1
  Y  Y10  1  0.30560670  0.98868498  0.68307828  1
  Y  Y11  1  0.69439330  0.01131502  0.31692172  1
  In  In12  1  -0.00000000  0.50000000  0.50000000  1
  In  In13  1  -0.00000000  -0.00000000  -0.00000000  1
  Co  Co14  1  0.62466750  -0.00000000  0.62466750  1
  Co  Co15  1  0.37533250  0.00000000  0.37533250  1
  Co  Co16  1  0.50000000  0.38914343  0.88914343  1
  Co  Co17  1  0.50000000  0.61085657  0.11085657  1
