# generated using pymatgen
data_Tm6Co2Sn
_symmetry_space_group_name_H-M   'P 1'
_cell_length_a   8.24963768
_cell_length_b   8.24963768
_cell_length_c   8.24963768
_cell_angle_alpha   107.16462273
_cell_angle_beta   109.74834868
_cell_angle_gamma   111.53024075
_symmetry_Int_Tables_number   1
_chemical_formula_structural   Tm6Co2Sn
_chemical_formula_sum   'Tm12 Co4 Sn2'
_cell_volume   431.56628037
_cell_formula_units_Z   2
loop_
 _symmetry_equiv_pos_site_id
 _symmetry_equiv_pos_as_xyz
  1  'x, y, z'
loop_
 _atom_site_type_symbol
 _atom_site_label
 _atom_site_symmetry_multiplicity
 _atom_site_fract_x
 _atom_site_fract_y
 _atom_site_fract_z
 _atom_site_occupancy
  Tm  Tm0  1  0.78747772  0.76495381  0.55243153  1
  Tm  Tm1  1  0.21252228  0.23504619  0.44756847  1
  Tm  Tm2  1  0.21252228  0.76495381  0.97747610  1
  Tm  Tm3  1  0.78747772  0.23504619  0.02252390  1
  Tm  Tm4  1  0.53001164  0.71574862  0.81426302  1
  Tm  Tm5  1  0.46998836  0.28425138  0.18573698  1
  Tm  Tm6  1  0.09851440  0.28425138  0.81426302  1
  Tm  Tm7  1  0.90148560  0.71574862  0.18573698  1
  Tm  Tm8  1  0.69157564  0.36961617  0.67804053  1
  Tm  Tm9  1  0.30842436  0.63038383  0.32195947  1
  Tm  Tm10  1  0.30842436  0.98646490  0.67804053  1
  Tm  Tm11  1  0.69157564  0.01353510  0.32195947  1
  Co  Co12  1  0.64531802  0.00000000  0.64531802  1
  Co  Co13  1  0.35468198  -0.00000000  0.35468198  1
  Co  Co14  1  0.50000000  0.38516283  0.88516283  1
  Co  Co15  1  0.50000000  0.61483717  0.11483717  1
  Sn  Sn16  1  0.00000000  0.50000000  0.50000000  1
  Sn  Sn17  1  0.00000000  0.00000000  -0.00000000  1
