# generated using pymatgen
data_Tm4(Al8Pt3)3
_symmetry_space_group_name_H-M   'P 1'
_cell_length_a   7.46869459
_cell_length_b   7.53583624
_cell_length_c   13.17087411
_cell_angle_alpha   84.64646466
_cell_angle_beta   79.31492394
_cell_angle_gamma   59.90536335
_symmetry_Int_Tables_number   1
_chemical_formula_structural   Tm4(Al8Pt3)3
_chemical_formula_sum   'Tm4 Al24 Pt9'
_cell_volume   630.24612312
_cell_formula_units_Z   1
loop_
 _symmetry_equiv_pos_site_id
 _symmetry_equiv_pos_as_xyz
  1  'x, y, z'
loop_
 _atom_site_type_symbol
 _atom_site_label
 _atom_site_symmetry_multiplicity
 _atom_site_fract_x
 _atom_site_fract_y
 _atom_site_fract_z
 _atom_site_occupancy
  Tm  Tm0  1  0.39317574  0.16878110  0.80752288  1
  Tm  Tm1  1  0.60682426  0.83121890  0.19247712  1
  Tm  Tm2  1  0.73458606  0.49845505  0.80707041  1
  Tm  Tm3  1  0.26541394  0.50154495  0.19292959  1
  Al  Al4  1  0.68477972  0.83390873  0.94430903  1
  Al  Al5  1  0.31522028  0.16609127  0.05569097  1
  Al  Al6  1  0.14628869  0.83252950  0.56070129  1
  Al  Al7  1  0.85371131  0.16747050  0.43929871  1
  Al  Al8  1  0.47930477  0.16666721  0.55831969  1
  Al  Al9  1  0.52069523  0.83333279  0.44168031  1
  Al  Al10  1  0.21676673  0.16546237  0.32891125  1
  Al  Al11  1  0.78323327  0.83453763  0.67108875  1
  Al  Al12  1  0.43756082  0.50565075  0.67120166  1
  Al  Al13  1  0.56243918  0.49434925  0.32879834  1
  Al  Al14  1  0.10900161  0.16055766  0.67021106  1
  Al  Al15  1  0.89099839  0.83944234  0.32978894  1
  Al  Al16  1  0.35381454  0.49899000  0.94442569  1
  Al  Al17  1  0.64618546  0.50101000  0.05557431  1
  Al  Al18  1  0.01644332  0.16786288  0.95215800  1
  Al  Al19  1  0.98355668  0.83213712  0.04784200  1
  Al  Al20  1  0.18623467  0.49948602  0.44155898  1
  Al  Al21  1  0.81376533  0.50051398  0.55844102  1
  Al  Al22  1  0.73426530  0.16324940  0.18320850  1
  Al  Al23  1  0.26573470  0.83675060  0.81679150  1
  Al  Al24  1  0.06170608  0.63113245  0.81548428  1
  Al  Al25  1  0.93829392  0.36886755  0.18451572  1
  Al  Al26  1  0.85546053  0.04141617  0.81594368  1
  Al  Al27  1  0.14453947  0.95858383  0.18405632  1
  Pt  Pt28  1  0.12019894  0.49184651  0.63908697  1
  Pt  Pt29  1  0.87980106  0.50815349  0.36091303  1
  Pt  Pt30  1  0.65720832  0.17118529  0.99979179  1
  Pt  Pt31  1  0.34279168  0.82881471  0.00020821  1
  Pt  Pt32  1  0.53836227  0.16682542  0.36082686  1
  Pt  Pt33  1  0.46163773  0.83317458  0.63917314  1
  Pt  Pt34  1  0.77890533  0.17483238  0.63728209  1
  Pt  Pt35  1  0.22109467  0.82516762  0.36271791  1
  Pt  Pt36  1  -0.00000000  0.50000000  -0.00000000  1
