# generated using pymatgen
data_Y3Cr2(GaO4)3
_symmetry_space_group_name_H-M   'P 1'
_cell_length_a   10.78219116
_cell_length_b   10.78219116
_cell_length_c   10.78219116
_cell_angle_alpha   109.47122063
_cell_angle_beta   109.47122063
_cell_angle_gamma   109.47122063
_symmetry_Int_Tables_number   1
_chemical_formula_structural   Y3Cr2(GaO4)3
_chemical_formula_sum   'Y12 Cr8 Ga12 O48'
_cell_volume   964.93751507
_cell_formula_units_Z   4
loop_
 _symmetry_equiv_pos_site_id
 _symmetry_equiv_pos_as_xyz
  1  'x, y, z'
loop_
 _atom_site_type_symbol
 _atom_site_label
 _atom_site_symmetry_multiplicity
 _atom_site_fract_x
 _atom_site_fract_y
 _atom_site_fract_z
 _atom_site_occupancy
  Y  Y0  1  0.87500000  0.62500000  0.75000000  1
  Y  Y1  1  0.12500000  0.37500000  0.25000000  1
  Y  Y2  1  0.62500000  0.87500000  0.25000000  1
  Y  Y3  1  0.62500000  0.75000000  0.87500000  1
  Y  Y4  1  0.87500000  0.25000000  0.62500000  1
  Y  Y5  1  0.37500000  0.12500000  0.75000000  1
  Y  Y6  1  0.37500000  0.25000000  0.12500000  1
  Y  Y7  1  0.12500000  0.75000000  0.37500000  1
  Y  Y8  1  0.75000000  0.87500000  0.62500000  1
  Y  Y9  1  0.25000000  0.12500000  0.37500000  1
  Y  Y10  1  0.25000000  0.62500000  0.87500000  1
  Y  Y11  1  0.75000000  0.37500000  0.12500000  1
  Cr  Cr12  1  -0.00000000  -0.00000000  -0.00000000  1
  Cr  Cr13  1  0.50000000  -0.00000000  0.50000000  1
  Cr  Cr14  1  0.50000000  0.50000000  -0.00000000  1
  Cr  Cr15  1  -0.00000000  -0.00000000  0.50000000  1
  Cr  Cr16  1  -0.00000000  0.50000000  0.50000000  1
  Cr  Cr17  1  0.50000000  0.50000000  0.50000000  1
  Cr  Cr18  1  0.50000000  -0.00000000  -0.00000000  1
  Cr  Cr19  1  -0.00000000  0.50000000  -0.00000000  1
  Ga  Ga20  1  0.62500000  0.37500000  0.75000000  1
  Ga  Ga21  1  0.37500000  0.62500000  0.25000000  1
  Ga  Ga22  1  0.87500000  0.12500000  0.25000000  1
  Ga  Ga23  1  0.37500000  0.75000000  0.62500000  1
  Ga  Ga24  1  0.62500000  0.25000000  0.37500000  1
  Ga  Ga25  1  0.12500000  0.87500000  0.75000000  1
  Ga  Ga26  1  0.12500000  0.25000000  0.87500000  1
  Ga  Ga27  1  0.87500000  0.75000000  0.12500000  1
  Ga  Ga28  1  0.75000000  0.62500000  0.37500000  1
  Ga  Ga29  1  0.25000000  0.37500000  0.62500000  1
  Ga  Ga30  1  0.25000000  0.87500000  0.12500000  1
  Ga  Ga31  1  0.75000000  0.12500000  0.87500000  1
  O  O32  1  0.70701357  0.62411754  0.52894880  1
  O  O33  1  0.29298643  0.37588246  0.47105120  1
  O  O34  1  0.79298643  0.82193523  0.41710397  1
  O  O35  1  0.40483126  0.87588246  0.08289603  1
  O  O36  1  0.62411754  0.52894880  0.70701357  1
  O  O37  1  0.70701357  0.08289603  0.67806477  1
  O  O38  1  0.20701357  0.17806477  0.58289603  1
  O  O39  1  0.59516874  0.12411754  0.91710397  1
  O  O40  1  0.37588246  0.47105120  0.29298643  1
  O  O41  1  0.29298643  0.91710397  0.32193523  1
  O  O42  1  0.09516874  0.67806477  0.97105120  1
  O  O43  1  0.82193523  0.41710397  0.79298643  1
  O  O44  1  0.79298643  0.97105120  0.87588246  1
  O  O45  1  0.90483126  0.32193523  0.02894880  1
  O  O46  1  0.17806477  0.58289603  0.20701357  1
  O  O47  1  0.20701357  0.02894880  0.12411754  1
  O  O48  1  0.87588246  0.08289603  0.40483126  1
  O  O49  1  0.40483126  0.52894880  0.82193523  1
  O  O50  1  0.12411754  0.91710397  0.59516874  1
  O  O51  1  0.59516874  0.47105120  0.17806477  1
  O  O52  1  0.67806477  0.97105120  0.09516874  1
  O  O53  1  0.09516874  0.41710397  0.62411754  1
  O  O54  1  0.32193523  0.02894880  0.90483126  1
  O  O55  1  0.90483126  0.58289603  0.37588246  1
  O  O56  1  0.52894880  0.70701357  0.62411754  1
  O  O57  1  0.62411754  0.09516874  0.41710397  1
  O  O58  1  0.47105120  0.29298643  0.37588246  1
  O  O59  1  0.37588246  0.90483126  0.58289603  1
  O  O60  1  0.08289603  0.40483126  0.87588246  1
  O  O61  1  0.87588246  0.79298643  0.97105120  1
  O  O62  1  0.91710397  0.59516874  0.12411754  1
  O  O63  1  0.12411754  0.20701357  0.02894880  1
  O  O64  1  0.97105120  0.09516874  0.67806477  1
  O  O65  1  0.67806477  0.70701357  0.08289603  1
  O  O66  1  0.02894880  0.90483126  0.32193523  1
  O  O67  1  0.32193523  0.29298643  0.91710397  1
  O  O68  1  0.41710397  0.79298643  0.82193523  1
  O  O69  1  0.82193523  0.40483126  0.52894880  1
  O  O70  1  0.58289603  0.20701357  0.17806477  1
  O  O71  1  0.17806477  0.59516874  0.47105120  1
  O  O72  1  0.08289603  0.67806477  0.70701357  1
  O  O73  1  0.91710397  0.32193523  0.29298643  1
  O  O74  1  0.97105120  0.87588246  0.79298643  1
  O  O75  1  0.02894880  0.12411754  0.20701357  1
  O  O76  1  0.41710397  0.62411754  0.09516874  1
  O  O77  1  0.58289603  0.37588246  0.90483126  1
  O  O78  1  0.52894880  0.82193523  0.40483126  1
  O  O79  1  0.47105120  0.17806477  0.59516874  1
