# generated using pymatgen
data_TiVP
_symmetry_space_group_name_H-M   'P 1'
_cell_length_a   3.34700715
_cell_length_b   6.36309105
_cell_length_c   7.64552286
_cell_angle_alpha   90.00000000
_cell_angle_beta   90.00000000
_cell_angle_gamma   90.00000000
_symmetry_Int_Tables_number   1
_chemical_formula_structural   TiVP
_chemical_formula_sum   'Ti4 V4 P4'
_cell_volume   162.82907995
_cell_formula_units_Z   4
loop_
 _symmetry_equiv_pos_site_id
 _symmetry_equiv_pos_as_xyz
  1  'x, y, z'
loop_
 _atom_site_type_symbol
 _atom_site_label
 _atom_site_symmetry_multiplicity
 _atom_site_fract_x
 _atom_site_fract_y
 _atom_site_fract_z
 _atom_site_occupancy
  Ti  Ti0  1  0.75000000  0.95818886  0.33268261  1
  Ti  Ti1  1  0.25000000  0.04181114  0.66731739  1
  Ti  Ti2  1  0.25000000  0.54181114  0.83268261  1
  Ti  Ti3  1  0.75000000  0.45818886  0.16731739  1
  V  V4  1  0.75000000  0.86669573  0.94062186  1
  V  V5  1  0.25000000  0.13330427  0.05937814  1
  V  V6  1  0.25000000  0.63330427  0.44062186  1
  V  V7  1  0.75000000  0.36669573  0.55937814  1
  P  P8  1  0.75000000  0.74519827  0.64081642  1
  P  P9  1  0.25000000  0.25480173  0.35918358  1
  P  P10  1  0.25000000  0.75480173  0.14081642  1
  P  P11  1  0.75000000  0.24519827  0.85918358  1
