# generated using pymatgen
data_Tm6Ta4Al43
_symmetry_space_group_name_H-M   'P 1'
_cell_length_a   11.10700750
_cell_length_b   11.10700750
_cell_length_c   17.64478703
_cell_angle_alpha   90.00000000
_cell_angle_beta   90.00000000
_cell_angle_gamma   119.99999905
_symmetry_Int_Tables_number   1
_chemical_formula_structural   Tm6Ta4Al43
_chemical_formula_sum   'Tm12 Ta8 Al86'
_cell_volume   1885.12948855
_cell_formula_units_Z   2
loop_
 _symmetry_equiv_pos_site_id
 _symmetry_equiv_pos_as_xyz
  1  'x, y, z'
loop_
 _atom_site_type_symbol
 _atom_site_label
 _atom_site_symmetry_multiplicity
 _atom_site_fract_x
 _atom_site_fract_y
 _atom_site_fract_z
 _atom_site_occupancy
  Tm  Tm0  1  0.46965367  0.46965367  0.90353057  1
  Tm  Tm1  1  0.53034633  0.53034633  0.09646943  1
  Tm  Tm2  1  0.00000000  0.53034633  0.90353057  1
  Tm  Tm3  1  0.53034633  0.53034633  0.40353057  1
  Tm  Tm4  1  0.00000000  0.53034633  0.59646943  1
  Tm  Tm5  1  1.00000000  0.46965367  0.09646943  1
  Tm  Tm6  1  0.46965367  0.46965367  0.59646943  1
  Tm  Tm7  1  1.00000000  0.46965367  0.40353057  1
  Tm  Tm8  1  0.53034633  0.00000000  0.90353057  1
  Tm  Tm9  1  0.46965367  1.00000000  0.09646943  1
  Tm  Tm10  1  0.46965367  1.00000000  0.40353057  1
  Tm  Tm11  1  0.53034633  0.00000000  0.59646943  1
  Ta  Ta12  1  -0.00000000  0.00000000  -0.00000000  1
  Ta  Ta13  1  -0.00000000  0.00000000  0.50000000  1
  Ta  Ta14  1  0.27504636  0.27504636  0.75000000  1
  Ta  Ta15  1  0.72495364  0.72495364  0.25000000  1
  Ta  Ta16  1  0.00000000  0.72495364  0.75000000  1
  Ta  Ta17  1  1.00000000  0.27504636  0.25000000  1
  Ta  Ta18  1  0.72495364  0.00000000  0.75000000  1
  Ta  Ta19  1  0.27504636  1.00000000  0.25000000  1
  Al  Al20  1  0.85010440  0.44543926  0.75000000  1
  Al  Al21  1  0.14989560  0.55456074  0.25000000  1
  Al  Al22  1  0.59533486  0.14989560  0.75000000  1
  Al  Al23  1  0.40466514  0.55456074  0.75000000  1
  Al  Al24  1  0.40466514  0.85010440  0.25000000  1
  Al  Al25  1  0.59533486  0.44543926  0.25000000  1
  Al  Al26  1  0.55456074  0.40466514  0.75000000  1
  Al  Al27  1  0.44543926  0.85010440  0.75000000  1
  Al  Al28  1  0.44543926  0.59533486  0.25000000  1
  Al  Al29  1  0.55456074  0.14989560  0.25000000  1
  Al  Al30  1  0.14989560  0.59533486  0.75000000  1
  Al  Al31  1  0.85010440  0.40466514  0.25000000  1
  Al  Al32  1  0.84061888  0.84061888  0.38496606  1
  Al  Al33  1  0.15938112  0.15938112  0.61503394  1
  Al  Al34  1  0.00000000  0.15938112  0.38496606  1
  Al  Al35  1  0.15938112  0.15938112  0.88496606  1
  Al  Al36  1  0.00000000  0.15938112  0.11503394  1
  Al  Al37  1  1.00000000  0.84061888  0.61503394  1
  Al  Al38  1  0.84061888  0.84061888  0.11503394  1
  Al  Al39  1  1.00000000  0.84061888  0.88496606  1
  Al  Al40  1  0.15938112  0.00000000  0.38496606  1
  Al  Al41  1  0.84061888  1.00000000  0.61503394  1
  Al  Al42  1  0.84061888  1.00000000  0.88496606  1
  Al  Al43  1  0.15938112  0.00000000  0.11503394  1
  Al  Al44  1  0.75294360  0.24705640  -0.00000000  1
  Al  Al45  1  0.24705640  0.75294360  -0.00000000  1
  Al  Al46  1  0.49411281  0.24705640  -0.00000000  1
  Al  Al47  1  0.24705640  0.75294360  0.50000000  1
  Al  Al48  1  0.50588719  0.75294360  0.50000000  1
  Al  Al49  1  0.50588719  0.75294360  -0.00000000  1
  Al  Al50  1  0.75294360  0.24705640  0.50000000  1
  Al  Al51  1  0.49411281  0.24705640  0.50000000  1
  Al  Al52  1  0.75294360  0.50588719  -0.00000000  1
  Al  Al53  1  0.24705640  0.49411281  -0.00000000  1
  Al  Al54  1  0.24705640  0.49411281  0.50000000  1
  Al  Al55  1  0.75294360  0.50588719  0.50000000  1
  Al  Al56  1  0.85271354  0.85271354  0.75000000  1
  Al  Al57  1  0.14728646  0.14728646  0.25000000  1
  Al  Al58  1  0.00000000  0.14728646  0.75000000  1
  Al  Al59  1  1.00000000  0.85271354  0.25000000  1
  Al  Al60  1  0.14728646  0.00000000  0.75000000  1
  Al  Al61  1  0.85271354  1.00000000  0.25000000  1
  Al  Al62  1  0.66666700  0.33333300  0.87378558  1
  Al  Al63  1  0.33333300  0.66666700  0.12621442  1
  Al  Al64  1  0.33333300  0.66666700  0.37378558  1
  Al  Al65  1  0.33333300  0.66666700  0.62621442  1
  Al  Al66  1  0.66666700  0.33333300  0.62621442  1
  Al  Al67  1  0.66666700  0.33333300  0.37378558  1
  Al  Al68  1  0.66666700  0.33333300  0.12621442  1
  Al  Al69  1  0.33333300  0.66666700  0.87378558  1
  Al  Al70  1  0.74319711  0.74319711  0.96969386  1
  Al  Al71  1  0.25680289  0.25680289  0.03030614  1
  Al  Al72  1  1.00000000  0.25680289  0.96969386  1
  Al  Al73  1  0.25680289  0.25680289  0.46969386  1
  Al  Al74  1  1.00000000  0.25680289  0.53030614  1
  Al  Al75  1  0.00000000  0.74319711  0.03030614  1
  Al  Al76  1  0.74319711  0.74319711  0.53030614  1
  Al  Al77  1  0.00000000  0.74319711  0.46969386  1
  Al  Al78  1  0.25680289  1.00000000  0.96969386  1
  Al  Al79  1  0.74319711  0.00000000  0.03030614  1
  Al  Al80  1  0.74319711  0.00000000  0.46969386  1
  Al  Al81  1  0.25680289  1.00000000  0.53030614  1
  Al  Al82  1  0.84287138  0.23776607  0.83690885  1
  Al  Al83  1  0.15712862  0.76223393  0.16309115  1
  Al  Al84  1  0.39489469  0.15712862  0.83690885  1
  Al  Al85  1  0.15712862  0.76223393  0.33690885  1
  Al  Al86  1  0.60510531  0.76223393  0.66309115  1
  Al  Al87  1  0.60510531  0.84287138  0.16309115  1
  Al  Al88  1  0.84287138  0.23776607  0.66309115  1
  Al  Al89  1  0.39489469  0.23776607  0.33690885  1
  Al  Al90  1  0.76223393  0.60510531  0.83690885  1
  Al  Al91  1  0.60510531  0.84287138  0.33690885  1
  Al  Al92  1  0.23776607  0.84287138  0.66309115  1
  Al  Al93  1  0.23776607  0.39489469  0.16309115  1
  Al  Al94  1  0.39489469  0.15712862  0.66309115  1
  Al  Al95  1  0.76223393  0.15712862  0.33690885  1
  Al  Al96  1  0.39489469  0.23776607  0.16309115  1
  Al  Al97  1  0.60510531  0.76223393  0.83690885  1
  Al  Al98  1  0.23776607  0.39489469  0.33690885  1
  Al  Al99  1  0.76223393  0.15712862  0.16309115  1
  Al  Al100  1  0.76223393  0.60510531  0.66309115  1
  Al  Al101  1  0.23776607  0.84287138  0.83690885  1
  Al  Al102  1  0.15712862  0.39489469  0.66309115  1
  Al  Al103  1  0.84287138  0.60510531  0.33690885  1
  Al  Al104  1  0.84287138  0.60510531  0.16309115  1
  Al  Al105  1  0.15712862  0.39489469  0.83690885  1
