# generated using pymatgen
data_TiVCN
_symmetry_space_group_name_H-M   'P 1'
_cell_length_a   2.97540669
_cell_length_b   2.97540669
_cell_length_c   5.18806693
_cell_angle_alpha   73.33622710
_cell_angle_beta   90.00000000
_cell_angle_gamma   120.00000000
_symmetry_Int_Tables_number   1
_chemical_formula_structural   TiVCN
_chemical_formula_sum   'Ti1 V1 C1 N1'
_cell_volume   37.53290960
_cell_formula_units_Z   1
loop_
 _symmetry_equiv_pos_site_id
 _symmetry_equiv_pos_as_xyz
  1  'x, y, z'
loop_
 _atom_site_type_symbol
 _atom_site_label
 _atom_site_symmetry_multiplicity
 _atom_site_fract_x
 _atom_site_fract_y
 _atom_site_fract_z
 _atom_site_occupancy
  Ti  Ti0  1  0.25174113  0.50348227  0.24477660  1
  V  V1  1  0.74733178  0.49466356  0.75800467  1
  C  C2  1  0.00244414  0.00488828  0.99266758  1
  N  N3  1  0.49848295  0.99696589  0.50455116  1
