# generated using pymatgen
data_Tm6InCo2
_symmetry_space_group_name_H-M   'P 1'
_cell_length_a   8.28135174
_cell_length_b   8.28135174
_cell_length_c   8.28135174
_cell_angle_alpha   106.51980176
_cell_angle_beta   110.24826357
_cell_angle_gamma   111.68877216
_symmetry_Int_Tables_number   1
_chemical_formula_structural   Tm6InCo2
_chemical_formula_sum   'Tm12 In2 Co4'
_cell_volume   436.26437107
_cell_formula_units_Z   2
loop_
 _symmetry_equiv_pos_site_id
 _symmetry_equiv_pos_as_xyz
  1  'x, y, z'
loop_
 _atom_site_type_symbol
 _atom_site_label
 _atom_site_symmetry_multiplicity
 _atom_site_fract_x
 _atom_site_fract_y
 _atom_site_fract_z
 _atom_site_occupancy
  Tm  Tm0  1  0.79207474  0.76443489  0.55650963  1
  Tm  Tm1  1  0.20792526  0.23556511  0.44349037  1
  Tm  Tm2  1  0.20792526  0.76443489  0.97236016  1
  Tm  Tm3  1  0.79207474  0.23556511  0.02763984  1
  Tm  Tm4  1  0.52859540  0.71365411  0.81494129  1
  Tm  Tm5  1  0.47140460  0.28634589  0.18505871  1
  Tm  Tm6  1  0.10128719  0.28634589  0.81494129  1
  Tm  Tm7  1  0.89871281  0.71365411  0.18505871  1
  Tm  Tm8  1  0.69343987  0.37519368  0.68175380  1
  Tm  Tm9  1  0.30656013  0.62480632  0.31824620  1
  Tm  Tm10  1  0.30656013  0.98831393  0.68175380  1
  Tm  Tm11  1  0.69343987  0.01168607  0.31824620  1
  In  In12  1  -0.00000000  0.50000000  0.50000000  1
  In  In13  1  -0.00000000  -0.00000000  -0.00000000  1
  Co  Co14  1  0.63125070  -0.00000000  0.63125070  1
  Co  Co15  1  0.36874930  0.00000000  0.36874930  1
  Co  Co16  1  0.50000000  0.38626112  0.88626112  1
  Co  Co17  1  0.50000000  0.61373888  0.11373888  1
