# generated using pymatgen
data_Tm12(OsC3)5
_symmetry_space_group_name_H-M   'P 1'
_cell_length_a   4.98741562
_cell_length_b   10.60444014
_cell_length_c   10.60444014
_cell_angle_alpha   119.99999688
_cell_angle_beta   90.00000000
_cell_angle_gamma   90.00000000
_symmetry_Int_Tables_number   1
_chemical_formula_structural   Tm12(OsC3)5
_chemical_formula_sum   'Tm12 Os5 C15'
_cell_volume   485.71520204
_cell_formula_units_Z   1
loop_
 _symmetry_equiv_pos_site_id
 _symmetry_equiv_pos_as_xyz
  1  'x, y, z'
loop_
 _atom_site_type_symbol
 _atom_site_label
 _atom_site_symmetry_multiplicity
 _atom_site_fract_x
 _atom_site_fract_y
 _atom_site_fract_z
 _atom_site_occupancy
  Tm  Tm0  1  0.50000000  0.20631074  0.20631074  1
  Tm  Tm1  1  0.50000000  0.00000000  0.79368926  1
  Tm  Tm2  1  0.50000000  0.79368926  0.00000000  1
  Tm  Tm3  1  -0.00000000  0.72787303  0.18356122  1
  Tm  Tm4  1  0.00000000  0.45568819  0.27212697  1
  Tm  Tm5  1  -0.00000000  0.54431181  0.81643878  1
  Tm  Tm6  1  0.00000000  0.81643878  0.54431181  1
  Tm  Tm7  1  0.00000000  0.18356122  0.72787303  1
  Tm  Tm8  1  -0.00000000  0.27212697  0.45568819  1
  Tm  Tm9  1  0.50000000  0.56246296  0.56246296  1
  Tm  Tm10  1  0.50000000  1.00000000  0.43753704  1
  Tm  Tm11  1  0.50000000  0.43753704  1.00000000  1
  Os  Os12  1  0.00000000  0.83836898  0.83836898  1
  Os  Os13  1  -0.00000000  1.00000000  0.16163102  1
  Os  Os14  1  0.00000000  0.16163102  1.00000000  1
  Os  Os15  1  0.50000000  0.66666700  0.33333300  1
  Os  Os16  1  0.50000000  0.33333300  0.66666700  1
  C  C17  1  -0.00000000  0.66143444  0.66143444  1
  C  C18  1  0.00000000  0.00000000  0.33856556  1
  C  C19  1  -0.00000000  0.33856556  0.00000000  1
  C  C20  1  0.00000000  0.21135163  0.21135163  1
  C  C21  1  0.00000000  0.00000000  0.78864837  1
  C  C22  1  -0.00000000  0.78864837  0.00000000  1
  C  C23  1  0.00000000  0.53545751  0.53545751  1
  C  C24  1  -0.00000000  1.00000000  0.46454249  1
  C  C25  1  0.00000000  0.46454249  1.00000000  1
  C  C26  1  0.50000000  0.71802522  0.18371150  1
  C  C27  1  0.50000000  0.46568629  0.28197478  1
  C  C28  1  0.50000000  0.53431371  0.81628850  1
  C  C29  1  0.50000000  0.81628850  0.53431371  1
  C  C30  1  0.50000000  0.18371150  0.71802522  1
  C  C31  1  0.50000000  0.28197478  0.46568629  1
