# generated using pymatgen
data_Ti5CuSn3
_symmetry_space_group_name_H-M   'P 1'
_cell_length_a   5.53806098
_cell_length_b   8.22546964
_cell_length_c   8.22546964
_cell_angle_alpha   119.99999534
_cell_angle_beta   90.00000000
_cell_angle_gamma   90.00000000
_symmetry_Int_Tables_number   1
_chemical_formula_structural   Ti5CuSn3
_chemical_formula_sum   'Ti10 Cu2 Sn6'
_cell_volume   324.49633281
_cell_formula_units_Z   2
loop_
 _symmetry_equiv_pos_site_id
 _symmetry_equiv_pos_as_xyz
  1  'x, y, z'
loop_
 _atom_site_type_symbol
 _atom_site_label
 _atom_site_symmetry_multiplicity
 _atom_site_fract_x
 _atom_site_fract_y
 _atom_site_fract_z
 _atom_site_occupancy
  Ti  Ti0  1  0.75000000  0.73008518  0.73008518  1
  Ti  Ti1  1  0.25000000  0.26991482  0.26991482  1
  Ti  Ti2  1  0.75000000  0.00000000  0.26991482  1
  Ti  Ti3  1  0.25000000  1.00000000  0.73008518  1
  Ti  Ti4  1  0.75000000  0.26991482  0.00000000  1
  Ti  Ti5  1  0.25000000  0.73008518  1.00000000  1
  Ti  Ti6  1  0.00000000  0.66666700  0.33333300  1
  Ti  Ti7  1  0.00000000  0.33333300  0.66666700  1
  Ti  Ti8  1  0.50000000  0.33333300  0.66666700  1
  Ti  Ti9  1  0.50000000  0.66666700  0.33333300  1
  Cu  Cu10  1  0.00000000  0.00000000  0.00000000  1
  Cu  Cu11  1  0.50000000  -0.00000000  0.00000000  1
  Sn  Sn12  1  0.75000000  0.38234589  0.38234589  1
  Sn  Sn13  1  0.25000000  0.61765411  0.61765411  1
  Sn  Sn14  1  0.75000000  0.00000000  0.61765411  1
  Sn  Sn15  1  0.25000000  1.00000000  0.38234589  1
  Sn  Sn16  1  0.75000000  0.61765411  0.00000000  1
  Sn  Sn17  1  0.25000000  0.38234589  1.00000000  1
