# generated using pymatgen
data_Ti5MnSb2
_symmetry_space_group_name_H-M   'P 1'
_cell_length_a   5.14403286
_cell_length_b   7.85500213
_cell_length_c   7.85500213
_cell_angle_alpha   83.84521251
_cell_angle_beta   70.88672923
_cell_angle_gamma   70.88672923
_symmetry_Int_Tables_number   1
_chemical_formula_structural   Ti5MnSb2
_chemical_formula_sum   'Ti10 Mn2 Sb4'
_cell_volume   283.36311334
_cell_formula_units_Z   2
loop_
 _symmetry_equiv_pos_site_id
 _symmetry_equiv_pos_as_xyz
  1  'x, y, z'
loop_
 _atom_site_type_symbol
 _atom_site_label
 _atom_site_symmetry_multiplicity
 _atom_site_fract_x
 _atom_site_fract_y
 _atom_site_fract_z
 _atom_site_occupancy
  Ti  Ti0  1  0.06979089  0.13104510  0.72937311  1
  Ti  Ti1  1  0.93020911  0.86895490  0.27062689  1
  Ti  Ti2  1  0.79916401  0.27062689  0.13104510  1
  Ti  Ti3  1  0.43020911  0.27062689  0.86895490  1
  Ti  Ti4  1  0.20083599  0.72937311  0.86895490  1
  Ti  Ti5  1  0.56979089  0.72937311  0.13104510  1
  Ti  Ti6  1  0.70083599  0.86895490  0.72937311  1
  Ti  Ti7  1  0.29916401  0.13104510  0.27062689  1
  Ti  Ti8  1  0.25000000  0.50000000  0.50000000  1
  Ti  Ti9  1  0.75000000  0.50000000  0.50000000  1
  Mn  Mn10  1  0.25000000  -0.00000000  0.00000000  1
  Mn  Mn11  1  0.75000000  -0.00000000  0.00000000  1
  Sb  Sb12  1  0.16390952  0.50000000  0.17218096  1
  Sb  Sb13  1  0.83609048  0.50000000  0.82781904  1
  Sb  Sb14  1  0.33609048  0.82781904  0.50000000  1
  Sb  Sb15  1  0.66390952  0.17218096  0.50000000  1
