# generated using pymatgen
data_TiTlAsO5
_symmetry_space_group_name_H-M   'P 1'
_cell_length_a   6.75918150
_cell_length_b   13.47147719
_cell_length_c   10.98151875
_cell_angle_alpha   90.00000000
_cell_angle_beta   90.00000000
_cell_angle_gamma   90.00000000
_symmetry_Int_Tables_number   1
_chemical_formula_structural   TiTlAsO5
_chemical_formula_sum   'Ti8 Tl8 As8 O40'
_cell_volume   999.93492176
_cell_formula_units_Z   8
loop_
 _symmetry_equiv_pos_site_id
 _symmetry_equiv_pos_as_xyz
  1  'x, y, z'
loop_
 _atom_site_type_symbol
 _atom_site_label
 _atom_site_symmetry_multiplicity
 _atom_site_fract_x
 _atom_site_fract_y
 _atom_site_fract_z
 _atom_site_occupancy
  Ti  Ti0  1  0.73250370  0.74685633  0.73444113  1
  Ti  Ti1  1  0.26749630  0.25314367  0.23444113  1
  Ti  Ti2  1  0.76749630  0.24685633  0.73444113  1
  Ti  Ti3  1  0.23250370  0.75314367  0.23444113  1
  Ti  Ti4  1  0.49982467  0.86936373  0.98482549  1
  Ti  Ti5  1  0.50017533  0.13063627  0.48482549  1
  Ti  Ti6  1  0.00017533  0.36936373  0.98482549  1
  Ti  Ti7  1  -0.00017533  0.63063627  0.48482549  1
  Tl  Tl8  1  0.79742559  0.89587444  0.42107149  1
  Tl  Tl9  1  0.20257441  0.10412556  0.92107149  1
  Tl  Tl10  1  0.70257441  0.39587444  0.42107149  1
  Tl  Tl11  1  0.29742559  0.60412556  0.92107149  1
  Tl  Tl12  1  0.21794527  0.87591740  0.67402737  1
  Tl  Tl13  1  0.78205473  0.12408260  0.17402737  1
  Tl  Tl14  1  0.28205473  0.37591740  0.67402737  1
  Tl  Tl15  1  0.71794527  0.62408260  0.17402737  1
  As  As16  1  0.99545796  0.81904955  0.97399576  1
  As  As17  1  0.00454204  0.18095045  0.47399576  1
  As  As18  1  0.50454204  0.31904955  0.97399576  1
  As  As19  1  0.49545796  0.68095045  0.47399576  1
  As  As20  1  0.66333666  0.00001964  0.72629807  1
  As  As21  1  0.33666334  0.99998036  0.22629807  1
  As  As22  1  0.83666334  0.50001964  0.72629807  1
  As  As23  1  0.16333666  0.49998036  0.22629807  1
  O  O24  1  0.95944763  0.74232268  0.84901131  1
  O  O25  1  0.04055237  0.25767732  0.34901131  1
  O  O26  1  0.54055237  0.24232268  0.84901131  1
  O  O27  1  0.45944763  0.75767732  0.34901131  1
  O  O28  1  0.54982927  0.78159245  0.84646363  1
  O  O29  1  0.45017073  0.21840755  0.34646363  1
  O  O30  1  0.95017073  0.28159245  0.84646363  1
  O  O31  1  0.04982927  0.71840755  0.34646363  1
  O  O32  1  0.50100047  0.98667161  0.84407326  1
  O  O33  1  0.49899953  0.01332839  0.34407326  1
  O  O34  1  0.99899953  0.48667161  0.84407326  1
  O  O35  1  0.00100047  0.51332839  0.34407326  1
  O  O36  1  0.69873101  0.60957804  0.44005012  1
  O  O37  1  0.30126899  0.39042196  0.94005012  1
  O  O38  1  0.80126899  0.10957804  0.44005012  1
  O  O39  1  0.19873101  0.89042196  0.94005012  1
  O  O40  1  0.97108785  0.51203044  0.59304027  1
  O  O41  1  0.02891215  0.48796956  0.09304027  1
  O  O42  1  0.52891215  0.01203044  0.59304027  1
  O  O43  1  0.47108785  0.98796956  0.09304027  1
  O  O44  1  0.68436746  0.60182412  0.74758891  1
  O  O45  1  0.31563254  0.39817588  0.24758891  1
  O  O46  1  0.81563254  0.10182412  0.74758891  1
  O  O47  1  0.18436746  0.89817588  0.24758891  1
  O  O48  1  0.79332529  0.89161084  0.00363387  1
  O  O49  1  0.20667471  0.10838916  0.50363387  1
  O  O50  1  0.70667471  0.39161084  0.00363387  1
  O  O51  1  0.29332529  0.60838916  0.50363387  1
  O  O52  1  0.53861104  0.75942267  0.59506316  1
  O  O53  1  0.46138896  0.24057733  0.09506316  1
  O  O54  1  0.96138896  0.25942267  0.59506316  1
  O  O55  1  0.03861104  0.74057733  0.09506316  1
  O  O56  1  0.94273270  0.71957806  0.59690106  1
  O  O57  1  0.05726730  0.28042194  0.09690106  1
  O  O58  1  0.55726730  0.21957806  0.59690106  1
  O  O59  1  0.44273270  0.78042194  0.09690106  1
  O  O60  1  0.80704991  0.89552819  0.70365510  1
  O  O61  1  0.19295009  0.10447181  0.20365510  1
  O  O62  1  0.69295009  0.39552819  0.70365510  1
  O  O63  1  0.30704991  0.60447181  0.20365510  1
