# generated using pymatgen
data_Tl2(SeO4)3
_symmetry_space_group_name_H-M   'P 1'
_cell_length_a   9.16628616
_cell_length_b   9.48020583
_cell_length_c   12.89290410
_cell_angle_alpha   90.00000000
_cell_angle_beta   91.00915869
_cell_angle_gamma   90.00000000
_symmetry_Int_Tables_number   1
_chemical_formula_structural   Tl2(SeO4)3
_chemical_formula_sum   'Tl8 Se12 O48'
_cell_volume   1120.19740528
_cell_formula_units_Z   4
loop_
 _symmetry_equiv_pos_site_id
 _symmetry_equiv_pos_as_xyz
  1  'x, y, z'
loop_
 _atom_site_type_symbol
 _atom_site_label
 _atom_site_symmetry_multiplicity
 _atom_site_fract_x
 _atom_site_fract_y
 _atom_site_fract_z
 _atom_site_occupancy
  Tl  Tl0  1  0.25068068  0.53202045  0.38790408  1
  Tl  Tl1  1  0.74931932  0.46797955  0.61209592  1
  Tl  Tl2  1  0.24931932  0.03202045  0.11209592  1
  Tl  Tl3  1  0.75068068  0.96797955  0.88790408  1
  Tl  Tl4  1  0.75233995  0.53487762  0.11429211  1
  Tl  Tl5  1  0.24766005  0.46512238  0.88570789  1
  Tl  Tl6  1  0.74766005  0.03487762  0.38570789  1
  Tl  Tl7  1  0.25233995  0.96512238  0.61429211  1
  Se  Se8  1  0.11035689  0.38197410  0.14729230  1
  Se  Se9  1  0.88964311  0.61802590  0.85270770  1
  Se  Se10  1  0.38964311  0.88197410  0.35270770  1
  Se  Se11  1  0.61035689  0.11802590  0.64729230  1
  Se  Se12  1  0.89934191  0.87852137  0.15613079  1
  Se  Se13  1  0.10065809  0.12147863  0.84386921  1
  Se  Se14  1  0.60065809  0.37852137  0.34386921  1
  Se  Se15  1  0.39934191  0.62147863  0.65613079  1
  Se  Se16  1  0.45931862  0.75284841  0.00292669  1
  Se  Se17  1  0.54068138  0.24715159  0.99707331  1
  Se  Se18  1  0.04068138  0.25284841  0.49707331  1
  Se  Se19  1  0.95931862  0.74715159  0.50292669  1
  O  O20  1  0.15180184  0.22304054  0.19668864  1
  O  O21  1  0.84819816  0.77695946  0.80331136  1
  O  O22  1  0.34819816  0.72304054  0.30331136  1
  O  O23  1  0.65180184  0.27695946  0.69668864  1
  O  O24  1  0.03219644  0.61544780  0.43458620  1
  O  O25  1  0.96780356  0.38455220  0.56541380  1
  O  O26  1  0.46780356  0.11544780  0.06541380  1
  O  O27  1  0.53219644  0.88455220  0.93458620  1
  O  O28  1  0.56686667  0.70392681  0.10319328  1
  O  O29  1  0.43313333  0.29607319  0.89680672  1
  O  O30  1  0.93313333  0.20392681  0.39680672  1
  O  O31  1  0.06686667  0.79607319  0.60319328  1
  O  O32  1  0.06910080  0.91991769  0.19637021  1
  O  O33  1  0.93089920  0.08008231  0.80362979  1
  O  O34  1  0.43089920  0.41991769  0.30362979  1
  O  O35  1  0.56910080  0.58008231  0.69637021  1
  O  O36  1  0.11096482  0.50368842  0.24098329  1
  O  O37  1  0.88903518  0.49631158  0.75901671  1
  O  O38  1  0.38903518  0.00368842  0.25901671  1
  O  O39  1  0.61096482  0.99631158  0.74098329  1
  O  O40  1  0.92887838  0.88011816  0.41902524  1
  O  O41  1  0.07112162  0.11988184  0.58097476  1
  O  O42  1  0.57112162  0.38011816  0.08097476  1
  O  O43  1  0.42887838  0.61988184  0.91902524  1
  O  O44  1  0.94067721  0.37896230  0.09421947  1
  O  O45  1  0.05932279  0.62103770  0.90578053  1
  O  O46  1  0.55932279  0.87896230  0.40578053  1
  O  O47  1  0.44067721  0.12103770  0.59421947  1
  O  O48  1  0.77715845  0.98542455  0.21179575  1
  O  O49  1  0.22284155  0.01457545  0.78820425  1
  O  O50  1  0.72284155  0.48542455  0.28820425  1
  O  O51  1  0.27715845  0.51457545  0.71179575  1
  O  O52  1  0.29909293  0.81098949  0.04816237  1
  O  O53  1  0.70090707  0.18901051  0.95183763  1
  O  O54  1  0.20090707  0.31098949  0.45183763  1
  O  O55  1  0.79909293  0.68901051  0.54816237  1
  O  O56  1  0.88692437  0.89052539  0.02672229  1
  O  O57  1  0.11307563  0.10947461  0.97327771  1
  O  O58  1  0.61307563  0.39052539  0.47327771  1
  O  O59  1  0.38692437  0.60947461  0.52672229  1
  O  O60  1  0.87774119  0.70954062  0.19278166  1
  O  O61  1  0.12225881  0.29045938  0.80721834  1
  O  O62  1  0.62225881  0.20954062  0.30721834  1
  O  O63  1  0.37774119  0.79045938  0.69278166  1
  O  O64  1  0.26384005  0.92260962  0.44103183  1
  O  O65  1  0.73615995  0.07739038  0.55896817  1
  O  O66  1  0.23615995  0.42260962  0.05896817  1
  O  O67  1  0.76384005  0.57739038  0.94103183  1
