# generated using pymatgen
data_TlSn2F5
_symmetry_space_group_name_H-M   'P 1'
_cell_length_a   5.38490560
_cell_length_b   4.38832652
_cell_length_c   9.37296964
_cell_angle_alpha   87.45299870
_cell_angle_beta   90.00059886
_cell_angle_gamma   127.85319798
_symmetry_Int_Tables_number   1
_chemical_formula_structural   TlSn2F5
_chemical_formula_sum   'Tl1 Sn2 F5'
_cell_volume   174.60823933
_cell_formula_units_Z   1
loop_
 _symmetry_equiv_pos_site_id
 _symmetry_equiv_pos_as_xyz
  1  'x, y, z'
loop_
 _atom_site_type_symbol
 _atom_site_label
 _atom_site_symmetry_multiplicity
 _atom_site_fract_x
 _atom_site_fract_y
 _atom_site_fract_z
 _atom_site_occupancy
  Tl  Tl0  1  0.00148933  0.00312011  0.99794637  1
  Sn  Sn1  1  0.69594411  0.39117191  0.61038463  1
  Sn  Sn2  1  0.34426029  0.68853774  0.31175881  1
  F  F3  1  0.64183456  0.28369208  0.82347189  1
  F  F4  1  0.35624763  0.71256283  0.08962842  1
  F  F5  1  0.34180106  0.18731567  0.26294886  1
  F  F6  1  0.84540995  0.18723975  0.26292714  1
  F  F7  1  0.99101307  0.98215991  0.64733387  1
