# generated using pymatgen
data_TbSiPd2
_symmetry_space_group_name_H-M   'P 1'
_cell_length_a   5.57184600
_cell_length_b   6.99184136
_cell_length_c   7.38561840
_cell_angle_alpha   90.00000000
_cell_angle_beta   90.00000000
_cell_angle_gamma   90.00000000
_symmetry_Int_Tables_number   1
_chemical_formula_structural   TbSiPd2
_chemical_formula_sum   'Tb4 Si4 Pd8'
_cell_volume   287.72495787
_cell_formula_units_Z   4
loop_
 _symmetry_equiv_pos_site_id
 _symmetry_equiv_pos_as_xyz
  1  'x, y, z'
loop_
 _atom_site_type_symbol
 _atom_site_label
 _atom_site_symmetry_multiplicity
 _atom_site_fract_x
 _atom_site_fract_y
 _atom_site_fract_z
 _atom_site_occupancy
  Tb  Tb0  1  0.35723583  0.75000000  0.97184385  1
  Tb  Tb1  1  0.64276417  0.25000000  0.02815615  1
  Tb  Tb2  1  0.85723583  0.25000000  0.52815615  1
  Tb  Tb3  1  0.14276417  0.75000000  0.47184385  1
  Si  Si4  1  0.64387154  0.75000000  0.62245735  1
  Si  Si5  1  0.35612846  0.25000000  0.37754265  1
  Si  Si6  1  0.14387154  0.25000000  0.87754265  1
  Si  Si7  1  0.85612846  0.75000000  0.12245735  1
  Pd  Pd8  1  0.90607447  0.94874473  0.82284676  1
  Pd  Pd9  1  0.09392553  0.05125527  0.17715324  1
  Pd  Pd10  1  0.40607447  0.05125527  0.67715324  1
  Pd  Pd11  1  0.09392553  0.44874473  0.17715324  1
  Pd  Pd12  1  0.59392553  0.94874473  0.32284676  1
  Pd  Pd13  1  0.90607447  0.55125527  0.82284676  1
  Pd  Pd14  1  0.59392553  0.55125527  0.32284676  1
  Pd  Pd15  1  0.40607447  0.44874473  0.67715324  1
