# generated using pymatgen
data_SmGeIr
_symmetry_space_group_name_H-M   'P 1'
_cell_length_a   4.38720451
_cell_length_b   7.02720848
_cell_length_c   7.68121796
_cell_angle_alpha   90.00000000
_cell_angle_beta   90.00000000
_cell_angle_gamma   90.00000000
_symmetry_Int_Tables_number   1
_chemical_formula_structural   SmGeIr
_chemical_formula_sum   'Sm4 Ge4 Ir4'
_cell_volume   236.81041912
_cell_formula_units_Z   4
loop_
 _symmetry_equiv_pos_site_id
 _symmetry_equiv_pos_as_xyz
  1  'x, y, z'
loop_
 _atom_site_type_symbol
 _atom_site_label
 _atom_site_symmetry_multiplicity
 _atom_site_fract_x
 _atom_site_fract_y
 _atom_site_fract_z
 _atom_site_occupancy
  Sm  Sm0  1  0.75000000  0.99853206  0.30843852  1
  Sm  Sm1  1  0.25000000  0.00146794  0.69156148  1
  Sm  Sm2  1  0.25000000  0.50146794  0.80843852  1
  Sm  Sm3  1  0.75000000  0.49853206  0.19156148  1
  Ge  Ge4  1  0.75000000  0.70320547  0.60754010  1
  Ge  Ge5  1  0.25000000  0.29679453  0.39245990  1
  Ge  Ge6  1  0.25000000  0.79679453  0.10754010  1
  Ge  Ge7  1  0.75000000  0.20320547  0.89245990  1
  Ir  Ir8  1  0.75000000  0.84037366  0.93310219  1
  Ir  Ir9  1  0.25000000  0.15962634  0.06689781  1
  Ir  Ir10  1  0.25000000  0.65962634  0.43310219  1
  Ir  Ir11  1  0.75000000  0.34037366  0.56689781  1
