# generated using pymatgen
data_Tm3In5
_symmetry_space_group_name_H-M   'P 1'
_cell_length_a   6.54074499
_cell_length_b   10.43161302
_cell_length_c   11.96411180
_cell_angle_alpha   90.00000000
_cell_angle_beta   90.00000000
_cell_angle_gamma   90.00000000
_symmetry_Int_Tables_number   1
_chemical_formula_structural   Tm3In5
_chemical_formula_sum   'Tm12 In20'
_cell_volume   816.31757661
_cell_formula_units_Z   4
loop_
 _symmetry_equiv_pos_site_id
 _symmetry_equiv_pos_as_xyz
  1  'x, y, z'
loop_
 _atom_site_type_symbol
 _atom_site_label
 _atom_site_symmetry_multiplicity
 _atom_site_fract_x
 _atom_site_fract_y
 _atom_site_fract_z
 _atom_site_occupancy
  Tm  Tm0  1  0.84825770  0.75000000  0.94616624  1
  Tm  Tm1  1  0.15174230  0.25000000  0.05383376  1
  Tm  Tm2  1  0.34825770  0.25000000  0.55383376  1
  Tm  Tm3  1  0.65174230  0.75000000  0.44616624  1
  Tm  Tm4  1  0.89027975  0.98904842  0.63981016  1
  Tm  Tm5  1  0.10972025  0.01095158  0.36018984  1
  Tm  Tm6  1  0.39027975  0.01095158  0.86018984  1
  Tm  Tm7  1  0.10972025  0.48904842  0.36018984  1
  Tm  Tm8  1  0.60972025  0.98904842  0.13981016  1
  Tm  Tm9  1  0.89027975  0.51095158  0.63981016  1
  Tm  Tm10  1  0.60972025  0.51095158  0.13981016  1
  Tm  Tm11  1  0.39027975  0.48904842  0.86018984  1
  In  In12  1  0.87426392  0.45809637  0.90076099  1
  In  In13  1  0.12573608  0.54190363  0.09923901  1
  In  In14  1  0.37426392  0.54190363  0.59923901  1
  In  In15  1  0.12573608  0.95809637  0.09923901  1
  In  In16  1  0.62573608  0.45809637  0.40076099  1
  In  In17  1  0.87426392  0.04190363  0.90076099  1
  In  In18  1  0.62573608  0.04190363  0.40076099  1
  In  In19  1  0.37426392  0.95809637  0.59923901  1
  In  In20  1  0.15409812  0.75000000  0.75798598  1
  In  In21  1  0.84590188  0.25000000  0.24201402  1
  In  In22  1  0.65409812  0.25000000  0.74201402  1
  In  In23  1  0.34590188  0.75000000  0.25798598  1
  In  In24  1  0.38548256  0.75000000  0.99261181  1
  In  In25  1  0.61451744  0.25000000  0.00738819  1
  In  In26  1  0.88548256  0.25000000  0.50738819  1
  In  In27  1  0.11451744  0.75000000  0.49261181  1
  In  In28  1  0.62551690  0.75000000  0.71639072  1
  In  In29  1  0.37448310  0.25000000  0.28360928  1
  In  In30  1  0.12551690  0.25000000  0.78360928  1
  In  In31  1  0.87448310  0.75000000  0.21639072  1
