# generated using pymatgen
data_Ta2Mn(P2O7)3
_symmetry_space_group_name_H-M   'P 1'
_cell_length_a   6.66700008
_cell_length_b   8.06984298
_cell_length_c   15.66279030
_cell_angle_alpha   90.00000000
_cell_angle_beta   90.64099050
_cell_angle_gamma   90.00000000
_symmetry_Int_Tables_number   1
_chemical_formula_structural   Ta2Mn(P2O7)3
_chemical_formula_sum   'Ta4 Mn2 P12 O42'
_cell_volume   842.63113052
_cell_formula_units_Z   2
loop_
 _symmetry_equiv_pos_site_id
 _symmetry_equiv_pos_as_xyz
  1  'x, y, z'
loop_
 _atom_site_type_symbol
 _atom_site_label
 _atom_site_symmetry_multiplicity
 _atom_site_fract_x
 _atom_site_fract_y
 _atom_site_fract_z
 _atom_site_occupancy
  Ta  Ta0  1  0.03618206  0.47820901  0.33308388  1
  Ta  Ta1  1  0.96381794  0.52179099  0.66691612  1
  Ta  Ta2  1  0.46381794  0.97820901  0.16691612  1
  Ta  Ta3  1  0.53618206  0.02179099  0.83308388  1
  Mn  Mn4  1  0.50000000  0.00000000  0.50000000  1
  Mn  Mn5  1  0.00000000  0.50000000  0.00000000  1
  P  P6  1  0.15543247  0.89614544  0.33689128  1
  P  P7  1  0.84456753  0.10385456  0.66310872  1
  P  P8  1  0.34456753  0.39614544  0.16310872  1
  P  P9  1  0.65543247  0.60385456  0.83689128  1
  P  P10  1  0.71452176  0.60939279  0.16842810  1
  P  P11  1  0.28547824  0.39060721  0.83157190  1
  P  P12  1  0.78547824  0.10939279  0.33157190  1
  P  P13  1  0.21452176  0.89060721  0.66842810  1
  P  P14  1  0.30987363  0.38880528  0.51758689  1
  P  P15  1  0.69012637  0.61119472  0.48241311  1
  P  P16  1  0.19012637  0.88880528  0.98241311  1
  P  P17  1  0.80987363  0.11119472  0.01758689  1
  O  O18  1  0.87130936  0.27688250  0.04874764  1
  O  O19  1  0.12869064  0.72311750  0.95125236  1
  O  O20  1  0.62869064  0.77688250  0.45125236  1
  O  O21  1  0.37130936  0.22311750  0.54874764  1
  O  O22  1  0.30481670  0.89279657  0.06959144  1
  O  O23  1  0.69518330  0.10720343  0.93040856  1
  O  O24  1  0.19518330  0.39279657  0.43040856  1
  O  O25  1  0.80481670  0.60720343  0.56959144  1
  O  O26  1  0.92317350  0.94611108  0.32652353  1
  O  O27  1  0.07682650  0.05388892  0.67347647  1
  O  O28  1  0.57682650  0.44611108  0.17347647  1
  O  O29  1  0.42317350  0.55388892  0.82652353  1
  O  O30  1  0.57881865  0.75739102  0.19431719  1
  O  O31  1  0.42118135  0.24260898  0.80568281  1
  O  O32  1  0.92118135  0.25739102  0.30568281  1
  O  O33  1  0.07881865  0.74260898  0.69431719  1
  O  O34  1  0.24433084  0.92450372  0.24610192  1
  O  O35  1  0.75566916  0.07549628  0.75389808  1
  O  O36  1  0.25566916  0.42450372  0.25389808  1
  O  O37  1  0.74433084  0.57549628  0.74610192  1
  O  O38  1  0.14418541  0.70593124  0.35201655  1
  O  O39  1  0.85581459  0.29406876  0.64798345  1
  O  O40  1  0.35581459  0.20593124  0.14798345  1
  O  O41  1  0.64418541  0.79406876  0.85201655  1
  O  O42  1  0.80691156  0.63505801  0.08379745  1
  O  O43  1  0.19308844  0.36494199  0.91620255  1
  O  O44  1  0.69308844  0.13505801  0.41620255  1
  O  O45  1  0.30691156  0.86494199  0.58379745  1
  O  O46  1  0.86790171  0.57627601  0.24159723  1
  O  O47  1  0.13209829  0.42372399  0.75840277  1
  O  O48  1  0.63209829  0.07627601  0.25840277  1
  O  O49  1  0.36790171  0.92372399  0.74159723  1
  O  O50  1  0.25797515  0.99324017  0.40454524  1
  O  O51  1  0.74202485  0.00675983  0.59545476  1
  O  O52  1  0.24202485  0.49324017  0.09545476  1
  O  O53  1  0.75797515  0.50675983  0.90454524  1
  O  O54  1  0.18267111  0.48279561  0.58424515  1
  O  O55  1  0.81732889  0.51720439  0.41575485  1
  O  O56  1  0.31732889  0.98279561  0.91575485  1
  O  O57  1  0.68267111  0.01720439  0.08424515  1
  O  O58  1  0.00000000  0.00000000  0.00000000  1
  O  O59  1  0.50000000  0.50000000  0.50000000  1
