# generated using pymatgen
data_Sr2LuTaO6
_symmetry_space_group_name_H-M   'P 1'
_cell_length_a   5.78865027
_cell_length_b   5.89884598
_cell_length_c   8.24771128
_cell_angle_alpha   90.00000000
_cell_angle_beta   90.06320109
_cell_angle_gamma   90.00000000
_symmetry_Int_Tables_number   1
_chemical_formula_structural   Sr2LuTaO6
_chemical_formula_sum   'Sr4 Lu2 Ta2 O12'
_cell_volume   281.62911736
_cell_formula_units_Z   2
loop_
 _symmetry_equiv_pos_site_id
 _symmetry_equiv_pos_as_xyz
  1  'x, y, z'
loop_
 _atom_site_type_symbol
 _atom_site_label
 _atom_site_symmetry_multiplicity
 _atom_site_fract_x
 _atom_site_fract_y
 _atom_site_fract_z
 _atom_site_occupancy
  Sr  Sr0  1  0.00975522  0.46026334  0.25157534  1
  Sr  Sr1  1  0.99024478  0.53973666  0.74842466  1
  Sr  Sr2  1  0.49024478  0.96026334  0.24842466  1
  Sr  Sr3  1  0.50975522  0.03973666  0.75157534  1
  Lu  Lu4  1  0.00000000  -0.00000000  0.50000000  1
  Lu  Lu5  1  0.50000000  0.50000000  0.00000000  1
  Ta  Ta6  1  0.00000000  -0.00000000  0.00000000  1
  Ta  Ta7  1  0.50000000  0.50000000  0.50000000  1
  O  O8  1  0.92589871  0.02162202  0.23828706  1
  O  O9  1  0.07410129  0.97837798  0.76171294  1
  O  O10  1  0.57410129  0.52162202  0.26171294  1
  O  O11  1  0.42589871  0.47837798  0.73828706  1
  O  O12  1  0.20152746  0.72590306  0.04171539  1
  O  O13  1  0.79847254  0.27409694  0.95828461  1
  O  O14  1  0.29847254  0.22590306  0.45828461  1
  O  O15  1  0.70152746  0.77409694  0.54171539  1
  O  O16  1  0.27566521  0.20230294  0.03696583  1
  O  O17  1  0.72433479  0.79769706  0.96303417  1
  O  O18  1  0.22433479  0.70230294  0.46303417  1
  O  O19  1  0.77566521  0.29769706  0.53696583  1
