# generated using pymatgen
data_U2MnAl3
_symmetry_space_group_name_H-M   'P 1'
_cell_length_a   5.05298097
_cell_length_b   5.05298097
_cell_length_c   5.46082126
_cell_angle_alpha   90.00000000
_cell_angle_beta   62.44126871
_cell_angle_gamma   120.00000000
_symmetry_Int_Tables_number   1
_chemical_formula_structural   U2MnAl3
_chemical_formula_sum   'U2 Mn1 Al3'
_cell_volume   102.07387234
_cell_formula_units_Z   1
loop_
 _symmetry_equiv_pos_site_id
 _symmetry_equiv_pos_as_xyz
  1  'x, y, z'
loop_
 _atom_site_type_symbol
 _atom_site_label
 _atom_site_symmetry_multiplicity
 _atom_site_fract_x
 _atom_site_fract_y
 _atom_site_fract_z
 _atom_site_occupancy
  U  U0  1  0.46479814  0.73239907  0.80280278  1
  U  U1  1  0.03520186  0.01760093  0.94719722  1
  Mn  Mn2  1  0.75000000  0.37500000  0.87500000  1
  Al  Al3  1  0.25000000  0.37500000  0.37500000  1
  Al  Al4  1  0.25000000  0.87500000  0.37500000  1
  Al  Al5  1  0.75000000  0.37500000  0.37500000  1
