# generated using pymatgen
data_Sr2ZnGe2S6O
_symmetry_space_group_name_H-M   'P 1'
_cell_length_a   6.26032702
_cell_length_b   9.53865964
_cell_length_c   9.53865964
_cell_angle_alpha   90.00000000
_cell_angle_beta   90.00000000
_cell_angle_gamma   90.00000000
_symmetry_Int_Tables_number   1
_chemical_formula_structural   Sr2ZnGe2S6O
_chemical_formula_sum   'Sr4 Zn2 Ge4 S12 O2'
_cell_volume   569.60228783
_cell_formula_units_Z   2
loop_
 _symmetry_equiv_pos_site_id
 _symmetry_equiv_pos_as_xyz
  1  'x, y, z'
loop_
 _atom_site_type_symbol
 _atom_site_label
 _atom_site_symmetry_multiplicity
 _atom_site_fract_x
 _atom_site_fract_y
 _atom_site_fract_z
 _atom_site_occupancy
  Sr  Sr0  1  0.50075918  0.15980819  0.65980819  1
  Sr  Sr1  1  0.50075918  0.84019181  0.34019181  1
  Sr  Sr2  1  0.49924082  0.65980819  0.84019181  1
  Sr  Sr3  1  0.49924082  0.34019181  0.15980819  1
  Zn  Zn4  1  0.00000000  0.00000000  -0.00000000  1
  Zn  Zn5  1  0.00000000  0.50000000  0.50000000  1
  Ge  Ge6  1  0.93007751  0.62660573  0.12660573  1
  Ge  Ge7  1  0.93007751  0.37339427  0.87339427  1
  Ge  Ge8  1  0.06992249  0.12660573  0.37339427  1
  Ge  Ge9  1  0.06992249  0.87339427  0.62660573  1
  S  S10  1  0.24057153  0.06201617  0.17744354  1
  S  S11  1  0.24057153  0.93798383  0.82255646  1
  S  S12  1  0.75942847  0.17744354  0.93798383  1
  S  S13  1  0.75942847  0.43798383  0.67744354  1
  S  S14  1  0.75942847  0.82255646  0.06201617  1
  S  S15  1  0.75942847  0.56201617  0.32255646  1
  S  S16  1  0.24057153  0.32255646  0.43798383  1
  S  S17  1  0.24057153  0.67744354  0.56201617  1
  S  S18  1  0.27701930  0.63363885  0.13363885  1
  S  S19  1  0.27701930  0.36636115  0.86636115  1
  S  S20  1  0.72298070  0.13363885  0.36636115  1
  S  S21  1  0.72298070  0.86636115  0.63363885  1
  O  O22  1  0.18916717  0.00000000  0.50000000  1
  O  O23  1  0.81083283  0.50000000  -0.00000000  1
