# generated using pymatgen
data_TaTlCl6
_symmetry_space_group_name_H-M   'P 1'
_cell_length_a   6.49001101
_cell_length_b   6.96613679
_cell_length_c   12.51991852
_cell_angle_alpha   100.59907332
_cell_angle_beta   90.00000000
_cell_angle_gamma   117.76367269
_symmetry_Int_Tables_number   1
_chemical_formula_structural   TaTlCl6
_chemical_formula_sum   'Ta2 Tl2 Cl12'
_cell_volume   489.92582485
_cell_formula_units_Z   2
loop_
 _symmetry_equiv_pos_site_id
 _symmetry_equiv_pos_as_xyz
  1  'x, y, z'
loop_
 _atom_site_type_symbol
 _atom_site_label
 _atom_site_symmetry_multiplicity
 _atom_site_fract_x
 _atom_site_fract_y
 _atom_site_fract_z
 _atom_site_occupancy
  Ta  Ta0  1  0.50000000  0.50000000  -0.00000000  1
  Ta  Ta1  1  -0.00000000  0.50000000  0.50000000  1
  Tl  Tl2  1  0.88147102  -0.00000000  0.75000000  1
  Tl  Tl3  1  0.11852898  -0.00000000  0.25000000  1
  Cl  Cl4  1  0.46289652  0.16322038  0.89658941  1
  Cl  Cl5  1  0.53710348  0.83677962  0.10341059  1
  Cl  Cl6  1  0.29967614  0.83677962  0.60341059  1
  Cl  Cl7  1  0.70032386  0.16322038  0.39658941  1
  Cl  Cl8  1  0.37072293  0.57157043  0.84097310  1
  Cl  Cl9  1  0.62927707  0.42842957  0.15902690  1
  Cl  Cl10  1  0.79915250  0.42842957  0.65902690  1
  Cl  Cl11  1  0.20084750  0.57157043  0.34097310  1
  Cl  Cl12  1  0.79583307  0.68990965  0.45979636  1
  Cl  Cl13  1  0.20416693  0.31009035  0.54020364  1
  Cl  Cl14  1  0.10592342  0.31009035  0.04020364  1
  Cl  Cl15  1  0.89407658  0.68990965  0.95979636  1
