# generated using pymatgen
data_Tb4CdNi
_symmetry_space_group_name_H-M   'P 1'
_cell_length_a   9.59564081
_cell_length_b   9.59564081
_cell_length_c   9.59564081
_cell_angle_alpha   60.00000000
_cell_angle_beta   60.00000000
_cell_angle_gamma   60.00000000
_symmetry_Int_Tables_number   1
_chemical_formula_structural   Tb4CdNi
_chemical_formula_sum   'Tb16 Cd4 Ni4'
_cell_volume   624.75098753
_cell_formula_units_Z   4
loop_
 _symmetry_equiv_pos_site_id
 _symmetry_equiv_pos_as_xyz
  1  'x, y, z'
loop_
 _atom_site_type_symbol
 _atom_site_label
 _atom_site_symmetry_multiplicity
 _atom_site_fract_x
 _atom_site_fract_y
 _atom_site_fract_z
 _atom_site_occupancy
  Tb  Tb0  1  0.65158393  0.65158393  0.65158393  1
  Tb  Tb1  1  0.04524821  0.65158393  0.65158393  1
  Tb  Tb2  1  0.65158393  0.04524821  0.65158393  1
  Tb  Tb3  1  0.65158393  0.65158393  0.04524821  1
  Tb  Tb4  1  0.81154144  0.81154144  0.18845856  1
  Tb  Tb5  1  0.18845856  0.18845856  0.81154144  1
  Tb  Tb6  1  0.81154144  0.18845856  0.81154144  1
  Tb  Tb7  1  0.18845856  0.81154144  0.18845856  1
  Tb  Tb8  1  0.18845856  0.81154144  0.81154144  1
  Tb  Tb9  1  0.81154144  0.18845856  0.18845856  1
  Tb  Tb10  1  0.43623558  0.43623558  0.06376442  1
  Tb  Tb11  1  0.06376442  0.06376442  0.43623558  1
  Tb  Tb12  1  0.43623558  0.06376442  0.43623558  1
  Tb  Tb13  1  0.06376442  0.43623558  0.06376442  1
  Tb  Tb14  1  0.06376442  0.43623558  0.43623558  1
  Tb  Tb15  1  0.43623558  0.06376442  0.06376442  1
  Cd  Cd16  1  0.41856271  0.41856271  0.41856271  1
  Cd  Cd17  1  0.74431188  0.41856271  0.41856271  1
  Cd  Cd18  1  0.41856271  0.74431188  0.41856271  1
  Cd  Cd19  1  0.41856271  0.41856271  0.74431188  1
  Ni  Ni20  1  0.85768887  0.85768887  0.85768887  1
  Ni  Ni21  1  0.42693338  0.85768887  0.85768887  1
  Ni  Ni22  1  0.85768887  0.42693338  0.85768887  1
  Ni  Ni23  1  0.85768887  0.85768887  0.42693338  1
