# generated using pymatgen
data_TiCrP2
_symmetry_space_group_name_H-M   'P 1'
_cell_length_a   3.45211194
_cell_length_b   3.45211194
_cell_length_c   5.74768956
_cell_angle_alpha   89.99687364
_cell_angle_beta   90.00312636
_cell_angle_gamma   119.95695314
_symmetry_Int_Tables_number   1
_chemical_formula_structural   TiCrP2
_chemical_formula_sum   'Ti1 Cr1 P2'
_cell_volume   59.34469379
_cell_formula_units_Z   1
loop_
 _symmetry_equiv_pos_site_id
 _symmetry_equiv_pos_as_xyz
  1  'x, y, z'
loop_
 _atom_site_type_symbol
 _atom_site_label
 _atom_site_symmetry_multiplicity
 _atom_site_fract_x
 _atom_site_fract_y
 _atom_site_fract_z
 _atom_site_occupancy
  Ti  Ti0  1  -0.00000000  0.00000000  -0.00000000  1
  Cr  Cr1  1  -0.00000000  0.00000000  0.50000000  1
  P  P2  1  0.66662281  0.33337719  0.73385388  1
  P  P3  1  0.33337719  0.66662281  0.26614612  1
