# generated using pymatgen
data_SmAl3Ni2
_symmetry_space_group_name_H-M   'P 1'
_cell_length_a   4.08261810
_cell_length_b   9.14573584
_cell_length_c   9.14573584
_cell_angle_alpha   120.00000116
_cell_angle_beta   90.00000000
_cell_angle_gamma   90.00000000
_symmetry_Int_Tables_number   1
_chemical_formula_structural   SmAl3Ni2
_chemical_formula_sum   'Sm3 Al9 Ni6'
_cell_volume   295.73769929
_cell_formula_units_Z   3
loop_
 _symmetry_equiv_pos_site_id
 _symmetry_equiv_pos_as_xyz
  1  'x, y, z'
loop_
 _atom_site_type_symbol
 _atom_site_label
 _atom_site_symmetry_multiplicity
 _atom_site_fract_x
 _atom_site_fract_y
 _atom_site_fract_z
 _atom_site_occupancy
  Sm  Sm0  1  0.50000000  0.66666700  0.33333300  1
  Sm  Sm1  1  0.50000000  0.33333300  0.66666700  1
  Sm  Sm2  1  -0.00000000  0.00000000  -0.00000000  1
  Al  Al3  1  -0.00000000  0.50000000  0.50000000  1
  Al  Al4  1  -0.00000000  0.00000000  0.50000000  1
  Al  Al5  1  -0.00000000  0.50000000  -0.00000000  1
  Al  Al6  1  0.50000000  0.70338962  0.70338962  1
  Al  Al7  1  0.50000000  0.29661038  0.29661038  1
  Al  Al8  1  0.50000000  0.00000000  0.29661038  1
  Al  Al9  1  0.50000000  1.00000000  0.70338962  1
  Al  Al10  1  0.50000000  0.29661038  0.00000000  1
  Al  Al11  1  0.50000000  0.70338962  1.00000000  1
  Ni  Ni12  1  0.00000000  0.81859551  0.18140449  1
  Ni  Ni13  1  -0.00000000  0.18140449  0.81859551  1
  Ni  Ni14  1  -0.00000000  0.36280899  0.18140449  1
  Ni  Ni15  1  0.00000000  0.63719101  0.81859551  1
  Ni  Ni16  1  0.00000000  0.81859551  0.63719101  1
  Ni  Ni17  1  -0.00000000  0.18140449  0.36280899  1
