# generated using pymatgen
data_Sm3(Al3Os)4
_symmetry_space_group_name_H-M   'P 1'
_cell_length_a   8.89203574
_cell_length_b   8.89203574
_cell_length_c   9.63762004
_cell_angle_alpha   90.00000000
_cell_angle_beta   90.00000000
_cell_angle_gamma   119.99999525
_symmetry_Int_Tables_number   1
_chemical_formula_structural   Sm3(Al3Os)4
_chemical_formula_sum   'Sm6 Al24 Os8'
_cell_volume   659.93756845
_cell_formula_units_Z   2
loop_
 _symmetry_equiv_pos_site_id
 _symmetry_equiv_pos_as_xyz
  1  'x, y, z'
loop_
 _atom_site_type_symbol
 _atom_site_label
 _atom_site_symmetry_multiplicity
 _atom_site_fract_x
 _atom_site_fract_y
 _atom_site_fract_z
 _atom_site_occupancy
  Sm  Sm0  1  0.80765724  0.19234276  0.75000000  1
  Sm  Sm1  1  0.19234276  0.80765724  0.25000000  1
  Sm  Sm2  1  0.38468552  0.19234276  0.75000000  1
  Sm  Sm3  1  0.61531448  0.80765724  0.25000000  1
  Sm  Sm4  1  0.80765724  0.61531448  0.75000000  1
  Sm  Sm5  1  0.19234276  0.38468552  0.25000000  1
  Al  Al6  1  0.66666700  0.33333300  0.98730929  1
  Al  Al7  1  0.33333300  0.66666700  0.01269071  1
  Al  Al8  1  0.33333300  0.66666700  0.48730929  1
  Al  Al9  1  0.66666700  0.33333300  0.51269071  1
  Al  Al10  1  0.83716366  0.16283634  0.42476591  1
  Al  Al11  1  0.16283634  0.83716366  0.57523409  1
  Al  Al12  1  0.32567267  0.16283634  0.42476591  1
  Al  Al13  1  0.16283634  0.83716366  0.92476591  1
  Al  Al14  1  0.67432733  0.83716366  0.57523409  1
  Al  Al15  1  0.83716366  0.16283634  0.07523409  1
  Al  Al16  1  0.83716366  0.67432733  0.42476591  1
  Al  Al17  1  0.67432733  0.83716366  0.92476591  1
  Al  Al18  1  0.16283634  0.32567267  0.57523409  1
  Al  Al19  1  0.32567267  0.16283634  0.07523409  1
  Al  Al20  1  0.16283634  0.32567267  0.92476591  1
  Al  Al21  1  0.83716366  0.67432733  0.07523409  1
  Al  Al22  1  0.43932707  0.56067293  0.75000000  1
  Al  Al23  1  0.56067293  0.43932707  0.25000000  1
  Al  Al24  1  0.12134586  0.56067293  0.75000000  1
  Al  Al25  1  0.87865414  0.43932707  0.25000000  1
  Al  Al26  1  0.43932707  0.87865414  0.75000000  1
  Al  Al27  1  0.56067293  0.12134586  0.25000000  1
  Al  Al28  1  -0.00000000  -0.00000000  0.75000000  1
  Al  Al29  1  -0.00000000  -0.00000000  0.25000000  1
  Os  Os30  1  0.50000000  0.50000000  -0.00000000  1
  Os  Os31  1  -0.00000000  0.50000000  -0.00000000  1
  Os  Os32  1  0.50000000  0.50000000  0.50000000  1
  Os  Os33  1  0.50000000  -0.00000000  -0.00000000  1
  Os  Os34  1  -0.00000000  0.50000000  0.50000000  1
  Os  Os35  1  0.50000000  -0.00000000  0.50000000  1
  Os  Os36  1  -0.00000000  -0.00000000  -0.00000000  1
  Os  Os37  1  -0.00000000  -0.00000000  0.50000000  1
