# generated using pymatgen
data_SmAlGe2O7
_symmetry_space_group_name_H-M   'P 1'
_cell_length_a   6.57223975
_cell_length_b   7.28089148
_cell_length_c   11.44659600
_cell_angle_alpha   96.77290649
_cell_angle_beta   90.00000000
_cell_angle_gamma   90.00000000
_symmetry_Int_Tables_number   1
_chemical_formula_structural   SmAlGe2O7
_chemical_formula_sum   'Sm4 Al4 Ge8 O28'
_cell_volume   543.91735069
_cell_formula_units_Z   4
loop_
 _symmetry_equiv_pos_site_id
 _symmetry_equiv_pos_as_xyz
  1  'x, y, z'
loop_
 _atom_site_type_symbol
 _atom_site_label
 _atom_site_symmetry_multiplicity
 _atom_site_fract_x
 _atom_site_fract_y
 _atom_site_fract_z
 _atom_site_occupancy
  Sm  Sm0  1  0.64684224  0.73344000  0.47305732  1
  Sm  Sm1  1  0.35315776  0.26656000  0.52694268  1
  Sm  Sm2  1  0.14684224  0.76656000  0.02694268  1
  Sm  Sm3  1  0.85315776  0.23344000  0.97305732  1
  Al  Al4  1  0.60217262  0.01729391  0.72961194  1
  Al  Al5  1  0.39782738  0.98270609  0.27038806  1
  Al  Al6  1  0.10217262  0.48270609  0.77038806  1
  Al  Al7  1  0.89782738  0.51729391  0.22961194  1
  Ge  Ge8  1  0.34210165  0.24081428  0.95143177  1
  Ge  Ge9  1  0.65789835  0.75918572  0.04856823  1
  Ge  Ge10  1  0.84210165  0.25918572  0.54856823  1
  Ge  Ge11  1  0.15789835  0.74081428  0.45143177  1
  Ge  Ge12  1  0.09001931  0.91738848  0.72017372  1
  Ge  Ge13  1  0.90998069  0.08261152  0.27982628  1
  Ge  Ge14  1  0.59001931  0.58261152  0.77982628  1
  Ge  Ge15  1  0.40998069  0.41738848  0.22017372  1
  O  O16  1  0.62424333  0.76954738  0.69613477  1
  O  O17  1  0.37575667  0.23045262  0.30386523  1
  O  O18  1  0.12424333  0.73045262  0.80386523  1
  O  O19  1  0.87575667  0.26954738  0.19613477  1
  O  O20  1  0.17358297  0.06832176  0.97700989  1
  O  O21  1  0.82641703  0.93167824  0.02299011  1
  O  O22  1  0.67358297  0.43167824  0.52299011  1
  O  O23  1  0.32641703  0.56832176  0.47700989  1
  O  O24  1  0.38445043  0.44502039  0.72140901  1
  O  O25  1  0.61554957  0.55497961  0.27859099  1
  O  O26  1  0.88445043  0.05497961  0.77859099  1
  O  O27  1  0.11554957  0.94502039  0.22140901  1
  O  O28  1  0.99924722  0.82573309  0.57342531  1
  O  O29  1  0.00075278  0.17426691  0.42657469  1
  O  O30  1  0.49924722  0.67426691  0.92657469  1
  O  O31  1  0.50075278  0.32573309  0.07342531  1
  O  O32  1  0.55390044  0.16111363  0.86562140  1
  O  O33  1  0.44609956  0.83888637  0.13437860  1
  O  O34  1  0.05390044  0.33888637  0.63437860  1
  O  O35  1  0.94609956  0.66111363  0.36562140  1
  O  O36  1  0.15812563  0.40830449  0.91563731  1
  O  O37  1  0.84187437  0.59169551  0.08436269  1
  O  O38  1  0.65812563  0.09169551  0.58436269  1
  O  O39  1  0.34187437  0.90830449  0.41563731  1
  O  O40  1  0.31854142  0.02824801  0.68695466  1
  O  O41  1  0.68145858  0.97175199  0.31304534  1
  O  O42  1  0.81854142  0.47175199  0.81304534  1
  O  O43  1  0.18145858  0.52824801  0.18695466  1
