# generated using pymatgen
data_Sc2GaB2Ir5
_symmetry_space_group_name_H-M   'P 1'
_cell_length_a   3.07333316
_cell_length_b   9.40553441
_cell_length_c   9.40553441
_cell_angle_alpha   90.00000000
_cell_angle_beta   90.00000000
_cell_angle_gamma   90.00000000
_symmetry_Int_Tables_number   1
_chemical_formula_structural   Sc2GaB2Ir5
_chemical_formula_sum   'Sc4 Ga2 B4 Ir10'
_cell_volume   271.87958297
_cell_formula_units_Z   2
loop_
 _symmetry_equiv_pos_site_id
 _symmetry_equiv_pos_as_xyz
  1  'x, y, z'
loop_
 _atom_site_type_symbol
 _atom_site_label
 _atom_site_symmetry_multiplicity
 _atom_site_fract_x
 _atom_site_fract_y
 _atom_site_fract_z
 _atom_site_occupancy
  Sc  Sc0  1  -0.00000000  0.17523672  0.67523672  1
  Sc  Sc1  1  -0.00000000  0.82476328  0.32476328  1
  Sc  Sc2  1  0.00000000  0.32476328  0.17523672  1
  Sc  Sc3  1  0.00000000  0.67523672  0.82476328  1
  Ga  Ga4  1  0.00000000  -0.00000000  0.00000000  1
  Ga  Ga5  1  -0.00000000  0.50000000  0.50000000  1
  B  B6  1  -0.00000000  0.62499806  0.12499806  1
  B  B7  1  -0.00000000  0.37500194  0.87500194  1
  B  B8  1  0.00000000  0.87500194  0.62499806  1
  B  B9  1  0.00000000  0.12499806  0.37500194  1
  Ir  Ir10  1  0.50000000  0.07149550  0.21586740  1
  Ir  Ir11  1  0.50000000  0.92850450  0.78413260  1
  Ir  Ir12  1  0.50000000  0.78413260  0.07149550  1
  Ir  Ir13  1  0.50000000  0.42850450  0.71586740  1
  Ir  Ir14  1  0.50000000  0.21586740  0.92850450  1
  Ir  Ir15  1  0.50000000  0.57149550  0.28413260  1
  Ir  Ir16  1  0.50000000  0.71586740  0.57149550  1
  Ir  Ir17  1  0.50000000  0.28413260  0.42850450  1
  Ir  Ir18  1  0.50000000  -0.00000000  0.50000000  1
  Ir  Ir19  1  0.50000000  0.50000000  0.00000000  1
