# generated using pymatgen
data_Sr2ErTaO6
_symmetry_space_group_name_H-M   'P 1'
_cell_length_a   5.82049956
_cell_length_b   5.91891574
_cell_length_c   8.28042950
_cell_angle_alpha   90.00000000
_cell_angle_beta   90.13315794
_cell_angle_gamma   90.00000000
_symmetry_Int_Tables_number   1
_chemical_formula_structural   Sr2ErTaO6
_chemical_formula_sum   'Sr4 Er2 Ta2 O12'
_cell_volume   285.26869116
_cell_formula_units_Z   2
loop_
 _symmetry_equiv_pos_site_id
 _symmetry_equiv_pos_as_xyz
  1  'x, y, z'
loop_
 _atom_site_type_symbol
 _atom_site_label
 _atom_site_symmetry_multiplicity
 _atom_site_fract_x
 _atom_site_fract_y
 _atom_site_fract_z
 _atom_site_occupancy
  Sr  Sr0  1  0.00871526  0.46290280  0.25129950  1
  Sr  Sr1  1  0.99128474  0.53709720  0.74870050  1
  Sr  Sr2  1  0.49128474  0.96290280  0.24870050  1
  Sr  Sr3  1  0.50871526  0.03709720  0.75129950  1
  Er  Er4  1  0.00000000  -0.00000000  0.50000000  1
  Er  Er5  1  0.50000000  0.50000000  -0.00000000  1
  Ta  Ta6  1  0.00000000  -0.00000000  -0.00000000  1
  Ta  Ta7  1  0.50000000  0.50000000  0.50000000  1
  O  O8  1  0.92233306  0.02323175  0.23593212  1
  O  O9  1  0.07766694  0.97676825  0.76406788  1
  O  O10  1  0.57766694  0.52323175  0.26406788  1
  O  O11  1  0.42233306  0.47676825  0.73593212  1
  O  O12  1  0.19806296  0.72653176  0.04371699  1
  O  O13  1  0.80193704  0.27346824  0.95628301  1
  O  O14  1  0.30193704  0.22653176  0.45628301  1
  O  O15  1  0.69806296  0.77346824  0.54371699  1
  O  O16  1  0.27419831  0.19904061  0.03881290  1
  O  O17  1  0.72580169  0.80095939  0.96118710  1
  O  O18  1  0.22580169  0.69904061  0.46118710  1
  O  O19  1  0.77419831  0.30095939  0.53881290  1
