# generated using pymatgen
data_Sc2TlCu3S5
_symmetry_space_group_name_H-M   'P 1'
_cell_length_a   3.79968398
_cell_length_b   7.12427605
_cell_length_c   15.75548332
_cell_angle_alpha   90.00000000
_cell_angle_beta   90.00000000
_cell_angle_gamma   105.46630662
_symmetry_Int_Tables_number   1
_chemical_formula_structural   Sc2TlCu3S5
_chemical_formula_sum   'Sc4 Tl2 Cu6 S10'
_cell_volume   411.05620566
_cell_formula_units_Z   2
loop_
 _symmetry_equiv_pos_site_id
 _symmetry_equiv_pos_as_xyz
  1  'x, y, z'
loop_
 _atom_site_type_symbol
 _atom_site_label
 _atom_site_symmetry_multiplicity
 _atom_site_fract_x
 _atom_site_fract_y
 _atom_site_fract_z
 _atom_site_occupancy
  Sc  Sc0  1  0.30679011  0.61358023  0.59439853  1
  Sc  Sc1  1  0.69320989  0.38641977  0.40560147  1
  Sc  Sc2  1  0.69320989  0.38641977  0.09439853  1
  Sc  Sc3  1  0.30679011  0.61358023  0.90560147  1
  Tl  Tl4  1  0.43107070  0.86214139  0.25000000  1
  Tl  Tl5  1  0.56892930  0.13785861  0.75000000  1
  Cu  Cu6  1  0.08257700  0.16515399  0.54356047  1
  Cu  Cu7  1  0.91742300  0.83484601  0.45643953  1
  Cu  Cu8  1  0.91742300  0.83484601  0.04356047  1
  Cu  Cu9  1  0.08257700  0.16515399  0.95643953  1
  Cu  Cu10  1  0.14525909  0.29051817  0.25000000  1
  Cu  Cu11  1  0.85474091  0.70948183  0.75000000  1
  S  S12  1  0.74237989  0.48475978  0.25000000  1
  S  S13  1  0.25762011  0.51524022  0.75000000  1
  S  S14  1  0.32673613  0.65347226  0.06901253  1
  S  S15  1  0.67326387  0.34652774  0.93098747  1
  S  S16  1  0.67326387  0.34652774  0.56901253  1
  S  S17  1  0.32673613  0.65347226  0.43098747  1
  S  S18  1  0.06576954  0.13153907  0.11315302  1
  S  S19  1  0.93423046  0.86846093  0.88684698  1
  S  S20  1  0.93423046  0.86846093  0.61315302  1
  S  S21  1  0.06576954  0.13153907  0.38684698  1
