# generated using pymatgen
data_Sm2NiB10
_symmetry_space_group_name_H-M   'P 1'
_cell_length_a   4.17402153
_cell_length_b   5.60586818
_cell_length_c   11.16386528
_cell_angle_alpha   90.00000000
_cell_angle_beta   90.00000000
_cell_angle_gamma   90.00000000
_symmetry_Int_Tables_number   1
_chemical_formula_structural   Sm2NiB10
_chemical_formula_sum   'Sm4 Ni2 B20'
_cell_volume   261.22344531
_cell_formula_units_Z   2
loop_
 _symmetry_equiv_pos_site_id
 _symmetry_equiv_pos_as_xyz
  1  'x, y, z'
loop_
 _atom_site_type_symbol
 _atom_site_label
 _atom_site_symmetry_multiplicity
 _atom_site_fract_x
 _atom_site_fract_y
 _atom_site_fract_z
 _atom_site_occupancy
  Sm  Sm0  1  0.50000000  0.19325195  0.36363393  1
  Sm  Sm1  1  0.50000000  0.80674805  0.63636607  1
  Sm  Sm2  1  0.50000000  0.30674805  0.86363393  1
  Sm  Sm3  1  0.50000000  0.69325195  0.13636607  1
  Ni  Ni4  1  0.00000000  0.00000000  -0.00000000  1
  Ni  Ni5  1  0.00000000  0.50000000  0.50000000  1
  B  B6  1  0.00000000  0.37479720  0.04120325  1
  B  B7  1  0.00000000  0.62520280  0.95879675  1
  B  B8  1  0.00000000  0.12520280  0.54120325  1
  B  B9  1  0.00000000  0.87479720  0.45879675  1
  B  B10  1  0.00000000  0.34581716  0.19732346  1
  B  B11  1  0.00000000  0.65418284  0.80267654  1
  B  B12  1  0.00000000  0.15418284  0.69732346  1
  B  B13  1  0.00000000  0.84581716  0.30267654  1
  B  B14  1  0.00000000  0.03653680  0.18804042  1
  B  B15  1  0.00000000  0.96346320  0.81195958  1
  B  B16  1  0.00000000  0.46346320  0.68804042  1
  B  B17  1  0.00000000  0.53653680  0.31195958  1
  B  B18  1  0.30027209  0.20344506  0.11379389  1
  B  B19  1  0.69972791  0.79655494  0.88620611  1
  B  B20  1  0.30027209  0.79655494  0.88620611  1
  B  B21  1  0.69972791  0.29655494  0.61379389  1
  B  B22  1  0.69972791  0.20344506  0.11379389  1
  B  B23  1  0.30027209  0.70344506  0.38620611  1
  B  B24  1  0.69972791  0.70344506  0.38620611  1
  B  B25  1  0.30027209  0.29655494  0.61379389  1
