# generated using pymatgen
data_Re4As5S4
_symmetry_space_group_name_H-M   'P 1'
_cell_length_a   7.09083155
_cell_length_b   7.09083155
_cell_length_c   7.09083155
_cell_angle_alpha   60.00000000
_cell_angle_beta   60.00000000
_cell_angle_gamma   60.00000000
_symmetry_Int_Tables_number   1
_chemical_formula_structural   Re4As5S4
_chemical_formula_sum   'Re4 As5 S4'
_cell_volume   252.10212504
_cell_formula_units_Z   1
loop_
 _symmetry_equiv_pos_site_id
 _symmetry_equiv_pos_as_xyz
  1  'x, y, z'
loop_
 _atom_site_type_symbol
 _atom_site_label
 _atom_site_symmetry_multiplicity
 _atom_site_fract_x
 _atom_site_fract_y
 _atom_site_fract_z
 _atom_site_occupancy
  Re  Re0  1  0.59889518  0.59889518  0.59889518  1
  Re  Re1  1  0.20331446  0.59889518  0.59889518  1
  Re  Re2  1  0.59889518  0.20331446  0.59889518  1
  Re  Re3  1  0.59889518  0.59889518  0.20331446  1
  As  As4  1  -0.00000000  -0.00000000  -0.00000000  1
  As  As5  1  0.85534342  0.85534342  0.85534342  1
  As  As6  1  0.43396975  0.85534342  0.85534342  1
  As  As7  1  0.85534342  0.43396975  0.85534342  1
  As  As8  1  0.85534342  0.85534342  0.43396975  1
  S  S9  1  0.36912759  0.36912759  0.36912759  1
  S  S10  1  0.89261722  0.36912759  0.36912759  1
  S  S11  1  0.36912759  0.89261722  0.36912759  1
  S  S12  1  0.36912759  0.36912759  0.89261722  1
