# generated using pymatgen
data_RbSm(MoO4)2
_symmetry_space_group_name_H-M   'P 1'
_cell_length_a   5.22273239
_cell_length_b   8.30824059
_cell_length_c   18.95172804
_cell_angle_alpha   90.00000000
_cell_angle_beta   90.00000000
_cell_angle_gamma   90.00000000
_symmetry_Int_Tables_number   1
_chemical_formula_structural   RbSm(MoO4)2
_chemical_formula_sum   'Rb4 Sm4 Mo8 O32'
_cell_volume   822.34802419
_cell_formula_units_Z   4
loop_
 _symmetry_equiv_pos_site_id
 _symmetry_equiv_pos_as_xyz
  1  'x, y, z'
loop_
 _atom_site_type_symbol
 _atom_site_label
 _atom_site_symmetry_multiplicity
 _atom_site_fract_x
 _atom_site_fract_y
 _atom_site_fract_z
 _atom_site_occupancy
  Rb  Rb0  1  0.00000000  0.75000000  0.23082180  1
  Rb  Rb1  1  0.00000000  0.25000000  0.76917820  1
  Rb  Rb2  1  0.50000000  0.25000000  0.26917820  1
  Rb  Rb3  1  0.50000000  0.75000000  0.73082180  1
  Sm  Sm4  1  0.00000000  0.75000000  0.99372351  1
  Sm  Sm5  1  0.00000000  0.25000000  0.00627649  1
  Sm  Sm6  1  0.50000000  0.25000000  0.50627649  1
  Sm  Sm7  1  0.50000000  0.75000000  0.49372351  1
  Mo  Mo8  1  0.97736157  0.98367171  0.60081002  1
  Mo  Mo9  1  0.02263843  0.01632829  0.39918998  1
  Mo  Mo10  1  0.52263843  0.48367171  0.89918998  1
  Mo  Mo11  1  0.02263843  0.51632829  0.60081002  1
  Mo  Mo12  1  0.47736157  0.51632829  0.10081002  1
  Mo  Mo13  1  0.97736157  0.48367171  0.39918998  1
  Mo  Mo14  1  0.47736157  0.01632829  0.89918998  1
  Mo  Mo15  1  0.52263843  0.98367171  0.10081002  1
  O  O16  1  0.89904093  0.52567878  0.68685809  1
  O  O17  1  0.10095907  0.47432122  0.31314191  1
  O  O18  1  0.60095907  0.02567878  0.81314191  1
  O  O19  1  0.10095907  0.97432122  0.68685809  1
  O  O20  1  0.39904093  0.97432122  0.18685809  1
  O  O21  1  0.89904093  0.02567878  0.31314191  1
  O  O22  1  0.39904093  0.47432122  0.81314191  1
  O  O23  1  0.60095907  0.52567878  0.18685809  1
  O  O24  1  0.72664491  0.65809482  0.90055289  1
  O  O25  1  0.27335509  0.34190518  0.09944711  1
  O  O26  1  0.77335509  0.15809482  0.59944711  1
  O  O27  1  0.27335509  0.84190518  0.90055289  1
  O  O28  1  0.22664491  0.84190518  0.40055289  1
  O  O29  1  0.72664491  0.15809482  0.09944711  1
  O  O30  1  0.22664491  0.34190518  0.59944711  1
  O  O31  1  0.77335509  0.65809482  0.40055289  1
  O  O32  1  0.74696499  0.99743370  0.96344648  1
  O  O33  1  0.25303501  0.00256630  0.03655352  1
  O  O34  1  0.75303501  0.49743370  0.53655352  1
  O  O35  1  0.25303501  0.50256630  0.96344648  1
  O  O36  1  0.24696499  0.50256630  0.46344648  1
  O  O37  1  0.74696499  0.49743370  0.03655352  1
  O  O38  1  0.24696499  0.00256630  0.53655352  1
  O  O39  1  0.75303501  0.99743370  0.46344648  1
  O  O40  1  0.76039443  0.81368514  0.59161940  1
  O  O41  1  0.23960557  0.18631486  0.40838060  1
  O  O42  1  0.73960557  0.31368514  0.90838060  1
  O  O43  1  0.23960557  0.68631486  0.59161940  1
  O  O44  1  0.26039443  0.68631486  0.09161940  1
  O  O45  1  0.76039443  0.31368514  0.40838060  1
  O  O46  1  0.26039443  0.18631486  0.90838060  1
  O  O47  1  0.73960557  0.81368514  0.09161940  1
