# generated using pymatgen
data_RbHfCdF7
_symmetry_space_group_name_H-M   'P 1'
_cell_length_a   6.61844878
_cell_length_b   6.61844878
_cell_length_c   8.61646965
_cell_angle_alpha   90.00000000
_cell_angle_beta   90.00000000
_cell_angle_gamma   117.31186793
_symmetry_Int_Tables_number   1
_chemical_formula_structural   RbHfCdF7
_chemical_formula_sum   'Rb2 Hf2 Cd2 F14'
_cell_volume   335.35908526
_cell_formula_units_Z   2
loop_
 _symmetry_equiv_pos_site_id
 _symmetry_equiv_pos_as_xyz
  1  'x, y, z'
loop_
 _atom_site_type_symbol
 _atom_site_label
 _atom_site_symmetry_multiplicity
 _atom_site_fract_x
 _atom_site_fract_y
 _atom_site_fract_z
 _atom_site_occupancy
  Rb  Rb0  1  -0.00000000  0.00000000  -0.00000000  1
  Rb  Rb1  1  -0.00000000  0.00000000  0.50000000  1
  Hf  Hf2  1  0.69247980  0.30752020  0.75000000  1
  Hf  Hf3  1  0.30752020  0.69247980  0.25000000  1
  Cd  Cd4  1  0.30917475  0.69082525  0.75000000  1
  Cd  Cd5  1  0.69082525  0.30917475  0.25000000  1
  F  F6  1  0.34967176  0.06522567  0.75000000  1
  F  F7  1  0.65032824  0.93477433  0.25000000  1
  F  F8  1  0.93477433  0.65032824  0.75000000  1
  F  F9  1  0.06522567  0.34967176  0.25000000  1
  F  F10  1  0.51222672  0.48777328  0.75000000  1
  F  F11  1  0.48777328  0.51222672  0.25000000  1
  F  F12  1  0.70303797  0.29696203  0.98330430  1
  F  F13  1  0.29696203  0.70303797  0.01669570  1
  F  F14  1  0.29696203  0.70303797  0.48330430  1
  F  F15  1  0.70303797  0.29696203  0.51669570  1
  F  F16  1  0.67044211  0.97811840  0.75000000  1
  F  F17  1  0.32955789  0.02188160  0.25000000  1
  F  F18  1  0.02188160  0.32955789  0.75000000  1
  F  F19  1  0.97811840  0.67044211  0.25000000  1
