# generated using pymatgen
data_UCuSi
_symmetry_space_group_name_H-M   'P 1'
_cell_length_a   3.91509423
_cell_length_b   4.03257829
_cell_length_c   4.03244547
_cell_angle_alpha   59.99444564
_cell_angle_beta   90.00000000
_cell_angle_gamma   90.00000000
_symmetry_Int_Tables_number   1
_chemical_formula_structural   UCuSi
_chemical_formula_sum   'U1 Cu1 Si1'
_cell_volume   55.13150558
_cell_formula_units_Z   1
loop_
 _symmetry_equiv_pos_site_id
 _symmetry_equiv_pos_as_xyz
  1  'x, y, z'
loop_
 _atom_site_type_symbol
 _atom_site_label
 _atom_site_symmetry_multiplicity
 _atom_site_fract_x
 _atom_site_fract_y
 _atom_site_fract_z
 _atom_site_occupancy
  U  U0  1  0.00000000  0.99997642  0.00001097  1
  Cu  Cu1  1  0.50000000  0.33330505  0.33336771  1
  Si  Si2  1  0.50000000  0.66661853  0.66672131  1
