# generated using pymatgen
data_Sc6Sn5
_symmetry_space_group_name_H-M   'P 1'
_cell_length_a   6.11046102
_cell_length_b   8.86222687
_cell_length_c   10.99578905
_cell_angle_alpha   113.76477818
_cell_angle_beta   106.13219959
_cell_angle_gamma   90.00000000
_symmetry_Int_Tables_number   1
_chemical_formula_structural   Sc6Sn5
_chemical_formula_sum   'Sc12 Sn10'
_cell_volume   519.23599575
_cell_formula_units_Z   2
loop_
 _symmetry_equiv_pos_site_id
 _symmetry_equiv_pos_as_xyz
  1  'x, y, z'
loop_
 _atom_site_type_symbol
 _atom_site_label
 _atom_site_symmetry_multiplicity
 _atom_site_fract_x
 _atom_site_fract_y
 _atom_site_fract_z
 _atom_site_occupancy
  Sc  Sc0  1  0.55892240  0.30892240  0.61784479  1
  Sc  Sc1  1  0.44107760  0.69107760  0.38215521  1
  Sc  Sc2  1  0.94107760  0.69107760  0.38215521  1
  Sc  Sc3  1  0.05892240  0.30892240  0.61784479  1
  Sc  Sc4  1  0.43544306  0.67903920  0.87088611  1
  Sc  Sc5  1  0.56455694  0.32096080  0.12911389  1
  Sc  Sc6  1  0.93544306  0.19184691  0.87088611  1
  Sc  Sc7  1  0.06455694  0.80815309  0.12911389  1
  Sc  Sc8  1  0.14108622  0.25717702  0.28217244  1
  Sc  Sc9  1  0.85891378  0.74282298  0.71782756  1
  Sc  Sc10  1  0.64108622  0.02499543  0.28217244  1
  Sc  Sc11  1  0.35891378  0.97500457  0.71782756  1
  Sn  Sn12  1  0.28928395  0.59191877  0.57856791  1
  Sn  Sn13  1  0.71071605  0.40808123  0.42143209  1
  Sn  Sn14  1  0.78928395  0.98664914  0.57856791  1
  Sn  Sn15  1  0.21071605  0.01335086  0.42143209  1
  Sn  Sn16  1  0.25000000  -0.00000000  -0.00000000  1
  Sn  Sn17  1  0.75000000  -0.00000000  -0.00000000  1
  Sn  Sn18  1  0.06908028  0.47316554  0.13816057  1
  Sn  Sn19  1  0.93091972  0.52683446  0.86183943  1
  Sn  Sn20  1  0.56908028  0.66499503  0.13816057  1
  Sn  Sn21  1  0.43091972  0.33500497  0.86183943  1
