# generated using pymatgen
data_RbSr2Cl5
_symmetry_space_group_name_H-M   'P 1'
_cell_length_a   8.03911003
_cell_length_b   9.09503120
_cell_length_c   13.03297222
_cell_angle_alpha   90.26689079
_cell_angle_beta   90.00000000
_cell_angle_gamma   90.00000000
_symmetry_Int_Tables_number   1
_chemical_formula_structural   RbSr2Cl5
_chemical_formula_sum   'Rb4 Sr8 Cl20'
_cell_volume   952.90789188
_cell_formula_units_Z   4
loop_
 _symmetry_equiv_pos_site_id
 _symmetry_equiv_pos_as_xyz
  1  'x, y, z'
loop_
 _atom_site_type_symbol
 _atom_site_label
 _atom_site_symmetry_multiplicity
 _atom_site_fract_x
 _atom_site_fract_y
 _atom_site_fract_z
 _atom_site_occupancy
  Rb  Rb0  1  0.96190362  0.49413778  0.66986870  1
  Rb  Rb1  1  0.03809638  0.50586222  0.33013130  1
  Rb  Rb2  1  0.46190362  0.50586222  0.83013130  1
  Rb  Rb3  1  0.53809638  0.49413778  0.16986870  1
  Sr  Sr4  1  0.97944937  0.99961595  0.67723109  1
  Sr  Sr5  1  0.02055063  0.00038405  0.32276891  1
  Sr  Sr6  1  0.47944937  0.00038405  0.82276891  1
  Sr  Sr7  1  0.52055063  0.99961595  0.17723109  1
  Sr  Sr8  1  0.93659771  0.75375548  0.99460565  1
  Sr  Sr9  1  0.06340229  0.24624452  0.00539435  1
  Sr  Sr10  1  0.43659771  0.24624452  0.50539435  1
  Sr  Sr11  1  0.56340229  0.75375548  0.49460565  1
  Cl  Cl12  1  0.83667386  0.46990124  0.91358014  1
  Cl  Cl13  1  0.16332614  0.53009876  0.08641986  1
  Cl  Cl14  1  0.33667386  0.53009876  0.58641986  1
  Cl  Cl15  1  0.66332614  0.46990124  0.41358014  1
  Cl  Cl16  1  0.16869678  0.78995754  0.81775819  1
  Cl  Cl17  1  0.83130322  0.21004246  0.18224181  1
  Cl  Cl18  1  0.66869678  0.21004246  0.68224181  1
  Cl  Cl19  1  0.33130322  0.78995754  0.31775819  1
  Cl  Cl20  1  0.69396682  0.77741390  0.71209858  1
  Cl  Cl21  1  0.30603318  0.22258610  0.28790142  1
  Cl  Cl22  1  0.19396682  0.22258610  0.78790142  1
  Cl  Cl23  1  0.80603318  0.77741390  0.21209858  1
  Cl  Cl24  1  0.55304537  0.79024202  0.99593946  1
  Cl  Cl25  1  0.44695463  0.20975798  0.00406054  1
  Cl  Cl26  1  0.05304537  0.20975798  0.50406054  1
  Cl  Cl27  1  0.94695463  0.79024202  0.49593946  1
  Cl  Cl28  1  0.34143500  0.96132798  0.60275784  1
  Cl  Cl29  1  0.65856500  0.03867202  0.39724216  1
  Cl  Cl30  1  0.84143500  0.03867202  0.89724216  1
  Cl  Cl31  1  0.15856500  0.96132798  0.10275784  1
