# generated using pymatgen
data_RbSm(SeO4)2
_symmetry_space_group_name_H-M   'P 1'
_cell_length_a   7.45382339
_cell_length_b   9.31880191
_cell_length_c   11.15451780
_cell_angle_alpha   91.20414672
_cell_angle_beta   90.00000000
_cell_angle_gamma   90.00000000
_symmetry_Int_Tables_number   1
_chemical_formula_structural   RbSm(SeO4)2
_chemical_formula_sum   'Rb4 Sm4 Se8 O32'
_cell_volume   774.62955210
_cell_formula_units_Z   4
loop_
 _symmetry_equiv_pos_site_id
 _symmetry_equiv_pos_as_xyz
  1  'x, y, z'
loop_
 _atom_site_type_symbol
 _atom_site_label
 _atom_site_symmetry_multiplicity
 _atom_site_fract_x
 _atom_site_fract_y
 _atom_site_fract_z
 _atom_site_occupancy
  Rb  Rb0  1  0.85476321  0.43627650  0.65949626  1
  Rb  Rb1  1  0.14523679  0.56372350  0.34050374  1
  Rb  Rb2  1  0.35476321  0.56372350  0.84050374  1
  Rb  Rb3  1  0.64523679  0.43627650  0.15949626  1
  Sm  Sm4  1  0.66811682  0.94733290  0.65181898  1
  Sm  Sm5  1  0.33188318  0.05266710  0.34818102  1
  Sm  Sm6  1  0.16811682  0.05266710  0.84818102  1
  Sm  Sm7  1  0.83188318  0.94733290  0.15181898  1
  Se  Se8  1  0.66727231  0.17833906  0.89136508  1
  Se  Se9  1  0.33272769  0.82166094  0.10863492  1
  Se  Se10  1  0.16727231  0.82166094  0.60863492  1
  Se  Se11  1  0.83272769  0.17833906  0.39136508  1
  Se  Se12  1  0.84155839  0.73544249  0.91200650  1
  Se  Se13  1  0.15844161  0.26455751  0.08799350  1
  Se  Se14  1  0.34155839  0.26455751  0.58799350  1
  Se  Se15  1  0.65844161  0.73544249  0.41200650  1
  O  O16  1  0.32764062  0.88492006  0.97005739  1
  O  O17  1  0.67235938  0.11507994  0.02994261  1
  O  O18  1  0.82764062  0.11507994  0.52994261  1
  O  O19  1  0.17235938  0.88492006  0.47005739  1
  O  O20  1  0.00292493  0.90897367  0.68723363  1
  O  O21  1  0.99707507  0.09102633  0.31276637  1
  O  O22  1  0.50292493  0.09102633  0.81276637  1
  O  O23  1  0.49707507  0.90897367  0.18723363  1
  O  O24  1  0.64836215  0.35361213  0.89456895  1
  O  O25  1  0.35163785  0.64638787  0.10543105  1
  O  O26  1  0.14836215  0.64638787  0.60543105  1
  O  O27  1  0.85163785  0.35361213  0.39456895  1
  O  O28  1  0.75949289  0.71754782  0.54581332  1
  O  O29  1  0.24050711  0.28245218  0.45418668  1
  O  O30  1  0.25949289  0.28245218  0.95418668  1
  O  O31  1  0.74050711  0.71754782  0.04581332  1
  O  O32  1  0.95512591  0.88942544  0.94556956  1
  O  O33  1  0.04487409  0.11057456  0.05443044  1
  O  O34  1  0.45512591  0.11057456  0.55443044  1
  O  O35  1  0.54487409  0.88942544  0.44556956  1
  O  O36  1  0.97237281  0.60128474  0.87300785  1
  O  O37  1  0.02762719  0.39871526  0.12699215  1
  O  O38  1  0.47237281  0.39871526  0.62699215  1
  O  O39  1  0.52762719  0.60128474  0.37300785  1
  O  O40  1  0.34471324  0.87194739  0.69654660  1
  O  O41  1  0.65528676  0.12805261  0.30345340  1
  O  O42  1  0.84471324  0.12805261  0.80345340  1
  O  O43  1  0.15528676  0.87194739  0.19654660  1
  O  O44  1  0.68786025  0.76678127  0.80536494  1
  O  O45  1  0.31213975  0.23321873  0.19463506  1
  O  O46  1  0.18786025  0.23321873  0.69463506  1
  O  O47  1  0.81213975  0.76678127  0.30536494  1
