# generated using pymatgen
data_Sm2(Ga3Ru)3
_symmetry_space_group_name_H-M   'P 1'
_cell_length_a   7.54099995
_cell_length_b   7.54099995
_cell_length_c   9.83702222
_cell_angle_alpha   90.00000000
_cell_angle_beta   90.00000000
_cell_angle_gamma   119.52866283
_symmetry_Int_Tables_number   1
_chemical_formula_structural   Sm2(Ga3Ru)3
_chemical_formula_sum   'Sm4 Ga18 Ru6'
_cell_volume   486.73806565
_cell_formula_units_Z   2
loop_
 _symmetry_equiv_pos_site_id
 _symmetry_equiv_pos_as_xyz
  1  'x, y, z'
loop_
 _atom_site_type_symbol
 _atom_site_label
 _atom_site_symmetry_multiplicity
 _atom_site_fract_x
 _atom_site_fract_y
 _atom_site_fract_z
 _atom_site_occupancy
  Sm  Sm0  1  0.66929129  0.99679664  0.25000000  1
  Sm  Sm1  1  0.33070871  0.00320336  0.75000000  1
  Sm  Sm2  1  0.99679664  0.66929129  0.25000000  1
  Sm  Sm3  1  0.00320336  0.33070871  0.75000000  1
  Ga  Ga4  1  0.12677949  0.12677949  0.25000000  1
  Ga  Ga5  1  0.87322051  0.87322051  0.75000000  1
  Ga  Ga6  1  0.33519740  0.00579950  0.07402347  1
  Ga  Ga7  1  0.66480260  0.99420050  0.92597653  1
  Ga  Ga8  1  0.66480260  0.99420050  0.57402347  1
  Ga  Ga9  1  0.00579950  0.33519740  0.42597653  1
  Ga  Ga10  1  0.33519740  0.00579950  0.42597653  1
  Ga  Ga11  1  0.99420050  0.66480260  0.57402347  1
  Ga  Ga12  1  0.99420050  0.66480260  0.92597653  1
  Ga  Ga13  1  0.00579950  0.33519740  0.07402347  1
  Ga  Ga14  1  0.33735661  0.33735661  0.55749865  1
  Ga  Ga15  1  0.66264339  0.66264339  0.44250135  1
  Ga  Ga16  1  0.66264339  0.66264339  0.05749865  1
  Ga  Ga17  1  0.33735661  0.33735661  0.94250135  1
  Ga  Ga18  1  0.54587865  0.33601666  0.25000000  1
  Ga  Ga19  1  0.45412135  0.66398334  0.75000000  1
  Ga  Ga20  1  0.33601666  0.54587865  0.25000000  1
  Ga  Ga21  1  0.66398334  0.45412135  0.75000000  1
  Ru  Ru22  1  0.32711611  0.67288389  -0.00000000  1
  Ru  Ru23  1  0.67288389  0.32711611  -0.00000000  1
  Ru  Ru24  1  0.67288389  0.32711611  0.50000000  1
  Ru  Ru25  1  0.32711611  0.67288389  0.50000000  1
  Ru  Ru26  1  -0.00000000  -0.00000000  -0.00000000  1
  Ru  Ru27  1  -0.00000000  -0.00000000  0.50000000  1
