# generated using pymatgen
data_RbInBr4
_symmetry_space_group_name_H-M   'P 1'
_cell_length_a   8.29858339
_cell_length_b   10.98351194
_cell_length_c   10.95349852
_cell_angle_alpha   90.00000000
_cell_angle_beta   90.00000000
_cell_angle_gamma   90.00000000
_symmetry_Int_Tables_number   1
_chemical_formula_structural   RbInBr4
_chemical_formula_sum   'Rb4 In4 Br16'
_cell_volume   998.38498942
_cell_formula_units_Z   4
loop_
 _symmetry_equiv_pos_site_id
 _symmetry_equiv_pos_as_xyz
  1  'x, y, z'
loop_
 _atom_site_type_symbol
 _atom_site_label
 _atom_site_symmetry_multiplicity
 _atom_site_fract_x
 _atom_site_fract_y
 _atom_site_fract_z
 _atom_site_occupancy
  Rb  Rb0  1  0.68126147  0.75000000  0.75000000  1
  Rb  Rb1  1  0.31873853  0.25000000  0.25000000  1
  Rb  Rb2  1  0.81873853  0.75000000  0.25000000  1
  Rb  Rb3  1  0.18126147  0.25000000  0.75000000  1
  In  In4  1  0.75000000  0.32090150  0.00000000  1
  In  In5  1  0.25000000  0.67909850  0.00000000  1
  In  In6  1  0.75000000  0.17909850  0.50000000  1
  In  In7  1  0.25000000  0.82090150  0.50000000  1
  Br  Br8  1  0.84303459  0.44847118  0.81844468  1
  Br  Br9  1  0.15696541  0.55152882  0.18155532  1
  Br  Br10  1  0.65696541  0.44847118  0.18155532  1
  Br  Br11  1  0.65696541  0.05152882  0.31844468  1
  Br  Br12  1  0.34303459  0.55152882  0.81844468  1
  Br  Br13  1  0.34303459  0.94847118  0.68155532  1
  Br  Br14  1  0.84303459  0.05152882  0.68155532  1
  Br  Br15  1  0.15696541  0.94847118  0.31844468  1
  Br  Br16  1  0.00823729  0.81670695  0.95659210  1
  Br  Br17  1  0.99176271  0.18329305  0.04340790  1
  Br  Br18  1  0.49176271  0.81670695  0.04340790  1
  Br  Br19  1  0.49176271  0.68329305  0.45659210  1
  Br  Br20  1  0.50823729  0.18329305  0.95659210  1
  Br  Br21  1  0.50823729  0.31670695  0.54340790  1
  Br  Br22  1  0.00823729  0.68329305  0.54340790  1
  Br  Br23  1  0.99176271  0.31670695  0.45659210  1
