# generated using pymatgen
data_RbHo(WO4)2
_symmetry_space_group_name_H-M   'P 1'
_cell_length_a   7.60489046
_cell_length_b   7.60489046
_cell_length_c   7.49555196
_cell_angle_alpha   62.55891251
_cell_angle_beta   62.55891251
_cell_angle_gamma   88.53515351
_symmetry_Int_Tables_number   1
_chemical_formula_structural   RbHo(WO4)2
_chemical_formula_sum   'Rb2 Ho2 W4 O16'
_cell_volume   331.69559038
_cell_formula_units_Z   2
loop_
 _symmetry_equiv_pos_site_id
 _symmetry_equiv_pos_as_xyz
  1  'x, y, z'
loop_
 _atom_site_type_symbol
 _atom_site_label
 _atom_site_symmetry_multiplicity
 _atom_site_fract_x
 _atom_site_fract_y
 _atom_site_fract_z
 _atom_site_occupancy
  Rb  Rb0  1  0.80049710  0.19950290  0.75000000  1
  Rb  Rb1  1  0.19950290  0.80049710  0.25000000  1
  Ho  Ho2  1  0.22385800  0.77614200  0.75000000  1
  Ho  Ho3  1  0.77614200  0.22385800  0.25000000  1
  W  W4  1  0.29988304  0.31048338  0.71883284  1
  W  W5  1  0.70011696  0.68951662  0.28116716  1
  W  W6  1  0.68951662  0.70011696  0.78116716  1
  W  W7  1  0.31048338  0.29988304  0.21883284  1
  O  O8  1  0.37969623  0.24454753  0.94082738  1
  O  O9  1  0.62030377  0.75545247  0.05917262  1
  O  O10  1  0.75545247  0.62030377  0.55917262  1
  O  O11  1  0.24454753  0.37969623  0.44082738  1
  O  O12  1  0.62643491  0.93999358  0.62218943  1
  O  O13  1  0.37356509  0.06000642  0.37781057  1
  O  O14  1  0.06000642  0.37356509  0.87781057  1
  O  O15  1  0.93999358  0.62643491  0.12218943  1
  O  O16  1  0.40909340  0.62983701  0.53478030  1
  O  O17  1  0.59090660  0.37016299  0.46521970  1
  O  O18  1  0.37016299  0.59090660  0.96521970  1
  O  O19  1  0.62983701  0.40909340  0.03478030  1
  O  O20  1  0.21552365  0.04487214  0.80717019  1
  O  O21  1  0.78447635  0.95512786  0.19282981  1
  O  O22  1  0.95512786  0.78447635  0.69282981  1
  O  O23  1  0.04487214  0.21552365  0.30717019  1
