# generated using pymatgen
data_Rb3(SeO4)2
_symmetry_space_group_name_H-M   'P 1'
_cell_length_a   6.19207052
_cell_length_b   8.55942517
_cell_length_c   10.61253013
_cell_angle_alpha   101.56078324
_cell_angle_beta   90.00000000
_cell_angle_gamma   111.20529025
_symmetry_Int_Tables_number   1
_chemical_formula_structural   Rb3(SeO4)2
_chemical_formula_sum   'Rb6 Se4 O16'
_cell_volume   512.12655127
_cell_formula_units_Z   2
loop_
 _symmetry_equiv_pos_site_id
 _symmetry_equiv_pos_as_xyz
  1  'x, y, z'
loop_
 _atom_site_type_symbol
 _atom_site_label
 _atom_site_symmetry_multiplicity
 _atom_site_fract_x
 _atom_site_fract_y
 _atom_site_fract_z
 _atom_site_occupancy
  Rb  Rb0  1  0.75250768  -0.00000000  0.75000000  1
  Rb  Rb1  1  0.24749232  0.00000000  0.25000000  1
  Rb  Rb2  1  0.41794769  0.38713626  0.65173046  1
  Rb  Rb3  1  0.58205231  0.61286374  0.34826954  1
  Rb  Rb4  1  0.03081144  0.61286374  0.84826954  1
  Rb  Rb5  1  0.96918856  0.38713626  0.15173046  1
  Se  Se6  1  0.40099300  0.22902620  0.96370604  1
  Se  Se7  1  0.59900700  0.77097380  0.03629396  1
  Se  Se8  1  0.17196680  0.77097380  0.53629396  1
  Se  Se9  1  0.82803320  0.22902620  0.46370604  1
  O  O10  1  0.57002641  0.68955512  0.87835938  1
  O  O11  1  0.42997359  0.31044488  0.12164062  1
  O  O12  1  0.88047129  0.31044488  0.62164062  1
  O  O13  1  0.11952871  0.68955512  0.37835938  1
  O  O14  1  0.64754133  0.30808612  0.89509978  1
  O  O15  1  0.35245867  0.69191388  0.10490022  1
  O  O16  1  0.33945521  0.69191388  0.60490022  1
  O  O17  1  0.66054479  0.30808612  0.39509978  1
  O  O18  1  0.18074094  0.25661790  0.89116989  1
  O  O19  1  0.81925906  0.74338210  0.10883011  1
  O  O20  1  0.92412303  0.74338210  0.60883011  1
  O  O21  1  0.07587697  0.25661790  0.39116989  1
  O  O22  1  0.32124605  0.01094947  0.93970384  1
  O  O23  1  0.67875395  0.98905053  0.06029616  1
  O  O24  1  0.31029658  0.98905053  0.56029616  1
  O  O25  1  0.68970342  0.01094947  0.43970384  1
