# generated using pymatgen
data_RbAlCuF6
_symmetry_space_group_name_H-M   'P 1'
_cell_length_a   6.86211280
_cell_length_b   7.19376923
_cell_length_c   10.21936688
_cell_angle_alpha   90.00000000
_cell_angle_beta   90.00000000
_cell_angle_gamma   90.00000000
_symmetry_Int_Tables_number   1
_chemical_formula_structural   RbAlCuF6
_chemical_formula_sum   'Rb4 Al4 Cu4 F24'
_cell_volume   504.47348581
_cell_formula_units_Z   4
loop_
 _symmetry_equiv_pos_site_id
 _symmetry_equiv_pos_as_xyz
  1  'x, y, z'
loop_
 _atom_site_type_symbol
 _atom_site_label
 _atom_site_symmetry_multiplicity
 _atom_site_fract_x
 _atom_site_fract_y
 _atom_site_fract_z
 _atom_site_occupancy
  Rb  Rb0  1  0.01315014  0.25000000  0.62887748  1
  Rb  Rb1  1  0.98684986  0.75000000  0.37112252  1
  Rb  Rb2  1  0.48684986  0.75000000  0.12887748  1
  Rb  Rb3  1  0.51315014  0.25000000  0.87112252  1
  Al  Al4  1  0.00000000  0.00000000  0.00000000  1
  Al  Al5  1  0.50000000  0.00000000  0.50000000  1
  Al  Al6  1  -0.00000000  0.50000000  0.00000000  1
  Al  Al7  1  0.50000000  0.50000000  0.50000000  1
  Cu  Cu8  1  0.21053656  0.25000000  0.25570857  1
  Cu  Cu9  1  0.78946344  0.75000000  0.74429143  1
  Cu  Cu10  1  0.28946344  0.75000000  0.75570857  1
  Cu  Cu11  1  0.71053656  0.25000000  0.24429143  1
  F  F12  1  0.28169155  0.04991909  0.40713499  1
  F  F13  1  0.71830845  0.95008091  0.59286501  1
  F  F14  1  0.21830845  0.95008091  0.90713499  1
  F  F15  1  0.71830845  0.54991909  0.59286501  1
  F  F16  1  0.78169155  0.04991909  0.09286501  1
  F  F17  1  0.28169155  0.45008091  0.40713499  1
  F  F18  1  0.78169155  0.45008091  0.09286501  1
  F  F19  1  0.21830845  0.54991909  0.90713499  1
  F  F20  1  0.54799344  0.25000000  0.52540922  1
  F  F21  1  0.45200656  0.75000000  0.47459078  1
  F  F22  1  0.95200656  0.75000000  0.02540922  1
  F  F23  1  0.04799344  0.25000000  0.97459078  1
  F  F24  1  0.14504567  0.49641656  0.14930697  1
  F  F25  1  0.85495433  0.50358344  0.85069303  1
  F  F26  1  0.35495433  0.50358344  0.64930697  1
  F  F27  1  0.85495433  0.99641656  0.85069303  1
  F  F28  1  0.64504567  0.49641656  0.35069303  1
  F  F29  1  0.14504567  0.00358344  0.14930697  1
  F  F30  1  0.64504567  0.00358344  0.35069303  1
  F  F31  1  0.35495433  0.99641656  0.64930697  1
  F  F32  1  0.45579889  0.25000000  0.16943644  1
  F  F33  1  0.54420111  0.75000000  0.83056356  1
  F  F34  1  0.04420111  0.75000000  0.66943644  1
  F  F35  1  0.95579889  0.25000000  0.33056356  1
