# generated using pymatgen
data_Rb2MnI4
_symmetry_space_group_name_H-M   'P 1'
_cell_length_a   8.16911050
_cell_length_b   8.38535792
_cell_length_c   10.28467528
_cell_angle_alpha   90.00000000
_cell_angle_beta   108.49180056
_cell_angle_gamma   90.00000000
_symmetry_Int_Tables_number   1
_chemical_formula_structural   Rb2MnI4
_chemical_formula_sum   'Rb4 Mn2 I8'
_cell_volume   668.13517068
_cell_formula_units_Z   2
loop_
 _symmetry_equiv_pos_site_id
 _symmetry_equiv_pos_as_xyz
  1  'x, y, z'
loop_
 _atom_site_type_symbol
 _atom_site_label
 _atom_site_symmetry_multiplicity
 _atom_site_fract_x
 _atom_site_fract_y
 _atom_site_fract_z
 _atom_site_occupancy
  Rb  Rb0  1  0.21432633  0.25000000  0.55049735  1
  Rb  Rb1  1  0.78567367  0.75000000  0.44950265  1
  Rb  Rb2  1  0.26696379  0.25000000  0.06828005  1
  Rb  Rb3  1  0.73303621  0.75000000  0.93171995  1
  Mn  Mn4  1  0.77610947  0.25000000  0.70043762  1
  Mn  Mn5  1  0.22389053  0.75000000  0.29956238  1
  I  I6  1  0.60427016  0.25000000  0.43052315  1
  I  I7  1  0.39572984  0.75000000  0.56947685  1
  I  I8  1  0.00455763  0.00074352  0.23912031  1
  I  I9  1  0.99544237  0.99925648  0.76087969  1
  I  I10  1  0.99544237  0.50074352  0.76087969  1
  I  I11  1  0.00455763  0.49925648  0.23912031  1
  I  I12  1  0.58379723  0.25000000  0.86978206  1
  I  I13  1  0.41620277  0.75000000  0.13021794  1
