# generated using pymatgen
data_PrVO3
_symmetry_space_group_name_H-M   'P 1'
_cell_length_a   5.51724692
_cell_length_b   5.73447658
_cell_length_c   7.88322333
_cell_angle_alpha   90.00000000
_cell_angle_beta   90.00000000
_cell_angle_gamma   90.00000000
_symmetry_Int_Tables_number   1
_chemical_formula_structural   PrVO3
_chemical_formula_sum   'Pr4 V4 O12'
_cell_volume   249.41354460
_cell_formula_units_Z   4
loop_
 _symmetry_equiv_pos_site_id
 _symmetry_equiv_pos_as_xyz
  1  'x, y, z'
loop_
 _atom_site_type_symbol
 _atom_site_label
 _atom_site_symmetry_multiplicity
 _atom_site_fract_x
 _atom_site_fract_y
 _atom_site_fract_z
 _atom_site_occupancy
  Pr  Pr0  1  0.01595102  0.44239924  0.25000000  1
  Pr  Pr1  1  0.98404898  0.55760076  0.75000000  1
  Pr  Pr2  1  0.51595102  0.05760076  0.75000000  1
  Pr  Pr3  1  0.48404898  0.94239924  0.25000000  1
  V  V4  1  0.00000000  -0.00000000  0.00000000  1
  V  V5  1  0.50000000  0.50000000  0.00000000  1
  V  V6  1  0.00000000  -0.00000000  0.50000000  1
  V  V7  1  0.50000000  0.50000000  0.50000000  1
  O  O8  1  0.30090869  0.20765659  0.04786050  1
  O  O9  1  0.69909131  0.79234341  0.95213950  1
  O  O10  1  0.80090869  0.29234341  0.95213950  1
  O  O11  1  0.69909131  0.79234341  0.54786050  1
  O  O12  1  0.19909131  0.70765659  0.04786050  1
  O  O13  1  0.30090869  0.20765659  0.45213950  1
  O  O14  1  0.19909131  0.70765659  0.45213950  1
  O  O15  1  0.80090869  0.29234341  0.54786050  1
  O  O16  1  0.59264646  0.52391729  0.25000000  1
  O  O17  1  0.40735354  0.47608271  0.75000000  1
  O  O18  1  0.09264646  0.97608271  0.75000000  1
  O  O19  1  0.90735354  0.02391729  0.25000000  1
