# generated using pymatgen
data_RbEr(WO4)2
_symmetry_space_group_name_H-M   'P 1'
_cell_length_a   7.58216221
_cell_length_b   7.58216221
_cell_length_c   7.50238375
_cell_angle_alpha   62.46182121
_cell_angle_beta   62.46182121
_cell_angle_gamma   88.35335885
_symmetry_Int_Tables_number   1
_chemical_formula_structural   RbEr(WO4)2
_chemical_formula_sum   'Rb2 Er2 W4 O16'
_cell_volume   329.58753164
_cell_formula_units_Z   2
loop_
 _symmetry_equiv_pos_site_id
 _symmetry_equiv_pos_as_xyz
  1  'x, y, z'
loop_
 _atom_site_type_symbol
 _atom_site_label
 _atom_site_symmetry_multiplicity
 _atom_site_fract_x
 _atom_site_fract_y
 _atom_site_fract_z
 _atom_site_occupancy
  Rb  Rb0  1  0.79982510  0.20017490  0.75000000  1
  Rb  Rb1  1  0.20017490  0.79982510  0.25000000  1
  Er  Er2  1  0.22384402  0.77615598  0.75000000  1
  Er  Er3  1  0.77615598  0.22384402  0.25000000  1
  W  W4  1  0.30016681  0.30964732  0.72031664  1
  W  W5  1  0.69983319  0.69035268  0.27968336  1
  W  W6  1  0.69035268  0.69983319  0.77968336  1
  W  W7  1  0.30964732  0.30016681  0.22031664  1
  O  O8  1  0.38029829  0.24342506  0.94129534  1
  O  O9  1  0.61970171  0.75657494  0.05870466  1
  O  O10  1  0.75657494  0.61970171  0.55870466  1
  O  O11  1  0.24342506  0.38029829  0.44129534  1
  O  O12  1  0.62745401  0.94089517  0.62101161  1
  O  O13  1  0.37254599  0.05910483  0.37898839  1
  O  O14  1  0.05910483  0.37254599  0.87898839  1
  O  O15  1  0.94089517  0.62745401  0.12101161  1
  O  O16  1  0.40867972  0.62989343  0.53552600  1
  O  O17  1  0.59132028  0.37010657  0.46447400  1
  O  O18  1  0.37010657  0.59132028  0.96447400  1
  O  O19  1  0.62989343  0.40867972  0.03552600  1
  O  O20  1  0.21624695  0.04336373  0.80687288  1
  O  O21  1  0.78375305  0.95663627  0.19312712  1
  O  O22  1  0.95663627  0.78375305  0.69312712  1
  O  O23  1  0.04336373  0.21624695  0.30687288  1
