# generated using pymatgen
data_RbBa2Br5
_symmetry_space_group_name_H-M   'P 1'
_cell_length_a   8.82467896
_cell_length_b   9.91449787
_cell_length_c   14.13876857
_cell_angle_alpha   90.00758749
_cell_angle_beta   90.00000000
_cell_angle_gamma   90.00000000
_symmetry_Int_Tables_number   1
_chemical_formula_structural   RbBa2Br5
_chemical_formula_sum   'Rb4 Ba8 Br20'
_cell_volume   1237.03281604
_cell_formula_units_Z   4
loop_
 _symmetry_equiv_pos_site_id
 _symmetry_equiv_pos_as_xyz
  1  'x, y, z'
loop_
 _atom_site_type_symbol
 _atom_site_label
 _atom_site_symmetry_multiplicity
 _atom_site_fract_x
 _atom_site_fract_y
 _atom_site_fract_z
 _atom_site_occupancy
  Rb  Rb0  1  0.97769488  0.50400808  0.67691212  1
  Rb  Rb1  1  0.02230512  0.49599192  0.32308788  1
  Rb  Rb2  1  0.47769488  0.49599192  0.82308788  1
  Rb  Rb3  1  0.52230512  0.50400808  0.17691212  1
  Ba  Ba4  1  0.97561248  0.00176959  0.67770782  1
  Ba  Ba5  1  0.02438752  0.99823041  0.32229218  1
  Ba  Ba6  1  0.47561248  0.99823041  0.82229218  1
  Ba  Ba7  1  0.52438752  0.00176959  0.17770782  1
  Ba  Ba8  1  0.92659409  0.75057629  0.99270608  1
  Ba  Ba9  1  0.07340591  0.24942371  0.00729392  1
  Ba  Ba10  1  0.42659409  0.24942371  0.50729392  1
  Ba  Ba11  1  0.57340591  0.75057629  0.49270608  1
  Br  Br12  1  0.83749753  0.46078897  0.90782273  1
  Br  Br13  1  0.16250247  0.53921103  0.09217727  1
  Br  Br14  1  0.33749753  0.53921103  0.59217727  1
  Br  Br15  1  0.66250247  0.46078897  0.40782273  1
  Br  Br16  1  0.16692743  0.78330350  0.81500487  1
  Br  Br17  1  0.83307257  0.21669650  0.18499513  1
  Br  Br18  1  0.66692743  0.21669650  0.68499513  1
  Br  Br19  1  0.33307257  0.78330350  0.31500487  1
  Br  Br20  1  0.69863200  0.77011424  0.71765216  1
  Br  Br21  1  0.30136800  0.22988576  0.28234784  1
  Br  Br22  1  0.19863200  0.22988576  0.78234784  1
  Br  Br23  1  0.80136800  0.77011424  0.21765216  1
  Br  Br24  1  0.54568254  0.77924731  0.99748593  1
  Br  Br25  1  0.45431746  0.22075269  0.00251407  1
  Br  Br26  1  0.04568254  0.22075269  0.50251407  1
  Br  Br27  1  0.95431746  0.77924731  0.49748593  1
  Br  Br28  1  0.33761871  0.95840519  0.60014021  1
  Br  Br29  1  0.66238129  0.04159481  0.39985979  1
  Br  Br30  1  0.83761871  0.04159481  0.89985979  1
  Br  Br31  1  0.16238129  0.95840519  0.10014021  1
