# generated using pymatgen
data_Ti3S4
_symmetry_space_group_name_H-M   'P 1'
_cell_length_a   3.44438444
_cell_length_b   3.44438444
_cell_length_c   11.81220346
_cell_angle_alpha   89.99980707
_cell_angle_beta   90.00019293
_cell_angle_gamma   120.00197843
_symmetry_Int_Tables_number   1
_chemical_formula_structural   Ti3S4
_chemical_formula_sum   'Ti3 S4'
_cell_volume   121.36015704
_cell_formula_units_Z   1
loop_
 _symmetry_equiv_pos_site_id
 _symmetry_equiv_pos_as_xyz
  1  'x, y, z'
loop_
 _atom_site_type_symbol
 _atom_site_label
 _atom_site_symmetry_multiplicity
 _atom_site_fract_x
 _atom_site_fract_y
 _atom_site_fract_z
 _atom_site_occupancy
  Ti  Ti0  1  0.33331083  0.66668917  0.38489364  1
  Ti  Ti1  1  0.33331285  0.66668715  0.11136011  1
  Ti  Ti2  1  0.66666317  0.33333683  0.87719806  1
  S  S3  1  0.66667600  0.33332400  0.25090824  1
  S  S4  1  0.33332704  0.66667296  0.75884143  1
  S  S5  1  0.00001194  0.99998806  0.50145477  1
  S  S6  1  0.99999817  0.00000183  0.00034376  1
