# generated using pymatgen
data_PrAsSe
_symmetry_space_group_name_H-M   'P 1'
_cell_length_a   4.02229745
_cell_length_b   4.10673971
_cell_length_c   18.24145195
_cell_angle_alpha   90.00000000
_cell_angle_beta   90.00000000
_cell_angle_gamma   90.05650727
_symmetry_Int_Tables_number   1
_chemical_formula_structural   PrAsSe
_chemical_formula_sum   'Pr4 As4 Se4'
_cell_volume   301.32180007
_cell_formula_units_Z   4
loop_
 _symmetry_equiv_pos_site_id
 _symmetry_equiv_pos_as_xyz
  1  'x, y, z'
loop_
 _atom_site_type_symbol
 _atom_site_label
 _atom_site_symmetry_multiplicity
 _atom_site_fract_x
 _atom_site_fract_y
 _atom_site_fract_z
 _atom_site_occupancy
  Pr  Pr0  1  0.24950436  0.72831881  0.63951031  1
  Pr  Pr1  1  0.75049564  0.27168119  0.36048969  1
  Pr  Pr2  1  0.25049564  0.77168119  0.13951031  1
  Pr  Pr3  1  0.74950436  0.22831881  0.86048969  1
  As  As4  1  0.75181383  0.69938380  0.99738530  1
  As  As5  1  0.24818617  0.30061620  0.00261470  1
  As  As6  1  0.74818617  0.80061620  0.49738530  1
  As  As7  1  0.25181383  0.19938380  0.50261470  1
  Se  Se8  1  0.24974432  0.73045915  0.81307966  1
  Se  Se9  1  0.75025568  0.26954085  0.18692034  1
  Se  Se10  1  0.25025568  0.76954085  0.31307966  1
  Se  Se11  1  0.74974432  0.23045915  0.68692034  1
