# generated using pymatgen
data_Pr2WO6
_symmetry_space_group_name_H-M   'P 1'
_cell_length_a   5.63896054
_cell_length_b   10.27050894
_cell_length_c   10.27050894
_cell_angle_alpha   68.79779267
_cell_angle_beta   75.61458969
_cell_angle_gamma   75.61458969
_symmetry_Int_Tables_number   1
_chemical_formula_structural   Pr2WO6
_chemical_formula_sum   'Pr8 W4 O24'
_cell_volume   528.81823616
_cell_formula_units_Z   4
loop_
 _symmetry_equiv_pos_site_id
 _symmetry_equiv_pos_as_xyz
  1  'x, y, z'
loop_
 _atom_site_type_symbol
 _atom_site_label
 _atom_site_symmetry_multiplicity
 _atom_site_fract_x
 _atom_site_fract_y
 _atom_site_fract_z
 _atom_site_occupancy
  Pr  Pr0  1  0.25000000  0.37062771  0.62937229  1
  Pr  Pr1  1  0.75000000  0.62937229  0.37062771  1
  Pr  Pr2  1  0.25000000  0.89124056  0.10875944  1
  Pr  Pr3  1  0.75000000  0.10875944  0.89124056  1
  Pr  Pr4  1  0.38628662  0.93982033  0.71082963  1
  Pr  Pr5  1  0.61371338  0.06017967  0.28917037  1
  Pr  Pr6  1  0.11371338  0.28917037  0.06017967  1
  Pr  Pr7  1  0.88628662  0.71082963  0.93982033  1
  W  W8  1  0.06027171  0.79983442  0.50386969  1
  W  W9  1  0.93972829  0.20016558  0.49613031  1
  W  W10  1  0.43972829  0.49613031  0.20016558  1
  W  W11  1  0.56027171  0.50386969  0.79983442  1
  O  O12  1  0.07793573  0.16367360  0.68008937  1
  O  O13  1  0.92206427  0.83632640  0.31991063  1
  O  O14  1  0.42206427  0.31991063  0.83632640  1
  O  O15  1  0.57793573  0.68008937  0.16367360  1
  O  O16  1  0.36785442  0.82544279  0.38506050  1
  O  O17  1  0.63214558  0.17455721  0.61493950  1
  O  O18  1  0.13214558  0.61493950  0.17455721  1
  O  O19  1  0.86785442  0.38506050  0.82544279  1
  O  O20  1  0.13632580  0.78690160  0.67553044  1
  O  O21  1  0.86367420  0.21309840  0.32446956  1
  O  O22  1  0.36367420  0.32446956  0.21309840  1
  O  O23  1  0.63632580  0.67553044  0.78690160  1
  O  O24  1  0.23246370  0.06806854  0.47274029  1
  O  O25  1  0.76753630  0.93193146  0.52725971  1
  O  O26  1  0.26753630  0.52725971  0.93193146  1
  O  O27  1  0.73246370  0.47274029  0.06806854  1
  O  O28  1  0.01874815  0.61498319  0.54615316  1
  O  O29  1  0.98125185  0.38501681  0.45384684  1
  O  O30  1  0.48125185  0.45384684  0.38501681  1
  O  O31  1  0.51874815  0.54615316  0.61498319  1
  O  O32  1  0.57853281  0.92191745  0.89366096  1
  O  O33  1  0.42146719  0.07808255  0.10633904  1
  O  O34  1  0.92146719  0.10633904  0.07808255  1
  O  O35  1  0.07853281  0.89366096  0.92191745  1
