# generated using pymatgen
data_PuMoC2
_symmetry_space_group_name_H-M   'P 1'
_cell_length_a   3.27627620
_cell_length_b   5.68840716
_cell_length_c   10.93064519
_cell_angle_alpha   90.00000000
_cell_angle_beta   90.00000000
_cell_angle_gamma   90.00000000
_symmetry_Int_Tables_number   1
_chemical_formula_structural   PuMoC2
_chemical_formula_sum   'Pu4 Mo4 C8'
_cell_volume   203.71217170
_cell_formula_units_Z   4
loop_
 _symmetry_equiv_pos_site_id
 _symmetry_equiv_pos_as_xyz
  1  'x, y, z'
loop_
 _atom_site_type_symbol
 _atom_site_label
 _atom_site_symmetry_multiplicity
 _atom_site_fract_x
 _atom_site_fract_y
 _atom_site_fract_z
 _atom_site_occupancy
  Pu  Pu0  1  0.75000000  0.91667747  0.64068808  1
  Pu  Pu1  1  0.25000000  0.08332253  0.35931192  1
  Pu  Pu2  1  0.25000000  0.58332253  0.14068808  1
  Pu  Pu3  1  0.75000000  0.41667747  0.85931192  1
  Mo  Mo4  1  0.75000000  0.58513028  0.39481706  1
  Mo  Mo5  1  0.25000000  0.41486972  0.60518294  1
  Mo  Mo6  1  0.25000000  0.91486972  0.89481706  1
  Mo  Mo7  1  0.75000000  0.08513028  0.10518294  1
  C  C8  1  0.75000000  0.83638547  0.25419255  1
  C  C9  1  0.25000000  0.16361453  0.74580745  1
  C  C10  1  0.25000000  0.66361453  0.75419255  1
  C  C11  1  0.75000000  0.33638547  0.24580745  1
  C  C12  1  0.75000000  0.76179435  0.98917348  1
  C  C13  1  0.25000000  0.23820565  0.01082652  1
  C  C14  1  0.25000000  0.73820565  0.48917348  1
  C  C15  1  0.75000000  0.26179435  0.51082652  1
