# generated using pymatgen
data_PrHfF7
_symmetry_space_group_name_H-M   'P 1'
_cell_length_a   5.85096204
_cell_length_b   6.30553047
_cell_length_c   8.48655411
_cell_angle_alpha   101.47232225
_cell_angle_beta   90.00000000
_cell_angle_gamma   90.00000000
_symmetry_Int_Tables_number   1
_chemical_formula_structural   PrHfF7
_chemical_formula_sum   'Pr2 Hf2 F14'
_cell_volume   306.84258326
_cell_formula_units_Z   2
loop_
 _symmetry_equiv_pos_site_id
 _symmetry_equiv_pos_as_xyz
  1  'x, y, z'
loop_
 _atom_site_type_symbol
 _atom_site_label
 _atom_site_symmetry_multiplicity
 _atom_site_fract_x
 _atom_site_fract_y
 _atom_site_fract_z
 _atom_site_occupancy
  Pr  Pr0  1  0.70062400  0.65810179  0.68833431  1
  Pr  Pr1  1  0.20062400  0.34189821  0.31166569  1
  Hf  Hf2  1  0.70946853  0.81168970  0.22438205  1
  Hf  Hf3  1  0.20946853  0.18831030  0.77561795  1
  F  F4  1  0.88258975  0.44644817  0.47300202  1
  F  F5  1  0.38258975  0.55355183  0.52699798  1
  F  F6  1  0.41909162  0.93377617  0.76888320  1
  F  F7  1  0.91909162  0.06622383  0.23111680  1
  F  F8  1  0.94932819  0.97448781  0.76201222  1
  F  F9  1  0.44932819  0.02551219  0.23798778  1
  F  F10  1  0.00215923  0.44515468  0.78627074  1
  F  F11  1  0.50215923  0.55484532  0.21372926  1
  F  F12  1  0.70600523  0.75837032  0.98363932  1
  F  F13  1  0.20600523  0.24162968  0.01636068  1
  F  F14  1  0.71377193  0.85798522  0.46559907  1
  F  F15  1  0.21377193  0.14201478  0.53440093  1
  F  F16  1  0.49332154  0.37275519  0.78354575  1
  F  F17  1  0.99332154  0.62724481  0.21645425  1
