# generated using pymatgen
data_RbTbS2O9
_symmetry_space_group_name_H-M   'P 1'
_cell_length_a   8.60128494
_cell_length_b   10.75880964
_cell_length_c   10.25453460
_cell_angle_alpha   120.81993715
_cell_angle_beta   90.00000000
_cell_angle_gamma   90.00000000
_symmetry_Int_Tables_number   1
_chemical_formula_structural   RbTbS2O9
_chemical_formula_sum   'Rb4 Tb4 S8 O36'
_cell_volume   814.94120965
_cell_formula_units_Z   4
loop_
 _symmetry_equiv_pos_site_id
 _symmetry_equiv_pos_as_xyz
  1  'x, y, z'
loop_
 _atom_site_type_symbol
 _atom_site_label
 _atom_site_symmetry_multiplicity
 _atom_site_fract_x
 _atom_site_fract_y
 _atom_site_fract_z
 _atom_site_occupancy
  Rb  Rb0  1  0.33339460  0.68085181  0.95929974  1
  Rb  Rb1  1  0.66660540  0.31914819  0.04070026  1
  Rb  Rb2  1  0.83339460  0.81914819  0.54070026  1
  Rb  Rb3  1  0.16660540  0.18085181  0.45929974  1
  Tb  Tb4  1  0.37075475  0.97222582  0.71979863  1
  Tb  Tb5  1  0.62924525  0.02777418  0.28020137  1
  Tb  Tb6  1  0.87075475  0.52777418  0.78020137  1
  Tb  Tb7  1  0.12924525  0.47222582  0.21979863  1
  S  S8  1  0.13191304  0.31379701  0.87486671  1
  S  S9  1  0.86808696  0.68620299  0.12513329  1
  S  S10  1  0.63191304  0.18620299  0.62513329  1
  S  S11  1  0.36808696  0.81379701  0.37486671  1
  S  S12  1  0.19548718  0.61303924  0.59826206  1
  S  S13  1  0.80451282  0.38696076  0.40173794  1
  S  S14  1  0.69548718  0.88696076  0.90173794  1
  S  S15  1  0.30451282  0.11303924  0.09826206  1
  O  O16  1  0.79242827  0.01962178  0.97897288  1
  O  O17  1  0.20757173  0.98037822  0.02102712  1
  O  O18  1  0.29242827  0.48037822  0.52102712  1
  O  O19  1  0.70757173  0.51962178  0.47897288  1
  O  O20  1  0.20349687  0.17319054  0.76447448  1
  O  O21  1  0.79650313  0.82680946  0.23552552  1
  O  O22  1  0.70349687  0.32680946  0.73552552  1
  O  O23  1  0.29650313  0.67319054  0.26447448  1
  O  O24  1  0.29714163  0.74448115  0.68244245  1
  O  O25  1  0.70285837  0.25551885  0.31755755  1
  O  O26  1  0.79714163  0.75551885  0.81755755  1
  O  O27  1  0.20285837  0.24448115  0.18244245  1
  O  O28  1  0.39963528  0.12742671  0.98525984  1
  O  O29  1  0.60036472  0.87257329  0.01474016  1
  O  O30  1  0.89963528  0.37257329  0.51474016  1
  O  O31  1  0.10036472  0.62742671  0.48525984  1
  O  O32  1  0.12176461  0.93704787  0.78474609  1
  O  O33  1  0.87823539  0.06295213  0.21525391  1
  O  O34  1  0.62176461  0.56295213  0.71525391  1
  O  O35  1  0.37823539  0.43704787  0.28474609  1
  O  O36  1  0.25175576  0.41703963  0.98364299  1
  O  O37  1  0.74824424  0.58296037  0.01635701  1
  O  O38  1  0.75175576  0.08296037  0.51635701  1
  O  O39  1  0.24824424  0.91703963  0.48364299  1
  O  O40  1  0.01277413  0.30090287  0.97261492  1
  O  O41  1  0.98722587  0.69909713  0.02738508  1
  O  O42  1  0.51277413  0.19909713  0.52738508  1
  O  O43  1  0.48722587  0.80090287  0.47261492  1
  O  O44  1  0.06184143  0.37551231  0.78690423  1
  O  O45  1  0.93815857  0.62448769  0.21309577  1
  O  O46  1  0.56184143  0.12448769  0.71309577  1
  O  O47  1  0.43815857  0.87551231  0.28690423  1
  O  O48  1  0.59592584  0.89297626  0.78694013  1
  O  O49  1  0.40407416  0.10702374  0.21305987  1
  O  O50  1  0.09592584  0.60702374  0.71305987  1
  O  O51  1  0.90407416  0.39297626  0.28694013  1
