# generated using pymatgen
data_Rb8Zr6BeBr20
_symmetry_space_group_name_H-M   'P 1'
_cell_length_a   12.05526128
_cell_length_b   12.05526128
_cell_length_c   12.05526128
_cell_angle_alpha   60.00000000
_cell_angle_beta   60.00000000
_cell_angle_gamma   60.00000000
_symmetry_Int_Tables_number   1
_chemical_formula_structural   Rb8Zr6BeBr20
_chemical_formula_sum   'Rb8 Zr6 Be1 Br20'
_cell_volume   1238.83904484
_cell_formula_units_Z   1
loop_
 _symmetry_equiv_pos_site_id
 _symmetry_equiv_pos_as_xyz
  1  'x, y, z'
loop_
 _atom_site_type_symbol
 _atom_site_label
 _atom_site_symmetry_multiplicity
 _atom_site_fract_x
 _atom_site_fract_y
 _atom_site_fract_z
 _atom_site_occupancy
  Rb  Rb0  1  0.63930767  0.63930767  0.63930767  1
  Rb  Rb1  1  0.36069233  0.36069233  0.36069233  1
  Rb  Rb2  1  0.08207699  0.63930767  0.63930767  1
  Rb  Rb3  1  0.63930767  0.08207699  0.63930767  1
  Rb  Rb4  1  0.91792301  0.36069233  0.36069233  1
  Rb  Rb5  1  0.36069233  0.91792301  0.36069233  1
  Rb  Rb6  1  0.63930767  0.63930767  0.08207699  1
  Rb  Rb7  1  0.36069233  0.36069233  0.91792301  1
  Zr  Zr8  1  0.85931055  0.85931055  0.14068945  1
  Zr  Zr9  1  0.14068945  0.14068945  0.85931055  1
  Zr  Zr10  1  0.85931055  0.14068945  0.85931055  1
  Zr  Zr11  1  0.14068945  0.85931055  0.14068945  1
  Zr  Zr12  1  0.14068945  0.85931055  0.85931055  1
  Zr  Zr13  1  0.85931055  0.14068945  0.14068945  1
  Be  Be14  1  0.00000000  -0.00000000  0.00000000  1
  Br  Br15  1  -0.00000000  0.00000000  0.67941234  1
  Br  Br16  1  -0.00000000  0.00000000  0.32058766  1
  Br  Br17  1  0.32058766  0.67941234  -0.00000000  1
  Br  Br18  1  0.67941234  0.32058766  0.00000000  1
  Br  Br19  1  -0.00000000  0.67941234  0.00000000  1
  Br  Br20  1  0.67941234  0.00000000  0.32058766  1
  Br  Br21  1  0.00000000  0.32058766  -0.00000000  1
  Br  Br22  1  0.32058766  -0.00000000  0.67941234  1
  Br  Br23  1  0.67941234  0.00000000  -0.00000000  1
  Br  Br24  1  0.32058766  -0.00000000  -0.00000000  1
  Br  Br25  1  -0.00000000  0.67941234  0.32058766  1
  Br  Br26  1  0.00000000  0.32058766  0.67941234  1
  Br  Br27  1  0.68780642  0.68780642  0.31219358  1
  Br  Br28  1  0.31219358  0.31219358  0.68780642  1
  Br  Br29  1  0.68780642  0.31219358  0.68780642  1
  Br  Br30  1  0.31219358  0.68780642  0.31219358  1
  Br  Br31  1  0.31219358  0.68780642  0.68780642  1
  Br  Br32  1  0.68780642  0.31219358  0.31219358  1
  Br  Br33  1  0.75000000  0.75000000  0.75000000  1
  Br  Br34  1  0.25000000  0.25000000  0.25000000  1
