# generated using pymatgen
data_PrTa7O19
_symmetry_space_group_name_H-M   'P 1'
_cell_length_a   6.29703058
_cell_length_b   6.29703058
_cell_length_c   20.15500884
_cell_angle_alpha   90.00000000
_cell_angle_beta   90.00000000
_cell_angle_gamma   119.99999200
_symmetry_Int_Tables_number   1
_chemical_formula_structural   PrTa7O19
_chemical_formula_sum   'Pr2 Ta14 O38'
_cell_volume   692.12615971
_cell_formula_units_Z   2
loop_
 _symmetry_equiv_pos_site_id
 _symmetry_equiv_pos_as_xyz
  1  'x, y, z'
loop_
 _atom_site_type_symbol
 _atom_site_label
 _atom_site_symmetry_multiplicity
 _atom_site_fract_x
 _atom_site_fract_y
 _atom_site_fract_z
 _atom_site_occupancy
  Pr  Pr0  1  -0.00000000  0.00000000  0.00000000  1
  Pr  Pr1  1  -0.00000000  0.00000000  0.50000000  1
  Ta  Ta2  1  0.97513768  0.31009151  0.84417519  1
  Ta  Ta3  1  0.33495383  0.02486232  0.84417519  1
  Ta  Ta4  1  0.97513768  0.31009151  0.65582481  1
  Ta  Ta5  1  0.33495383  0.31009151  0.34417519  1
  Ta  Ta6  1  0.68990849  0.66504617  0.84417519  1
  Ta  Ta7  1  0.33495383  0.02486232  0.65582481  1
  Ta  Ta8  1  0.68990849  0.02486232  0.34417519  1
  Ta  Ta9  1  0.33495383  0.31009151  0.15582481  1
  Ta  Ta10  1  0.68990849  0.66504617  0.65582481  1
  Ta  Ta11  1  0.68990849  0.02486232  0.15582481  1
  Ta  Ta12  1  0.97513768  0.66504617  0.34417519  1
  Ta  Ta13  1  0.97513768  0.66504617  0.15582481  1
  Ta  Ta14  1  0.66666700  0.33333300  0.00000000  1
  Ta  Ta15  1  0.66666700  0.33333300  0.50000000  1
  O  O16  1  0.95790562  0.25085923  0.75000000  1
  O  O17  1  0.29295361  0.04209438  0.75000000  1
  O  O18  1  0.29295361  0.25085923  0.25000000  1
  O  O19  1  0.74914077  0.70704639  0.75000000  1
  O  O20  1  0.74914077  0.04209438  0.25000000  1
  O  O21  1  0.95790562  0.70704639  0.25000000  1
  O  O22  1  0.57721740  0.91015132  0.84649344  1
  O  O23  1  0.33293392  0.42278260  0.84649344  1
  O  O24  1  0.57721740  0.91015132  0.65350656  1
  O  O25  1  0.33293392  0.91015132  0.34649344  1
  O  O26  1  0.08984868  0.66706608  0.84649344  1
  O  O27  1  0.33293392  0.42278260  0.65350656  1
  O  O28  1  0.08984868  0.42278260  0.34649344  1
  O  O29  1  0.33293392  0.91015132  0.15350656  1
  O  O30  1  0.08984868  0.66706608  0.65350656  1
  O  O31  1  0.08984868  0.42278260  0.15350656  1
  O  O32  1  0.57721740  0.66706608  0.34649344  1
  O  O33  1  0.57721740  0.66706608  0.15350656  1
  O  O34  1  0.66666700  0.33333300  0.83350164  1
  O  O35  1  0.66666700  0.33333300  0.66649836  1
  O  O36  1  0.66666700  0.33333300  0.33350164  1
  O  O37  1  0.66666700  0.33333300  0.16649836  1
  O  O38  1  -0.00000000  0.00000000  0.86837257  1
  O  O39  1  -0.00000000  0.00000000  0.63162743  1
  O  O40  1  -0.00000000  0.00000000  0.36837257  1
  O  O41  1  -0.00000000  0.00000000  0.13162743  1
  O  O42  1  0.90320685  0.28976779  0.94311070  1
  O  O43  1  0.38656094  0.09679315  0.94311070  1
  O  O44  1  0.90320685  0.28976779  0.55688930  1
  O  O45  1  0.38656094  0.28976779  0.44311070  1
  O  O46  1  0.71023221  0.61343906  0.94311070  1
  O  O47  1  0.38656094  0.09679315  0.55688930  1
  O  O48  1  0.71023221  0.09679315  0.44311070  1
  O  O49  1  0.38656094  0.28976779  0.05688930  1
  O  O50  1  0.71023221  0.61343906  0.55688930  1
  O  O51  1  0.71023221  0.09679315  0.05688930  1
  O  O52  1  0.90320685  0.61343906  0.44311070  1
  O  O53  1  0.90320685  0.61343906  0.05688930  1
