# generated using pymatgen
data_RbLa(SeO4)2
_symmetry_space_group_name_H-M   'P 1'
_cell_length_a   7.62378653
_cell_length_b   9.10360553
_cell_length_c   11.36206467
_cell_angle_alpha   91.57412450
_cell_angle_beta   90.00000000
_cell_angle_gamma   90.00000000
_symmetry_Int_Tables_number   1
_chemical_formula_structural   RbLa(SeO4)2
_chemical_formula_sum   'Rb4 La4 Se8 O32'
_cell_volume   788.27452468
_cell_formula_units_Z   4
loop_
 _symmetry_equiv_pos_site_id
 _symmetry_equiv_pos_as_xyz
  1  'x, y, z'
loop_
 _atom_site_type_symbol
 _atom_site_label
 _atom_site_symmetry_multiplicity
 _atom_site_fract_x
 _atom_site_fract_y
 _atom_site_fract_z
 _atom_site_occupancy
  Rb  Rb0  1  0.84885149  0.43261915  0.66205850  1
  Rb  Rb1  1  0.15114851  0.56738085  0.33794150  1
  Rb  Rb2  1  0.34885149  0.56738085  0.83794150  1
  Rb  Rb3  1  0.65114851  0.43261915  0.16205850  1
  La  La4  1  0.66373676  0.94306719  0.65199071  1
  La  La5  1  0.33626324  0.05693281  0.34800929  1
  La  La6  1  0.16373676  0.05693281  0.84800929  1
  La  La7  1  0.83626324  0.94306719  0.15199071  1
  Se  Se8  1  0.66415323  0.18855465  0.89339256  1
  Se  Se9  1  0.33584677  0.81144535  0.10660744  1
  Se  Se10  1  0.16415323  0.81144535  0.60660744  1
  Se  Se11  1  0.83584677  0.18855465  0.39339256  1
  Se  Se12  1  0.83868022  0.72214607  0.91119023  1
  Se  Se13  1  0.16131978  0.27785393  0.08880977  1
  Se  Se14  1  0.33868022  0.27785393  0.58880977  1
  Se  Se15  1  0.66131978  0.72214607  0.41119023  1
  O  O16  1  0.31703847  0.86971578  0.96910081  1
  O  O17  1  0.68296153  0.13028422  0.03089919  1
  O  O18  1  0.81703847  0.13028422  0.53089919  1
  O  O19  1  0.18296153  0.86971578  0.46910081  1
  O  O20  1  0.00283534  0.90818699  0.67863463  1
  O  O21  1  0.99716466  0.09181301  0.32136537  1
  O  O22  1  0.50283534  0.09181301  0.82136537  1
  O  O23  1  0.49716466  0.90818699  0.17863463  1
  O  O24  1  0.63627948  0.36716858  0.89374006  1
  O  O25  1  0.36372052  0.63283142  0.10625994  1
  O  O26  1  0.13627948  0.63283142  0.60625994  1
  O  O27  1  0.86372052  0.36716858  0.39374006  1
  O  O28  1  0.75335090  0.70201126  0.54434292  1
  O  O29  1  0.24664910  0.29798874  0.45565708  1
  O  O30  1  0.25335090  0.29798874  0.95565708  1
  O  O31  1  0.74664910  0.70201126  0.04434292  1
  O  O32  1  0.93949132  0.88715943  0.93956981  1
  O  O33  1  0.06050868  0.11284057  0.06043019  1
  O  O34  1  0.43949132  0.11284057  0.56043019  1
  O  O35  1  0.56050868  0.88715943  0.43956981  1
  O  O36  1  0.97653629  0.59201892  0.87215748  1
  O  O37  1  0.02346371  0.40798108  0.12784252  1
  O  O38  1  0.47653629  0.40798108  0.62784252  1
  O  O39  1  0.52346371  0.59201892  0.37215748  1
  O  O40  1  0.33809658  0.86011046  0.69373190  1
  O  O41  1  0.66190342  0.13988954  0.30626810  1
  O  O42  1  0.83809658  0.13988954  0.80626810  1
  O  O43  1  0.16190342  0.86011046  0.19373190  1
  O  O44  1  0.68523325  0.74626215  0.80697464  1
  O  O45  1  0.31476675  0.25373785  0.19302536  1
  O  O46  1  0.18523325  0.25373785  0.69302536  1
  O  O47  1  0.81476675  0.74626215  0.30697464  1
