# generated using pymatgen
data_PdPb2F6
_symmetry_space_group_name_H-M   'P 1'
_cell_length_a   6.00358224
_cell_length_b   5.99870620
_cell_length_c   9.02398983
_cell_angle_alpha   90.00000000
_cell_angle_beta   109.42943563
_cell_angle_gamma   90.00000000
_symmetry_Int_Tables_number   1
_chemical_formula_structural   PdPb2F6
_chemical_formula_sum   'Pd2 Pb4 F12'
_cell_volume   306.48007223
_cell_formula_units_Z   2
loop_
 _symmetry_equiv_pos_site_id
 _symmetry_equiv_pos_as_xyz
  1  'x, y, z'
loop_
 _atom_site_type_symbol
 _atom_site_label
 _atom_site_symmetry_multiplicity
 _atom_site_fract_x
 _atom_site_fract_y
 _atom_site_fract_z
 _atom_site_occupancy
  Pd  Pd0  1  -0.00000000  0.00000000  0.00000000  1
  Pd  Pd1  1  0.50000000  0.50000000  0.00000000  1
  Pb  Pb2  1  0.33799437  0.00000000  0.67598875  1
  Pb  Pb3  1  0.66200563  0.00000000  0.32401125  1
  Pb  Pb4  1  0.16200563  0.50000000  0.32401125  1
  Pb  Pb5  1  0.83799437  0.50000000  0.67598875  1
  F  F6  1  0.50683213  0.25000000  0.50000000  1
  F  F7  1  0.49316787  0.75000000  0.50000000  1
  F  F8  1  0.99316787  0.75000000  0.50000000  1
  F  F9  1  0.00683213  0.25000000  0.50000000  1
  F  F10  1  0.24988527  0.16622520  0.16893314  1
  F  F11  1  0.75011473  0.83377480  0.83106686  1
  F  F12  1  0.25011473  0.66622520  0.83106686  1
  F  F13  1  0.58095214  0.33377480  0.83106686  1
  F  F14  1  0.74988527  0.33377480  0.16893314  1
  F  F15  1  0.41904786  0.66622520  0.16893314  1
  F  F16  1  0.91904786  0.83377480  0.16893314  1
  F  F17  1  0.08095214  0.16622520  0.83106686  1
