# generated using pymatgen
data_Pr8Sb14Pt17
_symmetry_space_group_name_H-M   'P 1'
_cell_length_a   12.69036386
_cell_length_b   12.69036386
_cell_length_c   14.12595820
_cell_angle_alpha   116.69146531
_cell_angle_beta   116.69146531
_cell_angle_gamma   90.00000000
_symmetry_Int_Tables_number   1
_chemical_formula_structural   Pr8Sb14Pt17
_chemical_formula_sum   'Pr16 Sb28 Pt34'
_cell_volume   1756.94510233
_cell_formula_units_Z   2
loop_
 _symmetry_equiv_pos_site_id
 _symmetry_equiv_pos_as_xyz
  1  'x, y, z'
loop_
 _atom_site_type_symbol
 _atom_site_label
 _atom_site_symmetry_multiplicity
 _atom_site_fract_x
 _atom_site_fract_y
 _atom_site_fract_z
 _atom_site_occupancy
  Pr  Pr0  1  0.43013464  0.93013464  0.36165049  1
  Pr  Pr1  1  0.93151586  0.43151586  0.36165049  1
  Pr  Pr2  1  0.43151586  0.43013464  0.36165049  1
  Pr  Pr3  1  0.93013464  0.93151586  0.36165049  1
  Pr  Pr4  1  0.17748596  0.17748596  0.35497191  1
  Pr  Pr5  1  0.67748596  0.67748596  0.35497191  1
  Pr  Pr6  1  0.67132039  0.17132039  0.34264079  1
  Pr  Pr7  1  0.17132039  0.67132039  0.34264079  1
  Pr  Pr8  1  0.43921722  0.67193956  0.84652325  1
  Pr  Pr9  1  0.40730602  0.17458368  0.84652325  1
  Pr  Pr10  1  0.17458368  0.43921722  0.84652325  1
  Pr  Pr11  1  0.93921722  0.67458368  0.84652325  1
  Pr  Pr12  1  0.67193956  0.40730602  0.84652325  1
  Pr  Pr13  1  0.90730602  0.17193956  0.84652325  1
  Pr  Pr14  1  0.67458368  0.90730602  0.84652325  1
  Pr  Pr15  1  0.17193956  0.93921722  0.84652325  1
  Sb  Sb16  1  0.49150749  0.24445681  0.47412760  1
  Sb  Sb17  1  0.98262012  0.22967080  0.47412760  1
  Sb  Sb18  1  0.22967080  0.49150749  0.47412760  1
  Sb  Sb19  1  0.99150749  0.72967080  0.47412760  1
  Sb  Sb20  1  0.24445681  0.98262012  0.47412760  1
  Sb  Sb21  1  0.48262012  0.74445681  0.47412760  1
  Sb  Sb22  1  0.72967080  0.48262012  0.47412760  1
  Sb  Sb23  1  0.74445681  0.99150749  0.47412760  1
  Sb  Sb24  1  0.20144423  0.17926797  0.10558540  1
  Sb  Sb25  1  0.90414118  0.92631743  0.10558540  1
  Sb  Sb26  1  0.92631743  0.20144423  0.10558540  1
  Sb  Sb27  1  0.70144423  0.42631743  0.10558540  1
  Sb  Sb28  1  0.17926797  0.90414118  0.10558540  1
  Sb  Sb29  1  0.40414118  0.67926797  0.10558540  1
  Sb  Sb30  1  0.42631743  0.40414118  0.10558540  1
  Sb  Sb31  1  0.67926797  0.70144423  0.10558540  1
  Sb  Sb32  1  0.37654788  0.37654788  0.75309576  1
  Sb  Sb33  1  0.87654788  0.87654788  0.75309576  1
  Sb  Sb34  1  0.63476022  0.13476022  0.07552801  1
  Sb  Sb35  1  0.44076780  0.94076780  0.07552801  1
  Sb  Sb36  1  0.94076780  0.63476022  0.07552801  1
  Sb  Sb37  1  0.13476022  0.44076780  0.07552801  1
  Sb  Sb38  1  0.90120566  0.40120566  0.80241132  1
  Sb  Sb39  1  0.40120566  0.90120566  0.80241132  1
  Sb  Sb40  1  0.57950311  0.07950311  0.71245225  1
  Sb  Sb41  1  0.13294914  0.63294914  0.71245225  1
  Sb  Sb42  1  0.63294914  0.57950311  0.71245225  1
  Sb  Sb43  1  0.07950311  0.13294914  0.71245225  1
  Pt  Pt44  1  0.13899191  0.37182744  0.23814715  1
  Pt  Pt45  1  0.09915524  0.86631971  0.23814715  1
  Pt  Pt46  1  0.86631971  0.13899191  0.23814715  1
  Pt  Pt47  1  0.63899191  0.36631971  0.23814715  1
  Pt  Pt48  1  0.37182744  0.09915524  0.23814715  1
  Pt  Pt49  1  0.59915524  0.87182744  0.23814715  1
  Pt  Pt50  1  0.36631971  0.59915524  0.23814715  1
  Pt  Pt51  1  0.87182744  0.63899191  0.23814715  1
  Pt  Pt52  1  0.38618618  0.88618618  0.60226533  1
  Pt  Pt53  1  0.21607915  0.71607915  0.60226533  1
  Pt  Pt54  1  0.71607915  0.38618618  0.60226533  1
  Pt  Pt55  1  0.88618618  0.21607915  0.60226533  1
  Pt  Pt56  1  0.16179001  0.66179001  0.08210020  1
  Pt  Pt57  1  0.92031020  0.42031020  0.08210020  1
  Pt  Pt58  1  0.42031020  0.16179001  0.08210020  1
  Pt  Pt59  1  0.66179001  0.92031020  0.08210020  1
  Pt  Pt60  1  0.71036152  0.21036152  0.95182055  1
  Pt  Pt61  1  0.24145904  0.74145904  0.95182055  1
  Pt  Pt62  1  0.74145904  0.71036152  0.95182055  1
  Pt  Pt63  1  0.21036152  0.24145904  0.95182055  1
  Pt  Pt64  1  0.41381968  0.42640327  0.60190523  1
  Pt  Pt65  1  0.18808555  0.17550196  0.60190523  1
  Pt  Pt66  1  0.17550196  0.41381968  0.60190523  1
  Pt  Pt67  1  0.91381968  0.67550196  0.60190523  1
  Pt  Pt68  1  0.42640327  0.18808555  0.60190523  1
  Pt  Pt69  1  0.68808555  0.92640327  0.60190523  1
  Pt  Pt70  1  0.67550196  0.68808555  0.60190523  1
  Pt  Pt71  1  0.92640327  0.91381968  0.60190523  1
  Pt  Pt72  1  0.94638447  0.44638447  0.61141221  1
  Pt  Pt73  1  0.66502773  0.16502773  0.61141221  1
  Pt  Pt74  1  0.16502773  0.94638447  0.61141221  1
  Pt  Pt75  1  0.44638447  0.66502773  0.61141221  1
  Pt  Pt76  1  0.00093379  0.00093379  0.00186758  1
  Pt  Pt77  1  0.50093379  0.50093379  0.00186758  1
