# generated using pymatgen
data_Nd3W(ClO2)3
_symmetry_space_group_name_H-M   'P 1'
_cell_length_a   5.41575462
_cell_length_b   9.36615148
_cell_length_c   9.36615147
_cell_angle_alpha   120.00000267
_cell_angle_beta   90.00000000
_cell_angle_gamma   90.00000000
_symmetry_Int_Tables_number   1
_chemical_formula_structural   Nd3W(ClO2)3
_chemical_formula_sum   'Nd6 W2 Cl6 O12'
_cell_volume   411.44515584
_cell_formula_units_Z   2
loop_
 _symmetry_equiv_pos_site_id
 _symmetry_equiv_pos_as_xyz
  1  'x, y, z'
loop_
 _atom_site_type_symbol
 _atom_site_label
 _atom_site_symmetry_multiplicity
 _atom_site_fract_x
 _atom_site_fract_y
 _atom_site_fract_z
 _atom_site_occupancy
  Nd  Nd0  1  0.75000000  0.59577761  0.68662541  1
  Nd  Nd1  1  0.25000000  0.40422239  0.31337459  1
  Nd  Nd2  1  0.75000000  0.09084780  0.40422239  1
  Nd  Nd3  1  0.25000000  0.90915220  0.59577761  1
  Nd  Nd4  1  0.75000000  0.31337459  0.90915220  1
  Nd  Nd5  1  0.25000000  0.68662541  0.09084780  1
  W  W6  1  0.75000000  0.66666700  0.33333300  1
  W  W7  1  0.25000000  0.33333300  0.66666700  1
  Cl  Cl8  1  0.75000000  0.80889517  0.04884697  1
  Cl  Cl9  1  0.25000000  0.19110483  0.95115303  1
  Cl  Cl10  1  0.75000000  0.23995180  0.19110483  1
  Cl  Cl11  1  0.25000000  0.76004820  0.80889517  1
  Cl  Cl12  1  0.75000000  0.95115303  0.76004820  1
  Cl  Cl13  1  0.25000000  0.04884697  0.23995180  1
  O  O14  1  0.98265617  0.84088229  0.36404911  1
  O  O15  1  0.01734383  0.15911771  0.63595089  1
  O  O16  1  0.98265617  0.52316682  0.15911771  1
  O  O17  1  0.48265617  0.15911771  0.63595089  1
  O  O18  1  0.01734383  0.47683318  0.84088229  1
  O  O19  1  0.51734383  0.84088229  0.36404911  1
  O  O20  1  0.98265617  0.63595089  0.47683318  1
  O  O21  1  0.48265617  0.47683318  0.84088229  1
  O  O22  1  0.01734383  0.36404911  0.52316682  1
  O  O23  1  0.51734383  0.52316682  0.15911771  1
  O  O24  1  0.48265617  0.36404911  0.52316682  1
  O  O25  1  0.51734383  0.63595089  0.47683318  1
