# generated using pymatgen
data_Rb2Be3Zn2F12
_symmetry_space_group_name_H-M   'P 1'
_cell_length_a   10.19355541
_cell_length_b   10.19355541
_cell_length_c   10.19355541
_cell_angle_alpha   90.00000000
_cell_angle_beta   90.00000000
_cell_angle_gamma   90.00000000
_symmetry_Int_Tables_number   1
_chemical_formula_structural   Rb2Be3Zn2F12
_chemical_formula_sum   'Rb8 Be12 Zn8 F48'
_cell_volume   1059.19778520
_cell_formula_units_Z   4
loop_
 _symmetry_equiv_pos_site_id
 _symmetry_equiv_pos_as_xyz
  1  'x, y, z'
loop_
 _atom_site_type_symbol
 _atom_site_label
 _atom_site_symmetry_multiplicity
 _atom_site_fract_x
 _atom_site_fract_y
 _atom_site_fract_z
 _atom_site_occupancy
  Rb  Rb0  1  0.04849562  0.04849562  0.04849562  1
  Rb  Rb1  1  0.45150438  0.95150438  0.54849562  1
  Rb  Rb2  1  0.95150438  0.54849562  0.45150438  1
  Rb  Rb3  1  0.54849562  0.45150438  0.95150438  1
  Rb  Rb4  1  0.81587305  0.81587305  0.81587305  1
  Rb  Rb5  1  0.68412695  0.18412695  0.31587305  1
  Rb  Rb6  1  0.18412695  0.31587305  0.68412695  1
  Rb  Rb7  1  0.31587305  0.68412695  0.18412695  1
  Be  Be8  1  0.01980131  0.21465617  0.37562221  1
  Be  Be9  1  0.48019869  0.78534383  0.87562221  1
  Be  Be10  1  0.98019869  0.71465617  0.12437779  1
  Be  Be11  1  0.37562221  0.01980131  0.21465617  1
  Be  Be12  1  0.51980131  0.28534383  0.62437779  1
  Be  Be13  1  0.87562221  0.48019869  0.78534383  1
  Be  Be14  1  0.12437779  0.98019869  0.71465617  1
  Be  Be15  1  0.62437779  0.51980131  0.28534383  1
  Be  Be16  1  0.21465617  0.37562221  0.01980131  1
  Be  Be17  1  0.71465617  0.12437779  0.98019869  1
  Be  Be18  1  0.28534383  0.62437779  0.51980131  1
  Be  Be19  1  0.78534383  0.87562221  0.48019869  1
  Zn  Zn20  1  0.33471027  0.33471027  0.33471027  1
  Zn  Zn21  1  0.16528973  0.66528973  0.83471027  1
  Zn  Zn22  1  0.66528973  0.83471027  0.16528973  1
  Zn  Zn23  1  0.83471027  0.16528973  0.66528973  1
  Zn  Zn24  1  0.59781523  0.59781523  0.59781523  1
  Zn  Zn25  1  0.90218477  0.40218477  0.09781523  1
  Zn  Zn26  1  0.40218477  0.09781523  0.90218477  1
  Zn  Zn27  1  0.09781523  0.90218477  0.40218477  1
  F  F28  1  0.01191241  0.06884710  0.32967216  1
  F  F29  1  0.48808759  0.93115290  0.82967216  1
  F  F30  1  0.98808759  0.56884710  0.17032784  1
  F  F31  1  0.32967216  0.01191241  0.06884710  1
  F  F32  1  0.51191241  0.43115290  0.67032784  1
  F  F33  1  0.82967216  0.48808759  0.93115290  1
  F  F34  1  0.17032784  0.98808759  0.56884710  1
  F  F35  1  0.67032784  0.51191241  0.43115290  1
  F  F36  1  0.06884710  0.32967216  0.01191241  1
  F  F37  1  0.56884710  0.17032784  0.98808759  1
  F  F38  1  0.43115290  0.67032784  0.51191241  1
  F  F39  1  0.93115290  0.82967216  0.48808759  1
  F  F40  1  0.26586936  0.49590102  0.43779745  1
  F  F41  1  0.23413064  0.50409898  0.93779745  1
  F  F42  1  0.73413064  0.99590102  0.06220255  1
  F  F43  1  0.43779745  0.26586936  0.49590102  1
  F  F44  1  0.76586936  0.00409898  0.56220255  1
  F  F45  1  0.93779745  0.23413064  0.50409898  1
  F  F46  1  0.06220255  0.73413064  0.99590102  1
  F  F47  1  0.56220255  0.76586936  0.00409898  1
  F  F48  1  0.49590102  0.43779745  0.26586936  1
  F  F49  1  0.99590102  0.06220255  0.73413064  1
  F  F50  1  0.00409898  0.56220255  0.76586936  1
  F  F51  1  0.50409898  0.93779745  0.23413064  1
  F  F52  1  0.04554720  0.80580856  0.22989553  1
  F  F53  1  0.45445280  0.19419144  0.72989553  1
  F  F54  1  0.95445280  0.30580856  0.27010447  1
  F  F55  1  0.22989553  0.04554720  0.80580856  1
  F  F56  1  0.54554720  0.69419144  0.77010447  1
  F  F57  1  0.72989553  0.45445280  0.19419144  1
  F  F58  1  0.27010447  0.95445280  0.30580856  1
  F  F59  1  0.77010447  0.54554720  0.69419144  1
  F  F60  1  0.80580856  0.22989553  0.04554720  1
  F  F61  1  0.30580856  0.27010447  0.95445280  1
  F  F62  1  0.69419144  0.77010447  0.54554720  1
  F  F63  1  0.19419144  0.72989553  0.45445280  1
  F  F64  1  0.16353012  0.25610321  0.40218841  1
  F  F65  1  0.33646988  0.74389679  0.90218841  1
  F  F66  1  0.83646988  0.75610321  0.09781159  1
  F  F67  1  0.40218841  0.16353012  0.25610321  1
  F  F68  1  0.66353012  0.24389679  0.59781159  1
  F  F69  1  0.90218841  0.33646988  0.74389679  1
  F  F70  1  0.09781159  0.83646988  0.75610321  1
  F  F71  1  0.59781159  0.66353012  0.24389679  1
  F  F72  1  0.25610321  0.40218841  0.16353012  1
  F  F73  1  0.75610321  0.09781159  0.83646988  1
  F  F74  1  0.24389679  0.59781159  0.66353012  1
  F  F75  1  0.74389679  0.90218841  0.33646988  1
