# generated using pymatgen
data_Pr5(In2Pt)2
_symmetry_space_group_name_H-M   'P 1'
_cell_length_a   3.83730778
_cell_length_b   8.42038739
_cell_length_c   18.92453651
_cell_angle_alpha   90.00000000
_cell_angle_beta   90.00000000
_cell_angle_gamma   90.00000000
_symmetry_Int_Tables_number   1
_chemical_formula_structural   Pr5(In2Pt)2
_chemical_formula_sum   'Pr10 In8 Pt4'
_cell_volume   611.48239534
_cell_formula_units_Z   2
loop_
 _symmetry_equiv_pos_site_id
 _symmetry_equiv_pos_as_xyz
  1  'x, y, z'
loop_
 _atom_site_type_symbol
 _atom_site_label
 _atom_site_symmetry_multiplicity
 _atom_site_fract_x
 _atom_site_fract_y
 _atom_site_fract_z
 _atom_site_occupancy
  Pr  Pr0  1  -0.00000000  0.11620294  0.41292563  1
  Pr  Pr1  1  -0.00000000  0.88379706  0.58707437  1
  Pr  Pr2  1  0.00000000  0.38379706  0.91292563  1
  Pr  Pr3  1  0.00000000  0.61620294  0.08707437  1
  Pr  Pr4  1  -0.00000000  0.24534756  0.21936323  1
  Pr  Pr5  1  -0.00000000  0.75465244  0.78063677  1
  Pr  Pr6  1  -0.00000000  0.25465244  0.71936323  1
  Pr  Pr7  1  0.00000000  0.74534756  0.28063677  1
  Pr  Pr8  1  -0.00000000  0.00000000  0.00000000  1
  Pr  Pr9  1  -0.00000000  0.50000000  0.50000000  1
  In  In10  1  0.50000000  0.42632693  0.34830942  1
  In  In11  1  0.50000000  0.57367307  0.65169058  1
  In  In12  1  0.50000000  0.07367307  0.84830942  1
  In  In13  1  0.50000000  0.92632693  0.15169058  1
  In  In14  1  0.50000000  0.29294854  0.06803556  1
  In  In15  1  0.50000000  0.70705146  0.93196444  1
  In  In16  1  0.50000000  0.20705146  0.56803556  1
  In  In17  1  0.50000000  0.79294854  0.43196444  1
  Pt  Pt18  1  0.50000000  0.02171426  0.30238659  1
  Pt  Pt19  1  0.50000000  0.97828574  0.69761341  1
  Pt  Pt20  1  0.50000000  0.47828574  0.80238659  1
  Pt  Pt21  1  0.50000000  0.52171426  0.19761341  1
