# generated using pymatgen
data_Pr3Re2O9
_symmetry_space_group_name_H-M   'P 1'
_cell_length_a   5.66667409
_cell_length_b   6.87423777
_cell_length_c   11.15321180
_cell_angle_alpha   77.10884931
_cell_angle_beta   75.59393129
_cell_angle_gamma   69.09627690
_symmetry_Int_Tables_number   1
_chemical_formula_structural   Pr3Re2O9
_chemical_formula_sum   'Pr6 Re4 O18'
_cell_volume   388.74896612
_cell_formula_units_Z   2
loop_
 _symmetry_equiv_pos_site_id
 _symmetry_equiv_pos_as_xyz
  1  'x, y, z'
loop_
 _atom_site_type_symbol
 _atom_site_label
 _atom_site_symmetry_multiplicity
 _atom_site_fract_x
 _atom_site_fract_y
 _atom_site_fract_z
 _atom_site_occupancy
  Pr  Pr0  1  0.00258478  0.22465092  0.27074851  1
  Pr  Pr1  1  0.99741522  0.77534908  0.72925149  1
  Pr  Pr2  1  0.22145358  0.16396064  0.88191777  1
  Pr  Pr3  1  0.77854642  0.83603936  0.11808223  1
  Pr  Pr4  1  0.28362277  0.59430183  0.37999368  1
  Pr  Pr5  1  0.71637723  0.40569817  0.62000632  1
  Re  Re6  1  0.50981049  0.38725943  0.09153724  1
  Re  Re7  1  0.49018951  0.61274057  0.90846276  1
  Re  Re8  1  0.35597237  0.12242677  0.57103074  1
  Re  Re9  1  0.64402763  0.87757323  0.42896926  1
  O  O10  1  0.30365017  0.41781343  0.59012271  1
  O  O11  1  0.69634983  0.58218657  0.40987729  1
  O  O12  1  0.58598744  0.05705642  0.68803431  1
  O  O13  1  0.41401256  0.94294358  0.31196569  1
  O  O14  1  0.85550766  0.18733904  0.06356123  1
  O  O15  1  0.14449234  0.81266096  0.93643877  1
  O  O16  1  0.38317132  0.17206151  0.07139723  1
  O  O17  1  0.61682868  0.82793849  0.92860277  1
  O  O18  1  0.06214400  0.11380355  0.71172514  1
  O  O19  1  0.93785600  0.88619645  0.28827486  1
  O  O20  1  0.17549803  0.51071235  0.19037431  1
  O  O21  1  0.82450197  0.48928765  0.80962569  1
  O  O22  1  0.10978867  0.25202195  0.46103864  1
  O  O23  1  0.89021133  0.74797805  0.53896136  1
  O  O24  1  0.64061308  0.52239016  0.18486655  1
  O  O25  1  0.35938692  0.47760984  0.81513345  1
  O  O26  1  0.62754046  0.18098592  0.42223033  1
  O  O27  1  0.37245954  0.81901408  0.57776967  1
