# generated using pymatgen
data_RbZr6MnCl14
_symmetry_space_group_name_H-M   'P 1'
_cell_length_a   10.05479253
_cell_length_b   10.05479253
_cell_length_c   12.14275127
_cell_angle_alpha   90.00000000
_cell_angle_beta   90.00000000
_cell_angle_gamma   94.72161776
_symmetry_Int_Tables_number   1
_chemical_formula_structural   RbZr6MnCl14
_chemical_formula_sum   'Rb2 Zr12 Mn2 Cl28'
_cell_volume   1223.45217992
_cell_formula_units_Z   2
loop_
 _symmetry_equiv_pos_site_id
 _symmetry_equiv_pos_as_xyz
  1  'x, y, z'
loop_
 _atom_site_type_symbol
 _atom_site_label
 _atom_site_symmetry_multiplicity
 _atom_site_fract_x
 _atom_site_fract_y
 _atom_site_fract_z
 _atom_site_occupancy
  Rb  Rb0  1  0.50000000  0.50000000  -0.00000000  1
  Rb  Rb1  1  -0.00000000  0.00000000  0.50000000  1
  Zr  Zr2  1  0.35330918  0.35330918  0.39070941  1
  Zr  Zr3  1  0.64669082  0.64669082  0.60929059  1
  Zr  Zr4  1  0.14669082  0.14669082  0.89070941  1
  Zr  Zr5  1  0.85330918  0.85330918  0.10929059  1
  Zr  Zr6  1  0.18868616  0.95119602  0.11769159  1
  Zr  Zr7  1  0.81131384  0.04880398  0.88230841  1
  Zr  Zr8  1  0.31131384  0.54880398  0.61769159  1
  Zr  Zr9  1  0.45119602  0.68868616  0.38230841  1
  Zr  Zr10  1  0.68868616  0.45119602  0.38230841  1
  Zr  Zr11  1  0.54880398  0.31131384  0.61769159  1
  Zr  Zr12  1  0.04880398  0.81131384  0.88230841  1
  Zr  Zr13  1  0.95119602  0.18868616  0.11769159  1
  Mn  Mn14  1  -0.00000000  0.00000000  -0.00000000  1
  Mn  Mn15  1  0.50000000  0.50000000  0.50000000  1
  Cl  Cl16  1  0.35554762  0.11212491  0.00789338  1
  Cl  Cl17  1  0.64445238  0.88787509  0.99210662  1
  Cl  Cl18  1  0.14445238  0.38787509  0.50789338  1
  Cl  Cl19  1  0.61212491  0.85554762  0.49210662  1
  Cl  Cl20  1  0.85554762  0.61212491  0.49210662  1
  Cl  Cl21  1  0.38787509  0.14445238  0.50789338  1
  Cl  Cl22  1  0.88787509  0.64445238  0.99210662  1
  Cl  Cl23  1  0.11212491  0.35554762  0.00789338  1
  Cl  Cl24  1  0.24889110  0.75110890  -0.00000000  1
  Cl  Cl25  1  0.75110890  0.24889110  -0.00000000  1
  Cl  Cl26  1  0.25110890  0.74889110  0.50000000  1
  Cl  Cl27  1  0.74889110  0.25110890  0.50000000  1
  Cl  Cl28  1  0.39226153  0.89226153  0.25000000  1
  Cl  Cl29  1  0.60773847  0.10773847  0.75000000  1
  Cl  Cl30  1  0.10773847  0.60773847  0.75000000  1
  Cl  Cl31  1  0.89226153  0.39226153  0.25000000  1
  Cl  Cl32  1  0.15165172  0.15165172  0.25557815  1
  Cl  Cl33  1  0.84834828  0.84834828  0.74442185  1
  Cl  Cl34  1  0.34834828  0.34834828  0.75557815  1
  Cl  Cl35  1  0.65165172  0.65165172  0.24442185  1
  Cl  Cl36  1  0.53702828  0.29481662  0.25473247  1
  Cl  Cl37  1  0.46297172  0.70518338  0.74526753  1
  Cl  Cl38  1  0.96297172  0.20518338  0.75473247  1
  Cl  Cl39  1  0.79481662  0.03702828  0.24526753  1
  Cl  Cl40  1  0.03702828  0.79481662  0.24526753  1
  Cl  Cl41  1  0.20518338  0.96297172  0.75473247  1
  Cl  Cl42  1  0.70518338  0.46297172  0.74526753  1
  Cl  Cl43  1  0.29481662  0.53702828  0.25473247  1
