# generated using pymatgen
data_PrCu5Sn
_symmetry_space_group_name_H-M   'P 1'
_cell_length_a   5.08860529
_cell_length_b   8.36099650
_cell_length_c   10.65924910
_cell_angle_alpha   90.00000000
_cell_angle_beta   90.00000000
_cell_angle_gamma   90.00000000
_symmetry_Int_Tables_number   1
_chemical_formula_structural   PrCu5Sn
_chemical_formula_sum   'Pr4 Cu20 Sn4'
_cell_volume   453.50639782
_cell_formula_units_Z   4
loop_
 _symmetry_equiv_pos_site_id
 _symmetry_equiv_pos_as_xyz
  1  'x, y, z'
loop_
 _atom_site_type_symbol
 _atom_site_label
 _atom_site_symmetry_multiplicity
 _atom_site_fract_x
 _atom_site_fract_y
 _atom_site_fract_z
 _atom_site_occupancy
  Pr  Pr0  1  0.75000000  0.74498019  0.43911771  1
  Pr  Pr1  1  0.25000000  0.25501981  0.56088229  1
  Pr  Pr2  1  0.25000000  0.75501981  0.93911771  1
  Pr  Pr3  1  0.75000000  0.24498019  0.06088229  1
  Cu  Cu4  1  0.75000000  0.68488036  0.75535271  1
  Cu  Cu5  1  0.25000000  0.31511964  0.24464729  1
  Cu  Cu6  1  0.25000000  0.81511964  0.25535271  1
  Cu  Cu7  1  0.75000000  0.18488036  0.74464729  1
  Cu  Cu8  1  0.50103813  0.93400994  0.68695157  1
  Cu  Cu9  1  0.49896187  0.06599006  0.31304843  1
  Cu  Cu10  1  0.49896187  0.56599006  0.18695157  1
  Cu  Cu11  1  0.00103813  0.06599006  0.31304843  1
  Cu  Cu12  1  0.50103813  0.43400994  0.81304843  1
  Cu  Cu13  1  0.99896187  0.93400994  0.68695157  1
  Cu  Cu14  1  0.99896187  0.43400994  0.81304843  1
  Cu  Cu15  1  0.00103813  0.56599006  0.18695157  1
  Cu  Cu16  1  0.75000000  0.58377197  0.98308529  1
  Cu  Cu17  1  0.25000000  0.41622803  0.01691471  1
  Cu  Cu18  1  0.25000000  0.91622803  0.48308529  1
  Cu  Cu19  1  0.75000000  0.08377197  0.51691471  1
  Cu  Cu20  1  0.75000000  0.93908090  0.89436556  1
  Cu  Cu21  1  0.25000000  0.06091910  0.10563444  1
  Cu  Cu22  1  0.25000000  0.56091910  0.39436556  1
  Cu  Cu23  1  0.75000000  0.43908090  0.60563444  1
  Sn  Sn24  1  0.75000000  0.85835480  0.13911963  1
  Sn  Sn25  1  0.25000000  0.14164520  0.86088037  1
  Sn  Sn26  1  0.25000000  0.64164520  0.63911963  1
  Sn  Sn27  1  0.75000000  0.35835480  0.36088037  1
