# generated using pymatgen
data_Pr3VGeO9
_symmetry_space_group_name_H-M   'P 1'
_cell_length_a   7.17744998
_cell_length_b   9.48119680
_cell_length_c   12.74370968
_cell_angle_alpha   90.00000000
_cell_angle_beta   90.00000000
_cell_angle_gamma   107.55557312
_symmetry_Int_Tables_number   1
_chemical_formula_structural   Pr3VGeO9
_chemical_formula_sum   'Pr12 V4 Ge4 O36'
_cell_volume   826.82893528
_cell_formula_units_Z   4
loop_
 _symmetry_equiv_pos_site_id
 _symmetry_equiv_pos_as_xyz
  1  'x, y, z'
loop_
 _atom_site_type_symbol
 _atom_site_label
 _atom_site_symmetry_multiplicity
 _atom_site_fract_x
 _atom_site_fract_y
 _atom_site_fract_z
 _atom_site_occupancy
  Pr  Pr0  1  0.66908334  0.62332941  0.36939284  1
  Pr  Pr1  1  0.33091666  0.37667059  0.63060716  1
  Pr  Pr2  1  0.83091666  0.87667059  0.86939284  1
  Pr  Pr3  1  0.16908334  0.12332941  0.13060716  1
  Pr  Pr4  1  0.24019400  0.84689188  0.36582222  1
  Pr  Pr5  1  0.75980600  0.15310812  0.63417778  1
  Pr  Pr6  1  0.25980600  0.65310812  0.86582222  1
  Pr  Pr7  1  0.74019400  0.34689188  0.13417778  1
  Pr  Pr8  1  0.50698985  0.87449724  0.10752688  1
  Pr  Pr9  1  0.49301015  0.12550276  0.89247312  1
  Pr  Pr10  1  0.99301015  0.62550276  0.60752688  1
  Pr  Pr11  1  0.00698985  0.37449724  0.39247312  1
  V  V12  1  0.19704965  0.97786073  0.66331519  1
  V  V13  1  0.80295035  0.02213927  0.33668481  1
  V  V14  1  0.30295035  0.52213927  0.16331519  1
  V  V15  1  0.69704965  0.47786073  0.83668481  1
  Ge  Ge16  1  0.95276937  0.76052406  0.10172481  1
  Ge  Ge17  1  0.04723063  0.23947594  0.89827519  1
  Ge  Ge18  1  0.54723063  0.73947594  0.60172481  1
  Ge  Ge19  1  0.45276937  0.26052406  0.39827519  1
  O  O20  1  0.89917650  0.87439555  0.34097509  1
  O  O21  1  0.10082350  0.12560445  0.65902491  1
  O  O22  1  0.60082350  0.62560445  0.84097509  1
  O  O23  1  0.39917650  0.37439555  0.15902491  1
  O  O24  1  0.65396606  0.59118773  0.57554227  1
  O  O25  1  0.34603394  0.40881227  0.42445773  1
  O  O26  1  0.84603394  0.90881227  0.07554227  1
  O  O27  1  0.15396606  0.09118773  0.92445773  1
  O  O28  1  0.16818114  0.88052708  0.54595619  1
  O  O29  1  0.83181886  0.11947292  0.45404381  1
  O  O30  1  0.33181886  0.61947292  0.04595619  1
  O  O31  1  0.66818114  0.38052708  0.95404381  1
  O  O32  1  0.79055649  0.61614929  0.17293863  1
  O  O33  1  0.20944351  0.38385071  0.82706137  1
  O  O34  1  0.70944351  0.88385071  0.67293863  1
  O  O35  1  0.29055649  0.11614929  0.32706137  1
  O  O36  1  0.08215860  0.83635744  0.75163259  1
  O  O37  1  0.91784140  0.16364256  0.24836741  1
  O  O38  1  0.41784140  0.66364256  0.25163259  1
  O  O39  1  0.58215860  0.33635744  0.74836741  1
  O  O40  1  0.99447873  0.61697738  0.42067926  1
  O  O41  1  0.00552127  0.38302262  0.57932074  1
  O  O42  1  0.50552127  0.88302262  0.92067926  1
  O  O43  1  0.49447873  0.11697738  0.07932074  1
  O  O44  1  0.17349144  0.86230083  0.16992338  1
  O  O45  1  0.82650856  0.13769917  0.83007662  1
  O  O46  1  0.32650856  0.63769917  0.66992338  1
  O  O47  1  0.67349144  0.36230083  0.33007662  1
  O  O48  1  0.56648102  0.96031824  0.29095043  1
  O  O49  1  0.43351898  0.03968176  0.70904957  1
  O  O50  1  0.93351898  0.53968176  0.79095043  1
  O  O51  1  0.06648102  0.46031824  0.20904957  1
  O  O52  1  0.49332752  0.77575961  0.47036358  1
  O  O53  1  0.50667248  0.22424039  0.52963642  1
  O  O54  1  0.00667248  0.72424039  0.97036358  1
  O  O55  1  0.99332752  0.27575961  0.02963642  1
