# generated using pymatgen
data_NdIn2Cl5
_symmetry_space_group_name_H-M   'P 1'
_cell_length_a   8.22342321
_cell_length_b   8.82276407
_cell_length_c   13.10598546
_cell_angle_alpha   90.00000000
_cell_angle_beta   90.00000000
_cell_angle_gamma   90.00000000
_symmetry_Int_Tables_number   1
_chemical_formula_structural   NdIn2Cl5
_chemical_formula_sum   'Nd4 In8 Cl20'
_cell_volume   950.88279408
_cell_formula_units_Z   4
loop_
 _symmetry_equiv_pos_site_id
 _symmetry_equiv_pos_as_xyz
  1  'x, y, z'
loop_
 _atom_site_type_symbol
 _atom_site_label
 _atom_site_symmetry_multiplicity
 _atom_site_fract_x
 _atom_site_fract_y
 _atom_site_fract_z
 _atom_site_occupancy
  Nd  Nd0  1  0.57482138  0.75000000  0.99533175  1
  Nd  Nd1  1  0.42517862  0.25000000  0.00466825  1
  Nd  Nd2  1  0.07482138  0.25000000  0.50466825  1
  Nd  Nd3  1  0.92517862  0.75000000  0.49533175  1
  In  In4  1  0.54824029  0.49457935  0.67272228  1
  In  In5  1  0.45175971  0.50542065  0.32727772  1
  In  In6  1  0.04824029  0.50542065  0.82727772  1
  In  In7  1  0.45175971  0.99457935  0.32727772  1
  In  In8  1  0.95175971  0.49457935  0.17272228  1
  In  In9  1  0.54824029  0.00542065  0.67272228  1
  In  In10  1  0.95175971  0.00542065  0.17272228  1
  In  In11  1  0.04824029  0.99457935  0.82727772  1
  Cl  Cl12  1  0.38085934  0.75000000  0.82125725  1
  Cl  Cl13  1  0.61914066  0.25000000  0.17874275  1
  Cl  Cl14  1  0.88085934  0.25000000  0.67874275  1
  Cl  Cl15  1  0.11914066  0.75000000  0.32125725  1
  Cl  Cl16  1  0.66119661  0.45768947  0.92482303  1
  Cl  Cl17  1  0.33880339  0.54231053  0.07517697  1
  Cl  Cl18  1  0.16119661  0.54231053  0.57517697  1
  Cl  Cl19  1  0.33880339  0.95768947  0.07517697  1
  Cl  Cl20  1  0.83880339  0.45768947  0.42482303  1
  Cl  Cl21  1  0.66119661  0.04231053  0.92482303  1
  Cl  Cl22  1  0.83880339  0.04231053  0.42482303  1
  Cl  Cl23  1  0.16119661  0.95768947  0.57517697  1
  Cl  Cl24  1  0.91670925  0.75000000  0.99206757  1
  Cl  Cl25  1  0.08329075  0.25000000  0.00793243  1
  Cl  Cl26  1  0.41670925  0.25000000  0.50793243  1
  Cl  Cl27  1  0.58329075  0.75000000  0.49206757  1
  Cl  Cl28  1  0.83936049  0.75000000  0.70208113  1
  Cl  Cl29  1  0.16063951  0.25000000  0.29791887  1
  Cl  Cl30  1  0.33936049  0.25000000  0.79791887  1
  Cl  Cl31  1  0.66063951  0.75000000  0.20208113  1
