# generated using pymatgen
data_Nd2NiPtO6
_symmetry_space_group_name_H-M   'P 1'
_cell_length_a   5.47987088
_cell_length_b   5.79969021
_cell_length_c   7.86090661
_cell_angle_alpha   90.00000000
_cell_angle_beta   90.05090544
_cell_angle_gamma   90.00000000
_symmetry_Int_Tables_number   1
_chemical_formula_structural   Nd2NiPtO6
_chemical_formula_sum   'Nd4 Ni2 Pt2 O12'
_cell_volume   249.83172540
_cell_formula_units_Z   2
loop_
 _symmetry_equiv_pos_site_id
 _symmetry_equiv_pos_as_xyz
  1  'x, y, z'
loop_
 _atom_site_type_symbol
 _atom_site_label
 _atom_site_symmetry_multiplicity
 _atom_site_fract_x
 _atom_site_fract_y
 _atom_site_fract_z
 _atom_site_occupancy
  Nd  Nd0  1  0.01879951  0.43219554  0.25097292  1
  Nd  Nd1  1  0.98120049  0.56780446  0.74902708  1
  Nd  Nd2  1  0.48120049  0.93219554  0.24902708  1
  Nd  Nd3  1  0.51879951  0.06780446  0.75097292  1
  Ni  Ni4  1  0.00000000  -0.00000000  0.50000000  1
  Ni  Ni5  1  0.50000000  0.50000000  -0.00000000  1
  Pt  Pt6  1  0.00000000  -0.00000000  -0.00000000  1
  Pt  Pt7  1  0.50000000  0.50000000  0.50000000  1
  O  O8  1  0.89555319  0.03299948  0.24930939  1
  O  O9  1  0.10444681  0.96700052  0.75069061  1
  O  O10  1  0.60444681  0.53299948  0.25069061  1
  O  O11  1  0.39555319  0.46700052  0.74930939  1
  O  O12  1  0.19162664  0.70301407  0.05400006  1
  O  O13  1  0.80837336  0.29698593  0.94599994  1
  O  O14  1  0.30837336  0.20301407  0.44599994  1
  O  O15  1  0.69162664  0.79698593  0.55400006  1
  O  O16  1  0.30318212  0.19766658  0.05245092  1
  O  O17  1  0.69681788  0.80233342  0.94754908  1
  O  O18  1  0.19681788  0.69766658  0.44754908  1
  O  O19  1  0.80318212  0.30233342  0.55245092  1
