# generated using pymatgen
data_NdSI
_symmetry_space_group_name_H-M   'P 1'
_cell_length_a   7.08136362
_cell_length_b   7.31796702
_cell_length_c   14.41517442
_cell_angle_alpha   90.00000000
_cell_angle_beta   90.00000000
_cell_angle_gamma   90.00000000
_symmetry_Int_Tables_number   1
_chemical_formula_structural   NdSI
_chemical_formula_sum   'Nd8 S8 I8'
_cell_volume   747.01142659
_cell_formula_units_Z   8
loop_
 _symmetry_equiv_pos_site_id
 _symmetry_equiv_pos_as_xyz
  1  'x, y, z'
loop_
 _atom_site_type_symbol
 _atom_site_label
 _atom_site_symmetry_multiplicity
 _atom_site_fract_x
 _atom_site_fract_y
 _atom_site_fract_z
 _atom_site_occupancy
  Nd  Nd0  1  0.74171620  0.53017183  0.58341404  1
  Nd  Nd1  1  0.25828380  0.46982817  0.41658596  1
  Nd  Nd2  1  0.75828380  0.03017183  0.41658596  1
  Nd  Nd3  1  0.25828380  0.96982817  0.08341404  1
  Nd  Nd4  1  0.24171620  0.96982817  0.58341404  1
  Nd  Nd5  1  0.74171620  0.03017183  0.91658596  1
  Nd  Nd6  1  0.24171620  0.46982817  0.91658596  1
  Nd  Nd7  1  0.75828380  0.53017183  0.08341404  1
  S  S8  1  0.00138670  0.75782685  0.97639914  1
  S  S9  1  0.99861330  0.24217315  0.02360086  1
  S  S10  1  0.49861330  0.25782685  0.02360086  1
  S  S11  1  0.99861330  0.74217315  0.47639914  1
  S  S12  1  0.50138670  0.74217315  0.97639914  1
  S  S13  1  0.00138670  0.25782685  0.52360086  1
  S  S14  1  0.50138670  0.24217315  0.52360086  1
  S  S15  1  0.49861330  0.75782685  0.47639914  1
  I  I16  1  0.81798795  0.90525336  0.69998718  1
  I  I17  1  0.18201205  0.09474664  0.30001282  1
  I  I18  1  0.68201205  0.40525336  0.30001282  1
  I  I19  1  0.18201205  0.59474664  0.19998718  1
  I  I20  1  0.31798795  0.59474664  0.69998718  1
  I  I21  1  0.81798795  0.40525336  0.80001282  1
  I  I22  1  0.31798795  0.09474664  0.80001282  1
  I  I23  1  0.68201205  0.90525336  0.19998718  1
