# generated using pymatgen
data_NbCrS5
_symmetry_space_group_name_H-M   'P 1'
_cell_length_a   3.40542293
_cell_length_b   8.89696330
_cell_length_c   9.97407284
_cell_angle_alpha   115.24750911
_cell_angle_beta   90.00000000
_cell_angle_gamma   90.00000000
_symmetry_Int_Tables_number   1
_chemical_formula_structural   NbCrS5
_chemical_formula_sum   'Nb2 Cr2 S10'
_cell_volume   273.32624114
_cell_formula_units_Z   2
loop_
 _symmetry_equiv_pos_site_id
 _symmetry_equiv_pos_as_xyz
  1  'x, y, z'
loop_
 _atom_site_type_symbol
 _atom_site_label
 _atom_site_symmetry_multiplicity
 _atom_site_fract_x
 _atom_site_fract_y
 _atom_site_fract_z
 _atom_site_occupancy
  Nb  Nb0  1  0.75000000  0.22425375  0.13775938  1
  Nb  Nb1  1  0.25000000  0.77574625  0.86224062  1
  Cr  Cr2  1  0.75000000  0.92868782  0.59997927  1
  Cr  Cr3  1  0.25000000  0.07131218  0.40002073  1
  S  S4  1  0.75000000  0.86474657  0.35194528  1
  S  S5  1  0.25000000  0.13525343  0.64805472  1
  S  S6  1  0.75000000  0.98723852  0.86534311  1
  S  S7  1  0.25000000  0.01276148  0.13465689  1
  S  S8  1  0.75000000  0.26301568  0.40987841  1
  S  S9  1  0.25000000  0.73698432  0.59012159  1
  S  S10  1  0.75000000  0.53946481  0.75518342  1
  S  S11  1  0.25000000  0.46053519  0.24481658  1
  S  S12  1  0.75000000  0.65896625  0.98254988  1
  S  S13  1  0.25000000  0.34103375  0.01745012  1
