# generated using pymatgen
data_RbZr6BCl15
_symmetry_space_group_name_H-M   'P 1'
_cell_length_a   9.97207978
_cell_length_b   14.27661289
_cell_length_c   18.97663827
_cell_angle_alpha   90.00000000
_cell_angle_beta   90.00000000
_cell_angle_gamma   90.00000000
_symmetry_Int_Tables_number   1
_chemical_formula_structural   RbZr6BCl15
_chemical_formula_sum   'Rb4 Zr24 B4 Cl60'
_cell_volume   2701.65698019
_cell_formula_units_Z   4
loop_
 _symmetry_equiv_pos_site_id
 _symmetry_equiv_pos_as_xyz
  1  'x, y, z'
loop_
 _atom_site_type_symbol
 _atom_site_label
 _atom_site_symmetry_multiplicity
 _atom_site_fract_x
 _atom_site_fract_y
 _atom_site_fract_z
 _atom_site_occupancy
  Rb  Rb0  1  0.16909865  0.75303125  0.75000000  1
  Rb  Rb1  1  0.83090135  0.24696875  0.25000000  1
  Rb  Rb2  1  0.16909865  0.24696875  0.75000000  1
  Rb  Rb3  1  0.83090135  0.75303125  0.25000000  1
  Zr  Zr4  1  0.88902026  0.50000000  0.75000000  1
  Zr  Zr5  1  0.11097974  0.50000000  0.25000000  1
  Zr  Zr6  1  0.91682511  -0.00000000  0.38560000  1
  Zr  Zr7  1  0.08317489  -0.00000000  0.61440000  1
  Zr  Zr8  1  0.91682511  -0.00000000  0.11440000  1
  Zr  Zr9  1  0.08317489  -0.00000000  0.88560000  1
  Zr  Zr10  1  0.65778870  0.61748325  0.83812610  1
  Zr  Zr11  1  0.34221130  0.38251675  0.16187390  1
  Zr  Zr12  1  0.65778870  0.38251675  0.66187390  1
  Zr  Zr13  1  0.34221130  0.61748325  0.16187390  1
  Zr  Zr14  1  0.34221130  0.61748325  0.33812610  1
  Zr  Zr15  1  0.65778870  0.38251675  0.83812610  1
  Zr  Zr16  1  0.34221130  0.38251675  0.33812610  1
  Zr  Zr17  1  0.65778870  0.61748325  0.66187390  1
  Zr  Zr18  1  0.42441701  0.50000000  0.75000000  1
  Zr  Zr19  1  0.57558299  0.50000000  0.25000000  1
  Zr  Zr20  1  0.84126241  0.88290208  0.97057940  1
  Zr  Zr21  1  0.15873759  0.11709792  0.02942060  1
  Zr  Zr22  1  0.84126241  0.11709792  0.52942060  1
  Zr  Zr23  1  0.15873759  0.88290208  0.02942060  1
  Zr  Zr24  1  0.15873759  0.88290208  0.47057940  1
  Zr  Zr25  1  0.84126241  0.11709792  0.97057940  1
  Zr  Zr26  1  0.15873759  0.11709792  0.47057940  1
  Zr  Zr27  1  0.84126241  0.88290208  0.52942060  1
  B  B28  1  0.00000000  -0.00000000  0.00000000  1
  B  B29  1  0.00000000  -0.00000000  0.50000000  1
  B  B30  1  0.65648414  0.50000000  0.75000000  1
  B  B31  1  0.34351586  0.50000000  0.25000000  1
  Cl  Cl32  1  0.18346295  -0.00000000  0.75000000  1
  Cl  Cl33  1  0.81653705  -0.00000000  0.25000000  1
  Cl  Cl34  1  0.15720111  0.50000000  0.75000000  1
  Cl  Cl35  1  0.84279889  0.50000000  0.25000000  1
  Cl  Cl36  1  0.65769704  0.50000000  0.93958713  1
  Cl  Cl37  1  0.34230296  0.50000000  0.06041287  1
  Cl  Cl38  1  0.65769704  0.50000000  0.56041287  1
  Cl  Cl39  1  0.34230296  0.50000000  0.43958713  1
  Cl  Cl40  1  0.00000000  0.74853121  0.00000000  1
  Cl  Cl41  1  0.00000000  0.25146879  0.00000000  1
  Cl  Cl42  1  0.00000000  0.25146879  0.50000000  1
  Cl  Cl43  1  0.00000000  0.74853121  0.50000000  1
  Cl  Cl44  1  0.65015759  0.75254794  0.75000000  1
  Cl  Cl45  1  0.34984241  0.24745206  0.25000000  1
  Cl  Cl46  1  0.65015759  0.24745206  0.75000000  1
  Cl  Cl47  1  0.34984241  0.75254794  0.25000000  1
  Cl  Cl48  1  0.66116556  0.75082722  0.93722710  1
  Cl  Cl49  1  0.33883444  0.24917278  0.06277290  1
  Cl  Cl50  1  0.66116556  0.24917278  0.56277290  1
  Cl  Cl51  1  0.33883444  0.75082722  0.06277290  1
  Cl  Cl52  1  0.33883444  0.75082722  0.43722710  1
  Cl  Cl53  1  0.66116556  0.24917278  0.93722710  1
  Cl  Cl54  1  0.33883444  0.24917278  0.43722710  1
  Cl  Cl55  1  0.66116556  0.75082722  0.56277290  1
  Cl  Cl56  1  0.91856685  0.87580792  0.84190414  1
  Cl  Cl57  1  0.08143315  0.12419208  0.15809586  1
  Cl  Cl58  1  0.91856685  0.12419208  0.65809586  1
  Cl  Cl59  1  0.08143315  0.87580792  0.15809586  1
  Cl  Cl60  1  0.08143315  0.87580792  0.34190414  1
  Cl  Cl61  1  0.91856685  0.12419208  0.84190414  1
  Cl  Cl62  1  0.08143315  0.12419208  0.34190414  1
  Cl  Cl63  1  0.91856685  0.87580792  0.65809586  1
  Cl  Cl64  1  0.91450259  0.62547723  0.84486913  1
  Cl  Cl65  1  0.08549741  0.37452277  0.15513087  1
  Cl  Cl66  1  0.91450259  0.37452277  0.65513087  1
  Cl  Cl67  1  0.08549741  0.62547723  0.15513087  1
  Cl  Cl68  1  0.08549741  0.62547723  0.34486913  1
  Cl  Cl69  1  0.91450259  0.37452277  0.84486913  1
  Cl  Cl70  1  0.08549741  0.37452277  0.34486913  1
  Cl  Cl71  1  0.91450259  0.62547723  0.65513087  1
  Cl  Cl72  1  0.66047487  -0.00000000  0.93440908  1
  Cl  Cl73  1  0.33952513  -0.00000000  0.06559092  1
  Cl  Cl74  1  0.66047487  -0.00000000  0.56559092  1
  Cl  Cl75  1  0.33952513  -0.00000000  0.43440908  1
  Cl  Cl76  1  0.39993608  0.62572428  0.84628128  1
  Cl  Cl77  1  0.60006392  0.37427572  0.15371872  1
  Cl  Cl78  1  0.39993608  0.37427572  0.65371872  1
  Cl  Cl79  1  0.60006392  0.62572428  0.15371872  1
  Cl  Cl80  1  0.60006392  0.62572428  0.34628128  1
  Cl  Cl81  1  0.39993608  0.37427572  0.84628128  1
  Cl  Cl82  1  0.60006392  0.37427572  0.34628128  1
  Cl  Cl83  1  0.39993608  0.62572428  0.65371872  1
  Cl  Cl84  1  0.73863050  0.87275141  0.40507185  1
  Cl  Cl85  1  0.26136950  0.12724859  0.59492815  1
  Cl  Cl86  1  0.73863050  0.12724859  0.09492815  1
  Cl  Cl87  1  0.26136950  0.87275141  0.59492815  1
  Cl  Cl88  1  0.26136950  0.87275141  0.90507185  1
  Cl  Cl89  1  0.73863050  0.12724859  0.40507185  1
  Cl  Cl90  1  0.26136950  0.12724859  0.90507185  1
  Cl  Cl91  1  0.73863050  0.87275141  0.09492815  1
