# generated using pymatgen
data_Pr6Ni20P13
_symmetry_space_group_name_H-M   'P 1'
_cell_length_a   3.84346587
_cell_length_b   12.88250486
_cell_length_c   12.88250486
_cell_angle_alpha   119.99999851
_cell_angle_beta   90.00000000
_cell_angle_gamma   90.00000000
_symmetry_Int_Tables_number   1
_chemical_formula_structural   Pr6Ni20P13
_chemical_formula_sum   'Pr6 Ni20 P13'
_cell_volume   552.40079772
_cell_formula_units_Z   1
loop_
 _symmetry_equiv_pos_site_id
 _symmetry_equiv_pos_as_xyz
  1  'x, y, z'
loop_
 _atom_site_type_symbol
 _atom_site_label
 _atom_site_symmetry_multiplicity
 _atom_site_fract_x
 _atom_site_fract_y
 _atom_site_fract_z
 _atom_site_occupancy
  Pr  Pr0  1  0.00000000  0.53297062  0.81374627  1
  Pr  Pr1  1  0.00000000  0.28077565  0.46702938  1
  Pr  Pr2  1  -0.00000000  0.18625373  0.71922435  1
  Pr  Pr3  1  0.50000000  0.81415222  0.28092114  1
  Pr  Pr4  1  0.50000000  0.46676893  0.18584778  1
  Pr  Pr5  1  0.50000000  0.71907886  0.53323107  1
  Ni  Ni6  1  0.00000000  0.80868342  0.91145954  1
  Ni  Ni7  1  0.00000000  0.10277613  0.19131658  1
  Ni  Ni8  1  -0.00000000  0.08854046  0.89722387  1
  Ni  Ni9  1  0.50000000  0.33333300  0.66666700  1
  Ni  Ni10  1  0.50000000  0.92788232  0.08107568  1
  Ni  Ni11  1  0.50000000  0.15319336  0.07211768  1
  Ni  Ni12  1  0.50000000  0.91892432  0.84680664  1
  Ni  Ni13  1  -0.00000000  0.66666700  0.33333300  1
  Ni  Ni14  1  0.00000000  0.56287705  0.58595079  1
  Ni  Ni15  1  -0.00000000  0.02307374  0.43712295  1
  Ni  Ni16  1  -0.00000000  0.41404921  0.97692626  1
  Ni  Ni17  1  0.50000000  0.68833592  0.75689075  1
  Ni  Ni18  1  0.50000000  0.06855483  0.31166408  1
  Ni  Ni19  1  0.50000000  0.24310925  0.93144517  1
  Ni  Ni20  1  0.50000000  0.97573921  0.56643563  1
  Ni  Ni21  1  0.50000000  0.59069643  0.02426079  1
  Ni  Ni22  1  0.50000000  0.43356437  0.40930357  1
  Ni  Ni23  1  0.00000000  0.76048872  0.07568814  1
  Ni  Ni24  1  -0.00000000  0.31519941  0.23951128  1
  Ni  Ni25  1  -0.00000000  0.92431186  0.68480059  1
  P  P26  1  0.50000000  0.48078262  0.61209149  1
  P  P27  1  0.50000000  0.13130887  0.51921738  1
  P  P28  1  0.50000000  0.38790851  0.86869113  1
  P  P29  1  0.50000000  0.72723406  0.95782638  1
  P  P30  1  0.50000000  0.23059232  0.27276594  1
  P  P31  1  0.50000000  0.04217362  0.76940768  1
  P  P32  1  -0.00000000  0.86783481  0.48184771  1
  P  P33  1  0.00000000  0.61401290  0.13216519  1
  P  P34  1  0.00000000  0.51815229  0.38598710  1
  P  P35  1  0.00000000  0.95621795  0.23356465  1
  P  P36  1  0.00000000  0.27734670  0.04378205  1
  P  P37  1  -0.00000000  0.76643535  0.72265330  1
  P  P38  1  0.00000000  -0.00000000  -0.00000000  1
