# generated using pymatgen
data_Nd2(Al3Ir)3
_symmetry_space_group_name_H-M   'P 1'
_cell_length_a   7.62403048
_cell_length_b   7.69003758
_cell_length_c   9.60722178
_cell_angle_alpha   90.00000000
_cell_angle_beta   90.00000000
_cell_angle_gamma   120.28680819
_symmetry_Int_Tables_number   1
_chemical_formula_structural   Nd2(Al3Ir)3
_chemical_formula_sum   'Nd4 Al18 Ir6'
_cell_volume   486.38382499
_cell_formula_units_Z   2
loop_
 _symmetry_equiv_pos_site_id
 _symmetry_equiv_pos_as_xyz
  1  'x, y, z'
loop_
 _atom_site_type_symbol
 _atom_site_label
 _atom_site_symmetry_multiplicity
 _atom_site_fract_x
 _atom_site_fract_y
 _atom_site_fract_z
 _atom_site_occupancy
  Nd  Nd0  1  0.67415769  0.66929990  0.25000000  1
  Nd  Nd1  1  0.32584231  0.33070010  0.75000000  1
  Nd  Nd2  1  0.32584231  0.99514221  0.25000000  1
  Nd  Nd3  1  0.67415769  0.00485779  0.75000000  1
  Al  Al4  1  0.00000000  0.12894437  0.25000000  1
  Al  Al5  1  1.00000000  0.87105563  0.75000000  1
  Al  Al6  1  0.33171061  0.33485962  0.07214495  1
  Al  Al7  1  0.66828939  0.66514038  0.92785505  1
  Al  Al8  1  0.66828939  0.66514038  0.57214495  1
  Al  Al9  1  0.66828939  0.00314901  0.42785505  1
  Al  Al10  1  0.33171061  0.33485962  0.42785505  1
  Al  Al11  1  0.33171061  0.99685099  0.57214495  1
  Al  Al12  1  0.33171061  0.99685099  0.92785505  1
  Al  Al13  1  0.66828939  0.00314901  0.07214495  1
  Al  Al14  1  0.00000000  0.33458928  0.55031185  1
  Al  Al15  1  1.00000000  0.66541072  0.44968815  1
  Al  Al16  1  1.00000000  0.66541072  0.05031185  1
  Al  Al17  1  0.00000000  0.33458928  0.94968815  1
  Al  Al18  1  0.20728335  0.54510638  0.25000000  1
  Al  Al19  1  0.79271665  0.45489362  0.75000000  1
  Al  Al20  1  0.79271665  0.33782303  0.25000000  1
  Al  Al21  1  0.20728335  0.66217697  0.75000000  1
  Ir  Ir22  1  0.65804674  0.32902337  0.00000000  1
  Ir  Ir23  1  0.34195326  0.67097663  -0.00000000  1
  Ir  Ir24  1  0.34195326  0.67097663  0.50000000  1
  Ir  Ir25  1  0.65804674  0.32902337  0.50000000  1
  Ir  Ir26  1  0.00000000  -0.00000000  -0.00000000  1
  Ir  Ir27  1  0.00000000  -0.00000000  0.50000000  1
