# generated using pymatgen
data_Rb2CeCl5
_symmetry_space_group_name_H-M   'P 1'
_cell_length_a   8.22874167
_cell_length_b   9.07256322
_cell_length_c   13.61984743
_cell_angle_alpha   90.00000000
_cell_angle_beta   90.00000000
_cell_angle_gamma   90.00000000
_symmetry_Int_Tables_number   1
_chemical_formula_structural   Rb2CeCl5
_chemical_formula_sum   'Rb8 Ce4 Cl20'
_cell_volume   1016.80032005
_cell_formula_units_Z   4
loop_
 _symmetry_equiv_pos_site_id
 _symmetry_equiv_pos_as_xyz
  1  'x, y, z'
loop_
 _atom_site_type_symbol
 _atom_site_label
 _atom_site_symmetry_multiplicity
 _atom_site_fract_x
 _atom_site_fract_y
 _atom_site_fract_z
 _atom_site_occupancy
  Rb  Rb0  1  0.96760008  0.00069302  0.67405540  1
  Rb  Rb1  1  0.03239992  0.99930698  0.32594460  1
  Rb  Rb2  1  0.46760008  0.99930698  0.82594460  1
  Rb  Rb3  1  0.03239992  0.50069302  0.32594460  1
  Rb  Rb4  1  0.53239992  0.00069302  0.17405540  1
  Rb  Rb5  1  0.96760008  0.49930698  0.67405540  1
  Rb  Rb6  1  0.53239992  0.49930698  0.17405540  1
  Rb  Rb7  1  0.46760008  0.50069302  0.82594460  1
  Ce  Ce8  1  0.92948195  0.75000000  0.99696327  1
  Ce  Ce9  1  0.07051805  0.25000000  0.00303673  1
  Ce  Ce10  1  0.42948195  0.25000000  0.50303673  1
  Ce  Ce11  1  0.57051805  0.75000000  0.49696327  1
  Cl  Cl12  1  0.67035061  0.75000000  0.69493315  1
  Cl  Cl13  1  0.32964939  0.25000000  0.30506685  1
  Cl  Cl14  1  0.17035061  0.25000000  0.80506685  1
  Cl  Cl15  1  0.82964939  0.75000000  0.19493315  1
  Cl  Cl16  1  0.13828500  0.75000000  0.83513311  1
  Cl  Cl17  1  0.86171500  0.25000000  0.16486689  1
  Cl  Cl18  1  0.63828500  0.25000000  0.66486689  1
  Cl  Cl19  1  0.36171500  0.75000000  0.33513311  1
  Cl  Cl20  1  0.58777732  0.75000000  0.98871921  1
  Cl  Cl21  1  0.41222268  0.25000000  0.01128079  1
  Cl  Cl22  1  0.08777732  0.25000000  0.51128079  1
  Cl  Cl23  1  0.91222268  0.75000000  0.48871921  1
  Cl  Cl24  1  0.84914869  0.46198520  0.91903315  1
  Cl  Cl25  1  0.15085131  0.53801480  0.08096685  1
  Cl  Cl26  1  0.34914869  0.53801480  0.58096685  1
  Cl  Cl27  1  0.15085131  0.96198520  0.08096685  1
  Cl  Cl28  1  0.65085131  0.46198520  0.41903315  1
  Cl  Cl29  1  0.84914869  0.03801480  0.91903315  1
  Cl  Cl30  1  0.65085131  0.03801480  0.41903315  1
  Cl  Cl31  1  0.34914869  0.96198520  0.58096685  1
