# generated using pymatgen
data_Nd3Re2O9
_symmetry_space_group_name_H-M   'P 1'
_cell_length_a   5.63823910
_cell_length_b   6.84798288
_cell_length_c   11.10279398
_cell_angle_alpha   77.01209589
_cell_angle_beta   75.55495771
_cell_angle_gamma   69.11355312
_symmetry_Int_Tables_number   1
_chemical_formula_structural   Nd3Re2O9
_chemical_formula_sum   'Nd6 Re4 O18'
_cell_volume   383.45977624
_cell_formula_units_Z   2
loop_
 _symmetry_equiv_pos_site_id
 _symmetry_equiv_pos_as_xyz
  1  'x, y, z'
loop_
 _atom_site_type_symbol
 _atom_site_label
 _atom_site_symmetry_multiplicity
 _atom_site_fract_x
 _atom_site_fract_y
 _atom_site_fract_z
 _atom_site_occupancy
  Nd  Nd0  1  0.00258813  0.22443841  0.27048667  1
  Nd  Nd1  1  0.99741187  0.77556159  0.72951333  1
  Nd  Nd2  1  0.22153034  0.16335346  0.88211451  1
  Nd  Nd3  1  0.77846966  0.83664654  0.11788549  1
  Nd  Nd4  1  0.28424010  0.59448598  0.37953630  1
  Nd  Nd5  1  0.71575990  0.40551402  0.62046370  1
  Re  Re6  1  0.51005718  0.38636163  0.09209529  1
  Re  Re7  1  0.48994282  0.61363837  0.90790471  1
  Re  Re8  1  0.35580703  0.12285386  0.57126127  1
  Re  Re9  1  0.64419297  0.87714614  0.42873873  1
  O  O10  1  0.30465432  0.41879877  0.58969559  1
  O  O11  1  0.69534568  0.58120123  0.41030441  1
  O  O12  1  0.58706363  0.05735261  0.68896333  1
  O  O13  1  0.41293637  0.94264739  0.31103667  1
  O  O14  1  0.85766449  0.18645819  0.06320952  1
  O  O15  1  0.14233551  0.81354181  0.93679048  1
  O  O16  1  0.38244750  0.17115021  0.07100497  1
  O  O17  1  0.61755250  0.82884979  0.92899503  1
  O  O18  1  0.06000236  0.11426023  0.71256402  1
  O  O19  1  0.93999764  0.88573977  0.28743598  1
  O  O20  1  0.17383813  0.51097734  0.19109739  1
  O  O21  1  0.82616187  0.48902266  0.80890261  1
  O  O22  1  0.10788107  0.25338592  0.46069526  1
  O  O23  1  0.89211893  0.74661408  0.53930474  1
  O  O24  1  0.64154317  0.52316637  0.18504099  1
  O  O25  1  0.35845683  0.47683363  0.81495901  1
  O  O26  1  0.62811188  0.18232028  0.42095852  1
  O  O27  1  0.37188812  0.81767972  0.57904148  1
