# generated using pymatgen
data_Nd5(In2Pt)2
_symmetry_space_group_name_H-M   'P 1'
_cell_length_a   3.79323887
_cell_length_b   8.33306552
_cell_length_c   18.77559943
_cell_angle_alpha   90.00000000
_cell_angle_beta   90.00000000
_cell_angle_gamma   90.00000000
_symmetry_Int_Tables_number   1
_chemical_formula_structural   Nd5(In2Pt)2
_chemical_formula_sum   'Nd10 In8 Pt4'
_cell_volume   593.48370596
_cell_formula_units_Z   2
loop_
 _symmetry_equiv_pos_site_id
 _symmetry_equiv_pos_as_xyz
  1  'x, y, z'
loop_
 _atom_site_type_symbol
 _atom_site_label
 _atom_site_symmetry_multiplicity
 _atom_site_fract_x
 _atom_site_fract_y
 _atom_site_fract_z
 _atom_site_occupancy
  Nd  Nd0  1  -0.00000000  0.11699728  0.41509896  1
  Nd  Nd1  1  -0.00000000  0.88300272  0.58490104  1
  Nd  Nd2  1  -0.00000000  0.38300272  0.91509896  1
  Nd  Nd3  1  -0.00000000  0.61699728  0.08490104  1
  Nd  Nd4  1  -0.00000000  0.24303180  0.21853551  1
  Nd  Nd5  1  -0.00000000  0.75696820  0.78146449  1
  Nd  Nd6  1  -0.00000000  0.25696820  0.71853551  1
  Nd  Nd7  1  -0.00000000  0.74303180  0.28146449  1
  Nd  Nd8  1  -0.00000000  -0.00000000  -0.00000000  1
  Nd  Nd9  1  -0.00000000  0.50000000  0.50000000  1
  In  In10  1  0.50000000  0.42658879  0.35022053  1
  In  In11  1  0.50000000  0.57341121  0.64977947  1
  In  In12  1  0.50000000  0.07341121  0.85022053  1
  In  In13  1  0.50000000  0.92658879  0.14977947  1
  In  In14  1  0.50000000  0.29214593  0.06815059  1
  In  In15  1  0.50000000  0.70785407  0.93184941  1
  In  In16  1  0.50000000  0.20785407  0.56815059  1
  In  In17  1  0.50000000  0.79214593  0.43184941  1
  Pt  Pt18  1  0.50000000  0.02411143  0.30293416  1
  Pt  Pt19  1  0.50000000  0.97588857  0.69706584  1
  Pt  Pt20  1  0.50000000  0.47588857  0.80293416  1
  Pt  Pt21  1  0.50000000  0.52411143  0.19706584  1
