# generated using pymatgen
data_Ti(FeO2)3
_symmetry_space_group_name_H-M   'P 1'
_cell_length_a   6.07242888
_cell_length_b   6.04008790
_cell_length_c   14.77307319
_cell_angle_alpha   89.19563449
_cell_angle_beta   89.92256037
_cell_angle_gamma   119.91538620
_symmetry_Int_Tables_number   1
_chemical_formula_structural   Ti(FeO2)3
_chemical_formula_sum   'Ti4 Fe12 O24'
_cell_volume   469.58462292
_cell_formula_units_Z   4
loop_
 _symmetry_equiv_pos_site_id
 _symmetry_equiv_pos_as_xyz
  1  'x, y, z'
loop_
 _atom_site_type_symbol
 _atom_site_label
 _atom_site_symmetry_multiplicity
 _atom_site_fract_x
 _atom_site_fract_y
 _atom_site_fract_z
 _atom_site_occupancy
  Ti  Ti0  1  0.98514398  0.46823596  0.01465018  1
  Ti  Ti1  1  0.83760482  0.68742828  0.17459345  1
  Ti  Ti2  1  0.49595711  0.98806021  0.49445863  1
  Ti  Ti3  1  0.00426066  0.99828838  0.49448604  1
  Fe  Fe4  1  0.67782278  0.84635821  0.70251327  1
  Fe  Fe5  1  0.34036237  0.16754162  0.04668487  1
  Fe  Fe6  1  0.00690903  0.51756752  0.37200233  1
  Fe  Fe7  1  0.65674928  0.82115723  0.96139067  1
  Fe  Fe8  1  0.34155691  0.16436562  0.28920845  1
  Fe  Fe9  1  0.98852136  0.48646816  0.62252167  1
  Fe  Fe10  1  0.66156899  0.83546164  0.33178398  1
  Fe  Fe11  1  0.34409196  0.18999875  0.66085682  1
  Fe  Fe12  1  0.16937275  0.83580692  0.83455241  1
  Fe  Fe13  1  0.16717171  0.33556580  0.83270281  1
  Fe  Fe14  1  0.33768049  0.67717376  0.17002629  1
  Fe  Fe15  1  0.66619037  0.33423997  0.83387030  1
  O  O16  1  0.34226945  0.16161460  0.90436300  1
  O  O17  1  0.00125687  0.52085792  0.24594259  1
  O  O18  1  0.68093918  0.85941195  0.57449380  1
  O  O19  1  0.50373949  0.49112221  0.74622602  1
  O  O20  1  0.13695167  0.79388202  0.08601662  1
  O  O21  1  0.83217909  0.16432752  0.42712159  1
  O  O22  1  0.49174805  0.01223440  0.75147103  1
  O  O23  1  0.16914183  0.36791921  0.08155582  1
  O  O24  1  0.85829797  0.70809647  0.42119258  1
  O  O25  1  0.02250845  0.00303234  0.74804008  1
  O  O26  1  0.69911650  0.36553702  0.08060195  1
  O  O27  1  0.33614397  0.69532282  0.42483783  1
  O  O28  1  0.99140597  0.50338126  0.75495017  1
  O  O29  1  0.65884404  0.80164813  0.08702578  1
  O  O30  1  0.32199538  0.13976242  0.43301136  1
  O  O31  1  0.83372137  0.18447154  0.91974058  1
  O  O32  1  0.51368054  0.51783381  0.24033046  1
  O  O33  1  0.17628662  0.85293621  0.57899515  1
  O  O34  1  0.84267717  0.65431163  0.91211513  1
  O  O35  1  0.48694029  0.96063392  0.24979266  1
  O  O36  1  0.14450213  0.29605929  0.58513873  1
  O  O37  1  0.31076617  0.66524394  0.91686961  1
  O  O38  1  0.98380143  0.96707167  0.24228625  1
  O  O39  1  0.64678881  0.29290267  0.58491203  1
