# generated using pymatgen
data_NdBiRh
_symmetry_space_group_name_H-M   'P 1'
_cell_length_a   4.85905171
_cell_length_b   7.49778868
_cell_length_c   7.91988383
_cell_angle_alpha   90.00000000
_cell_angle_beta   90.00000000
_cell_angle_gamma   90.00000000
_symmetry_Int_Tables_number   1
_chemical_formula_structural   NdBiRh
_chemical_formula_sum   'Nd4 Bi4 Rh4'
_cell_volume   288.53833950
_cell_formula_units_Z   4
loop_
 _symmetry_equiv_pos_site_id
 _symmetry_equiv_pos_as_xyz
  1  'x, y, z'
loop_
 _atom_site_type_symbol
 _atom_site_label
 _atom_site_symmetry_multiplicity
 _atom_site_fract_x
 _atom_site_fract_y
 _atom_site_fract_z
 _atom_site_occupancy
  Nd  Nd0  1  0.75000000  0.01603996  0.29711818  1
  Nd  Nd1  1  0.25000000  0.98396004  0.70288182  1
  Nd  Nd2  1  0.25000000  0.48396004  0.79711818  1
  Nd  Nd3  1  0.75000000  0.51603996  0.20288182  1
  Bi  Bi4  1  0.75000000  0.68990435  0.59231005  1
  Bi  Bi5  1  0.25000000  0.31009565  0.40768995  1
  Bi  Bi6  1  0.25000000  0.81009565  0.09231005  1
  Bi  Bi7  1  0.75000000  0.18990435  0.90768995  1
  Rh  Rh8  1  0.75000000  0.79985318  0.92827513  1
  Rh  Rh9  1  0.25000000  0.20014682  0.07172487  1
  Rh  Rh10  1  0.25000000  0.70014682  0.42827513  1
  Rh  Rh11  1  0.75000000  0.29985318  0.57172487  1
