# generated using pymatgen
data_NaNdCoWO6
_symmetry_space_group_name_H-M   'P 1'
_cell_length_a   5.54329242
_cell_length_b   5.60945177
_cell_length_c   7.95563698
_cell_angle_alpha   90.00000000
_cell_angle_beta   90.18128411
_cell_angle_gamma   90.00000000
_symmetry_Int_Tables_number   1
_chemical_formula_structural   NaNdCoWO6
_chemical_formula_sum   'Na2 Nd2 Co2 W2 O12'
_cell_volume   247.37795287
_cell_formula_units_Z   2
loop_
 _symmetry_equiv_pos_site_id
 _symmetry_equiv_pos_as_xyz
  1  'x, y, z'
loop_
 _atom_site_type_symbol
 _atom_site_label
 _atom_site_symmetry_multiplicity
 _atom_site_fract_x
 _atom_site_fract_y
 _atom_site_fract_z
 _atom_site_occupancy
  Na  Na0  1  0.25461106  0.50022478  0.50009488  1
  Na  Na1  1  0.74538894  0.00022478  0.49990512  1
  Nd  Nd2  1  0.24140595  0.55950539  0.00106156  1
  Nd  Nd3  1  0.75859405  0.05950539  0.99893844  1
  Co  Co4  1  0.25040813  0.02207428  0.74416165  1
  Co  Co5  1  0.74959187  0.52207428  0.25583835  1
  W  W6  1  0.25526364  0.01507841  0.26322020  1
  W  W7  1  0.74473636  0.51507841  0.73677980  1
  O  O8  1  0.43634153  0.72442261  0.28105631  1
  O  O9  1  0.56365847  0.22442261  0.71894369  1
  O  O10  1  0.33775681  0.99125725  0.00704808  1
  O  O11  1  0.66224319  0.49125725  0.99295192  1
  O  O12  1  0.17011794  0.03807430  0.48948206  1
  O  O13  1  0.82988206  0.53807430  0.51051794  1
  O  O14  1  0.02297017  0.30545323  0.80773377  1
  O  O15  1  0.97702983  0.80545323  0.19226623  1
  O  O16  1  0.04211496  0.28196947  0.19212207  1
  O  O17  1  0.95788504  0.78196947  0.80787793  1
  O  O18  1  0.53429449  0.21034028  0.27766191  1
  O  O19  1  0.46570551  0.71034028  0.72233809  1
