# generated using pymatgen
data_Nd4CdNi
_symmetry_space_group_name_H-M   'P 1'
_cell_length_a   9.82602917
_cell_length_b   9.82602917
_cell_length_c   9.82602917
_cell_angle_alpha   60.00000000
_cell_angle_beta   60.00000000
_cell_angle_gamma   60.00000000
_symmetry_Int_Tables_number   1
_chemical_formula_structural   Nd4CdNi
_chemical_formula_sum   'Nd16 Cd4 Ni4'
_cell_volume   670.84030805
_cell_formula_units_Z   4
loop_
 _symmetry_equiv_pos_site_id
 _symmetry_equiv_pos_as_xyz
  1  'x, y, z'
loop_
 _atom_site_type_symbol
 _atom_site_label
 _atom_site_symmetry_multiplicity
 _atom_site_fract_x
 _atom_site_fract_y
 _atom_site_fract_z
 _atom_site_occupancy
  Nd  Nd0  1  0.65349302  0.65349302  0.65349302  1
  Nd  Nd1  1  0.03952094  0.65349302  0.65349302  1
  Nd  Nd2  1  0.65349302  0.03952094  0.65349302  1
  Nd  Nd3  1  0.65349302  0.65349302  0.03952094  1
  Nd  Nd4  1  0.80938450  0.80938450  0.19061550  1
  Nd  Nd5  1  0.19061550  0.19061550  0.80938450  1
  Nd  Nd6  1  0.80938450  0.19061550  0.80938450  1
  Nd  Nd7  1  0.19061550  0.80938450  0.19061550  1
  Nd  Nd8  1  0.19061550  0.80938450  0.80938450  1
  Nd  Nd9  1  0.80938450  0.19061550  0.19061550  1
  Nd  Nd10  1  0.43573116  0.43573116  0.06426884  1
  Nd  Nd11  1  0.06426884  0.06426884  0.43573116  1
  Nd  Nd12  1  0.43573116  0.06426884  0.43573116  1
  Nd  Nd13  1  0.06426884  0.43573116  0.06426884  1
  Nd  Nd14  1  0.06426884  0.43573116  0.43573116  1
  Nd  Nd15  1  0.43573116  0.06426884  0.06426884  1
  Cd  Cd16  1  0.42080000  0.42080000  0.42080000  1
  Cd  Cd17  1  0.73759999  0.42080000  0.42080000  1
  Cd  Cd18  1  0.42080000  0.73759999  0.42080000  1
  Cd  Cd19  1  0.42080000  0.42080000  0.73759999  1
  Ni  Ni20  1  0.85853487  0.85853487  0.85853487  1
  Ni  Ni21  1  0.42439540  0.85853487  0.85853487  1
  Ni  Ni22  1  0.85853487  0.42439540  0.85853487  1
  Ni  Ni23  1  0.85853487  0.85853487  0.42439540  1
