# generated using pymatgen
data_NaCaAlPHO5F2
_symmetry_space_group_name_H-M   'P 1'
_cell_length_a   5.59914523
_cell_length_b   6.99930814
_cell_length_c   7.29058355
_cell_angle_alpha   90.00000000
_cell_angle_beta   90.00000000
_cell_angle_gamma   108.46918658
_symmetry_Int_Tables_number   1
_chemical_formula_structural   NaCaAlPHO5F2
_chemical_formula_sum   'Na2 Ca2 Al2 P2 H2 O10 F4'
_cell_volume   271.00281380
_cell_formula_units_Z   2
loop_
 _symmetry_equiv_pos_site_id
 _symmetry_equiv_pos_as_xyz
  1  'x, y, z'
loop_
 _atom_site_type_symbol
 _atom_site_label
 _atom_site_symmetry_multiplicity
 _atom_site_fract_x
 _atom_site_fract_y
 _atom_site_fract_z
 _atom_site_occupancy
  Na  Na0  1  0.97364039  0.46470192  0.75000000  1
  Na  Na1  1  0.02635961  0.53529808  0.25000000  1
  Ca  Ca2  1  -0.00000000  -0.00000000  0.00000000  1
  Ca  Ca3  1  -0.00000000  -0.00000000  0.50000000  1
  Al  Al4  1  0.50000000  0.50000000  0.00000000  1
  Al  Al5  1  0.50000000  0.50000000  0.50000000  1
  P  P6  1  0.46209396  0.86096218  0.75000000  1
  P  P7  1  0.53790604  0.13903782  0.25000000  1
  H  H8  1  0.48031152  0.27117600  0.75000000  1
  H  H9  1  0.51968848  0.72882400  0.25000000  1
  O  O10  1  0.41360624  0.72519144  0.92333241  1
  O  O11  1  0.58639376  0.27480856  0.07666759  1
  O  O12  1  0.58639376  0.27480856  0.42333241  1
  O  O13  1  0.41360624  0.72519144  0.57666759  1
  O  O14  1  0.73800278  0.00475656  0.75000000  1
  O  O15  1  0.26199722  0.99524344  0.25000000  1
  O  O16  1  0.27116290  0.98060286  0.75000000  1
  O  O17  1  0.72883710  0.01939714  0.25000000  1
  O  O18  1  0.53303032  0.41931251  0.75000000  1
  O  O19  1  0.46696968  0.58068749  0.25000000  1
  F  F20  1  0.84278772  0.65274866  0.00324232  1
  F  F21  1  0.15721228  0.34725134  0.99675768  1
  F  F22  1  0.15721228  0.34725134  0.50324232  1
  F  F23  1  0.84278772  0.65274866  0.49675768  1
