# generated using pymatgen
data_NaAl(SO4)2
_symmetry_space_group_name_H-M   'P 1'
_cell_length_a   4.71083682
_cell_length_b   4.71083682
_cell_length_c   7.30876589
_cell_angle_alpha   87.46045952
_cell_angle_beta   87.46045952
_cell_angle_gamma   65.05649446
_symmetry_Int_Tables_number   1
_chemical_formula_structural   NaAl(SO4)2
_chemical_formula_sum   'Na1 Al1 S2 O8'
_cell_volume   146.86379947
_cell_formula_units_Z   1
loop_
 _symmetry_equiv_pos_site_id
 _symmetry_equiv_pos_as_xyz
  1  'x, y, z'
loop_
 _atom_site_type_symbol
 _atom_site_label
 _atom_site_symmetry_multiplicity
 _atom_site_fract_x
 _atom_site_fract_y
 _atom_site_fract_z
 _atom_site_occupancy
  Na  Na0  1  -0.00000000  0.00000000  0.50000000  1
  Al  Al1  1  -0.00000000  0.00000000  -0.00000000  1
  S  S2  1  0.36267605  0.36267605  0.78870448  1
  S  S3  1  0.63732395  0.63732395  0.21129552  1
  O  O4  1  0.29884035  0.29884035  0.60681615  1
  O  O5  1  0.70115965  0.70115965  0.39318385  1
  O  O6  1  0.71123914  0.23078085  0.81208159  1
  O  O7  1  0.28876086  0.76921915  0.18791841  1
  O  O8  1  0.76921915  0.28876086  0.18791841  1
  O  O9  1  0.23078085  0.71123914  0.81208159  1
  O  O10  1  0.23023104  0.23023104  0.93965742  1
  O  O11  1  0.76976896  0.76976896  0.06034258  1
