# generated using pymatgen
data_Na2TeH6SO10
_symmetry_space_group_name_H-M   'P 1'
_cell_length_a   5.51959484
_cell_length_b   5.89479512
_cell_length_c   15.44561970
_cell_angle_alpha   87.69732704
_cell_angle_beta   85.07686910
_cell_angle_gamma   62.08408427
_symmetry_Int_Tables_number   1
_chemical_formula_structural   Na2TeH6SO10
_chemical_formula_sum   'Na4 Te2 H12 S2 O20'
_cell_volume   442.43479231
_cell_formula_units_Z   2
loop_
 _symmetry_equiv_pos_site_id
 _symmetry_equiv_pos_as_xyz
  1  'x, y, z'
loop_
 _atom_site_type_symbol
 _atom_site_label
 _atom_site_symmetry_multiplicity
 _atom_site_fract_x
 _atom_site_fract_y
 _atom_site_fract_z
 _atom_site_occupancy
  Na  Na0  1  0.38236269  0.49420781  0.57373259  1
  Na  Na1  1  0.87657051  0.50579219  0.07373259  1
  Na  Na2  1  0.32908415  0.84144111  0.38215895  1
  Na  Na3  1  0.17052525  0.15855889  0.88215895  1
  Te  Te4  1  0.80368694  0.97096039  0.69396872  1
  Te  Te5  1  0.77464734  0.02903961  0.19396872  1
  H  H6  1  0.85986872  0.52272432  0.69024065  1
  H  H7  1  0.38259304  0.47727568  0.19024065  1
  H  H8  1  0.35538000  0.98048274  0.70638511  1
  H  H9  1  0.33586274  0.01951726  0.20638511  1
  H  H10  1  0.09788806  0.06262914  0.57896374  1
  H  H11  1  0.16051720  0.93737086  0.07896374  1
  H  H12  1  0.67137765  0.88054304  0.55333201  1
  H  H13  1  0.55192069  0.11945696  0.05333201  1
  H  H14  1  0.08637090  0.75969370  0.81985242  1
  H  H15  1  0.84606460  0.24030630  0.31985242  1
  H  H16  1  0.54582440  0.40063325  0.76265517  1
  H  H17  1  0.94645765  0.59936675  0.26265517  1
  S  S18  1  0.42316128  0.51937206  0.94656177  1
  S  S19  1  0.94253335  0.48062794  0.44656177  1
  O  O20  1  0.28206256  0.79371917  0.97299676  1
  O  O21  1  0.07578172  0.20628083  0.47299676  1
  O  O22  1  0.47470574  0.97434649  0.75284235  1
  O  O23  1  0.44905223  0.02565351  0.25284235  1
  O  O24  1  0.65381565  0.34542773  0.70449970  1
  O  O25  1  0.99924338  0.65457227  0.20449970  1
  O  O26  1  0.72393595  0.40936561  0.94841239  1
  O  O27  1  0.13330155  0.59063439  0.44841239  1
  O  O28  1  0.98859840  0.59702611  0.67918161  1
  O  O29  1  0.58562451  0.40297389  0.17918161  1
  O  O30  1  0.14099161  0.95369724  0.63276948  1
  O  O31  1  0.09468885  0.04630276  0.13276948  1
  O  O32  1  0.95646651  0.94226550  0.80386070  1
  O  O33  1  0.89873202  0.05773450  0.30386070  1
  O  O34  1  0.63537701  0.04355833  0.58418957  1
  O  O35  1  0.67893533  0.95644167  0.08418957  1
  O  O36  1  0.32020904  0.36910255  0.00587260  1
  O  O37  1  0.68931159  0.63089745  0.50587260  1
  O  O38  1  0.34718487  0.49709944  0.85635370  1
  O  O39  1  0.84428431  0.50290056  0.35635370  1
