# generated using pymatgen
data_NaMg2(SO4)3
_symmetry_space_group_name_H-M   'P 1'
_cell_length_a   8.67528041
_cell_length_b   8.69148710
_cell_length_c   9.02971139
_cell_angle_alpha   61.27858548
_cell_angle_beta   61.29015681
_cell_angle_gamma   60.06166334
_symmetry_Int_Tables_number   1
_chemical_formula_structural   NaMg2(SO4)3
_chemical_formula_sum   'Na2 Mg4 S6 O24'
_cell_volume   490.80579476
_cell_formula_units_Z   2
loop_
 _symmetry_equiv_pos_site_id
 _symmetry_equiv_pos_as_xyz
  1  'x, y, z'
loop_
 _atom_site_type_symbol
 _atom_site_label
 _atom_site_symmetry_multiplicity
 _atom_site_fract_x
 _atom_site_fract_y
 _atom_site_fract_z
 _atom_site_occupancy
  Na  Na0  1  0.50000000  -0.00000000  0.50000000  1
  Na  Na1  1  -0.00000000  0.50000000  0.00000000  1
  Mg  Mg2  1  0.65139280  0.14761133  0.05227203  1
  Mg  Mg3  1  0.34860720  0.85238867  0.94772797  1
  Mg  Mg4  1  0.85127616  0.35238867  0.44772797  1
  Mg  Mg5  1  0.14872384  0.64761133  0.55227203  1
  S  S6  1  0.95159070  0.75000000  0.25000000  1
  S  S7  1  0.04840930  0.25000000  0.75000000  1
  S  S8  1  0.54074777  0.45592234  0.25126993  1
  S  S9  1  0.45925223  0.54407766  0.74873007  1
  S  S10  1  0.24794004  0.04407766  0.24873007  1
  S  S11  1  0.75205996  0.95592234  0.75126993  1
  O  O12  1  0.41101532  0.07158621  0.23574486  1
  O  O13  1  0.58898468  0.92841379  0.76425514  1
  O  O14  1  0.71834639  0.42841379  0.26425514  1
  O  O15  1  0.28165361  0.57158621  0.73574486  1
  O  O16  1  0.77180288  0.91194954  0.24252440  1
  O  O17  1  0.22819712  0.08805046  0.75747560  1
  O  O18  1  0.92627682  0.58805046  0.25747560  1
  O  O19  1  0.07372318  0.41194954  0.74252440  1
  O  O20  1  0.56822055  0.28109181  0.23389403  1
  O  O21  1  0.43177945  0.71890819  0.76610597  1
  O  O22  1  0.08320639  0.21890819  0.26610597  1
  O  O23  1  0.91679361  0.78109181  0.73389403  1
  O  O24  1  0.50746290  0.61650429  0.09219647  1
  O  O25  1  0.49253710  0.38349571  0.90780353  1
  O  O26  1  0.21616366  0.88349571  0.40780353  1
  O  O27  1  0.78383634  0.11650429  0.59219647  1
  O  O28  1  0.28113179  0.01759773  0.08541067  1
  O  O29  1  0.71886821  0.98240227  0.91458933  1
  O  O30  1  0.38414019  0.48240227  0.41458933  1
  O  O31  1  0.61585981  0.51759773  0.58541067  1
  O  O32  1  0.10599453  0.79111124  0.08742159  1
  O  O33  1  0.89400547  0.20888876  0.91257841  1
  O  O34  1  0.98452735  0.70888876  0.41257841  1
  O  O35  1  0.01547265  0.29111124  0.58742159  1
