# generated using pymatgen
data_TbAlNi
_symmetry_space_group_name_H-M   'P 1'
_cell_length_a   5.34460102
_cell_length_b   5.22938548
_cell_length_c   8.52847863
_cell_angle_alpha   90.00000000
_cell_angle_beta   90.00000000
_cell_angle_gamma   120.73277154
_symmetry_Int_Tables_number   1
_chemical_formula_structural   TbAlNi
_chemical_formula_sum   'Tb4 Al4 Ni4'
_cell_volume   204.88669998
_cell_formula_units_Z   4
loop_
 _symmetry_equiv_pos_site_id
 _symmetry_equiv_pos_as_xyz
  1  'x, y, z'
loop_
 _atom_site_type_symbol
 _atom_site_label
 _atom_site_symmetry_multiplicity
 _atom_site_fract_x
 _atom_site_fract_y
 _atom_site_fract_z
 _atom_site_occupancy
  Tb  Tb0  1  0.65942460  0.31885218  0.54126679  1
  Tb  Tb1  1  0.33020674  0.66033458  0.43233418  1
  Tb  Tb2  1  0.33020674  0.66033458  0.06766582  1
  Tb  Tb3  1  0.65942460  0.31885218  0.95873321  1
  Al  Al4  1  0.16246091  0.32488866  0.75000000  1
  Al  Al5  1  0.16044507  0.82700835  0.75000000  1
  Al  Al6  1  0.66654696  0.82695193  0.75000000  1
  Al  Al7  1  0.85850514  0.71698602  0.25000000  1
  Ni  Ni8  1  0.84962736  0.18667701  0.25000000  1
  Ni  Ni9  1  0.33704646  0.18667232  0.25000000  1
  Ni  Ni10  1  0.99305271  0.98622110  0.51116135  1
  Ni  Ni11  1  0.99305271  0.98622110  0.98883865  1
