# generated using pymatgen
data_Na2PbO3
_symmetry_space_group_name_H-M   'P 1'
_cell_length_a   5.81318395
_cell_length_b   5.81881467
_cell_length_c   11.35829064
_cell_angle_alpha   85.03632306
_cell_angle_beta   80.02513276
_cell_angle_gamma   60.03201276
_symmetry_Int_Tables_number   1
_chemical_formula_structural   Na2PbO3
_chemical_formula_sum   'Na8 Pb4 O12'
_cell_volume   327.80623625
_cell_formula_units_Z   4
loop_
 _symmetry_equiv_pos_site_id
 _symmetry_equiv_pos_as_xyz
  1  'x, y, z'
loop_
 _atom_site_type_symbol
 _atom_site_label
 _atom_site_symmetry_multiplicity
 _atom_site_fract_x
 _atom_site_fract_y
 _atom_site_fract_z
 _atom_site_occupancy
  Na  Na0  1  0.33950957  0.84179713  0.99951221  1
  Na  Na1  1  0.66049043  0.15820287  0.00048779  1
  Na  Na2  1  0.81869329  0.84179713  0.50048779  1
  Na  Na3  1  0.18130671  0.15820287  0.49951221  1
  Na  Na4  1  0.41575830  0.16848339  0.75000000  1
  Na  Na5  1  0.58424170  0.83151661  0.25000000  1
  Na  Na6  1  0.50000000  0.50000000  0.50000000  1
  Na  Na7  1  0.00000000  0.50000000  0.00000000  1
  Pb  Pb8  1  0.74982834  0.50034332  0.75000000  1
  Pb  Pb9  1  0.25017166  0.49965668  0.25000000  1
  Pb  Pb10  1  0.08253970  0.83492059  0.75000000  1
  Pb  Pb11  1  0.91746030  0.16507941  0.25000000  1
  O  O12  1  0.18525369  0.83267717  0.36118925  1
  O  O13  1  0.81474631  0.16732283  0.63881075  1
  O  O14  1  0.98206915  0.83267717  0.13881075  1
  O  O15  1  0.01793085  0.16732283  0.86118925  1
  O  O16  1  0.45461659  0.80778545  0.63777598  1
  O  O17  1  0.54538341  0.19221455  0.36222402  1
  O  O18  1  0.73759796  0.80778545  0.86222402  1
  O  O19  1  0.26240204  0.19221455  0.13777598  1
  O  O20  1  0.37849000  0.52970735  0.86074795  1
  O  O21  1  0.62151000  0.47029265  0.13925205  1
  O  O22  1  0.09180265  0.52970735  0.63925205  1
  O  O23  1  0.90819735  0.47029265  0.36074795  1
