# generated using pymatgen
data_Na2BeCl4
_symmetry_space_group_name_H-M   'P 1'
_cell_length_a   6.13086258
_cell_length_b   8.11877174
_cell_length_c   13.66068565
_cell_angle_alpha   90.00000000
_cell_angle_beta   90.00000000
_cell_angle_gamma   90.00000000
_symmetry_Int_Tables_number   1
_chemical_formula_structural   Na2BeCl4
_chemical_formula_sum   'Na8 Be4 Cl16'
_cell_volume   679.96163716
_cell_formula_units_Z   4
loop_
 _symmetry_equiv_pos_site_id
 _symmetry_equiv_pos_as_xyz
  1  'x, y, z'
loop_
 _atom_site_type_symbol
 _atom_site_label
 _atom_site_symmetry_multiplicity
 _atom_site_fract_x
 _atom_site_fract_y
 _atom_site_fract_z
 _atom_site_occupancy
  Na  Na0  1  0.49252045  0.75000000  0.77434169  1
  Na  Na1  1  0.50747955  0.25000000  0.22565831  1
  Na  Na2  1  0.99252045  0.25000000  0.72565831  1
  Na  Na3  1  0.00747955  0.75000000  0.27434169  1
  Na  Na4  1  -0.00000000  0.00000000  0.00000000  1
  Na  Na5  1  0.50000000  0.00000000  0.50000000  1
  Na  Na6  1  0.00000000  0.50000000  0.00000000  1
  Na  Na7  1  0.50000000  0.50000000  0.50000000  1
  Be  Be8  1  0.91130067  0.75000000  0.59275143  1
  Be  Be9  1  0.08869933  0.25000000  0.40724857  1
  Be  Be10  1  0.41130067  0.25000000  0.90724857  1
  Be  Be11  1  0.58869933  0.75000000  0.09275143  1
  Cl  Cl12  1  0.24175749  0.75000000  0.59338929  1
  Cl  Cl13  1  0.75824251  0.25000000  0.40661071  1
  Cl  Cl14  1  0.74175749  0.25000000  0.90661071  1
  Cl  Cl15  1  0.25824251  0.75000000  0.09338929  1
  Cl  Cl16  1  0.71251420  0.75000000  0.95269193  1
  Cl  Cl17  1  0.28748580  0.25000000  0.04730807  1
  Cl  Cl18  1  0.21251420  0.25000000  0.54730807  1
  Cl  Cl19  1  0.78748580  0.75000000  0.45269193  1
  Cl  Cl20  1  0.78609178  0.95248741  0.66188175  1
  Cl  Cl21  1  0.21390822  0.04751259  0.33811825  1
  Cl  Cl22  1  0.28609178  0.04751259  0.83811825  1
  Cl  Cl23  1  0.21390822  0.45248741  0.33811825  1
  Cl  Cl24  1  0.71390822  0.95248741  0.16188175  1
  Cl  Cl25  1  0.78609178  0.54751259  0.66188175  1
  Cl  Cl26  1  0.71390822  0.54751259  0.16188175  1
  Cl  Cl27  1  0.28609178  0.45248741  0.83811825  1
