# generated using pymatgen
data_Rb(Nb2Cl5)3
_symmetry_space_group_name_H-M   'P 1'
_cell_length_a   9.49763982
_cell_length_b   13.72576544
_cell_length_c   18.22276122
_cell_angle_alpha   90.00000000
_cell_angle_beta   90.00000000
_cell_angle_gamma   90.00000000
_symmetry_Int_Tables_number   1
_chemical_formula_structural   Rb(Nb2Cl5)3
_chemical_formula_sum   'Rb4 Nb24 Cl60'
_cell_volume   2375.56245726
_cell_formula_units_Z   4
loop_
 _symmetry_equiv_pos_site_id
 _symmetry_equiv_pos_as_xyz
  1  'x, y, z'
loop_
 _atom_site_type_symbol
 _atom_site_label
 _atom_site_symmetry_multiplicity
 _atom_site_fract_x
 _atom_site_fract_y
 _atom_site_fract_z
 _atom_site_occupancy
  Rb  Rb0  1  0.18241792  0.74515807  0.75000000  1
  Rb  Rb1  1  0.81758208  0.25484193  0.25000000  1
  Rb  Rb2  1  0.18241792  0.25484193  0.75000000  1
  Rb  Rb3  1  0.81758208  0.74515807  0.25000000  1
  Nb  Nb4  1  0.92116756  0.50000000  0.39476546  1
  Nb  Nb5  1  0.07883244  0.50000000  0.60523454  1
  Nb  Nb6  1  0.92116756  0.50000000  0.10523454  1
  Nb  Nb7  1  0.07883244  0.50000000  0.89476546  1
  Nb  Nb8  1  0.85395492  0.60789429  0.97089815  1
  Nb  Nb9  1  0.14604508  0.39210571  0.02910185  1
  Nb  Nb10  1  0.85395492  0.39210571  0.52910185  1
  Nb  Nb11  1  0.14604508  0.60789429  0.02910185  1
  Nb  Nb12  1  0.14604508  0.60789429  0.47089815  1
  Nb  Nb13  1  0.85395492  0.39210571  0.97089815  1
  Nb  Nb14  1  0.14604508  0.39210571  0.47089815  1
  Nb  Nb15  1  0.85395492  0.60789429  0.52910185  1
  Nb  Nb16  1  0.66694367  0.89166558  0.83158294  1
  Nb  Nb17  1  0.33305633  0.10833442  0.16841706  1
  Nb  Nb18  1  0.66694367  0.10833442  0.66841706  1
  Nb  Nb19  1  0.33305633  0.89166558  0.16841706  1
  Nb  Nb20  1  0.33305633  0.89166558  0.33158294  1
  Nb  Nb21  1  0.66694367  0.10833442  0.83158294  1
  Nb  Nb22  1  0.33305633  0.10833442  0.33158294  1
  Nb  Nb23  1  0.66694367  0.89166558  0.66841706  1
  Nb  Nb24  1  0.45094330  0.00000000  0.75000000  1
  Nb  Nb25  1  0.54905670  0.00000000  0.25000000  1
  Nb  Nb26  1  0.88112997  0.00000000  0.75000000  1
  Nb  Nb27  1  0.11887003  0.00000000  0.25000000  1
  Cl  Cl28  1  0.66689999  0.74974006  0.93489477  1
  Cl  Cl29  1  0.33310001  0.25025994  0.06510523  1
  Cl  Cl30  1  0.66689999  0.25025994  0.56510523  1
  Cl  Cl31  1  0.33310001  0.74974006  0.06510523  1
  Cl  Cl32  1  0.33310001  0.74974006  0.43489477  1
  Cl  Cl33  1  0.66689999  0.25025994  0.93489477  1
  Cl  Cl34  1  0.33310001  0.25025994  0.43489477  1
  Cl  Cl35  1  0.66689999  0.74974006  0.56510523  1
  Cl  Cl36  1  0.92056567  0.62294744  0.84097504  1
  Cl  Cl37  1  0.07943433  0.37705256  0.15902496  1
  Cl  Cl38  1  0.92056567  0.37705256  0.65902496  1
  Cl  Cl39  1  0.07943433  0.62294744  0.15902496  1
  Cl  Cl40  1  0.07943433  0.62294744  0.34097504  1
  Cl  Cl41  1  0.92056567  0.37705256  0.84097504  1
  Cl  Cl42  1  0.07943433  0.37705256  0.34097504  1
  Cl  Cl43  1  0.92056567  0.62294744  0.65902496  1
  Cl  Cl44  1  0.40832060  0.87679590  0.84845274  1
  Cl  Cl45  1  0.59167940  0.12320410  0.15154726  1
  Cl  Cl46  1  0.40832060  0.12320410  0.65154726  1
  Cl  Cl47  1  0.59167940  0.87679590  0.15154726  1
  Cl  Cl48  1  0.59167940  0.87679590  0.34845274  1
  Cl  Cl49  1  0.40832060  0.12320410  0.84845274  1
  Cl  Cl50  1  0.59167940  0.12320410  0.34845274  1
  Cl  Cl51  1  0.40832060  0.87679590  0.65154726  1
  Cl  Cl52  1  0.65932447  0.50000000  0.93109235  1
  Cl  Cl53  1  0.34067553  0.50000000  0.06890765  1
  Cl  Cl54  1  0.65932447  0.50000000  0.56890765  1
  Cl  Cl55  1  0.34067553  0.50000000  0.43109235  1
  Cl  Cl56  1  0.65539608  0.74770641  0.75000000  1
  Cl  Cl57  1  0.34460392  0.25229359  0.25000000  1
  Cl  Cl58  1  0.65539608  0.25229359  0.75000000  1
  Cl  Cl59  1  0.34460392  0.74770641  0.25000000  1
  Cl  Cl60  1  0.66976196  0.00000000  0.94012394  1
  Cl  Cl61  1  0.33023804  0.00000000  0.05987606  1
  Cl  Cl62  1  0.66976196  0.00000000  0.55987606  1
  Cl  Cl63  1  0.33023804  0.00000000  0.44012394  1
  Cl  Cl64  1  0.18629912  0.50000000  0.75000000  1
  Cl  Cl65  1  0.81370088  0.50000000  0.25000000  1
  Cl  Cl66  1  0.16725143  0.00000000  0.75000000  1
  Cl  Cl67  1  0.83274857  0.00000000  0.25000000  1
  Cl  Cl68  1  0.73232572  0.62508285  0.40834381  1
  Cl  Cl69  1  0.26767428  0.37491715  0.59165619  1
  Cl  Cl70  1  0.73232572  0.37491715  0.09165619  1
  Cl  Cl71  1  0.26767428  0.62508285  0.59165619  1
  Cl  Cl72  1  0.26767428  0.62508285  0.90834381  1
  Cl  Cl73  1  0.73232572  0.37491715  0.40834381  1
  Cl  Cl74  1  0.26767428  0.37491715  0.90834381  1
  Cl  Cl75  1  0.73232572  0.62508285  0.09165619  1
  Cl  Cl76  1  0.92517592  0.87650750  0.84588010  1
  Cl  Cl77  1  0.07482408  0.12349250  0.15411990  1
  Cl  Cl78  1  0.92517592  0.12349250  0.65411990  1
  Cl  Cl79  1  0.07482408  0.87650750  0.15411990  1
  Cl  Cl80  1  0.07482408  0.87650750  0.34588010  1
  Cl  Cl81  1  0.92517592  0.12349250  0.84588010  1
  Cl  Cl82  1  0.07482408  0.12349250  0.34588010  1
  Cl  Cl83  1  0.92517592  0.87650750  0.65411990  1
  Cl  Cl84  1  -0.00000000  0.75139500  -0.00000000  1
  Cl  Cl85  1  -0.00000000  0.24860500  -0.00000000  1
  Cl  Cl86  1  -0.00000000  0.24860500  0.50000000  1
  Cl  Cl87  1  -0.00000000  0.75139500  0.50000000  1
