# generated using pymatgen
data_Na2Sm2B2O7
_symmetry_space_group_name_H-M   'P 1'
_cell_length_a   6.41507705
_cell_length_b   10.83196267
_cell_length_c   10.46440403
_cell_angle_alpha   117.78637912
_cell_angle_beta   90.00000000
_cell_angle_gamma   90.00000000
_symmetry_Int_Tables_number   1
_chemical_formula_structural   Na2Sm2B2O7
_chemical_formula_sum   'Na8 Sm8 B8 O28'
_cell_volume   643.30295254
_cell_formula_units_Z   4
loop_
 _symmetry_equiv_pos_site_id
 _symmetry_equiv_pos_as_xyz
  1  'x, y, z'
loop_
 _atom_site_type_symbol
 _atom_site_label
 _atom_site_symmetry_multiplicity
 _atom_site_fract_x
 _atom_site_fract_y
 _atom_site_fract_z
 _atom_site_occupancy
  Na  Na0  1  0.26242465  0.89056611  0.95321018  1
  Na  Na1  1  0.73757535  0.10943389  0.04678982  1
  Na  Na2  1  0.76242465  0.10943389  0.54678982  1
  Na  Na3  1  0.23757535  0.89056611  0.45321018  1
  Na  Na4  1  0.94263110  0.97706707  0.73752919  1
  Na  Na5  1  0.05736890  0.02293293  0.26247081  1
  Na  Na6  1  0.44263110  0.02293293  0.76247081  1
  Na  Na7  1  0.55736890  0.97706707  0.23752919  1
  Sm  Sm8  1  0.95966594  0.48244304  0.68087970  1
  Sm  Sm9  1  0.04033406  0.51755696  0.31912030  1
  Sm  Sm10  1  0.45966594  0.51755696  0.81912030  1
  Sm  Sm11  1  0.54033406  0.48244304  0.18087970  1
  Sm  Sm12  1  0.58223738  0.68533839  0.58931114  1
  Sm  Sm13  1  0.41776262  0.31466161  0.41068886  1
  Sm  Sm14  1  0.08223738  0.31466161  0.91068886  1
  Sm  Sm15  1  0.91776262  0.68533839  0.08931114  1
  B  B16  1  0.74905282  0.81818663  0.92022531  1
  B  B17  1  0.25094718  0.18181337  0.07977469  1
  B  B18  1  0.24905282  0.18181337  0.57977469  1
  B  B19  1  0.75094718  0.81818663  0.42022531  1
  B  B20  1  0.65291357  0.29048215  0.85034072  1
  B  B21  1  0.34708643  0.70951785  0.14965928  1
  B  B22  1  0.15291357  0.70951785  0.64965928  1
  B  B23  1  0.84708643  0.29048215  0.35034072  1
  O  O24  1  0.75711820  0.34791525  0.77208292  1
  O  O25  1  0.24288180  0.65208475  0.22791708  1
  O  O26  1  0.25711820  0.65208475  0.72791708  1
  O  O27  1  0.74288180  0.34791525  0.27208292  1
  O  O28  1  0.96127540  0.65119631  0.58805850  1
  O  O29  1  0.03872460  0.34880369  0.41194150  1
  O  O30  1  0.46127540  0.34880369  0.91194150  1
  O  O31  1  0.53872460  0.65119631  0.08805850  1
  O  O32  1  0.64937204  0.87281583  0.84083219  1
  O  O33  1  0.35062796  0.12718417  0.15916781  1
  O  O34  1  0.14937204  0.12718417  0.65916781  1
  O  O35  1  0.85062796  0.87281583  0.34083219  1
  O  O36  1  0.62352724  0.47273037  0.59621882  1
  O  O37  1  0.37647276  0.52726963  0.40378118  1
  O  O38  1  0.12352724  0.52726963  0.90378118  1
  O  O39  1  0.87647276  0.47273037  0.09621882  1
  O  O40  1  0.76204286  0.67107373  0.86538125  1
  O  O41  1  0.23795714  0.32892627  0.13461875  1
  O  O42  1  0.26204286  0.32892627  0.63461875  1
  O  O43  1  0.73795714  0.67107373  0.36538125  1
  O  O44  1  0.24324122  0.81720396  0.63596257  1
  O  O45  1  0.75675878  0.18279604  0.36403743  1
  O  O46  1  0.74324122  0.18279604  0.86403743  1
  O  O47  1  0.25675878  0.81720396  0.13596257  1
  O  O48  1  0.66292827  0.89791929  0.55460670  1
  O  O49  1  0.33707173  0.10208071  0.44539330  1
  O  O50  1  0.16292827  0.10208071  0.94539330  1
  O  O51  1  0.83707173  0.89791929  0.05460670  1
