# generated using pymatgen
data_NaInH12(SeO7)2
_symmetry_space_group_name_H-M   'P 1'
_cell_length_a   7.32833561
_cell_length_b   7.29124938
_cell_length_c   12.75752227
_cell_angle_alpha   93.80576424
_cell_angle_beta   93.45079651
_cell_angle_gamma   106.83998673
_symmetry_Int_Tables_number   1
_chemical_formula_structural   NaInH12(SeO7)2
_chemical_formula_sum   'Na2 In2 H24 Se4 O28'
_cell_volume   648.74373056
_cell_formula_units_Z   2
loop_
 _symmetry_equiv_pos_site_id
 _symmetry_equiv_pos_as_xyz
  1  'x, y, z'
loop_
 _atom_site_type_symbol
 _atom_site_label
 _atom_site_symmetry_multiplicity
 _atom_site_fract_x
 _atom_site_fract_y
 _atom_site_fract_z
 _atom_site_occupancy
  Na  Na0  1  0.41353129  0.08632468  0.25222405  1
  Na  Na1  1  0.58646871  0.91367532  0.74777595  1
  In  In2  1  0.00000000  0.50000000  0.50000000  1
  In  In3  1  0.00000000  0.50000000  -0.00000000  1
  H  H4  1  0.33284882  0.08953549  0.48951994  1
  H  H5  1  0.66715118  0.91046451  0.51048006  1
  H  H6  1  0.79544767  0.22460793  0.12310787  1
  H  H7  1  0.20455233  0.77539207  0.87689213  1
  H  H8  1  0.01752610  0.21924632  0.83129871  1
  H  H9  1  0.98247390  0.78075368  0.16870129  1
  H  H10  1  0.31982840  0.25736089  0.42484012  1
  H  H11  1  0.68017160  0.74263911  0.57515988  1
  H  H12  1  0.27841882  0.48631789  0.66817089  1
  H  H13  1  0.72158118  0.51368211  0.33182911  1
  H  H14  1  0.27481819  0.70342071  0.37574521  1
  H  H15  1  0.72518181  0.29657929  0.62425479  1
  H  H16  1  0.76552148  0.11378819  0.00367522  1
  H  H17  1  0.23447852  0.88621181  0.99632478  1
  H  H18  1  0.25317154  0.18345157  0.08084737  1
  H  H19  1  0.74682846  0.81654843  0.91915263  1
  H  H20  1  0.17257113  0.26919989  0.61864984  1
  H  H21  1  0.82742887  0.73080011  0.38135016  1
  H  H22  1  0.41109902  0.16508151  0.01021165  1
  H  H23  1  0.58890098  0.83491849  0.98978835  1
  H  H24  1  0.61468939  0.26801446  0.50554487  1
  H  H25  1  0.38531061  0.73198554  0.49445513  1
  H  H26  1  0.23012444  0.33518285  0.87866814  1
  H  H27  1  0.76987556  0.66481715  0.12133186  1
  Se  Se28  1  0.39891687  0.58345126  0.18519412  1
  Se  Se29  1  0.60108313  0.41654874  0.81480588  1
  Se  Se30  1  0.91443744  0.10080410  0.31450681  1
  Se  Se31  1  0.08556256  0.89919590  0.68549319  1
  O  O32  1  0.47464901  0.44113741  0.26216533  1
  O  O33  1  0.52535099  0.55886259  0.73783467  1
  O  O34  1  0.09308017  0.34158266  0.87138590  1
  O  O35  1  0.90691983  0.65841734  0.12861410  1
  O  O36  1  0.31433788  0.74099371  0.25277067  1
  O  O37  1  0.68566212  0.25900629  0.74722933  1
  O  O38  1  0.06554619  0.28417447  0.39617723  1
  O  O39  1  0.93445381  0.71582553  0.60382277  1
  O  O40  1  0.75863324  0.18659672  0.24780645  1
  O  O41  1  0.24136676  0.81340328  0.75219355  1
  O  O42  1  0.16499010  0.40670315  0.62300087  1
  O  O43  1  0.83500990  0.59329685  0.37699913  1
  O  O44  1  0.05404333  0.02070855  0.23697957  1
  O  O45  1  0.94595667  0.97929145  0.76302043  1
  O  O46  1  0.20718652  0.06812466  0.61262028  1
  O  O47  1  0.79281348  0.93187534  0.38737972  1
  O  O48  1  0.79438459  0.24351773  0.04542679  1
  O  O49  1  0.20561541  0.75648227  0.95457321  1
  O  O50  1  0.56974889  0.70484809  0.11367932  1
  O  O51  1  0.43025111  0.29515191  0.88632068  1
  O  O52  1  0.40449108  0.17691306  0.44019917  1
  O  O53  1  0.59550892  0.82308694  0.55980083  1
  O  O54  1  0.21617816  0.43313679  0.10267763  1
  O  O55  1  0.78382184  0.56686321  0.89732237  1
  O  O56  1  0.32867784  0.09555051  0.06259813  1
  O  O57  1  0.67132216  0.90444949  0.93740187  1
  O  O58  1  0.25632463  0.70592295  0.45363520  1
  O  O59  1  0.74367537  0.29407705  0.54636480  1
