# generated using pymatgen
data_Na3Sb3(PO7)2
_symmetry_space_group_name_H-M   'P 1'
_cell_length_a   6.39184147
_cell_length_b   7.32592019
_cell_length_c   12.22913584
_cell_angle_alpha   90.00000000
_cell_angle_beta   101.83939554
_cell_angle_gamma   90.00000000
_symmetry_Int_Tables_number   1
_chemical_formula_structural   Na3Sb3(PO7)2
_chemical_formula_sum   'Na6 Sb6 P4 O28'
_cell_volume   560.46089595
_cell_formula_units_Z   2
loop_
 _symmetry_equiv_pos_site_id
 _symmetry_equiv_pos_as_xyz
  1  'x, y, z'
loop_
 _atom_site_type_symbol
 _atom_site_label
 _atom_site_symmetry_multiplicity
 _atom_site_fract_x
 _atom_site_fract_y
 _atom_site_fract_z
 _atom_site_occupancy
  Na  Na0  1  0.59509174  0.70601505  0.06755932  1
  Na  Na1  1  0.40490826  0.29398495  0.93244068  1
  Na  Na2  1  0.90490826  0.20601505  0.43244068  1
  Na  Na3  1  0.09509174  0.79398495  0.56755932  1
  Na  Na4  1  0.50000000  -0.00000000  0.50000000  1
  Na  Na5  1  0.00000000  0.50000000  0.00000000  1
  Sb  Sb6  1  0.22851627  0.74139512  0.25717667  1
  Sb  Sb7  1  0.77148373  0.25860488  0.74282333  1
  Sb  Sb8  1  0.27148373  0.24139512  0.24282333  1
  Sb  Sb9  1  0.72851627  0.75860488  0.75717667  1
  Sb  Sb10  1  0.00000000  -0.00000000  0.00000000  1
  Sb  Sb11  1  0.50000000  0.50000000  0.50000000  1
  P  P12  1  0.75286960  0.73368003  0.33858559  1
  P  P13  1  0.24713040  0.26631997  0.66141441  1
  P  P14  1  0.74713040  0.23368003  0.16141441  1
  P  P15  1  0.25286960  0.76631997  0.83858559  1
  O  O16  1  0.36974656  0.29783643  0.40292080  1
  O  O17  1  0.63025344  0.70216357  0.59707920  1
  O  O18  1  0.13025344  0.79783643  0.09707920  1
  O  O19  1  0.86974656  0.20216357  0.90292080  1
  O  O20  1  0.23750403  0.99708080  0.30549446  1
  O  O21  1  0.76249597  0.00291920  0.69450554  1
  O  O22  1  0.26249597  0.49708080  0.19450554  1
  O  O23  1  0.73750403  0.50291920  0.80549446  1
  O  O24  1  0.54460328  0.76991383  0.24774631  1
  O  O25  1  0.45539672  0.23008617  0.75225369  1
  O  O26  1  0.95539672  0.26991383  0.25225369  1
  O  O27  1  0.04460328  0.73008617  0.74774631  1
  O  O28  1  0.68827667  0.38990422  0.08076096  1
  O  O29  1  0.31172333  0.61009578  0.91923904  1
  O  O30  1  0.81172333  0.88990422  0.41923904  1
  O  O31  1  0.18827667  0.11009578  0.58076096  1
  O  O32  1  0.27698998  0.45114374  0.59835762  1
  O  O33  1  0.72301002  0.54885626  0.40164238  1
  O  O34  1  0.22301002  0.95114374  0.90164238  1
  O  O35  1  0.77698998  0.04885626  0.09835762  1
  O  O36  1  0.30273223  0.68931675  0.42144778  1
  O  O37  1  0.69726777  0.31068325  0.57855222  1
  O  O38  1  0.19726777  0.18931675  0.07855222  1
  O  O39  1  0.80273223  0.81068325  0.92144778  1
  O  O40  1  0.91811114  0.69116935  0.26384307  1
  O  O41  1  0.08188886  0.30883065  0.73615693  1
  O  O42  1  0.58188886  0.19116935  0.23615693  1
  O  O43  1  0.41811114  0.80883065  0.76384307  1
