# generated using pymatgen
data_Ta6Cr3Cu3C2
_symmetry_space_group_name_H-M   'P 1'
_cell_length_a   8.13145518
_cell_length_b   8.17757853
_cell_length_c   8.07321191
_cell_angle_alpha   90.00000000
_cell_angle_beta   60.23665909
_cell_angle_gamma   120.18781334
_symmetry_Int_Tables_number   1
_chemical_formula_structural   Ta6Cr3Cu3C2
_chemical_formula_sum   'Ta12 Cr6 Cu6 C4'
_cell_volume   379.87325419
_cell_formula_units_Z   2
loop_
 _symmetry_equiv_pos_site_id
 _symmetry_equiv_pos_as_xyz
  1  'x, y, z'
loop_
 _atom_site_type_symbol
 _atom_site_label
 _atom_site_symmetry_multiplicity
 _atom_site_fract_x
 _atom_site_fract_y
 _atom_site_fract_z
 _atom_site_occupancy
  Ta  Ta0  1  0.63864515  0.81932258  0.43067742  1
  Ta  Ta1  1  0.86658873  0.43329437  0.81670563  1
  Ta  Ta2  1  0.24793710  0.81823984  0.82138537  1
  Ta  Ta3  1  0.24793710  0.42969727  0.43067753  1
  Ta  Ta4  1  0.24793710  0.42969727  0.82138537  1
  Ta  Ta5  1  0.24793710  0.81823984  0.43067753  1
  Ta  Ta6  1  0.36418525  0.18209262  0.56790738  1
  Ta  Ta7  1  0.13354972  0.56677486  0.18322514  1
  Ta  Ta8  1  0.75084741  0.18338022  0.18510215  1
  Ta  Ta9  1  0.75084741  0.56746718  0.56405045  1
  Ta  Ta10  1  0.75084741  0.56746718  0.18510215  1
  Ta  Ta11  1  0.75084741  0.18338022  0.56405045  1
  Cr  Cr12  1  0.48935130  0.49789551  0.00532435  1
  Cr  Cr13  1  0.48935130  0.99145580  0.00532435  1
  Cr  Cr14  1  0.99899785  0.99949892  0.48382021  1
  Cr  Cr15  1  0.99899785  0.99949892  0.01718194  1
  Cr  Cr16  1  0.10208696  0.89819986  0.19895652  1
  Cr  Cr17  1  0.10208696  0.20388711  0.19895652  1
  Cu  Cu18  1  0.41787882  0.20893941  0.87777652  1
  Cu  Cu19  1  0.41787882  0.20893941  0.20434466  1
  Cu  Cu20  1  0.91249843  0.11866808  0.79375078  1
  Cu  Cu21  1  0.91249843  0.79383035  0.79375078  1
  Cu  Cu22  1  0.58668350  0.79334175  0.11966140  1
  Cu  Cu23  1  0.58668350  0.79334175  0.79365510  1
  C  C24  1  0.49510276  0.99802985  0.50244862  1
  C  C25  1  0.49510276  0.49707292  0.50244862  1
  C  C26  1  0.99834693  0.49917347  0.00039210  1
  C  C27  1  0.99834693  0.49917347  0.50126096  1
