# generated using pymatgen
data_Lu6Al43V4
_symmetry_space_group_name_H-M   'P 1'
_cell_length_a   10.97201936
_cell_length_b   10.97201936
_cell_length_c   17.48394204
_cell_angle_alpha   90.00000000
_cell_angle_beta   90.00000000
_cell_angle_gamma   120.00000025
_symmetry_Int_Tables_number   1
_chemical_formula_structural   Lu6Al43V4
_chemical_formula_sum   'Lu12 Al86 V8'
_cell_volume   1822.81720594
_cell_formula_units_Z   2
loop_
 _symmetry_equiv_pos_site_id
 _symmetry_equiv_pos_as_xyz
  1  'x, y, z'
loop_
 _atom_site_type_symbol
 _atom_site_label
 _atom_site_symmetry_multiplicity
 _atom_site_fract_x
 _atom_site_fract_y
 _atom_site_fract_z
 _atom_site_occupancy
  Lu  Lu0  1  0.46859771  0.46859771  0.90397201  1
  Lu  Lu1  1  0.53140229  0.53140229  0.09602799  1
  Lu  Lu2  1  0.00000000  0.53140229  0.90397201  1
  Lu  Lu3  1  0.53140229  0.53140229  0.40397201  1
  Lu  Lu4  1  0.00000000  0.53140229  0.59602799  1
  Lu  Lu5  1  -0.00000000  0.46859771  0.09602799  1
  Lu  Lu6  1  0.46859771  0.46859771  0.59602799  1
  Lu  Lu7  1  -0.00000000  0.46859771  0.40397201  1
  Lu  Lu8  1  0.53140229  0.00000000  0.90397201  1
  Lu  Lu9  1  0.46859771  -0.00000000  0.09602799  1
  Lu  Lu10  1  0.46859771  -0.00000000  0.40397201  1
  Lu  Lu11  1  0.53140229  0.00000000  0.59602799  1
  Al  Al12  1  0.85338702  0.45153861  0.75000000  1
  Al  Al13  1  0.14661298  0.54846139  0.25000000  1
  Al  Al14  1  0.59815159  0.14661298  0.75000000  1
  Al  Al15  1  0.40184841  0.54846139  0.75000000  1
  Al  Al16  1  0.40184841  0.85338702  0.25000000  1
  Al  Al17  1  0.59815159  0.45153861  0.25000000  1
  Al  Al18  1  0.54846139  0.40184841  0.75000000  1
  Al  Al19  1  0.45153861  0.85338702  0.75000000  1
  Al  Al20  1  0.45153861  0.59815159  0.25000000  1
  Al  Al21  1  0.54846139  0.14661298  0.25000000  1
  Al  Al22  1  0.14661298  0.59815159  0.75000000  1
  Al  Al23  1  0.85338702  0.40184841  0.25000000  1
  Al  Al24  1  0.84367733  0.84367733  0.38463926  1
  Al  Al25  1  0.15632267  0.15632267  0.61536074  1
  Al  Al26  1  0.00000000  0.15632267  0.38463926  1
  Al  Al27  1  0.15632267  0.15632267  0.88463926  1
  Al  Al28  1  0.00000000  0.15632267  0.11536074  1
  Al  Al29  1  1.00000000  0.84367733  0.61536074  1
  Al  Al30  1  0.84367733  0.84367733  0.11536074  1
  Al  Al31  1  1.00000000  0.84367733  0.88463926  1
  Al  Al32  1  0.15632267  0.00000000  0.38463926  1
  Al  Al33  1  0.84367733  1.00000000  0.61536074  1
  Al  Al34  1  0.84367733  1.00000000  0.88463926  1
  Al  Al35  1  0.15632267  0.00000000  0.11536074  1
  Al  Al36  1  0.75307690  0.24692310  0.00000000  1
  Al  Al37  1  0.24692310  0.75307690  0.00000000  1
  Al  Al38  1  0.49384620  0.24692310  0.00000000  1
  Al  Al39  1  0.24692310  0.75307690  0.50000000  1
  Al  Al40  1  0.50615380  0.75307690  0.50000000  1
  Al  Al41  1  0.50615380  0.75307690  0.00000000  1
  Al  Al42  1  0.75307690  0.24692310  0.50000000  1
  Al  Al43  1  0.49384620  0.24692310  0.50000000  1
  Al  Al44  1  0.75307690  0.50615380  0.00000000  1
  Al  Al45  1  0.24692310  0.49384620  0.00000000  1
  Al  Al46  1  0.24692310  0.49384620  0.50000000  1
  Al  Al47  1  0.75307690  0.50615380  0.50000000  1
  Al  Al48  1  0.85388194  0.85388194  0.75000000  1
  Al  Al49  1  0.14611806  0.14611806  0.25000000  1
  Al  Al50  1  0.00000000  0.14611806  0.75000000  1
  Al  Al51  1  1.00000000  0.85388194  0.25000000  1
  Al  Al52  1  0.14611806  0.00000000  0.75000000  1
  Al  Al53  1  0.85388194  1.00000000  0.25000000  1
  Al  Al54  1  0.66666700  0.33333300  0.87300387  1
  Al  Al55  1  0.33333300  0.66666700  0.12699613  1
  Al  Al56  1  0.33333300  0.66666700  0.37300387  1
  Al  Al57  1  0.33333300  0.66666700  0.62699613  1
  Al  Al58  1  0.66666700  0.33333300  0.62699613  1
  Al  Al59  1  0.66666700  0.33333300  0.37300387  1
  Al  Al60  1  0.66666700  0.33333300  0.12699613  1
  Al  Al61  1  0.33333300  0.66666700  0.87300387  1
  Al  Al62  1  0.74602158  0.74602158  0.96997210  1
  Al  Al63  1  0.25397842  0.25397842  0.03002790  1
  Al  Al64  1  0.00000000  0.25397842  0.96997210  1
  Al  Al65  1  0.25397842  0.25397842  0.46997210  1
  Al  Al66  1  0.00000000  0.25397842  0.53002790  1
  Al  Al67  1  1.00000000  0.74602158  0.03002790  1
  Al  Al68  1  0.74602158  0.74602158  0.53002790  1
  Al  Al69  1  1.00000000  0.74602158  0.46997210  1
  Al  Al70  1  0.25397842  0.00000000  0.96997210  1
  Al  Al71  1  0.74602158  1.00000000  0.03002790  1
  Al  Al72  1  0.74602158  1.00000000  0.46997210  1
  Al  Al73  1  0.25397842  0.00000000  0.53002790  1
  Al  Al74  1  0.84261410  0.23492360  0.83521970  1
  Al  Al75  1  0.15738590  0.76507640  0.16478030  1
  Al  Al76  1  0.39230950  0.15738590  0.83521970  1
  Al  Al77  1  0.15738590  0.76507640  0.33521970  1
  Al  Al78  1  0.60769050  0.76507640  0.66478030  1
  Al  Al79  1  0.60769050  0.84261410  0.16478030  1
  Al  Al80  1  0.84261410  0.23492360  0.66478030  1
  Al  Al81  1  0.39230950  0.23492360  0.33521970  1
  Al  Al82  1  0.76507640  0.60769050  0.83521970  1
  Al  Al83  1  0.60769050  0.84261410  0.33521970  1
  Al  Al84  1  0.23492360  0.84261410  0.66478030  1
  Al  Al85  1  0.23492360  0.39230950  0.16478030  1
  Al  Al86  1  0.39230950  0.15738590  0.66478030  1
  Al  Al87  1  0.76507640  0.15738590  0.33521970  1
  Al  Al88  1  0.39230950  0.23492360  0.16478030  1
  Al  Al89  1  0.60769050  0.76507640  0.83521970  1
  Al  Al90  1  0.23492360  0.39230950  0.33521970  1
  Al  Al91  1  0.76507640  0.15738590  0.16478030  1
  Al  Al92  1  0.76507640  0.60769050  0.66478030  1
  Al  Al93  1  0.23492360  0.84261410  0.83521970  1
  Al  Al94  1  0.15738590  0.39230950  0.66478030  1
  Al  Al95  1  0.84261410  0.60769050  0.33521970  1
  Al  Al96  1  0.84261410  0.60769050  0.16478030  1
  Al  Al97  1  0.15738590  0.39230950  0.83521970  1
  V  V98  1  0.00000000  0.00000000  0.00000000  1
  V  V99  1  0.00000000  0.00000000  0.50000000  1
  V  V100  1  0.27077035  0.27077035  0.75000000  1
  V  V101  1  0.72922965  0.72922965  0.25000000  1
  V  V102  1  0.00000000  0.72922965  0.75000000  1
  V  V103  1  -0.00000000  0.27077035  0.25000000  1
  V  V104  1  0.72922965  0.00000000  0.75000000  1
  V  V105  1  0.27077035  -0.00000000  0.25000000  1
