# generated using pymatgen
data_Na3La(BO3)2
_symmetry_space_group_name_H-M   'P 1'
_cell_length_a   6.75107739
_cell_length_b   8.95605827
_cell_length_c   10.42035116
_cell_angle_alpha   90.00000000
_cell_angle_beta   91.10178667
_cell_angle_gamma   90.00000000
_symmetry_Int_Tables_number   1
_chemical_formula_structural   Na3La(BO3)2
_chemical_formula_sum   'Na12 La4 B8 O24'
_cell_volume   629.92964727
_cell_formula_units_Z   4
loop_
 _symmetry_equiv_pos_site_id
 _symmetry_equiv_pos_as_xyz
  1  'x, y, z'
loop_
 _atom_site_type_symbol
 _atom_site_label
 _atom_site_symmetry_multiplicity
 _atom_site_fract_x
 _atom_site_fract_y
 _atom_site_fract_z
 _atom_site_occupancy
  Na  Na0  1  0.71959942  0.43729726  0.10657512  1
  Na  Na1  1  0.28040058  0.56270274  0.89342488  1
  Na  Na2  1  0.78040058  0.93729726  0.39342488  1
  Na  Na3  1  0.21959942  0.06270274  0.60657512  1
  Na  Na4  1  0.97553918  0.73662574  0.15751006  1
  Na  Na5  1  0.02446082  0.26337426  0.84248994  1
  Na  Na6  1  0.52446082  0.23662574  0.34248994  1
  Na  Na7  1  0.47553918  0.76337426  0.65751006  1
  Na  Na8  1  0.52110237  0.81118470  0.10301164  1
  Na  Na9  1  0.47889763  0.18881530  0.89698836  1
  Na  Na10  1  0.97889763  0.31118470  0.39698836  1
  Na  Na11  1  0.02110237  0.68881530  0.60301164  1
  La  La12  1  0.33984461  0.61336959  0.35470412  1
  La  La13  1  0.66015539  0.38663041  0.64529588  1
  La  La14  1  0.16015539  0.11336959  0.14529588  1
  La  La15  1  0.83984461  0.88663041  0.85470412  1
  B  B16  1  0.77865198  0.59865748  0.36075035  1
  B  B17  1  0.22134802  0.40134252  0.63924965  1
  B  B18  1  0.72134802  0.09865748  0.13924965  1
  B  B19  1  0.27865198  0.90134252  0.86075035  1
  B  B20  1  0.24492410  0.93192207  0.37484822  1
  B  B21  1  0.75507590  0.06807793  0.62515178  1
  B  B22  1  0.25507590  0.43192207  0.12515178  1
  B  B23  1  0.74492410  0.56807793  0.87484822  1
  O  O24  1  0.24080182  0.86439890  0.25277547  1
  O  O25  1  0.75919818  0.13560110  0.74722453  1
  O  O26  1  0.25919818  0.36439890  0.24722453  1
  O  O27  1  0.74080182  0.63560110  0.75277547  1
  O  O28  1  0.98212574  0.60107589  0.36910427  1
  O  O29  1  0.01787426  0.39892411  0.63089573  1
  O  O30  1  0.51787426  0.10107589  0.13089573  1
  O  O31  1  0.48212574  0.89892411  0.86910427  1
  O  O32  1  0.30426250  0.84853643  0.48080657  1
  O  O33  1  0.69573750  0.15146357  0.51919343  1
  O  O34  1  0.19573750  0.34853643  0.01919343  1
  O  O35  1  0.80426250  0.65146357  0.98080657  1
  O  O36  1  0.83169922  0.98171718  0.08538275  1
  O  O37  1  0.16830078  0.01828282  0.91461725  1
  O  O38  1  0.66830078  0.48171718  0.41461725  1
  O  O39  1  0.33169922  0.51828282  0.58538275  1
  O  O40  1  0.31503984  0.57995183  0.11557357  1
  O  O41  1  0.68496016  0.42004817  0.88442643  1
  O  O42  1  0.18496016  0.07995183  0.38442643  1
  O  O43  1  0.81503984  0.92004817  0.61557357  1
  O  O44  1  0.67484529  0.71094628  0.29507967  1
  O  O45  1  0.32515471  0.28905372  0.70492033  1
  O  O46  1  0.82515471  0.21094628  0.20492033  1
  O  O47  1  0.17484529  0.78905372  0.79507967  1
