# generated using pymatgen
data_LiMn2TeO6
_symmetry_space_group_name_H-M   'P 1'
_cell_length_a   5.13968294
_cell_length_b   5.18357643
_cell_length_c   8.71334395
_cell_angle_alpha   89.99894882
_cell_angle_beta   87.80556402
_cell_angle_gamma   88.67055909
_symmetry_Int_Tables_number   1
_chemical_formula_structural   LiMn2TeO6
_chemical_formula_sum   'Li2 Mn4 Te2 O12'
_cell_volume   231.90760873
_cell_formula_units_Z   2
loop_
 _symmetry_equiv_pos_site_id
 _symmetry_equiv_pos_as_xyz
  1  'x, y, z'
loop_
 _atom_site_type_symbol
 _atom_site_label
 _atom_site_symmetry_multiplicity
 _atom_site_fract_x
 _atom_site_fract_y
 _atom_site_fract_z
 _atom_site_occupancy
  Li  Li0  1  0.50974951  0.49866864  0.09423467  1
  Li  Li1  1  0.56734210  0.10664144  0.81077265  1
  Mn  Mn2  1  0.51027801  0.00802970  0.31276622  1
  Mn  Mn3  1  0.01676636  0.98710466  0.60580122  1
  Mn  Mn4  1  0.01072474  0.53052994  0.23816980  1
  Mn  Mn5  1  0.01925138  0.49647963  0.81923586  1
  Te  Te6  1  0.51517090  0.49665623  0.50958121  1
  Te  Te7  1  0.01225387  0.00519028  0.00648373  1
  O  O8  1  0.20591605  0.17018958  0.82952919  1
  O  O9  1  0.26999678  0.64697967  0.66202846  1
  O  O10  1  0.69841541  0.32596213  0.32578385  1
  O  O11  1  0.29933249  0.19317064  0.47867994  1
  O  O12  1  0.21276486  0.69058039  0.01445758  1
  O  O13  1  0.76388111  0.84857728  0.15407270  1
  O  O14  1  0.78490980  0.30772307  0.97510216  1
  O  O15  1  0.31789808  0.68801155  0.34877540  1
  O  O16  1  0.83496011  0.83052165  0.83423501  1
  O  O17  1  0.21596474  0.18252090  0.15220530  1
  O  O18  1  0.73824659  0.31969212  0.65146885  1
  O  O19  1  0.74577711  0.77917050  0.48211619  1
