# generated using pymatgen
data_LuSnF7
_symmetry_space_group_name_H-M   'P 1'
_cell_length_a   5.52427986
_cell_length_b   8.85321217
_cell_length_c   11.13633983
_cell_angle_alpha   107.68317301
_cell_angle_beta   90.00000000
_cell_angle_gamma   90.00000000
_symmetry_Int_Tables_number   1
_chemical_formula_structural   LuSnF7
_chemical_formula_sum   'Lu4 Sn4 F28'
_cell_volume   518.91749138
_cell_formula_units_Z   4
loop_
 _symmetry_equiv_pos_site_id
 _symmetry_equiv_pos_as_xyz
  1  'x, y, z'
loop_
 _atom_site_type_symbol
 _atom_site_label
 _atom_site_symmetry_multiplicity
 _atom_site_fract_x
 _atom_site_fract_y
 _atom_site_fract_z
 _atom_site_occupancy
  Lu  Lu0  1  0.74033852  0.91965570  0.73686549  1
  Lu  Lu1  1  0.25966148  0.08034430  0.26313451  1
  Lu  Lu2  1  0.24033852  0.58034430  0.76313451  1
  Lu  Lu3  1  0.75966148  0.41965570  0.23686549  1
  Sn  Sn4  1  0.24282109  0.23128806  0.95817943  1
  Sn  Sn5  1  0.75717891  0.76871194  0.04182057  1
  Sn  Sn6  1  0.74282109  0.26871194  0.54182057  1
  Sn  Sn7  1  0.25717891  0.73128806  0.45817943  1
  F  F8  1  0.05078152  0.87831848  0.58948122  1
  F  F9  1  0.94921848  0.12168152  0.41051878  1
  F  F10  1  0.55078152  0.62168152  0.91051878  1
  F  F11  1  0.44921848  0.37831848  0.08948122  1
  F  F12  1  0.53467480  0.12850373  0.86015594  1
  F  F13  1  0.46532520  0.87149627  0.13984406  1
  F  F14  1  0.03467480  0.37149627  0.63984406  1
  F  F15  1  0.96532520  0.62850373  0.36015594  1
  F  F16  1  0.04148859  0.07999425  0.82449664  1
  F  F17  1  0.95851141  0.92000575  0.17550336  1
  F  F18  1  0.54148859  0.42000575  0.67550336  1
  F  F19  1  0.45851141  0.57999425  0.32449664  1
  F  F20  1  0.22901573  0.38420996  0.85936002  1
  F  F21  1  0.77098427  0.61579004  0.14063998  1
  F  F22  1  0.72901573  0.11579004  0.64063998  1
  F  F23  1  0.27098427  0.88420996  0.35936002  1
  F  F24  1  0.06219025  0.67330931  0.95090263  1
  F  F25  1  0.93780975  0.32669069  0.04909737  1
  F  F26  1  0.56219025  0.82669069  0.54909737  1
  F  F27  1  0.43780975  0.17330931  0.45090263  1
  F  F28  1  0.26268554  0.57695540  0.55651530  1
  F  F29  1  0.73731446  0.42304460  0.44348470  1
  F  F30  1  0.76268554  0.92304460  0.94348470  1
  F  F31  1  0.23731446  0.07695540  0.05651530  1
  F  F32  1  0.41528245  0.79732567  0.76725274  1
  F  F33  1  0.58471755  0.20267433  0.23274726  1
  F  F34  1  0.91528245  0.70267433  0.73274726  1
  F  F35  1  0.08471755  0.29732567  0.26725274  1
