# generated using pymatgen
data_NaAgTe5O14
_symmetry_space_group_name_H-M   'P 1'
_cell_length_a   6.77479806
_cell_length_b   7.45413405
_cell_length_c   25.04422718
_cell_angle_alpha   90.00000000
_cell_angle_beta   90.00000000
_cell_angle_gamma   111.31928212
_symmetry_Int_Tables_number   1
_chemical_formula_structural   NaAgTe5O14
_chemical_formula_sum   'Na4 Ag4 Te20 O56'
_cell_volume   1178.19230550
_cell_formula_units_Z   4
loop_
 _symmetry_equiv_pos_site_id
 _symmetry_equiv_pos_as_xyz
  1  'x, y, z'
loop_
 _atom_site_type_symbol
 _atom_site_label
 _atom_site_symmetry_multiplicity
 _atom_site_fract_x
 _atom_site_fract_y
 _atom_site_fract_z
 _atom_site_occupancy
  Na  Na0  1  0.94964516  0.73612485  0.87339652  1
  Na  Na1  1  0.05035484  0.26387515  0.12660348  1
  Na  Na2  1  0.05035484  0.76387515  0.37339652  1
  Na  Na3  1  0.94964516  0.23612485  0.62660348  1
  Ag  Ag4  1  0.47882346  0.84926163  0.56571565  1
  Ag  Ag5  1  0.52117654  0.15073837  0.43428435  1
  Ag  Ag6  1  0.52117654  0.65073837  0.06571565  1
  Ag  Ag7  1  0.47882346  0.34926163  0.93428435  1
  Te  Te8  1  0.93191354  0.72797263  0.62533773  1
  Te  Te9  1  0.06808646  0.27202737  0.37466227  1
  Te  Te10  1  0.06808646  0.77202737  0.12533773  1
  Te  Te11  1  0.93191354  0.22797263  0.87466227  1
  Te  Te12  1  0.39886425  0.60622223  0.81187392  1
  Te  Te13  1  0.60113575  0.39377777  0.18812608  1
  Te  Te14  1  0.60113575  0.89377777  0.31187392  1
  Te  Te15  1  0.39886425  0.10622223  0.68812608  1
  Te  Te16  1  0.86734307  0.94919569  0.75072475  1
  Te  Te17  1  0.13265693  0.05080431  0.24927525  1
  Te  Te18  1  0.13265693  0.55080431  0.25072475  1
  Te  Te19  1  0.86734307  0.44919569  0.74927525  1
  Te  Te20  1  0.47095690  0.82938083  0.92869789  1
  Te  Te21  1  0.52904310  0.17061917  0.07130211  1
  Te  Te22  1  0.52904310  0.67061917  0.42869789  1
  Te  Te23  1  0.47095690  0.32938083  0.57130211  1
  Te  Te24  1  -0.00000000  0.50000000  0.00000000  1
  Te  Te25  1  -0.00000000  -0.00000000  0.50000000  1
  Te  Te26  1  -0.00000000  -0.00000000  0.00000000  1
  Te  Te27  1  -0.00000000  0.50000000  0.50000000  1
  O  O28  1  0.64096116  0.59147111  0.60475856  1
  O  O29  1  0.35903884  0.40852889  0.39524144  1
  O  O30  1  0.35903884  0.90852889  0.10475856  1
  O  O31  1  0.64096116  0.09147111  0.89524144  1
  O  O32  1  0.56918743  0.86316679  0.76257518  1
  O  O33  1  0.43081257  0.13683321  0.23742482  1
  O  O34  1  0.43081257  0.63683321  0.26257518  1
  O  O35  1  0.56918743  0.36316679  0.73742482  1
  O  O36  1  0.70725325  0.93844151  0.48159115  1
  O  O37  1  0.29274675  0.06155849  0.51840885  1
  O  O38  1  0.29274675  0.56155849  0.98159115  1
  O  O39  1  0.70725325  0.43844151  0.01840885  1
  O  O40  1  0.86912190  0.69806591  0.77666881  1
  O  O41  1  0.13087810  0.30193409  0.22333119  1
  O  O42  1  0.13087810  0.80193409  0.27666881  1
  O  O43  1  0.86912190  0.19806591  0.72333119  1
  O  O44  1  0.92170378  0.51716368  0.67391080  1
  O  O45  1  0.07829622  0.48283632  0.32608920  1
  O  O46  1  0.07829622  0.98283632  0.17391080  1
  O  O47  1  0.92170378  0.01716368  0.82608920  1
  O  O48  1  0.97323057  0.73965252  0.47335276  1
  O  O49  1  0.02676943  0.26034748  0.52664724  1
  O  O50  1  0.02676943  0.76034748  0.97335276  1
  O  O51  1  0.97323057  0.23965252  0.02664724  1
  O  O52  1  0.22433938  0.86192992  0.64260171  1
  O  O53  1  0.77566062  0.13807008  0.35739829  1
  O  O54  1  0.77566062  0.63807008  0.14260171  1
  O  O55  1  0.22433938  0.36192992  0.85739829  1
  O  O56  1  0.82495807  0.95872556  0.25671995  1
  O  O57  1  0.17504193  0.04127444  0.74328005  1
  O  O58  1  0.17504193  0.54127444  0.75671995  1
  O  O59  1  0.82495807  0.45872556  0.24328005  1
  O  O60  1  0.95675145  0.41918871  0.42493009  1
  O  O61  1  0.04324855  0.58081129  0.57506991  1
  O  O62  1  0.04324855  0.08081129  0.92493009  1
  O  O63  1  0.95675145  0.91918871  0.07506991  1
  O  O64  1  0.69260718  0.89383247  0.99310806  1
  O  O65  1  0.30739282  0.10616753  0.00689194  1
  O  O66  1  0.30739282  0.60616753  0.49310806  1
  O  O67  1  0.69260718  0.39383247  0.50689194  1
  O  O68  1  0.70995828  0.73725874  0.35466050  1
  O  O69  1  0.29004172  0.26274126  0.64533950  1
  O  O70  1  0.29004172  0.76274126  0.85466050  1
  O  O71  1  0.70995828  0.23725874  0.14533950  1
  O  O72  1  0.82202996  0.87377943  0.67534246  1
  O  O73  1  0.17797004  0.12622057  0.32465754  1
  O  O74  1  0.17797004  0.62622057  0.17534246  1
  O  O75  1  0.82202996  0.37377943  0.82465754  1
  O  O76  1  0.91913036  0.92829956  0.57508430  1
  O  O77  1  0.08086964  0.07170044  0.42491570  1
  O  O78  1  0.08086964  0.57170044  0.07508430  1
  O  O79  1  0.91913036  0.42829956  0.92491570  1
  O  O80  1  0.60422157  0.67729875  0.89471668  1
  O  O81  1  0.39577843  0.32270125  0.10528332  1
  O  O82  1  0.39577843  0.82270125  0.39471668  1
  O  O83  1  0.60422157  0.17729875  0.60528332  1
