# generated using pymatgen
data_Mg2Ta2Mn2O9
_symmetry_space_group_name_H-M   'P 1'
_cell_length_a   5.29940962
_cell_length_b   5.29940962
_cell_length_c   14.44829649
_cell_angle_alpha   90.00000000
_cell_angle_beta   90.00000000
_cell_angle_gamma   119.99999055
_symmetry_Int_Tables_number   1
_chemical_formula_structural   Mg2Ta2Mn2O9
_chemical_formula_sum   'Mg4 Ta4 Mn4 O18'
_cell_volume   351.40043778
_cell_formula_units_Z   2
loop_
 _symmetry_equiv_pos_site_id
 _symmetry_equiv_pos_as_xyz
  1  'x, y, z'
loop_
 _atom_site_type_symbol
 _atom_site_label
 _atom_site_symmetry_multiplicity
 _atom_site_fract_x
 _atom_site_fract_y
 _atom_site_fract_z
 _atom_site_occupancy
  Mg  Mg0  1  0.66666700  0.33333300  0.69197323  1
  Mg  Mg1  1  0.33333300  0.66666700  0.30802677  1
  Mg  Mg2  1  0.33333300  0.66666700  0.80802677  1
  Mg  Mg3  1  0.66666700  0.33333300  0.19197323  1
  Ta  Ta4  1  -0.00000000  -0.00000000  0.85450122  1
  Ta  Ta5  1  -0.00000000  -0.00000000  0.14549878  1
  Ta  Ta6  1  -0.00000000  -0.00000000  0.64549878  1
  Ta  Ta7  1  -0.00000000  -0.00000000  0.35450122  1
  Mn  Mn8  1  0.66666700  0.33333300  0.98044108  1
  Mn  Mn9  1  0.33333300  0.66666700  0.01955892  1
  Mn  Mn10  1  0.33333300  0.66666700  0.51955892  1
  Mn  Mn11  1  0.66666700  0.33333300  0.48044108  1
  O  O12  1  0.71303439  0.71303439  0.75000000  1
  O  O13  1  0.28696561  0.28696561  0.25000000  1
  O  O14  1  0.00000000  0.28696561  0.75000000  1
  O  O15  1  1.00000000  0.71303439  0.25000000  1
  O  O16  1  0.28696561  0.00000000  0.75000000  1
  O  O17  1  0.71303439  1.00000000  0.25000000  1
  O  O18  1  0.65746250  0.96601833  0.91172661  1
  O  O19  1  0.34253750  0.03398167  0.08827339  1
  O  O20  1  0.30855583  0.34253750  0.91172661  1
  O  O21  1  0.69144417  0.03398167  0.58827339  1
  O  O22  1  0.69144417  0.65746250  0.08827339  1
  O  O23  1  0.30855583  0.96601833  0.41172661  1
  O  O24  1  0.03398167  0.69144417  0.91172661  1
  O  O25  1  0.96601833  0.65746250  0.58827339  1
  O  O26  1  0.96601833  0.30855583  0.08827339  1
  O  O27  1  0.03398167  0.34253750  0.41172661  1
  O  O28  1  0.34253750  0.30855583  0.58827339  1
  O  O29  1  0.65746250  0.69144417  0.41172661  1
