# generated using pymatgen
data_Tb3Ga15Ru4
_symmetry_space_group_name_H-M   'P 1'
_cell_length_a   8.80910782
_cell_length_b   9.68202580
_cell_length_c   17.82422338
_cell_angle_alpha   90.00000000
_cell_angle_beta   90.00000000
_cell_angle_gamma   90.00000000
_symmetry_Int_Tables_number   1
_chemical_formula_structural   Tb3Ga15Ru4
_chemical_formula_sum   'Tb12 Ga60 Ru16'
_cell_volume   1520.22817585
_cell_formula_units_Z   4
loop_
 _symmetry_equiv_pos_site_id
 _symmetry_equiv_pos_as_xyz
  1  'x, y, z'
loop_
 _atom_site_type_symbol
 _atom_site_label
 _atom_site_symmetry_multiplicity
 _atom_site_fract_x
 _atom_site_fract_y
 _atom_site_fract_z
 _atom_site_occupancy
  Tb  Tb0  1  0.37567119  0.25000000  0.16805806  1
  Tb  Tb1  1  0.62432881  0.75000000  0.83194194  1
  Tb  Tb2  1  0.12432881  0.75000000  0.66805806  1
  Tb  Tb3  1  0.87567119  0.25000000  0.33194194  1
  Tb  Tb4  1  0.37532315  0.25000000  0.74833478  1
  Tb  Tb5  1  0.62467685  0.75000000  0.25166522  1
  Tb  Tb6  1  0.12467685  0.75000000  0.24833478  1
  Tb  Tb7  1  0.87532315  0.25000000  0.75166522  1
  Tb  Tb8  1  0.12576491  0.25000000  0.52459315  1
  Tb  Tb9  1  0.87423509  0.75000000  0.47540685  1
  Tb  Tb10  1  0.37423509  0.75000000  0.02459315  1
  Tb  Tb11  1  0.62576491  0.25000000  0.97540685  1
  Ga  Ga12  1  0.12647393  0.06049643  0.25279992  1
  Ga  Ga13  1  0.87352607  0.93950357  0.74720008  1
  Ga  Ga14  1  0.37352607  0.93950357  0.75279992  1
  Ga  Ga15  1  0.87352607  0.56049643  0.74720008  1
  Ga  Ga16  1  0.62647393  0.06049643  0.24720008  1
  Ga  Ga17  1  0.12647393  0.43950357  0.25279992  1
  Ga  Ga18  1  0.62647393  0.43950357  0.24720008  1
  Ga  Ga19  1  0.37352607  0.56049643  0.75279992  1
  Ga  Ga20  1  0.00751836  0.25000000  0.16837880  1
  Ga  Ga21  1  0.99248164  0.75000000  0.83162120  1
  Ga  Ga22  1  0.49248164  0.75000000  0.66837880  1
  Ga  Ga23  1  0.50751836  0.25000000  0.33162120  1
  Ga  Ga24  1  0.13282506  0.25000000  0.04178818  1
  Ga  Ga25  1  0.86717494  0.75000000  0.95821182  1
  Ga  Ga26  1  0.36717494  0.75000000  0.54178818  1
  Ga  Ga27  1  0.63282506  0.25000000  0.45821182  1
  Ga  Ga28  1  0.37446507  0.57728864  0.33157299  1
  Ga  Ga29  1  0.62553493  0.42271136  0.66842701  1
  Ga  Ga30  1  0.12553493  0.42271136  0.83157299  1
  Ga  Ga31  1  0.62553493  0.07728864  0.66842701  1
  Ga  Ga32  1  0.87446507  0.57728864  0.16842701  1
  Ga  Ga33  1  0.37446507  0.92271136  0.33157299  1
  Ga  Ga34  1  0.87446507  0.92271136  0.16842701  1
  Ga  Ga35  1  0.12553493  0.07728864  0.83157299  1
  Ga  Ga36  1  0.22134321  0.25000000  0.35916114  1
  Ga  Ga37  1  0.77865679  0.75000000  0.64083886  1
  Ga  Ga38  1  0.27865679  0.75000000  0.85916114  1
  Ga  Ga39  1  0.72134321  0.25000000  0.14083886  1
  Ga  Ga40  1  0.12413259  0.08685184  0.67178805  1
  Ga  Ga41  1  0.87586741  0.91314816  0.32821195  1
  Ga  Ga42  1  0.37586741  0.91314816  0.17178805  1
  Ga  Ga43  1  0.87586741  0.58685184  0.32821195  1
  Ga  Ga44  1  0.62413259  0.08685184  0.82821195  1
  Ga  Ga45  1  0.12413259  0.41314816  0.67178805  1
  Ga  Ga46  1  0.62413259  0.41314816  0.82821195  1
  Ga  Ga47  1  0.37586741  0.58685184  0.17178805  1
  Ga  Ga48  1  0.37751809  0.06121808  0.46526411  1
  Ga  Ga49  1  0.62248191  0.93878192  0.53473589  1
  Ga  Ga50  1  0.12248191  0.93878192  0.96526411  1
  Ga  Ga51  1  0.62248191  0.56121808  0.53473589  1
  Ga  Ga52  1  0.87751809  0.06121808  0.03473589  1
  Ga  Ga53  1  0.37751809  0.43878192  0.46526411  1
  Ga  Ga54  1  0.87751809  0.43878192  0.03473589  1
  Ga  Ga55  1  0.12248191  0.56121808  0.96526411  1
  Ga  Ga56  1  0.45103940  0.25000000  0.57762689  1
  Ga  Ga57  1  0.54896060  0.75000000  0.42237311  1
  Ga  Ga58  1  0.04896060  0.75000000  0.07762689  1
  Ga  Ga59  1  0.95103940  0.25000000  0.92237311  1
  Ga  Ga60  1  0.30452166  0.25000000  0.91812892  1
  Ga  Ga61  1  0.69547834  0.75000000  0.08187108  1
  Ga  Ga62  1  0.19547834  0.75000000  0.41812892  1
  Ga  Ga63  1  0.80452166  0.25000000  0.58187108  1
  Ga  Ga64  1  0.37370682  0.06864055  0.03291208  1
  Ga  Ga65  1  0.62629318  0.93135945  0.96708792  1
  Ga  Ga66  1  0.12629318  0.93135945  0.53291208  1
  Ga  Ga67  1  0.62629318  0.56864055  0.96708792  1
  Ga  Ga68  1  0.87370682  0.06864055  0.46708792  1
  Ga  Ga69  1  0.37370682  0.43135945  0.03291208  1
  Ga  Ga70  1  0.87370682  0.43135945  0.46708792  1
  Ga  Ga71  1  0.12629318  0.56864055  0.53291208  1
  Ru  Ru72  1  0.11782338  0.00378117  0.39021992  1
  Ru  Ru73  1  0.88217662  0.99621883  0.60978008  1
  Ru  Ru74  1  0.38217662  0.99621883  0.89021992  1
  Ru  Ru75  1  0.88217662  0.50378117  0.60978008  1
  Ru  Ru76  1  0.61782338  0.00378117  0.10978008  1
  Ru  Ru77  1  0.11782338  0.49621883  0.39021992  1
  Ru  Ru78  1  0.61782338  0.49621883  0.10978008  1
  Ru  Ru79  1  0.38217662  0.50378117  0.89021992  1
  Ru  Ru80  1  0.13018531  0.00480790  0.11335344  1
  Ru  Ru81  1  0.86981469  0.99519210  0.88664656  1
  Ru  Ru82  1  0.36981469  0.99519210  0.61335344  1
  Ru  Ru83  1  0.86981469  0.50480790  0.88664656  1
  Ru  Ru84  1  0.63018531  0.00480790  0.38664656  1
  Ru  Ru85  1  0.13018531  0.49519210  0.11335344  1
  Ru  Ru86  1  0.63018531  0.49519210  0.38664656  1
  Ru  Ru87  1  0.36981469  0.50480790  0.61335344  1
