# generated using pymatgen
data_MnZn13
_symmetry_space_group_name_H-M   'P 1'
_cell_length_a   5.17824858
_cell_length_b   6.61372953
_cell_length_c   6.61372953
_cell_angle_alpha   70.19328387
_cell_angle_beta   81.45649651
_cell_angle_gamma   81.45649651
_symmetry_Int_Tables_number   1
_chemical_formula_structural   MnZn13
_chemical_formula_sum   'Mn1 Zn13'
_cell_volume   209.56185799
_cell_formula_units_Z   1
loop_
 _symmetry_equiv_pos_site_id
 _symmetry_equiv_pos_as_xyz
  1  'x, y, z'
loop_
 _atom_site_type_symbol
 _atom_site_label
 _atom_site_symmetry_multiplicity
 _atom_site_fract_x
 _atom_site_fract_y
 _atom_site_fract_z
 _atom_site_occupancy
  Mn  Mn0  1  0.50000000  0.00000000  0.00000000  1
  Zn  Zn1  1  0.19760319  0.99701625  0.35632506  1
  Zn  Zn2  1  0.80239681  0.00298375  0.64367494  1
  Zn  Zn3  1  0.80239681  0.64367494  0.00298375  1
  Zn  Zn4  1  0.19760319  0.35632506  0.99701625  1
  Zn  Zn5  1  0.32115309  0.21897731  0.62608849  1
  Zn  Zn6  1  0.67884691  0.78102269  0.37391151  1
  Zn  Zn7  1  0.67884691  0.37391151  0.78102269  1
  Zn  Zn8  1  0.32115309  0.62608849  0.21897731  1
  Zn  Zn9  1  -0.00000000  0.00000000  0.00000000  1
  Zn  Zn10  1  0.06663637  0.61299413  0.61299413  1
  Zn  Zn11  1  0.93336363  0.38700587  0.38700587  1
  Zn  Zn12  1  0.36307673  0.77914986  0.77914986  1
  Zn  Zn13  1  0.63692327  0.22085014  0.22085014  1
