# generated using pymatgen
data_Lu6InCo2
_symmetry_space_group_name_H-M   'P 1'
_cell_length_a   8.23600909
_cell_length_b   8.23600909
_cell_length_c   8.23600909
_cell_angle_alpha   106.41601512
_cell_angle_beta   110.46333181
_cell_angle_gamma   111.57892640
_symmetry_Int_Tables_number   1
_chemical_formula_structural   Lu6InCo2
_chemical_formula_sum   'Lu12 In2 Co4'
_cell_volume   429.10553252
_cell_formula_units_Z   2
loop_
 _symmetry_equiv_pos_site_id
 _symmetry_equiv_pos_as_xyz
  1  'x, y, z'
loop_
 _atom_site_type_symbol
 _atom_site_label
 _atom_site_symmetry_multiplicity
 _atom_site_fract_x
 _atom_site_fract_y
 _atom_site_fract_z
 _atom_site_occupancy
  Lu  Lu0  1  0.78985493  0.76440059  0.55425552  1
  Lu  Lu1  1  0.21014507  0.23559941  0.44574448  1
  Lu  Lu2  1  0.21014507  0.76440059  0.97454566  1
  Lu  Lu3  1  0.78985493  0.23559941  0.02545434  1
  Lu  Lu4  1  0.52724615  0.71328549  0.81396066  1
  Lu  Lu5  1  0.47275385  0.28671451  0.18603934  1
  Lu  Lu6  1  0.10067517  0.28671451  0.81396066  1
  Lu  Lu7  1  0.89932483  0.71328549  0.18603934  1
  Lu  Lu8  1  0.69526857  0.37777209  0.68250353  1
  Lu  Lu9  1  0.30473143  0.62222791  0.31749647  1
  Lu  Lu10  1  0.30473143  0.98723496  0.68250353  1
  Lu  Lu11  1  0.69526857  0.01276504  0.31749647  1
  In  In12  1  0.00000000  0.50000000  0.50000000  1
  In  In13  1  0.00000000  0.00000000  0.00000000  1
  Co  Co14  1  0.62886269  0.00000000  0.62886269  1
  Co  Co15  1  0.37113731  -0.00000000  0.37113731  1
  Co  Co16  1  0.50000000  0.38553568  0.88553568  1
  Co  Co17  1  0.50000000  0.61446432  0.11446432  1
