# generated using pymatgen
data_LiGa(PO3)4
_symmetry_space_group_name_H-M   'P 1'
_cell_length_a   8.38356633
_cell_length_b   12.69074695
_cell_length_c   9.20569822
_cell_angle_alpha   90.00000000
_cell_angle_beta   90.00000000
_cell_angle_gamma   90.00000000
_symmetry_Int_Tables_number   1
_chemical_formula_structural   LiGa(PO3)4
_chemical_formula_sum   'Li4 Ga4 P16 O48'
_cell_volume   979.42846808
_cell_formula_units_Z   4
loop_
 _symmetry_equiv_pos_site_id
 _symmetry_equiv_pos_as_xyz
  1  'x, y, z'
loop_
 _atom_site_type_symbol
 _atom_site_label
 _atom_site_symmetry_multiplicity
 _atom_site_fract_x
 _atom_site_fract_y
 _atom_site_fract_z
 _atom_site_occupancy
  Li  Li0  1  0.99775540  -0.00000000  0.75000000  1
  Li  Li1  1  0.00224460  -0.00000000  0.25000000  1
  Li  Li2  1  0.50224460  0.50000000  0.25000000  1
  Li  Li3  1  0.49775540  0.50000000  0.75000000  1
  Ga  Ga4  1  0.62896327  -0.00000000  0.75000000  1
  Ga  Ga5  1  0.37103673  -0.00000000  0.25000000  1
  Ga  Ga6  1  0.87103673  0.50000000  0.25000000  1
  Ga  Ga7  1  0.12896327  0.50000000  0.75000000  1
  P  P8  1  0.81903719  0.86188412  0.99479594  1
  P  P9  1  0.18096281  0.13811588  0.00520406  1
  P  P10  1  0.68096281  0.63811588  0.49479594  1
  P  P11  1  0.81903719  0.13811588  0.50520406  1
  P  P12  1  0.31903719  0.36188412  0.50520406  1
  P  P13  1  0.18096281  0.86188412  0.49479594  1
  P  P14  1  0.68096281  0.36188412  0.00520406  1
  P  P15  1  0.31903719  0.63811588  0.99479594  1
  P  P16  1  0.96437378  0.64992755  0.98972788  1
  P  P17  1  0.03562622  0.35007245  0.01027212  1
  P  P18  1  0.53562622  0.85007245  0.48972788  1
  P  P19  1  0.96437378  0.35007245  0.51027212  1
  P  P20  1  0.46437378  0.14992755  0.51027212  1
  P  P21  1  0.03562622  0.64992755  0.48972788  1
  P  P22  1  0.53562622  0.14992755  0.01027212  1
  P  P23  1  0.46437378  0.85007245  0.98972788  1
  O  O24  1  0.63104676  0.87502029  0.62388759  1
  O  O25  1  0.36895324  0.12497971  0.37611241  1
  O  O26  1  0.86895324  0.62497971  0.12388759  1
  O  O27  1  0.63104676  0.12497971  0.87611241  1
  O  O28  1  0.13104676  0.37502029  0.87611241  1
  O  O29  1  0.36895324  0.87502029  0.12388759  1
  O  O30  1  0.86895324  0.37502029  0.37611241  1
  O  O31  1  0.13104676  0.62497971  0.62388759  1
  O  O32  1  0.96479193  0.56887096  0.87026256  1
  O  O33  1  0.03520807  0.43112904  0.12973744  1
  O  O34  1  0.53520807  0.93112904  0.37026256  1
  O  O35  1  0.96479193  0.43112904  0.62973744  1
  O  O36  1  0.46479193  0.06887096  0.62973744  1
  O  O37  1  0.03520807  0.56887096  0.37026256  1
  O  O38  1  0.53520807  0.06887096  0.12973744  1
  O  O39  1  0.46479193  0.93112904  0.87026256  1
  O  O40  1  0.89725728  0.75714561  0.92322892  1
  O  O41  1  0.10274272  0.24285439  0.07677108  1
  O  O42  1  0.60274272  0.74285439  0.42322892  1
  O  O43  1  0.89725728  0.24285439  0.57677108  1
  O  O44  1  0.39725728  0.25714561  0.57677108  1
  O  O45  1  0.10274272  0.75714561  0.42322892  1
  O  O46  1  0.60274272  0.25714561  0.07677108  1
  O  O47  1  0.39725728  0.74285439  0.92322892  1
  O  O48  1  0.59491996  0.60521517  0.62695962  1
  O  O49  1  0.40508004  0.39478483  0.37304038  1
  O  O50  1  0.90508004  0.89478483  0.12695962  1
  O  O51  1  0.59491996  0.39478483  0.87304038  1
  O  O52  1  0.09491996  0.10521517  0.87304038  1
  O  O53  1  0.40508004  0.60521517  0.12695962  1
  O  O54  1  0.90508004  0.10521517  0.37304038  1
  O  O55  1  0.09491996  0.89478483  0.62695962  1
  O  O56  1  0.80709413  0.93788663  0.86725778  1
  O  O57  1  0.19290587  0.06211337  0.13274222  1
  O  O58  1  0.69290587  0.56211337  0.36725778  1
  O  O59  1  0.80709413  0.06211337  0.63274222  1
  O  O60  1  0.30709413  0.43788663  0.63274222  1
  O  O61  1  0.19290587  0.93788663  0.36725778  1
  O  O62  1  0.69290587  0.43788663  0.13274222  1
  O  O63  1  0.30709413  0.56211337  0.86725778  1
  O  O64  1  0.85717463  0.67979587  0.53559952  1
  O  O65  1  0.14282537  0.32020413  0.46440048  1
  O  O66  1  0.64282537  0.82020413  0.03559952  1
  O  O67  1  0.85717463  0.32020413  0.96440048  1
  O  O68  1  0.35717463  0.17979587  0.96440048  1
  O  O69  1  0.14282537  0.67979587  0.03559952  1
  O  O70  1  0.64282537  0.17979587  0.46440048  1
  O  O71  1  0.35717463  0.82020413  0.53559952  1
