# generated using pymatgen
data_SrEuScO4
_symmetry_space_group_name_H-M   'P 1'
_cell_length_a   4.07084218
_cell_length_b   4.07084218
_cell_length_c   6.86005314
_cell_angle_alpha   72.73281527
_cell_angle_beta   72.73281527
_cell_angle_gamma   89.97650183
_symmetry_Int_Tables_number   1
_chemical_formula_structural   SrEuScO4
_chemical_formula_sum   'Sr1 Eu1 Sc1 O4'
_cell_volume   103.18635988
_cell_formula_units_Z   1
loop_
 _symmetry_equiv_pos_site_id
 _symmetry_equiv_pos_as_xyz
  1  'x, y, z'
loop_
 _atom_site_type_symbol
 _atom_site_label
 _atom_site_symmetry_multiplicity
 _atom_site_fract_x
 _atom_site_fract_y
 _atom_site_fract_z
 _atom_site_occupancy
  Sr  Sr0  1  0.14283850  0.14283850  0.71432300  1
  Eu  Eu1  1  0.85996941  0.85996941  0.28006118  1
  Sc  Sc2  1  0.50162924  0.50162924  0.99674151  1
  O  O3  1  0.33139620  0.33139620  0.33720760  1
  O  O4  1  0.67750831  0.67750831  0.64498339  1
  O  O5  1  0.49332917  0.99332917  0.01334166  1
  O  O6  1  0.99332917  0.49332917  0.01334166  1
