# generated using pymatgen
data_Na4CaSi6(HO8)2
_symmetry_space_group_name_H-M   'P 1'
_cell_length_a   9.18384820
_cell_length_b   10.37284386
_cell_length_c   16.08661129
_cell_angle_alpha   90.00000000
_cell_angle_beta   90.00000000
_cell_angle_gamma   90.00000000
_symmetry_Int_Tables_number   1
_chemical_formula_structural   Na4CaSi6(HO8)2
_chemical_formula_sum   'Na16 Ca4 Si24 H8 O64'
_cell_volume   1532.45279330
_cell_formula_units_Z   4
loop_
 _symmetry_equiv_pos_site_id
 _symmetry_equiv_pos_as_xyz
  1  'x, y, z'
loop_
 _atom_site_type_symbol
 _atom_site_label
 _atom_site_symmetry_multiplicity
 _atom_site_fract_x
 _atom_site_fract_y
 _atom_site_fract_z
 _atom_site_occupancy
  Na  Na0  1  0.70304279  0.68054373  0.54393953  1
  Na  Na1  1  0.29695721  0.31945627  0.45606047  1
  Na  Na2  1  0.79695721  0.18054373  0.45606047  1
  Na  Na3  1  0.29695721  0.81945627  0.04393953  1
  Na  Na4  1  0.20304279  0.81945627  0.54393953  1
  Na  Na5  1  0.70304279  0.18054373  0.95606047  1
  Na  Na6  1  0.20304279  0.31945627  0.95606047  1
  Na  Na7  1  0.79695721  0.68054373  0.04393953  1
  Na  Na8  1  0.99981104  0.65222940  0.69322298  1
  Na  Na9  1  0.00018896  0.34777060  0.30677702  1
  Na  Na10  1  0.50018896  0.15222940  0.30677702  1
  Na  Na11  1  0.00018896  0.84777060  0.19322298  1
  Na  Na12  1  0.49981104  0.84777060  0.69322298  1
  Na  Na13  1  0.99981104  0.15222940  0.80677702  1
  Na  Na14  1  0.49981104  0.34777060  0.80677702  1
  Na  Na15  1  0.50018896  0.65222940  0.19322298  1
  Ca  Ca16  1  -0.00000000  0.00000000  -0.00000000  1
  Ca  Ca17  1  0.50000000  0.50000000  0.00000000  1
  Ca  Ca18  1  0.00000000  0.50000000  0.50000000  1
  Ca  Ca19  1  0.50000000  0.00000000  0.50000000  1
  Si  Si20  1  0.50718048  0.79858309  0.88709148  1
  Si  Si21  1  0.49281952  0.20141691  0.11290852  1
  Si  Si22  1  0.99281952  0.29858309  0.11290852  1
  Si  Si23  1  0.49281952  0.70141691  0.38709148  1
  Si  Si24  1  0.00718048  0.70141691  0.88709148  1
  Si  Si25  1  0.50718048  0.29858309  0.61290852  1
  Si  Si26  1  0.00718048  0.20141691  0.61290852  1
  Si  Si27  1  0.99281952  0.79858309  0.38709148  1
  Si  Si28  1  0.80239125  0.91575440  0.82091840  1
  Si  Si29  1  0.19760875  0.08424560  0.17908160  1
  Si  Si30  1  0.69760875  0.41575440  0.17908160  1
  Si  Si31  1  0.19760875  0.58424560  0.32091840  1
  Si  Si32  1  0.30239125  0.58424560  0.82091840  1
  Si  Si33  1  0.80239125  0.41575440  0.67908160  1
  Si  Si34  1  0.30239125  0.08424560  0.67908160  1
  Si  Si35  1  0.69760875  0.91575440  0.32091840  1
  Si  Si36  1  0.82936936  0.95108864  0.62727262  1
  Si  Si37  1  0.17063064  0.04891136  0.37272738  1
  Si  Si38  1  0.67063064  0.45108864  0.37272738  1
  Si  Si39  1  0.17063064  0.54891136  0.12727262  1
  Si  Si40  1  0.32936936  0.54891136  0.62727262  1
  Si  Si41  1  0.82936936  0.45108864  0.87272738  1
  Si  Si42  1  0.32936936  0.04891136  0.87272738  1
  Si  Si43  1  0.67063064  0.95108864  0.12727262  1
  H  H44  1  0.94491475  0.79570579  0.55471448  1
  H  H45  1  0.05508525  0.20429421  0.44528552  1
  H  H46  1  0.55508525  0.29570579  0.44528552  1
  H  H47  1  0.05508525  0.70429421  0.05471448  1
  H  H48  1  0.44491475  0.70429421  0.55471448  1
  H  H49  1  0.94491475  0.29570579  0.94528552  1
  H  H50  1  0.44491475  0.20429421  0.94528552  1
  H  H51  1  0.55508525  0.79570579  0.05471448  1
  O  O52  1  0.67585216  0.90783044  0.59015730  1
  O  O53  1  0.32414784  0.09216956  0.40984270  1
  O  O54  1  0.82414784  0.40783044  0.40984270  1
  O  O55  1  0.32414784  0.59216956  0.09015730  1
  O  O56  1  0.17585216  0.59216956  0.59015730  1
  O  O57  1  0.67585216  0.40783044  0.90984270  1
  O  O58  1  0.17585216  0.09216956  0.90984270  1
  O  O59  1  0.82414784  0.90783044  0.09015730  1
  O  O60  1  0.56122157  0.72319906  0.96836843  1
  O  O61  1  0.43877843  0.27680094  0.03163157  1
  O  O62  1  0.93877843  0.22319906  0.03163157  1
  O  O63  1  0.43877843  0.77680094  0.46836843  1
  O  O64  1  0.06122157  0.77680094  0.96836843  1
  O  O65  1  0.56122157  0.22319906  0.53163157  1
  O  O66  1  0.06122157  0.27680094  0.53163157  1
  O  O67  1  0.93877843  0.72319906  0.46836843  1
  O  O68  1  0.63438490  0.85774261  0.82497538  1
  O  O69  1  0.36561510  0.14225739  0.17502462  1
  O  O70  1  0.86561510  0.35774261  0.17502462  1
  O  O71  1  0.36561510  0.64225739  0.32497538  1
  O  O72  1  0.13438490  0.64225739  0.82497538  1
  O  O73  1  0.63438490  0.35774261  0.67502462  1
  O  O74  1  0.13438490  0.14225739  0.67502462  1
  O  O75  1  0.86561510  0.85774261  0.32497538  1
  O  O76  1  0.95387543  0.83552066  0.61291067  1
  O  O77  1  0.04612457  0.16447934  0.38708933  1
  O  O78  1  0.54612457  0.33552066  0.38708933  1
  O  O79  1  0.04612457  0.66447934  0.11291067  1
  O  O80  1  0.45387543  0.66447934  0.61291067  1
  O  O81  1  0.95387543  0.33552066  0.88708933  1
  O  O82  1  0.45387543  0.16447934  0.88708933  1
  O  O83  1  0.54612457  0.83552066  0.11291067  1
  O  O84  1  0.91436067  0.79061691  0.82052136  1
  O  O85  1  0.08563933  0.20938309  0.17947864  1
  O  O86  1  0.58563933  0.29061691  0.17947864  1
  O  O87  1  0.08563933  0.70938309  0.32052136  1
  O  O88  1  0.41436067  0.70938309  0.82052136  1
  O  O89  1  0.91436067  0.29061691  0.67947864  1
  O  O90  1  0.41436067  0.20938309  0.67947864  1
  O  O91  1  0.58563933  0.79061691  0.32052136  1
  O  O92  1  0.83835790  0.52043601  0.60988174  1
  O  O93  1  0.16164210  0.47956399  0.39011826  1
  O  O94  1  0.66164210  0.02043601  0.39011826  1
  O  O95  1  0.16164210  0.97956399  0.10988174  1
  O  O96  1  0.33835790  0.97956399  0.60988174  1
  O  O97  1  0.83835790  0.02043601  0.89011826  1
  O  O98  1  0.33835790  0.47956399  0.89011826  1
  O  O99  1  0.66164210  0.52043601  0.10988174  1
  O  O100  1  0.89613434  0.58383125  0.91674833  1
  O  O101  1  0.10386566  0.41616875  0.08325167  1
  O  O102  1  0.60386566  0.08383125  0.08325167  1
  O  O103  1  0.10386566  0.91616875  0.41674833  1
  O  O104  1  0.39613434  0.91616875  0.91674833  1
  O  O105  1  0.89613434  0.08383125  0.58325167  1
  O  O106  1  0.39613434  0.41616875  0.58325167  1
  O  O107  1  0.60386566  0.58383125  0.41674833  1
  O  O108  1  0.82323445  0.98190482  0.72821044  1
  O  O109  1  0.17676555  0.01809518  0.27178956  1
  O  O110  1  0.67676555  0.48190482  0.27178956  1
  O  O111  1  0.17676555  0.51809518  0.22821044  1
  O  O112  1  0.32323445  0.51809518  0.72821044  1
  O  O113  1  0.82323445  0.48190482  0.77178956  1
  O  O114  1  0.32323445  0.01809518  0.77178956  1
  O  O115  1  0.67676555  0.98190482  0.22821044  1
