# generated using pymatgen
data_LiNd6B3O14
_symmetry_space_group_name_H-M   'P 1'
_cell_length_a   8.71192336
_cell_length_b   9.25131222
_cell_length_c   16.09829398
_cell_angle_alpha   90.00000000
_cell_angle_beta   90.00000000
_cell_angle_gamma   92.42662045
_symmetry_Int_Tables_number   1
_chemical_formula_structural   LiNd6B3O14
_chemical_formula_sum   'Li4 Nd24 B12 O56'
_cell_volume   1296.30625608
_cell_formula_units_Z   4
loop_
 _symmetry_equiv_pos_site_id
 _symmetry_equiv_pos_as_xyz
  1  'x, y, z'
loop_
 _atom_site_type_symbol
 _atom_site_label
 _atom_site_symmetry_multiplicity
 _atom_site_fract_x
 _atom_site_fract_y
 _atom_site_fract_z
 _atom_site_occupancy
  Li  Li0  1  0.67911085  0.55983962  0.39635228  1
  Li  Li1  1  0.32088915  0.44016038  0.60364772  1
  Li  Li2  1  0.82088915  0.94016038  0.89635228  1
  Li  Li3  1  0.17911085  0.05983962  0.10364772  1
  Nd  Nd4  1  0.14090237  0.69432077  0.17818326  1
  Nd  Nd5  1  0.85909763  0.30567923  0.82181674  1
  Nd  Nd6  1  0.35909763  0.80567923  0.67818326  1
  Nd  Nd7  1  0.64090237  0.19432077  0.32181674  1
  Nd  Nd8  1  0.96005616  0.94564227  0.67502388  1
  Nd  Nd9  1  0.03994384  0.05435773  0.32497612  1
  Nd  Nd10  1  0.53994384  0.55435773  0.17502388  1
  Nd  Nd11  1  0.46005616  0.44564227  0.82497612  1
  Nd  Nd12  1  0.72776929  0.57594388  0.64338097  1
  Nd  Nd13  1  0.27223071  0.42405612  0.35661903  1
  Nd  Nd14  1  0.77223071  0.92405612  0.14338097  1
  Nd  Nd15  1  0.22776929  0.07594388  0.85661903  1
  Nd  Nd16  1  0.05161302  0.71613972  0.48581177  1
  Nd  Nd17  1  0.94838698  0.28386028  0.51418823  1
  Nd  Nd18  1  0.44838698  0.78386028  0.98581177  1
  Nd  Nd19  1  0.55161302  0.21613972  0.01418823  1
  Nd  Nd20  1  0.70082847  0.93714339  0.49550093  1
  Nd  Nd21  1  0.29917153  0.06285661  0.50449907  1
  Nd  Nd22  1  0.79917153  0.56285661  0.99550093  1
  Nd  Nd23  1  0.20082847  0.43714339  0.00449907  1
  Nd  Nd24  1  0.42211831  0.83314946  0.33417857  1
  Nd  Nd25  1  0.57788169  0.16685054  0.66582143  1
  Nd  Nd26  1  0.07788169  0.66685054  0.83417857  1
  Nd  Nd27  1  0.92211831  0.33314946  0.16582143  1
  B  B28  1  0.42896113  0.97317894  0.17300224  1
  B  B29  1  0.57103887  0.02682106  0.82699776  1
  B  B30  1  0.07103887  0.52682106  0.67300224  1
  B  B31  1  0.92896113  0.47317894  0.32699776  1
  B  B32  1  0.06334268  0.85600496  0.00076082  1
  B  B33  1  0.93665732  0.14399504  0.99923918  1
  B  B34  1  0.43665732  0.64399504  0.50076082  1
  B  B35  1  0.56334268  0.35600496  0.49923918  1
  B  B36  1  0.82046352  0.77863297  0.30685683  1
  B  B37  1  0.17953648  0.22136703  0.69314317  1
  B  B38  1  0.67953648  0.72136703  0.80685683  1
  B  B39  1  0.32046352  0.27863297  0.19314317  1
  O  O40  1  0.93602783  0.82165760  0.24986503  1
  O  O41  1  0.06397217  0.17834240  0.75013497  1
  O  O42  1  0.56397217  0.67834240  0.74986503  1
  O  O43  1  0.43602783  0.32165760  0.25013497  1
  O  O44  1  0.70544315  0.40407656  0.53252972  1
  O  O45  1  0.29455685  0.59592344  0.46747028  1
  O  O46  1  0.79455685  0.09592344  0.03252972  1
  O  O47  1  0.20544315  0.90407656  0.96747028  1
  O  O48  1  0.84592335  0.77981749  0.57889545  1
  O  O49  1  0.15407665  0.22018251  0.42110455  1
  O  O50  1  0.65407665  0.72018251  0.07889545  1
  O  O51  1  0.34592335  0.27981749  0.92110455  1
  O  O52  1  0.03071631  0.88249875  0.08362586  1
  O  O53  1  0.96928369  0.11750125  0.91637414  1
  O  O54  1  0.46928369  0.61750125  0.58362586  1
  O  O55  1  0.53071631  0.38249875  0.41637414  1
  O  O56  1  0.46517500  0.98995343  0.08969100  1
  O  O57  1  0.53482500  0.01004657  0.91030900  1
  O  O58  1  0.03482500  0.51004657  0.58969100  1
  O  O59  1  0.96517500  0.48995343  0.41030900  1
  O  O60  1  0.28572934  0.92654673  0.20288518  1
  O  O61  1  0.71427066  0.07345327  0.79711482  1
  O  O62  1  0.21427066  0.57345327  0.70288518  1
  O  O63  1  0.78572934  0.42654673  0.29711482  1
  O  O64  1  0.45793065  0.28303488  0.54992973  1
  O  O65  1  0.54206935  0.71696512  0.45007027  1
  O  O66  1  0.04206935  0.21696512  0.04992973  1
  O  O67  1  0.95793065  0.78303488  0.95007027  1
  O  O68  1  0.19234959  0.89477348  0.40194552  1
  O  O69  1  0.80765041  0.10522652  0.59805448  1
  O  O70  1  0.30765041  0.60522652  0.90194552  1
  O  O71  1  0.69234959  0.39477348  0.09805448  1
  O  O72  1  0.00909898  0.53605973  0.08913702  1
  O  O73  1  0.99090102  0.46394027  0.91086298  1
  O  O74  1  0.49090102  0.96394027  0.58913702  1
  O  O75  1  0.50909898  0.03605973  0.41086298  1
  O  O76  1  0.16188338  0.87704446  0.58590126  1
  O  O77  1  0.83811662  0.12295554  0.41409874  1
  O  O78  1  0.33811662  0.62295554  0.08590126  1
  O  O79  1  0.66188338  0.37704446  0.91409874  1
  O  O80  1  0.15519326  0.87943407  0.76731582  1
  O  O81  1  0.84480674  0.12056593  0.23268418  1
  O  O82  1  0.34480674  0.62056593  0.26731582  1
  O  O83  1  0.65519326  0.37943407  0.73268418  1
  O  O84  1  0.82125843  0.76991914  0.77580058  1
  O  O85  1  0.17874157  0.23008086  0.22419942  1
  O  O86  1  0.67874157  0.73008086  0.27580058  1
  O  O87  1  0.32125843  0.26991914  0.72419942  1
  O  O88  1  0.85017878  0.79834034  0.39063318  1
  O  O89  1  0.14982122  0.20165966  0.60936682  1
  O  O90  1  0.64982122  0.70165966  0.89063318  1
  O  O91  1  0.35017878  0.29834034  0.10936682  1
  O  O92  1  0.54647725  0.99595050  0.23116832  1
  O  O93  1  0.45352275  0.00404950  0.76883168  1
  O  O94  1  0.95352275  0.50404950  0.73116832  1
  O  O95  1  0.04647725  0.49595050  0.26883168  1
