# generated using pymatgen
data_LaAl3Ni2
_symmetry_space_group_name_H-M   'P 1'
_cell_length_a   5.13388919
_cell_length_b   6.42882026
_cell_length_c   6.42882026
_cell_angle_alpha   105.02246402
_cell_angle_beta   90.00000000
_cell_angle_gamma   90.00000000
_symmetry_Int_Tables_number   1
_chemical_formula_structural   LaAl3Ni2
_chemical_formula_sum   'La2 Al6 Ni4'
_cell_volume   204.93077193
_cell_formula_units_Z   2
loop_
 _symmetry_equiv_pos_site_id
 _symmetry_equiv_pos_as_xyz
  1  'x, y, z'
loop_
 _atom_site_type_symbol
 _atom_site_label
 _atom_site_symmetry_multiplicity
 _atom_site_fract_x
 _atom_site_fract_y
 _atom_site_fract_z
 _atom_site_occupancy
  La  La0  1  0.25000000  0.65341936  0.65341936  1
  La  La1  1  0.75000000  0.34658064  0.34658064  1
  Al  Al2  1  0.25000000  0.06024026  0.06024026  1
  Al  Al3  1  0.75000000  0.93975974  0.93975974  1
  Al  Al4  1  0.25000000  0.47534382  0.08173221  1
  Al  Al5  1  0.75000000  0.52465618  0.91826779  1
  Al  Al6  1  0.25000000  0.08173221  0.47534382  1
  Al  Al7  1  0.75000000  0.91826779  0.52465618  1
  Ni  Ni8  1  0.00000000  0.20050479  0.79949521  1
  Ni  Ni9  1  0.00000000  0.79949521  0.20050479  1
  Ni  Ni10  1  0.50000000  0.79949521  0.20050479  1
  Ni  Ni11  1  0.50000000  0.20050479  0.79949521  1
