# generated using pymatgen
data_Nd12InPt7
_symmetry_space_group_name_H-M   'P 1'
_cell_length_a   11.27988691
_cell_length_b   11.27988691
_cell_length_c   11.27988691
_cell_angle_alpha   98.86137325
_cell_angle_beta   115.02273474
_cell_angle_gamma   115.02273474
_symmetry_Int_Tables_number   1
_chemical_formula_structural   Nd12InPt7
_chemical_formula_sum   'Nd24 In2 Pt14'
_cell_volume   1077.19798048
_cell_formula_units_Z   2
loop_
 _symmetry_equiv_pos_site_id
 _symmetry_equiv_pos_as_xyz
  1  'x, y, z'
loop_
 _atom_site_type_symbol
 _atom_site_label
 _atom_site_symmetry_multiplicity
 _atom_site_fract_x
 _atom_site_fract_y
 _atom_site_fract_z
 _atom_site_occupancy
  Nd  Nd0  1  0.72033818  0.78582248  0.65011923  1
  Nd  Nd1  1  0.27966182  0.21417752  0.34988077  1
  Nd  Nd2  1  0.27966182  0.92978104  0.06548430  1
  Nd  Nd3  1  0.13570325  0.06548430  0.78582248  1
  Nd  Nd4  1  0.86429675  0.71417752  0.43451570  1
  Nd  Nd5  1  0.72033818  0.07021896  0.93451570  1
  Nd  Nd6  1  0.86429675  0.93451570  0.21417752  1
  Nd  Nd7  1  0.13570325  0.28582248  0.56548430  1
  Nd  Nd8  1  0.86429675  0.65011923  0.92978104  1
  Nd  Nd9  1  0.13570325  0.57021896  0.84988077  1
  Nd  Nd10  1  0.13570325  0.34988077  0.07021896  1
  Nd  Nd11  1  0.86429675  0.42978104  0.15011923  1
  Nd  Nd12  1  0.72033818  0.43451570  0.57021896  1
  Nd  Nd13  1  0.27966182  0.56548430  0.42978104  1
  Nd  Nd14  1  0.27966182  0.84988077  0.71417752  1
  Nd  Nd15  1  0.72033818  0.15011923  0.28582248  1
  Nd  Nd16  1  0.14602040  0.82301020  0.32301020  1
  Nd  Nd17  1  0.85397960  0.17698980  0.67698980  1
  Nd  Nd18  1  0.50000000  0.67698980  0.82301020  1
  Nd  Nd19  1  0.50000000  0.32301020  0.17698980  1
  Nd  Nd20  1  0.50000000  0.86602050  0.36602050  1
  Nd  Nd21  1  0.50000000  0.13397950  0.63397950  1
  Nd  Nd22  1  0.50000000  0.36602050  0.86602050  1
  Nd  Nd23  1  0.50000000  0.63397950  0.13397950  1
  In  In24  1  -0.00000000  0.00000000  0.00000000  1
  In  In25  1  -0.00000000  0.50000000  0.50000000  1
  Pt  Pt26  1  0.24832621  0.37416311  0.87416311  1
  Pt  Pt27  1  0.75167379  0.62583689  0.12583689  1
  Pt  Pt28  1  0.50000000  0.12583689  0.37416311  1
  Pt  Pt29  1  0.50000000  0.87416311  0.62583689  1
  Pt  Pt30  1  0.14894132  0.62927587  0.12927587  1
  Pt  Pt31  1  0.85105868  0.37072413  0.87072413  1
  Pt  Pt32  1  0.85105868  0.98033455  0.48033455  1
  Pt  Pt33  1  0.50000000  0.48033455  0.62927587  1
  Pt  Pt34  1  0.50000000  0.87072413  0.01966545  1
  Pt  Pt35  1  0.14894132  0.01966545  0.51966545  1
  Pt  Pt36  1  0.50000000  0.51966545  0.37072413  1
  Pt  Pt37  1  0.50000000  0.12927587  0.98033455  1
  Pt  Pt38  1  -0.00000000  0.75000000  0.75000000  1
  Pt  Pt39  1  -0.00000000  0.25000000  0.25000000  1
