# generated using pymatgen
data_Li2Nd(NO3)5
_symmetry_space_group_name_H-M   'P 1'
_cell_length_a   9.04326071
_cell_length_b   10.62223139
_cell_length_c   11.84150392
_cell_angle_alpha   90.00000000
_cell_angle_beta   90.00000000
_cell_angle_gamma   90.00000000
_symmetry_Int_Tables_number   1
_chemical_formula_structural   Li2Nd(NO3)5
_chemical_formula_sum   'Li8 Nd4 N20 O60'
_cell_volume   1137.49022210
_cell_formula_units_Z   4
loop_
 _symmetry_equiv_pos_site_id
 _symmetry_equiv_pos_as_xyz
  1  'x, y, z'
loop_
 _atom_site_type_symbol
 _atom_site_label
 _atom_site_symmetry_multiplicity
 _atom_site_fract_x
 _atom_site_fract_y
 _atom_site_fract_z
 _atom_site_occupancy
  Li  Li0  1  0.11688288  0.22810855  0.32104361  1
  Li  Li1  1  0.88311712  0.77189145  0.67895639  1
  Li  Li2  1  0.88311712  0.77189145  0.32104361  1
  Li  Li3  1  0.38311712  0.72810855  0.17895639  1
  Li  Li4  1  0.11688288  0.22810855  0.67895639  1
  Li  Li5  1  0.61688288  0.27189145  0.82104361  1
  Li  Li6  1  0.61688288  0.27189145  0.17895639  1
  Li  Li7  1  0.38311712  0.72810855  0.82104361  1
  Nd  Nd8  1  -0.00000000  0.00000000  0.00000000  1
  Nd  Nd9  1  0.50000000  0.50000000  0.50000000  1
  Nd  Nd10  1  -0.00000000  0.50000000  0.00000000  1
  Nd  Nd11  1  0.50000000  0.00000000  0.50000000  1
  N  N12  1  -0.00000000  0.00000000  0.26007977  1
  N  N13  1  -0.00000000  0.00000000  0.73992023  1
  N  N14  1  0.50000000  0.50000000  0.23992023  1
  N  N15  1  0.50000000  0.50000000  0.76007977  1
  N  N16  1  0.17475639  0.24910123  0.00000000  1
  N  N17  1  0.82524361  0.75089877  0.00000000  1
  N  N18  1  0.32524361  0.74910123  0.50000000  1
  N  N19  1  0.67475639  0.25089877  0.50000000  1
  N  N20  1  0.39997443  0.15494509  0.29135659  1
  N  N21  1  0.60002557  0.84505491  0.70864341  1
  N  N22  1  0.60002557  0.84505491  0.29135659  1
  N  N23  1  0.10002557  0.65494509  0.20864341  1
  N  N24  1  0.39997443  0.15494509  0.70864341  1
  N  N25  1  0.89997443  0.34505491  0.79135659  1
  N  N26  1  0.89997443  0.34505491  0.20864341  1
  N  N27  1  0.10002557  0.65494509  0.79135659  1
  N  N28  1  0.70636505  0.14683301  0.00000000  1
  N  N29  1  0.29363495  0.85316699  0.00000000  1
  N  N30  1  0.79363495  0.64683301  0.50000000  1
  N  N31  1  0.20636505  0.35316699  0.50000000  1
  O  O32  1  0.31195648  0.11244419  0.36810395  1
  O  O33  1  0.68804352  0.88755581  0.63189605  1
  O  O34  1  0.68804352  0.88755581  0.36810395  1
  O  O35  1  0.18804352  0.61244419  0.13189605  1
  O  O36  1  0.31195648  0.11244419  0.63189605  1
  O  O37  1  0.81195648  0.38755581  0.86810395  1
  O  O38  1  0.81195648  0.38755581  0.13189605  1
  O  O39  1  0.18804352  0.61244419  0.86810395  1
  O  O40  1  0.03049911  0.24720294  0.00000000  1
  O  O41  1  0.96950089  0.75279706  0.00000000  1
  O  O42  1  0.46950089  0.74720294  0.50000000  1
  O  O43  1  0.53049911  0.25279706  0.50000000  1
  O  O44  1  0.03648673  0.37435357  0.20136904  1
  O  O45  1  0.96351327  0.62564643  0.79863096  1
  O  O46  1  0.96351327  0.62564643  0.20136904  1
  O  O47  1  0.46351327  0.87435357  0.29863096  1
  O  O48  1  0.03648673  0.37435357  0.79863096  1
  O  O49  1  0.53648673  0.12564643  0.70136904  1
  O  O50  1  0.53648673  0.12564643  0.29863096  1
  O  O51  1  0.46351327  0.87435357  0.70136904  1
  O  O52  1  0.24057235  0.14593901  0.00000000  1
  O  O53  1  0.75942765  0.85406099  0.00000000  1
  O  O54  1  0.25942765  0.64593901  0.50000000  1
  O  O55  1  0.74057235  0.35406099  0.50000000  1
  O  O56  1  0.59701912  0.21996757  0.00000000  1
  O  O57  1  0.40298088  0.78003243  0.00000000  1
  O  O58  1  0.90298088  0.71996757  0.50000000  1
  O  O59  1  0.09701912  0.28003243  0.50000000  1
  O  O60  1  -0.00000000  0.00000000  0.36363507  1
  O  O61  1  -0.00000000  0.00000000  0.63636493  1
  O  O62  1  0.50000000  0.50000000  0.13636493  1
  O  O63  1  0.50000000  0.50000000  0.86363507  1
  O  O64  1  0.23753965  0.35416967  0.00000000  1
  O  O65  1  0.76246035  0.64583033  0.00000000  1
  O  O66  1  0.26246035  0.85416967  0.50000000  1
  O  O67  1  0.73753965  0.14583033  0.50000000  1
  O  O68  1  0.26426729  0.38940065  0.40763674  1
  O  O69  1  0.73573271  0.61059935  0.59236326  1
  O  O70  1  0.73573271  0.61059935  0.40763674  1
  O  O71  1  0.23573271  0.88940065  0.09236326  1
  O  O72  1  0.26426729  0.38940065  0.59236326  1
  O  O73  1  0.76426729  0.11059935  0.90763674  1
  O  O74  1  0.76426729  0.11059935  0.09236326  1
  O  O75  1  0.23573271  0.88940065  0.90763674  1
  O  O76  1  0.05769513  0.09005409  0.20195731  1
  O  O77  1  0.94230487  0.90994591  0.79804269  1
  O  O78  1  0.94230487  0.90994591  0.20195731  1
  O  O79  1  0.44230487  0.59005409  0.29804269  1
  O  O80  1  0.05769513  0.09005409  0.79804269  1
  O  O81  1  0.55769513  0.40994591  0.70195731  1
  O  O82  1  0.55769513  0.40994591  0.29804269  1
  O  O83  1  0.44230487  0.59005409  0.70195731  1
  O  O84  1  0.35352625  0.22424194  0.21514396  1
  O  O85  1  0.64647375  0.77575806  0.78485604  1
  O  O86  1  0.64647375  0.77575806  0.21514396  1
  O  O87  1  0.14647375  0.72424194  0.28485604  1
  O  O88  1  0.35352625  0.22424194  0.78485604  1
  O  O89  1  0.85352625  0.27575806  0.71514396  1
  O  O90  1  0.85352625  0.27575806  0.28485604  1
  O  O91  1  0.14647375  0.72424194  0.71514396  1
