# generated using pymatgen
data_KYBeF6
_symmetry_space_group_name_H-M   'P 1'
_cell_length_a   5.86557153
_cell_length_b   6.46365659
_cell_length_c   7.13354583
_cell_angle_alpha   112.89920578
_cell_angle_beta   90.00000000
_cell_angle_gamma   90.00000000
_symmetry_Int_Tables_number   1
_chemical_formula_structural   KYBeF6
_chemical_formula_sum   'K2 Y2 Be2 F12'
_cell_volume   249.14011301
_cell_formula_units_Z   2
loop_
 _symmetry_equiv_pos_site_id
 _symmetry_equiv_pos_as_xyz
  1  'x, y, z'
loop_
 _atom_site_type_symbol
 _atom_site_label
 _atom_site_symmetry_multiplicity
 _atom_site_fract_x
 _atom_site_fract_y
 _atom_site_fract_z
 _atom_site_occupancy
  K  K0  1  0.75000000  0.07100279  0.20352310  1
  K  K1  1  0.25000000  0.92899721  0.79647690  1
  Y  Y2  1  0.75000000  0.38823138  0.81919518  1
  Y  Y3  1  0.25000000  0.61176862  0.18080482  1
  Be  Be4  1  0.75000000  0.76771467  0.53590613  1
  Be  Be5  1  0.25000000  0.23228533  0.46409387  1
  F  F6  1  0.96480036  0.76799215  0.40544789  1
  F  F7  1  0.03519964  0.23200785  0.59455211  1
  F  F8  1  0.46480036  0.23200785  0.59455211  1
  F  F9  1  0.53519964  0.76799215  0.40544789  1
  F  F10  1  0.75000000  0.55895317  0.59144441  1
  F  F11  1  0.25000000  0.44104683  0.40855559  1
  F  F12  1  0.99885392  0.67969249  0.96562974  1
  F  F13  1  0.00114608  0.32030751  0.03437026  1
  F  F14  1  0.49885392  0.32030751  0.03437026  1
  F  F15  1  0.50114608  0.67969249  0.96562974  1
  F  F16  1  0.75000000  0.98642199  0.73619424  1
  F  F17  1  0.25000000  0.01357801  0.26380576  1
