# generated using pymatgen
data_KTm(CO3)2
_symmetry_space_group_name_H-M   'P 1'
_cell_length_a   6.35530400
_cell_length_b   6.35530400
_cell_length_c   6.95959329
_cell_angle_alpha   103.84086759
_cell_angle_beta   103.84086759
_cell_angle_gamma   96.13314709
_symmetry_Int_Tables_number   1
_chemical_formula_structural   KTm(CO3)2
_chemical_formula_sum   'K2 Tm2 C4 O12'
_cell_volume   260.96639035
_cell_formula_units_Z   2
loop_
 _symmetry_equiv_pos_site_id
 _symmetry_equiv_pos_as_xyz
  1  'x, y, z'
loop_
 _atom_site_type_symbol
 _atom_site_label
 _atom_site_symmetry_multiplicity
 _atom_site_fract_x
 _atom_site_fract_y
 _atom_site_fract_z
 _atom_site_occupancy
  K  K0  1  0.62027133  0.37972867  0.75000000  1
  K  K1  1  0.37972867  0.62027133  0.25000000  1
  Tm  Tm2  1  0.09593216  0.90406784  0.75000000  1
  Tm  Tm3  1  0.90406784  0.09593216  0.25000000  1
  C  C4  1  0.64585521  0.89081497  0.74523936  1
  C  C5  1  0.35414479  0.10918503  0.25476064  1
  C  C6  1  0.10918503  0.35414479  0.75476064  1
  C  C7  1  0.89081497  0.64585521  0.24523936  1
  O  O8  1  0.44106238  0.89532578  0.72208257  1
  O  O9  1  0.55893762  0.10467422  0.27791743  1
  O  O10  1  0.10467422  0.55893762  0.77791743  1
  O  O11  1  0.89532578  0.44106238  0.22208257  1
  O  O12  1  0.71817971  0.75196536  0.61801980  1
  O  O13  1  0.28182029  0.24803464  0.38198020  1
  O  O14  1  0.24803464  0.28182029  0.88198020  1
  O  O15  1  0.75196536  0.71817971  0.11801980  1
  O  O16  1  0.79872503  0.03318898  0.89678132  1
  O  O17  1  0.20127497  0.96681102  0.10321868  1
  O  O18  1  0.96681102  0.20127497  0.60321868  1
  O  O19  1  0.03318898  0.79872503  0.39678132  1
