# generated using pymatgen
data_La2Sn3
_symmetry_space_group_name_H-M   'P 1'
_cell_length_a   6.57377089
_cell_length_b   8.70493072
_cell_length_c   11.40803060
_cell_angle_alpha   107.32630738
_cell_angle_beta   96.76307347
_cell_angle_gamma   100.12764121
_symmetry_Int_Tables_number   1
_chemical_formula_structural   La2Sn3
_chemical_formula_sum   'La8 Sn12'
_cell_volume   603.34595865
_cell_formula_units_Z   4
loop_
 _symmetry_equiv_pos_site_id
 _symmetry_equiv_pos_as_xyz
  1  'x, y, z'
loop_
 _atom_site_type_symbol
 _atom_site_label
 _atom_site_symmetry_multiplicity
 _atom_site_fract_x
 _atom_site_fract_y
 _atom_site_fract_z
 _atom_site_occupancy
  La  La0  1  0.33181969  0.03215633  0.74458149  1
  La  La1  1  0.66818031  0.96784367  0.25541851  1
  La  La2  1  0.95763506  0.25164810  0.05578908  1
  La  La3  1  0.04236494  0.74835190  0.94421092  1
  La  La4  1  0.55750596  0.43055191  0.33623014  1
  La  La5  1  0.44249404  0.56944809  0.66376986  1
  La  La6  1  0.12542800  0.75393318  0.38374202  1
  La  La7  1  0.87457200  0.24606682  0.61625798  1
  Sn  Sn8  1  0.04984110  0.35233263  0.37855060  1
  Sn  Sn9  1  0.95015890  0.64766737  0.62144940  1
  Sn  Sn10  1  0.35500923  0.16570297  0.49740274  1
  Sn  Sn11  1  0.64499077  0.83429703  0.50259726  1
  Sn  Sn12  1  0.43668187  0.16831144  0.05075906  1
  Sn  Sn13  1  0.56331813  0.83168856  0.94924094  1
  Sn  Sn14  1  0.32445535  0.60146402  0.13801449  1
  Sn  Sn15  1  0.67554465  0.39853598  0.86198551  1
  Sn  Sn16  1  0.22335016  0.40619848  0.86535031  1
  Sn  Sn17  1  0.77664984  0.59380152  0.13464969  1
  Sn  Sn18  1  0.17822799  0.03877729  0.22384842  1
  Sn  Sn19  1  0.82177201  0.96122271  0.77615158  1
