# generated using pymatgen
data_KNd(MoO4)2
_symmetry_space_group_name_H-M   'P 1'
_cell_length_a   7.64089509
_cell_length_b   7.64089509
_cell_length_c   7.98403513
_cell_angle_alpha   116.50074357
_cell_angle_beta   119.01033980
_cell_angle_gamma   91.54748934
_symmetry_Int_Tables_number   1
_chemical_formula_structural   KNd(MoO4)2
_chemical_formula_sum   'K2 Nd2 Mo4 O16'
_cell_volume   346.72566526
_cell_formula_units_Z   2
loop_
 _symmetry_equiv_pos_site_id
 _symmetry_equiv_pos_as_xyz
  1  'x, y, z'
loop_
 _atom_site_type_symbol
 _atom_site_label
 _atom_site_symmetry_multiplicity
 _atom_site_fract_x
 _atom_site_fract_y
 _atom_site_fract_z
 _atom_site_occupancy
  K  K0  1  0.45037191  0.20037191  0.25000000  1
  K  K1  1  0.54962809  0.79962809  0.75000000  1
  Nd  Nd2  1  0.02036996  0.77036996  0.25000000  1
  Nd  Nd3  1  0.97963004  0.22963004  0.75000000  1
  Mo  Mo4  1  0.95303656  0.30345165  0.26058156  1
  Mo  Mo5  1  0.04696344  0.69654835  0.73941844  1
  Mo  Mo6  1  0.54287009  0.69245501  0.23941844  1
  Mo  Mo7  1  0.45712991  0.30754499  0.76058156  1
  O  O8  1  0.67764570  0.23319288  0.06342301  1
  O  O9  1  0.32235430  0.76680712  0.93657699  1
  O  O10  1  0.66976988  0.61422269  0.43657699  1
  O  O11  1  0.33023012  0.38577731  0.56342301  1
  O  O12  1  0.75393589  0.92682578  0.36903545  1
  O  O13  1  0.24606411  0.07317422  0.63096455  1
  O  O14  1  0.05779033  0.38490044  0.13096455  1
  O  O15  1  0.94220967  0.61509956  0.86903545  1
  O  O16  1  0.05682699  0.63104315  0.47490516  1
  O  O17  1  0.94317301  0.36895685  0.52509484  1
  O  O18  1  0.65613799  0.58192183  0.02509484  1
  O  O19  1  0.34386201  0.41807817  0.97490516  1
  O  O20  1  0.98432688  0.05288135  0.19040128  1
  O  O21  1  0.01567312  0.94711865  0.80959872  1
  O  O22  1  0.36248007  0.79392560  0.30959872  1
  O  O23  1  0.63751993  0.20607440  0.69040128  1
