# generated using pymatgen
data_KTa(PO4)2
_symmetry_space_group_name_H-M   'P 1'
_cell_length_a   5.02726242
_cell_length_b   5.02726242
_cell_length_c   8.29809862
_cell_angle_alpha   86.54006844
_cell_angle_beta   86.54006844
_cell_angle_gamma   63.70445818
_symmetry_Int_Tables_number   1
_chemical_formula_structural   KTa(PO4)2
_chemical_formula_sum   'K1 Ta1 P2 O8'
_cell_volume   187.54399958
_cell_formula_units_Z   1
loop_
 _symmetry_equiv_pos_site_id
 _symmetry_equiv_pos_as_xyz
  1  'x, y, z'
loop_
 _atom_site_type_symbol
 _atom_site_label
 _atom_site_symmetry_multiplicity
 _atom_site_fract_x
 _atom_site_fract_y
 _atom_site_fract_z
 _atom_site_occupancy
  K  K0  1  0.00000000  -0.00000000  0.50000000  1
  Ta  Ta1  1  0.00000000  -0.00000000  0.00000000  1
  P  P2  1  0.36422518  0.36422518  0.79444899  1
  P  P3  1  0.63577482  0.63577482  0.20555101  1
  O  O4  1  0.31733245  0.31733245  0.62545296  1
  O  O5  1  0.68266755  0.68266755  0.37454704  1
  O  O6  1  0.70168340  0.22885747  0.83493497  1
  O  O7  1  0.29831660  0.77114253  0.16506503  1
  O  O8  1  0.77114253  0.29831660  0.16506503  1
  O  O9  1  0.22885747  0.70168340  0.83493497  1
  O  O10  1  0.22274882  0.22274882  0.92725343  1
  O  O11  1  0.77725118  0.77725118  0.07274657  1
