# generated using pymatgen
data_LaCu5Sn
_symmetry_space_group_name_H-M   'P 1'
_cell_length_a   5.09280496
_cell_length_b   8.39165480
_cell_length_c   10.68180118
_cell_angle_alpha   90.00000000
_cell_angle_beta   90.00000000
_cell_angle_gamma   90.00000000
_symmetry_Int_Tables_number   1
_chemical_formula_structural   LaCu5Sn
_chemical_formula_sum   'La4 Cu20 Sn4'
_cell_volume   456.50879063
_cell_formula_units_Z   4
loop_
 _symmetry_equiv_pos_site_id
 _symmetry_equiv_pos_as_xyz
  1  'x, y, z'
loop_
 _atom_site_type_symbol
 _atom_site_label
 _atom_site_symmetry_multiplicity
 _atom_site_fract_x
 _atom_site_fract_y
 _atom_site_fract_z
 _atom_site_occupancy
  La  La0  1  0.75000000  0.74318410  0.43827187  1
  La  La1  1  0.25000000  0.25681590  0.56172813  1
  La  La2  1  0.25000000  0.75681590  0.93827187  1
  La  La3  1  0.75000000  0.24318410  0.06172813  1
  Cu  Cu4  1  0.75000000  0.68389951  0.75411294  1
  Cu  Cu5  1  0.25000000  0.31610049  0.24588706  1
  Cu  Cu6  1  0.25000000  0.81610049  0.25411294  1
  Cu  Cu7  1  0.75000000  0.18389951  0.74588706  1
  Cu  Cu8  1  0.50133633  0.93453056  0.68744835  1
  Cu  Cu9  1  0.49866367  0.06546944  0.31255165  1
  Cu  Cu10  1  0.49866367  0.56546944  0.18744835  1
  Cu  Cu11  1  0.00133633  0.06546944  0.31255165  1
  Cu  Cu12  1  0.50133633  0.43453056  0.81255165  1
  Cu  Cu13  1  0.99866367  0.93453056  0.68744835  1
  Cu  Cu14  1  0.99866367  0.43453056  0.81255165  1
  Cu  Cu15  1  0.00133633  0.56546944  0.18744835  1
  Cu  Cu16  1  0.75000000  0.58569562  0.98344296  1
  Cu  Cu17  1  0.25000000  0.41430438  0.01655704  1
  Cu  Cu18  1  0.25000000  0.91430438  0.48344296  1
  Cu  Cu19  1  0.75000000  0.08569562  0.51655704  1
  Cu  Cu20  1  0.75000000  0.93995264  0.89345669  1
  Cu  Cu21  1  0.25000000  0.06004736  0.10654331  1
  Cu  Cu22  1  0.25000000  0.56004736  0.39345669  1
  Cu  Cu23  1  0.75000000  0.43995264  0.60654331  1
  Sn  Sn24  1  0.75000000  0.85786042  0.13807199  1
  Sn  Sn25  1  0.25000000  0.14213958  0.86192801  1
  Sn  Sn26  1  0.25000000  0.64213958  0.63807199  1
  Sn  Sn27  1  0.75000000  0.35786042  0.36192801  1
