# generated using pymatgen
data_SmMn5Co7
_symmetry_space_group_name_H-M   'P 1'
_cell_length_a   4.59105438
_cell_length_b   6.34837540
_cell_length_c   6.34837540
_cell_angle_alpha   97.49095651
_cell_angle_beta   111.19804673
_cell_angle_gamma   68.80195327
_symmetry_Int_Tables_number   1
_chemical_formula_structural   SmMn5Co7
_chemical_formula_sum   'Sm1 Mn5 Co7'
_cell_volume   160.83576299
_cell_formula_units_Z   1
loop_
 _symmetry_equiv_pos_site_id
 _symmetry_equiv_pos_as_xyz
  1  'x, y, z'
loop_
 _atom_site_type_symbol
 _atom_site_label
 _atom_site_symmetry_multiplicity
 _atom_site_fract_x
 _atom_site_fract_y
 _atom_site_fract_z
 _atom_site_occupancy
  Sm  Sm0  1  0.99786698  0.00213302  0.99786698  1
  Mn  Mn1  1  0.49705445  0.00136613  0.50077523  1
  Mn  Mn2  1  0.00235465  0.00136613  0.50077523  1
  Mn  Mn3  1  0.49705445  0.49922477  0.99863387  1
  Mn  Mn4  1  0.00235465  0.49922477  0.99863387  1
  Mn  Mn5  1  0.72820840  0.77179160  0.22820840  1
  Co  Co6  1  0.64213185  0.35786815  0.64213185  1
  Co  Co7  1  0.35988977  0.64011023  0.35988977  1
  Co  Co8  1  0.99803921  0.36084448  0.35692290  1
  Co  Co9  1  0.99803921  0.64307710  0.63915552  1
  Co  Co10  1  0.27373415  0.22626585  0.77373415  1
  Co  Co11  1  0.50163611  0.76782903  0.77110126  1
  Co  Co12  1  0.50163611  0.22889874  0.23217097  1
