# generated using pymatgen
data_Li6Tm(BO3)3
_symmetry_space_group_name_H-M   'P 1'
_cell_length_a   6.65173169
_cell_length_b   7.21130596
_cell_length_c   16.46685838
_cell_angle_alpha   90.00000000
_cell_angle_beta   90.00000000
_cell_angle_gamma   105.51417669
_symmetry_Int_Tables_number   1
_chemical_formula_structural   Li6Tm(BO3)3
_chemical_formula_sum   'Li24 Tm4 B12 O36'
_cell_volume   761.09715200
_cell_formula_units_Z   4
loop_
 _symmetry_equiv_pos_site_id
 _symmetry_equiv_pos_as_xyz
  1  'x, y, z'
loop_
 _atom_site_type_symbol
 _atom_site_label
 _atom_site_symmetry_multiplicity
 _atom_site_fract_x
 _atom_site_fract_y
 _atom_site_fract_z
 _atom_site_occupancy
  Li  Li0  1  0.05431363  0.19342478  0.03304593  1
  Li  Li1  1  0.94568637  0.80657522  0.96695407  1
  Li  Li2  1  0.44568637  0.80657522  0.53304593  1
  Li  Li3  1  0.55431363  0.19342478  0.46695407  1
  Li  Li4  1  0.09743637  0.63457737  0.44444789  1
  Li  Li5  1  0.90256363  0.36542263  0.55555211  1
  Li  Li6  1  0.40256363  0.36542263  0.94444789  1
  Li  Li7  1  0.59743637  0.63457737  0.05555211  1
  Li  Li8  1  0.17240685  0.04372595  0.52640069  1
  Li  Li9  1  0.82759315  0.95627405  0.47359931  1
  Li  Li10  1  0.32759315  0.95627405  0.02640069  1
  Li  Li11  1  0.67240685  0.04372595  0.97359931  1
  Li  Li12  1  0.13586966  0.78730439  0.29257149  1
  Li  Li13  1  0.86413034  0.21269561  0.70742851  1
  Li  Li14  1  0.36413034  0.21269561  0.79257149  1
  Li  Li15  1  0.63586966  0.78730439  0.20742851  1
  Li  Li16  1  0.04146555  0.07114128  0.20368675  1
  Li  Li17  1  0.95853445  0.92885872  0.79631325  1
  Li  Li18  1  0.45853445  0.92885872  0.70368675  1
  Li  Li19  1  0.54146555  0.07114128  0.29631325  1
  Li  Li20  1  0.17850327  0.57405186  0.00572085  1
  Li  Li21  1  0.82149673  0.42594814  0.99427915  1
  Li  Li22  1  0.32149673  0.42594814  0.50572085  1
  Li  Li23  1  0.67850327  0.57405186  0.49427915  1
  Tm  Tm24  1  0.34629691  0.42299369  0.30957218  1
  Tm  Tm25  1  0.65370309  0.57700631  0.69042782  1
  Tm  Tm26  1  0.15370309  0.57700631  0.80957218  1
  Tm  Tm27  1  0.84629691  0.42299369  0.19042782  1
  B  B28  1  0.99816485  0.78624558  0.12100039  1
  B  B29  1  0.00183515  0.21375442  0.87899961  1
  B  B30  1  0.50183515  0.21375442  0.62100039  1
  B  B31  1  0.49816485  0.78624558  0.37899961  1
  B  B32  1  0.18752238  0.06268518  0.38235974  1
  B  B33  1  0.81247762  0.93731482  0.61764026  1
  B  B34  1  0.31247762  0.93731482  0.88235974  1
  B  B35  1  0.68752238  0.06268518  0.11764026  1
  B  B36  1  0.33807544  0.41697015  0.13585676  1
  B  B37  1  0.66192456  0.58302985  0.86414324  1
  B  B38  1  0.16192456  0.58302985  0.63585676  1
  B  B39  1  0.83807544  0.41697015  0.36414324  1
  O  O40  1  0.32416428  0.40959945  0.05337279  1
  O  O41  1  0.67583572  0.59040055  0.94662721  1
  O  O42  1  0.17583572  0.59040055  0.55337279  1
  O  O43  1  0.82416428  0.40959945  0.44662721  1
  O  O44  1  0.22834633  0.08447997  0.29915411  1
  O  O45  1  0.77165367  0.91552003  0.70084589  1
  O  O46  1  0.27165367  0.91552003  0.79915411  1
  O  O47  1  0.72834633  0.08447997  0.20084589  1
  O  O48  1  0.16393414  0.36320513  0.18645796  1
  O  O49  1  0.83606586  0.63679487  0.81354204  1
  O  O50  1  0.33606586  0.63679487  0.68645796  1
  O  O51  1  0.66393414  0.36320513  0.31354204  1
  O  O52  1  0.27190917  0.22618493  0.42921851  1
  O  O53  1  0.72809083  0.77381507  0.57078149  1
  O  O54  1  0.22809083  0.77381507  0.92921851  1
  O  O55  1  0.77190917  0.22618493  0.07078149  1
  O  O56  1  0.41503214  0.03707426  0.58704245  1
  O  O57  1  0.58496786  0.96292574  0.41295755  1
  O  O58  1  0.08496786  0.96292574  0.08704245  1
  O  O59  1  0.91503214  0.03707426  0.91295755  1
  O  O60  1  0.07565879  0.89455206  0.41856636  1
  O  O61  1  0.92434121  0.10544794  0.58143364  1
  O  O62  1  0.42434121  0.10544794  0.91856636  1
  O  O63  1  0.57565879  0.89455206  0.08143364  1
  O  O64  1  0.54683138  0.38172889  0.57461952  1
  O  O65  1  0.45316862  0.61827111  0.42538048  1
  O  O66  1  0.95316862  0.61827111  0.07461952  1
  O  O67  1  0.04683138  0.38172889  0.92538048  1
  O  O68  1  0.03069018  0.48924076  0.32525928  1
  O  O69  1  0.96930982  0.51075924  0.67474072  1
  O  O70  1  0.46930982  0.51075924  0.82525928  1
  O  O71  1  0.53069018  0.48924076  0.17474072  1
  O  O72  1  0.05840451  0.23976725  0.79741842  1
  O  O73  1  0.94159549  0.76023275  0.20258158  1
  O  O74  1  0.44159549  0.76023275  0.29741842  1
  O  O75  1  0.55840451  0.23976725  0.70258158  1
