# generated using pymatgen
data_Na20Zn7Sn12
_symmetry_space_group_name_H-M   'P 1'
_cell_length_a   9.37561710
_cell_length_b   9.46318988
_cell_length_c   27.85228121
_cell_angle_alpha   81.64481247
_cell_angle_beta   80.31044434
_cell_angle_gamma   60.30564932
_symmetry_Int_Tables_number   1
_chemical_formula_structural   Na20Zn7Sn12
_chemical_formula_sum   'Na40 Zn14 Sn24'
_cell_volume   2110.46942396
_cell_formula_units_Z   2
loop_
 _symmetry_equiv_pos_site_id
 _symmetry_equiv_pos_as_xyz
  1  'x, y, z'
loop_
 _atom_site_type_symbol
 _atom_site_label
 _atom_site_symmetry_multiplicity
 _atom_site_fract_x
 _atom_site_fract_y
 _atom_site_fract_z
 _atom_site_occupancy
  Na  Na0  1  0.85916557  0.48704962  0.56112870  1
  Na  Na1  1  0.14083443  0.51295038  0.43887130  1
  Na  Na2  1  0.90734389  0.01295038  0.93887130  1
  Na  Na3  1  0.09265611  0.98704962  0.06112870  1
  Na  Na4  1  0.52428285  0.13137291  0.43962163  1
  Na  Na5  1  0.47571715  0.86862709  0.56037837  1
  Na  Na6  1  0.09527739  0.36862709  0.06037837  1
  Na  Na7  1  0.90472261  0.63137291  0.93962163  1
  Na  Na8  1  0.63071860  0.19981424  0.10597222  1
  Na  Na9  1  0.36928140  0.80018576  0.89402778  1
  Na  Na10  1  0.93650506  0.30018576  0.39402778  1
  Na  Na11  1  0.06349494  0.69981424  0.60597222  1
  Na  Na12  1  0.49682462  0.81684510  0.00015238  1
  Na  Na13  1  0.50317538  0.18315490  0.99984762  1
  Na  Na14  1  0.31382209  0.68315490  0.49984762  1
  Na  Na15  1  0.68617791  0.31684510  0.50015238  1
  Na  Na16  1  0.26959044  0.84152969  0.18673410  1
  Na  Na17  1  0.73040956  0.15847031  0.81326590  1
  Na  Na18  1  0.29785423  0.65847031  0.31326590  1
  Na  Na19  1  0.70214577  0.34152969  0.68673410  1
  Na  Na20  1  0.30158629  0.28006081  0.31153187  1
  Na  Na21  1  0.69841371  0.71993919  0.68846813  1
  Na  Na22  1  0.89317897  0.21993919  0.18846813  1
  Na  Na23  1  0.10682103  0.78006081  0.81153187  1
  Na  Na24  1  0.70280342  0.69215363  0.43886272  1
  Na  Na25  1  0.29719658  0.30784637  0.56113728  1
  Na  Na26  1  0.83381977  0.80784637  0.06113728  1
  Na  Na27  1  0.16618023  0.19215363  0.93886272  1
  Na  Na28  1  0.63113009  0.58058771  0.10611403  1
  Na  Na29  1  0.36886991  0.41941229  0.89388597  1
  Na  Na30  1  0.31783182  0.91941229  0.39388597  1
  Na  Na31  1  0.68216818  0.08058771  0.60611403  1
  Na  Na32  1  0.68188389  0.27417258  0.31278354  1
  Na  Na33  1  0.31811611  0.72582742  0.68721646  1
  Na  Na34  1  0.26884002  0.22582742  0.18721646  1
  Na  Na35  1  0.73115998  0.77417258  0.81278354  1
  Na  Na36  1  0.25472180  0.58158716  0.10550953  1
  Na  Na37  1  0.74527820  0.41841284  0.89449047  1
  Na  Na38  1  0.94181849  0.91841284  0.39449047  1
  Na  Na39  1  0.05818151  0.08158716  0.60550953  1
  Zn  Zn40  1  0.60941479  0.88644864  0.16764743  1
  Zn  Zn41  1  0.39058521  0.11355136  0.83235257  1
  Zn  Zn42  1  0.66351086  0.61355136  0.33235257  1
  Zn  Zn43  1  0.33648914  0.38644864  0.66764743  1
  Zn  Zn44  1  0.63657299  0.08197523  0.22997311  1
  Zn  Zn45  1  0.36342701  0.91802477  0.77002689  1
  Zn  Zn46  1  0.94852133  0.41802477  0.27002689  1
  Zn  Zn47  1  0.05147867  0.58197523  0.72997311  1
  Zn  Zn48  1  0.50000000  0.50000000  -0.00000000  1
  Zn  Zn49  1  -0.00000000  0.00000000  0.50000000  1
  Zn  Zn50  1  0.11030045  0.59757948  0.23240266  1
  Zn  Zn51  1  0.88969955  0.40242052  0.76759734  1
  Zn  Zn52  1  0.94028259  0.90242052  0.26759734  1
  Zn  Zn53  1  0.05971741  0.09757948  0.73240266  1
  Sn  Sn54  1  0.65360180  0.94128548  0.33435484  1
  Sn  Sn55  1  0.34639820  0.05871452  0.66564516  1
  Sn  Sn56  1  0.92924212  0.55871452  0.16564516  1
  Sn  Sn57  1  0.07075788  0.44128548  0.83435484  1
  Sn  Sn58  1  0.91765183  0.88012927  0.16831700  1
  Sn  Sn59  1  0.08234817  0.11987073  0.83168300  1
  Sn  Sn60  1  0.96609809  0.61987073  0.33168300  1
  Sn  Sn61  1  0.03390191  0.38012927  0.66831700  1
  Sn  Sn62  1  0.41403760  0.00136375  0.09593320  1
  Sn  Sn63  1  0.58596240  0.99863625  0.90406680  1
  Sn  Sn64  1  0.51133455  0.49863625  0.40406680  1
  Sn  Sn65  1  0.48866545  0.50136375  0.59593320  1
  Sn  Sn66  1  0.81359937  0.33885067  0.01026739  1
  Sn  Sn67  1  0.18640063  0.66114933  0.98973261  1
  Sn  Sn68  1  0.16271743  0.16114933  0.48973261  1
  Sn  Sn69  1  0.83728257  0.83885067  0.51026739  1
  Sn  Sn70  1  0.45877655  0.42137046  0.20458736  1
  Sn  Sn71  1  0.54122345  0.57862954  0.79541264  1
  Sn  Sn72  1  0.08473437  0.07862954  0.29541264  1
  Sn  Sn73  1  0.91526563  0.92137046  0.70458736  1
  Sn  Sn74  1  0.45361990  0.91916819  0.26560374  1
  Sn  Sn75  1  0.54638010  0.08083181  0.73439626  1
  Sn  Sn76  1  0.63839184  0.58083181  0.23439626  1
  Sn  Sn77  1  0.36160816  0.41916819  0.76560374  1
