# generated using pymatgen
data_Li6Sm(BO3)3
_symmetry_space_group_name_H-M   'P 1'
_cell_length_a   6.78963451
_cell_length_b   7.32250421
_cell_length_c   16.59493459
_cell_angle_alpha   90.00000000
_cell_angle_beta   90.00000000
_cell_angle_gamma   105.71686996
_symmetry_Int_Tables_number   1
_chemical_formula_structural   Li6Sm(BO3)3
_chemical_formula_sum   'Li24 Sm4 B12 O36'
_cell_volume   794.20543819
_cell_formula_units_Z   4
loop_
 _symmetry_equiv_pos_site_id
 _symmetry_equiv_pos_as_xyz
  1  'x, y, z'
loop_
 _atom_site_type_symbol
 _atom_site_label
 _atom_site_symmetry_multiplicity
 _atom_site_fract_x
 _atom_site_fract_y
 _atom_site_fract_z
 _atom_site_occupancy
  Li  Li0  1  0.05384955  0.19330911  0.03386478  1
  Li  Li1  1  0.94615045  0.80669089  0.96613522  1
  Li  Li2  1  0.44615045  0.80669089  0.53386478  1
  Li  Li3  1  0.55384955  0.19330911  0.46613522  1
  Li  Li4  1  0.08875869  0.63725315  0.44565115  1
  Li  Li5  1  0.91124131  0.36274685  0.55434885  1
  Li  Li6  1  0.41124131  0.36274685  0.94565115  1
  Li  Li7  1  0.58875869  0.63725315  0.05434885  1
  Li  Li8  1  0.16867825  0.04303355  0.53002213  1
  Li  Li9  1  0.83132175  0.95696645  0.46997787  1
  Li  Li10  1  0.33132175  0.95696645  0.03002213  1
  Li  Li11  1  0.66867825  0.04303355  0.96997787  1
  Li  Li12  1  0.13481111  0.79049927  0.29314716  1
  Li  Li13  1  0.86518889  0.20950073  0.70685284  1
  Li  Li14  1  0.36518889  0.20950073  0.79314716  1
  Li  Li15  1  0.63481111  0.79049927  0.20685284  1
  Li  Li16  1  0.04496461  0.06073499  0.20339967  1
  Li  Li17  1  0.95503539  0.93926501  0.79660033  1
  Li  Li18  1  0.45503539  0.93926501  0.70339967  1
  Li  Li19  1  0.54496461  0.06073499  0.29660033  1
  Li  Li20  1  0.17707499  0.57438885  0.00434323  1
  Li  Li21  1  0.82292501  0.42561115  0.99565677  1
  Li  Li22  1  0.32292501  0.42561115  0.50434323  1
  Li  Li23  1  0.67707499  0.57438885  0.49565677  1
  Sm  Sm24  1  0.34737578  0.42217659  0.31009020  1
  Sm  Sm25  1  0.65262422  0.57782341  0.68990980  1
  Sm  Sm26  1  0.15262422  0.57782341  0.81009020  1
  Sm  Sm27  1  0.84737578  0.42217659  0.18990980  1
  B  B28  1  0.99929573  0.79066854  0.11899758  1
  B  B29  1  0.00070427  0.20933146  0.88100242  1
  B  B30  1  0.50070427  0.20933146  0.61899758  1
  B  B31  1  0.49929573  0.79066854  0.38100242  1
  B  B32  1  0.18746500  0.05913200  0.38473493  1
  B  B33  1  0.81253500  0.94086800  0.61526507  1
  B  B34  1  0.31253500  0.94086800  0.88473493  1
  B  B35  1  0.68746500  0.05913200  0.11526507  1
  B  B36  1  0.33789336  0.41825871  0.13409032  1
  B  B37  1  0.66210664  0.58174129  0.86590968  1
  B  B38  1  0.16210664  0.58174129  0.63409032  1
  B  B39  1  0.83789336  0.41825871  0.36590968  1
  O  O40  1  0.32474340  0.41427026  0.05233598  1
  O  O41  1  0.67525660  0.58572974  0.94766402  1
  O  O42  1  0.17525660  0.58572974  0.55233598  1
  O  O43  1  0.82474340  0.41427026  0.44766402  1
  O  O44  1  0.22543606  0.07647543  0.30205590  1
  O  O45  1  0.77456394  0.92352457  0.69794410  1
  O  O46  1  0.27456394  0.92352457  0.80205590  1
  O  O47  1  0.72543606  0.07647543  0.19794410  1
  O  O48  1  0.16672537  0.35183866  0.18333039  1
  O  O49  1  0.83327463  0.64816134  0.81666961  1
  O  O50  1  0.33327463  0.64816134  0.68333039  1
  O  O51  1  0.66672537  0.35183866  0.31666961  1
  O  O52  1  0.27023349  0.22060390  0.43152891  1
  O  O53  1  0.72976651  0.77939610  0.56847109  1
  O  O54  1  0.22976651  0.77939610  0.93152891  1
  O  O55  1  0.77023349  0.22060390  0.06847109  1
  O  O56  1  0.41388724  0.03454076  0.58612396  1
  O  O57  1  0.58611276  0.96545924  0.41387604  1
  O  O58  1  0.08611276  0.96545924  0.08612396  1
  O  O59  1  0.91388724  0.03454076  0.91387604  1
  O  O60  1  0.07472186  0.89424786  0.42099261  1
  O  O61  1  0.92527814  0.10575214  0.57900739  1
  O  O62  1  0.42527814  0.10575214  0.92099261  1
  O  O63  1  0.57472186  0.89424786  0.07900739  1
  O  O64  1  0.54283753  0.37465774  0.57239756  1
  O  O65  1  0.45716247  0.62534226  0.42760244  1
  O  O66  1  0.95716247  0.62534226  0.07239756  1
  O  O67  1  0.04283753  0.37465774  0.92760244  1
  O  O68  1  0.02511455  0.49842413  0.32709363  1
  O  O69  1  0.97488545  0.50157587  0.67290637  1
  O  O70  1  0.47488545  0.50157587  0.82709363  1
  O  O71  1  0.52511455  0.49842413  0.17290637  1
  O  O72  1  0.05532535  0.23258433  0.79950872  1
  O  O73  1  0.94467465  0.76741567  0.20049128  1
  O  O74  1  0.44467465  0.76741567  0.29950872  1
  O  O75  1  0.55532535  0.23258433  0.70049128  1
