# generated using pymatgen
data_SmGaCo2
_symmetry_space_group_name_H-M   'P 1'
_cell_length_a   5.26309633
_cell_length_b   5.26483022
_cell_length_c   16.46437809
_cell_angle_alpha   90.00000000
_cell_angle_beta   89.99198655
_cell_angle_gamma   59.98910741
_symmetry_Int_Tables_number   1
_chemical_formula_structural   SmGaCo2
_chemical_formula_sum   'Sm6 Ga6 Co12'
_cell_volume   395.05172908
_cell_formula_units_Z   6
loop_
 _symmetry_equiv_pos_site_id
 _symmetry_equiv_pos_as_xyz
  1  'x, y, z'
loop_
 _atom_site_type_symbol
 _atom_site_label
 _atom_site_symmetry_multiplicity
 _atom_site_fract_x
 _atom_site_fract_y
 _atom_site_fract_z
 _atom_site_occupancy
  Sm  Sm0  1  0.33342018  0.33328991  0.03145735  1
  Sm  Sm1  1  0.66657982  0.66671009  0.96854265  1
  Sm  Sm2  1  0.66658824  0.66670588  0.53848661  1
  Sm  Sm3  1  0.33341176  0.33329412  0.46151339  1
  Sm  Sm4  1  0.33336644  0.33331678  0.25626270  1
  Sm  Sm5  1  0.66663356  0.66668322  0.74373730  1
  Ga  Ga6  1  0.83428916  0.33141212  0.13549911  1
  Ga  Ga7  1  0.33144760  0.83427620  0.13555344  1
  Ga  Ga8  1  0.83428916  0.83429873  0.13549911  1
  Ga  Ga9  1  0.16571084  0.66858788  0.86450089  1
  Ga  Ga10  1  0.66855240  0.16572380  0.86444656  1
  Ga  Ga11  1  0.16571084  0.16570127  0.86450089  1
  Co  Co12  1  0.33288850  0.33355575  0.73496416  1
  Co  Co13  1  0.66711150  0.66644425  0.26503584  1
  Co  Co14  1  0.00029606  0.99985197  0.74026589  1
  Co  Co15  1  0.99970394  0.00014803  0.25973411  1
  Co  Co16  1  -0.00000000  0.00000000  0.50000000  1
  Co  Co17  1  -0.00000000  0.00000000  -0.00000000  1
  Co  Co18  1  0.16206407  0.67565212  0.62517001  1
  Co  Co19  1  0.67562621  0.16218689  0.62521371  1
  Co  Co20  1  0.16206407  0.16228381  0.62517001  1
  Co  Co21  1  0.83793593  0.32434788  0.37482999  1
  Co  Co22  1  0.32437379  0.83781311  0.37478629  1
  Co  Co23  1  0.83793593  0.83771619  0.37482999  1
