# generated using pymatgen
data_K2ThO3
_symmetry_space_group_name_H-M   'P 1'
_cell_length_a   6.45928108
_cell_length_b   6.45928108
_cell_length_c   12.80873200
_cell_angle_alpha   94.93610459
_cell_angle_beta   94.93610459
_cell_angle_gamma   120.07778882
_symmetry_Int_Tables_number   1
_chemical_formula_structural   K2ThO3
_chemical_formula_sum   'K8 Th4 O12'
_cell_volume   455.53384526
_cell_formula_units_Z   4
loop_
 _symmetry_equiv_pos_site_id
 _symmetry_equiv_pos_as_xyz
  1  'x, y, z'
loop_
 _atom_site_type_symbol
 _atom_site_label
 _atom_site_symmetry_multiplicity
 _atom_site_fract_x
 _atom_site_fract_y
 _atom_site_fract_z
 _atom_site_occupancy
  K  K0  1  0.65815946  0.81510564  0.99948625  1
  K  K1  1  0.34184054  0.18489436  0.00051375  1
  K  K2  1  0.18489436  0.34184054  0.50051375  1
  K  K3  1  0.81510564  0.65815946  0.49948625  1
  K  K4  1  0.58423417  0.41576583  0.75000000  1
  K  K5  1  0.41576583  0.58423417  0.25000000  1
  K  K6  1  0.50000000  0.00000000  0.50000000  1
  K  K7  1  0.00000000  0.50000000  0.00000000  1
  Th  Th8  1  0.24993787  0.75006213  0.75000000  1
  Th  Th9  1  0.75006213  0.24993787  0.25000000  1
  Th  Th10  1  0.91755351  0.08244649  0.75000000  1
  Th  Th11  1  0.08244649  0.91755351  0.25000000  1
  O  O12  1  0.83439496  0.00197276  0.34774497  1
  O  O13  1  0.16560504  0.99802724  0.65225503  1
  O  O14  1  0.99802724  0.16560504  0.15225503  1
  O  O15  1  0.00197276  0.83439496  0.84774497  1
  O  O16  1  0.55034945  0.76583710  0.65196186  1
  O  O17  1  0.44965055  0.23416290  0.34803814  1
  O  O18  1  0.23416290  0.44965055  0.84803814  1
  O  O19  1  0.76583710  0.55034945  0.15196186  1
  O  O20  1  0.61720770  0.06404899  0.84747258  1
  O  O21  1  0.38279230  0.93595101  0.15252742  1
  O  O22  1  0.93595101  0.38279230  0.65252742  1
  O  O23  1  0.06404899  0.61720770  0.34747258  1
