# generated using pymatgen
data_La6Al5Fe9
_symmetry_space_group_name_H-M   'P 1'
_cell_length_a   8.20803688
_cell_length_b   8.20803688
_cell_length_c   13.31264724
_cell_angle_alpha   107.95558570
_cell_angle_beta   107.95558570
_cell_angle_gamma   90.00000000
_symmetry_Int_Tables_number   1
_chemical_formula_structural   La6Al5Fe9
_chemical_formula_sum   'La12 Al10 Fe18'
_cell_volume   807.17191077
_cell_formula_units_Z   2
loop_
 _symmetry_equiv_pos_site_id
 _symmetry_equiv_pos_as_xyz
  1  'x, y, z'
loop_
 _atom_site_type_symbol
 _atom_site_label
 _atom_site_symmetry_multiplicity
 _atom_site_fract_x
 _atom_site_fract_y
 _atom_site_fract_z
 _atom_site_occupancy
  La  La0  1  0.35724667  0.85724667  0.37814556  1
  La  La1  1  0.64275333  0.14275333  0.62185444  1
  La  La2  1  0.02089888  0.52089888  0.37814556  1
  La  La3  1  0.52089888  0.35724667  0.37814556  1
  La  La4  1  0.14275333  0.97910112  0.62185444  1
  La  La5  1  0.97910112  0.47910112  0.62185444  1
  La  La6  1  0.47910112  0.64275333  0.62185444  1
  La  La7  1  0.85724667  0.02089888  0.37814556  1
  La  La8  1  0.10655833  0.10655833  0.21311665  1
  La  La9  1  0.89344167  0.89344167  0.78688335  1
  La  La10  1  0.39344167  0.39344167  0.78688335  1
  La  La11  1  0.60655833  0.60655833  0.21311665  1
  Al  Al12  1  0.70960836  0.20960836  0.18223039  1
  Al  Al13  1  0.29039164  0.79039164  0.81776961  1
  Al  Al14  1  0.47262203  0.97262203  0.18223039  1
  Al  Al15  1  0.97262203  0.70960836  0.18223039  1
  Al  Al16  1  0.79039164  0.52737797  0.81776961  1
  Al  Al17  1  0.52737797  0.02737797  0.81776961  1
  Al  Al18  1  0.02737797  0.29039164  0.81776961  1
  Al  Al19  1  0.20960836  0.47262203  0.18223039  1
  Al  Al20  1  0.25000000  0.25000000  0.50000000  1
  Al  Al21  1  0.75000000  0.75000000  0.50000000  1
  Fe  Fe22  1  0.06809243  0.21044284  -0.00000000  1
  Fe  Fe23  1  0.93190757  0.78955716  -0.00000000  1
  Fe  Fe24  1  0.78955716  0.06809243  -0.00000000  1
  Fe  Fe25  1  0.43190757  0.71044284  -0.00000000  1
  Fe  Fe26  1  0.21044284  0.93190757  -0.00000000  1
  Fe  Fe27  1  0.56809243  0.28955716  -0.00000000  1
  Fe  Fe28  1  0.71044284  0.56809243  -0.00000000  1
  Fe  Fe29  1  0.28955716  0.43190757  -0.00000000  1
  Fe  Fe30  1  0.23143263  0.73143263  0.11050719  1
  Fe  Fe31  1  0.76856737  0.26856737  0.88949281  1
  Fe  Fe32  1  0.87907455  0.37907455  0.11050719  1
  Fe  Fe33  1  0.37907455  0.23143263  0.11050719  1
  Fe  Fe34  1  0.26856737  0.12092545  0.88949281  1
  Fe  Fe35  1  0.12092545  0.62092545  0.88949281  1
  Fe  Fe36  1  0.62092545  0.76856737  0.88949281  1
  Fe  Fe37  1  0.73143263  0.87907455  0.11050719  1
  Fe  Fe38  1  -0.00000000  0.50000000  -0.00000000  1
  Fe  Fe39  1  0.50000000  -0.00000000  -0.00000000  1
