# generated using pymatgen
data_K2YCl5
_symmetry_space_group_name_H-M   'P 1'
_cell_length_a   8.05714207
_cell_length_b   8.55967238
_cell_length_c   13.05232950
_cell_angle_alpha   90.00000000
_cell_angle_beta   90.00000000
_cell_angle_gamma   90.00000000
_symmetry_Int_Tables_number   1
_chemical_formula_structural   K2YCl5
_chemical_formula_sum   'K8 Y4 Cl20'
_cell_volume   900.17343597
_cell_formula_units_Z   4
loop_
 _symmetry_equiv_pos_site_id
 _symmetry_equiv_pos_as_xyz
  1  'x, y, z'
loop_
 _atom_site_type_symbol
 _atom_site_label
 _atom_site_symmetry_multiplicity
 _atom_site_fract_x
 _atom_site_fract_y
 _atom_site_fract_z
 _atom_site_occupancy
  K  K0  1  0.96637859  0.99984950  0.67403251  1
  K  K1  1  0.03362141  0.00015050  0.32596749  1
  K  K2  1  0.46637859  0.00015050  0.82596749  1
  K  K3  1  0.03362141  0.49984950  0.32596749  1
  K  K4  1  0.53362141  0.99984950  0.17403251  1
  K  K5  1  0.96637859  0.50015050  0.67403251  1
  K  K6  1  0.53362141  0.50015050  0.17403251  1
  K  K7  1  0.46637859  0.49984950  0.82596749  1
  Y  Y8  1  0.92667978  0.75000000  0.99760654  1
  Y  Y9  1  0.07332022  0.25000000  0.00239346  1
  Y  Y10  1  0.42667978  0.25000000  0.50239346  1
  Y  Y11  1  0.57332022  0.75000000  0.49760654  1
  Cl  Cl12  1  0.66923212  0.75000000  0.69560631  1
  Cl  Cl13  1  0.33076788  0.25000000  0.30439369  1
  Cl  Cl14  1  0.16923212  0.25000000  0.80439369  1
  Cl  Cl15  1  0.83076788  0.75000000  0.19560631  1
  Cl  Cl16  1  0.13420478  0.75000000  0.83561090  1
  Cl  Cl17  1  0.86579522  0.25000000  0.16438910  1
  Cl  Cl18  1  0.63420478  0.25000000  0.66438910  1
  Cl  Cl19  1  0.36579522  0.75000000  0.33561090  1
  Cl  Cl20  1  0.58899403  0.75000000  0.98695841  1
  Cl  Cl21  1  0.41100597  0.25000000  0.01304159  1
  Cl  Cl22  1  0.08899403  0.25000000  0.51304159  1
  Cl  Cl23  1  0.91100597  0.75000000  0.48695841  1
  Cl  Cl24  1  0.84630082  0.45967489  0.91988335  1
  Cl  Cl25  1  0.15369918  0.54032511  0.08011665  1
  Cl  Cl26  1  0.34630082  0.54032511  0.58011665  1
  Cl  Cl27  1  0.15369918  0.95967489  0.08011665  1
  Cl  Cl28  1  0.65369918  0.45967489  0.41988335  1
  Cl  Cl29  1  0.84630082  0.04032511  0.91988335  1
  Cl  Cl30  1  0.65369918  0.04032511  0.41988335  1
  Cl  Cl31  1  0.34630082  0.95967489  0.58011665  1
