# generated using pymatgen
data_KTm2Cl7
_symmetry_space_group_name_H-M   'P 1'
_cell_length_a   6.86395799
_cell_length_b   12.49898823
_cell_length_c   13.19065872
_cell_angle_alpha   90.00000000
_cell_angle_beta   90.89746271
_cell_angle_gamma   90.00000000
_symmetry_Int_Tables_number   1
_chemical_formula_structural   KTm2Cl7
_chemical_formula_sum   'K4 Tm8 Cl28'
_cell_volume   1131.52116210
_cell_formula_units_Z   4
loop_
 _symmetry_equiv_pos_site_id
 _symmetry_equiv_pos_as_xyz
  1  'x, y, z'
loop_
 _atom_site_type_symbol
 _atom_site_label
 _atom_site_symmetry_multiplicity
 _atom_site_fract_x
 _atom_site_fract_y
 _atom_site_fract_z
 _atom_site_occupancy
  K  K0  1  0.26597810  0.79898799  0.03837787  1
  K  K1  1  0.73402190  0.20101201  0.96162213  1
  K  K2  1  0.73402190  0.29898799  0.46162213  1
  K  K3  1  0.26597810  0.70101201  0.53837787  1
  Tm  Tm4  1  0.22055849  0.46248259  0.23798944  1
  Tm  Tm5  1  0.77944151  0.53751741  0.76201056  1
  Tm  Tm6  1  0.77944151  0.96248259  0.26201056  1
  Tm  Tm7  1  0.22055849  0.03751741  0.73798944  1
  Tm  Tm8  1  0.27379625  0.16099727  0.24927069  1
  Tm  Tm9  1  0.72620375  0.83900273  0.75072931  1
  Tm  Tm10  1  0.72620375  0.66099727  0.25072931  1
  Tm  Tm11  1  0.27379625  0.33900273  0.74927069  1
  Cl  Cl12  1  0.05621733  0.02714163  0.13471747  1
  Cl  Cl13  1  0.94378267  0.97285837  0.86528253  1
  Cl  Cl14  1  0.94378267  0.52714163  0.36528253  1
  Cl  Cl15  1  0.05621733  0.47285837  0.63471747  1
  Cl  Cl16  1  0.25651843  0.31479245  0.39187921  1
  Cl  Cl17  1  0.74348157  0.68520755  0.60812079  1
  Cl  Cl18  1  0.74348157  0.81479245  0.10812079  1
  Cl  Cl19  1  0.25651843  0.18520755  0.89187921  1
  Cl  Cl20  1  0.48269383  0.32230144  0.17404643  1
  Cl  Cl21  1  0.51730617  0.67769856  0.82595357  1
  Cl  Cl22  1  0.51730617  0.82230144  0.32595357  1
  Cl  Cl23  1  0.48269383  0.17769856  0.67404643  1
  Cl  Cl24  1  0.02593834  0.07397557  0.37853858  1
  Cl  Cl25  1  0.97406166  0.92602443  0.62146142  1
  Cl  Cl26  1  0.97406166  0.57397557  0.12146142  1
  Cl  Cl27  1  0.02593834  0.42602443  0.87853858  1
  Cl  Cl28  1  0.53617065  0.05854045  0.13170497  1
  Cl  Cl29  1  0.46382935  0.94145955  0.86829503  1
  Cl  Cl30  1  0.46382935  0.55854045  0.36829503  1
  Cl  Cl31  1  0.53617065  0.44145955  0.63170497  1
  Cl  Cl32  1  0.00307069  0.29705823  0.17613696  1
  Cl  Cl33  1  0.99692931  0.70294177  0.82386304  1
  Cl  Cl34  1  0.99692931  0.79705823  0.32386304  1
  Cl  Cl35  1  0.00307069  0.20294177  0.67613696  1
  Cl  Cl36  1  0.54419756  0.08628099  0.37713506  1
  Cl  Cl37  1  0.45580244  0.91371901  0.62286494  1
  Cl  Cl38  1  0.45580244  0.58628099  0.12286494  1
  Cl  Cl39  1  0.54419756  0.41371901  0.87713506  1
