# generated using pymatgen
data_KMn(PO3)3
_symmetry_space_group_name_H-M   'P 1'
_cell_length_a   6.76044584
_cell_length_b   6.76044584
_cell_length_c   10.18438789
_cell_angle_alpha   90.00000000
_cell_angle_beta   90.00000000
_cell_angle_gamma   119.99999903
_symmetry_Int_Tables_number   1
_chemical_formula_structural   KMn(PO3)3
_chemical_formula_sum   'K2 Mn2 P6 O18'
_cell_volume   403.10319796
_cell_formula_units_Z   2
loop_
 _symmetry_equiv_pos_site_id
 _symmetry_equiv_pos_as_xyz
  1  'x, y, z'
loop_
 _atom_site_type_symbol
 _atom_site_label
 _atom_site_symmetry_multiplicity
 _atom_site_fract_x
 _atom_site_fract_y
 _atom_site_fract_z
 _atom_site_occupancy
  K  K0  1  0.33333300  0.66666700  -0.00000000  1
  K  K1  1  0.33333300  0.66666700  0.50000000  1
  Mn  Mn2  1  0.00000000  -0.00000000  -0.00000000  1
  Mn  Mn3  1  0.00000000  -0.00000000  0.50000000  1
  P  P4  1  0.89384013  0.28183663  0.75000000  1
  P  P5  1  0.38799650  0.10615987  0.75000000  1
  P  P6  1  0.38799650  0.28183663  0.25000000  1
  P  P7  1  0.71816337  0.61200350  0.75000000  1
  P  P8  1  0.71816337  0.10615987  0.25000000  1
  P  P9  1  0.89384013  0.61200350  0.25000000  1
  O  O10  1  0.73407603  0.73242709  0.87652887  1
  O  O11  1  0.99835106  0.26592397  0.87652887  1
  O  O12  1  0.73407603  0.73242709  0.62347113  1
  O  O13  1  0.99835106  0.73242709  0.37652887  1
  O  O14  1  0.26757291  0.00164894  0.87652887  1
  O  O15  1  0.99835106  0.26592397  0.62347113  1
  O  O16  1  0.26757291  0.26592397  0.37652887  1
  O  O17  1  0.99835106  0.73242709  0.12347113  1
  O  O18  1  0.26757291  0.00164894  0.62347113  1
  O  O19  1  0.26757291  0.26592397  0.12347113  1
  O  O20  1  0.73407603  0.00164894  0.37652887  1
  O  O21  1  0.73407603  0.00164894  0.12347113  1
  O  O22  1  0.90167388  0.52530295  0.75000000  1
  O  O23  1  0.62362907  0.09832612  0.75000000  1
  O  O24  1  0.62362907  0.52530295  0.25000000  1
  O  O25  1  0.47469705  0.37637093  0.75000000  1
  O  O26  1  0.47469705  0.09832612  0.25000000  1
  O  O27  1  0.90167388  0.37637093  0.25000000  1
