# generated using pymatgen
data_KY2Cl7
_symmetry_space_group_name_H-M   'P 1'
_cell_length_a   6.97549569
_cell_length_b   12.66592463
_cell_length_c   13.54983637
_cell_angle_alpha   90.00000000
_cell_angle_beta   90.85260338
_cell_angle_gamma   90.00000000
_symmetry_Int_Tables_number   1
_chemical_formula_structural   KY2Cl7
_chemical_formula_sum   'K4 Y8 Cl28'
_cell_volume   1197.01044076
_cell_formula_units_Z   4
loop_
 _symmetry_equiv_pos_site_id
 _symmetry_equiv_pos_as_xyz
  1  'x, y, z'
loop_
 _atom_site_type_symbol
 _atom_site_label
 _atom_site_symmetry_multiplicity
 _atom_site_fract_x
 _atom_site_fract_y
 _atom_site_fract_z
 _atom_site_occupancy
  K  K0  1  0.24859196  0.79956137  0.03746445  1
  K  K1  1  0.75140804  0.20043863  0.96253555  1
  K  K2  1  0.75140804  0.29956137  0.46253555  1
  K  K3  1  0.24859196  0.70043863  0.53746445  1
  Y  Y4  1  0.22390596  0.46168477  0.23772430  1
  Y  Y5  1  0.77609404  0.53831523  0.76227570  1
  Y  Y6  1  0.77609404  0.96168477  0.26227570  1
  Y  Y7  1  0.22390596  0.03831523  0.73772430  1
  Y  Y8  1  0.27240929  0.15941660  0.24820542  1
  Y  Y9  1  0.72759071  0.84058340  0.75179458  1
  Y  Y10  1  0.72759071  0.65941660  0.25179458  1
  Y  Y11  1  0.27240929  0.34058340  0.74820542  1
  Cl  Cl12  1  0.05427308  0.02549748  0.13600959  1
  Cl  Cl13  1  0.94572692  0.97450252  0.86399041  1
  Cl  Cl14  1  0.94572692  0.52549748  0.36399041  1
  Cl  Cl15  1  0.05427308  0.47450252  0.63600959  1
  Cl  Cl16  1  0.25286525  0.31403490  0.38862104  1
  Cl  Cl17  1  0.74713475  0.68596510  0.61137896  1
  Cl  Cl18  1  0.74713475  0.81403490  0.11137896  1
  Cl  Cl19  1  0.25286525  0.18596510  0.88862104  1
  Cl  Cl20  1  0.48325487  0.32052417  0.17483255  1
  Cl  Cl21  1  0.51674513  0.67947583  0.82516745  1
  Cl  Cl22  1  0.51674513  0.82052417  0.32516745  1
  Cl  Cl23  1  0.48325487  0.17947583  0.67483255  1
  Cl  Cl24  1  0.02170076  0.07446696  0.37621038  1
  Cl  Cl25  1  0.97829924  0.92553304  0.62378962  1
  Cl  Cl26  1  0.97829924  0.57446696  0.12378962  1
  Cl  Cl27  1  0.02170076  0.42553304  0.87621038  1
  Cl  Cl28  1  0.53467951  0.05710080  0.13185851  1
  Cl  Cl29  1  0.46532049  0.94289920  0.86814149  1
  Cl  Cl30  1  0.46532049  0.55710080  0.36814149  1
  Cl  Cl31  1  0.53467951  0.44289920  0.63185851  1
  Cl  Cl32  1  0.00245594  0.29637852  0.17552759  1
  Cl  Cl33  1  0.99754406  0.70362148  0.82447241  1
  Cl  Cl34  1  0.99754406  0.79637852  0.32447241  1
  Cl  Cl35  1  0.00245594  0.20362148  0.67552759  1
  Cl  Cl36  1  0.54297527  0.08767488  0.37526165  1
  Cl  Cl37  1  0.45702473  0.91232512  0.62473835  1
  Cl  Cl38  1  0.45702473  0.58767488  0.12473835  1
  Cl  Cl39  1  0.54297527  0.41232512  0.87526165  1
