# generated using pymatgen
data_K2TmF5
_symmetry_space_group_name_H-M   'P 1'
_cell_length_a   6.66572134
_cell_length_b   7.20262748
_cell_length_c   10.97637647
_cell_angle_alpha   90.00000000
_cell_angle_beta   90.00000000
_cell_angle_gamma   90.00000000
_symmetry_Int_Tables_number   1
_chemical_formula_structural   K2TmF5
_chemical_formula_sum   'K8 Tm4 F20'
_cell_volume   526.98360228
_cell_formula_units_Z   4
loop_
 _symmetry_equiv_pos_site_id
 _symmetry_equiv_pos_as_xyz
  1  'x, y, z'
loop_
 _atom_site_type_symbol
 _atom_site_label
 _atom_site_symmetry_multiplicity
 _atom_site_fract_x
 _atom_site_fract_y
 _atom_site_fract_z
 _atom_site_occupancy
  K  K0  1  0.97056994  0.00191589  0.67190135  1
  K  K1  1  0.02943006  0.99808411  0.32809865  1
  K  K2  1  0.47056994  0.99808411  0.82809865  1
  K  K3  1  0.02943006  0.50191589  0.32809865  1
  K  K4  1  0.52943006  0.00191589  0.17190135  1
  K  K5  1  0.97056994  0.49808411  0.67190135  1
  K  K6  1  0.52943006  0.49808411  0.17190135  1
  K  K7  1  0.47056994  0.50191589  0.82809865  1
  Tm  Tm8  1  0.93647929  0.75000000  0.99878529  1
  Tm  Tm9  1  0.06352071  0.25000000  0.00121471  1
  Tm  Tm10  1  0.43647929  0.25000000  0.50121471  1
  Tm  Tm11  1  0.56352071  0.75000000  0.49878529  1
  F  F12  1  0.66108916  0.75000000  0.68813270  1
  F  F13  1  0.33891084  0.25000000  0.31186730  1
  F  F14  1  0.16108916  0.25000000  0.81186730  1
  F  F15  1  0.83891084  0.75000000  0.18813270  1
  F  F16  1  0.12946549  0.75000000  0.83954219  1
  F  F17  1  0.87053451  0.25000000  0.16045781  1
  F  F18  1  0.62946549  0.25000000  0.66045781  1
  F  F19  1  0.37053451  0.75000000  0.33954219  1
  F  F20  1  0.61249101  0.75000000  0.98596479  1
  F  F21  1  0.38750899  0.25000000  0.01403521  1
  F  F22  1  0.11249101  0.25000000  0.51403521  1
  F  F23  1  0.88750899  0.75000000  0.48596479  1
  F  F24  1  0.85762723  0.46545203  0.92401737  1
  F  F25  1  0.14237277  0.53454797  0.07598263  1
  F  F26  1  0.35762723  0.53454797  0.57598263  1
  F  F27  1  0.14237277  0.96545203  0.07598263  1
  F  F28  1  0.64237277  0.46545203  0.42401737  1
  F  F29  1  0.85762723  0.03454797  0.92401737  1
  F  F30  1  0.64237277  0.03454797  0.42401737  1
  F  F31  1  0.35762723  0.96545203  0.57598263  1
