# generated using pymatgen
data_KNd(SeO4)2
_symmetry_space_group_name_H-M   'P 1'
_cell_length_a   7.49310020
_cell_length_b   8.87121973
_cell_length_c   11.16156659
_cell_angle_alpha   91.70999631
_cell_angle_beta   90.00000000
_cell_angle_gamma   90.00000000
_symmetry_Int_Tables_number   1
_chemical_formula_structural   KNd(SeO4)2
_chemical_formula_sum   'K4 Nd4 Se8 O32'
_cell_volume   741.61171784
_cell_formula_units_Z   4
loop_
 _symmetry_equiv_pos_site_id
 _symmetry_equiv_pos_as_xyz
  1  'x, y, z'
loop_
 _atom_site_type_symbol
 _atom_site_label
 _atom_site_symmetry_multiplicity
 _atom_site_fract_x
 _atom_site_fract_y
 _atom_site_fract_z
 _atom_site_occupancy
  K  K0  1  0.84821972  0.43314524  0.66256829  1
  K  K1  1  0.15178028  0.56685476  0.33743171  1
  K  K2  1  0.34821972  0.56685476  0.83743171  1
  K  K3  1  0.65178028  0.43314524  0.16256829  1
  Nd  Nd4  1  0.66236392  0.94242850  0.65227466  1
  Nd  Nd5  1  0.33763608  0.05757150  0.34772534  1
  Nd  Nd6  1  0.16236392  0.05757150  0.84772534  1
  Nd  Nd7  1  0.83763608  0.94242850  0.15227466  1
  Se  Se8  1  0.66339627  0.19187976  0.89404986  1
  Se  Se9  1  0.33660373  0.80812024  0.10595014  1
  Se  Se10  1  0.16339627  0.80812024  0.60595014  1
  Se  Se11  1  0.83660373  0.19187976  0.39404986  1
  Se  Se12  1  0.83792264  0.71770665  0.91097077  1
  Se  Se13  1  0.16207736  0.28229335  0.08902923  1
  Se  Se14  1  0.33792264  0.28229335  0.58902923  1
  Se  Se15  1  0.66207736  0.71770665  0.41097077  1
  O  O16  1  0.31752585  0.86513587  0.96590889  1
  O  O17  1  0.68247415  0.13486413  0.03409111  1
  O  O18  1  0.81752585  0.13486413  0.53409111  1
  O  O19  1  0.18247415  0.86513587  0.46590889  1
  O  O20  1  0.00080444  0.90939608  0.67917320  1
  O  O21  1  0.99919556  0.09060392  0.32082680  1
  O  O22  1  0.50080444  0.09060392  0.82082680  1
  O  O23  1  0.49919556  0.90939608  0.17917320  1
  O  O24  1  0.63388038  0.37504696  0.89409480  1
  O  O25  1  0.36611962  0.62495304  0.10590520  1
  O  O26  1  0.13388038  0.62495304  0.60590520  1
  O  O27  1  0.86611962  0.37504696  0.39409480  1
  O  O28  1  0.75301543  0.69689483  0.54692501  1
  O  O29  1  0.24698457  0.30310517  0.45307499  1
  O  O30  1  0.25301543  0.30310517  0.95307499  1
  O  O31  1  0.74698457  0.69689483  0.04692501  1
  O  O32  1  0.93832372  0.88766821  0.94047699  1
  O  O33  1  0.06167628  0.11233179  0.05952301  1
  O  O34  1  0.43832372  0.11233179  0.55952301  1
  O  O35  1  0.56167628  0.88766821  0.44047699  1
  O  O36  1  0.98075842  0.58639575  0.86895354  1
  O  O37  1  0.01924158  0.41360425  0.13104646  1
  O  O38  1  0.48075842  0.41360425  0.63104646  1
  O  O39  1  0.51924158  0.58639575  0.36895354  1
  O  O40  1  0.33947620  0.85698829  0.69601512  1
  O  O41  1  0.66052380  0.14301171  0.30398488  1
  O  O42  1  0.83947620  0.14301171  0.80398488  1
  O  O43  1  0.16052380  0.85698829  0.19601512  1
  O  O44  1  0.68018059  0.74247930  0.80639712  1
  O  O45  1  0.31981941  0.25752070  0.19360288  1
  O  O46  1  0.18018059  0.25752070  0.69360288  1
  O  O47  1  0.81981941  0.74247930  0.30639712  1
