# generated using pymatgen
data_LiPr6B3O14
_symmetry_space_group_name_H-M   'P 1'
_cell_length_a   8.79253034
_cell_length_b   9.33706673
_cell_length_c   16.22101167
_cell_angle_alpha   90.00000000
_cell_angle_beta   90.00000000
_cell_angle_gamma   92.45058800
_symmetry_Int_Tables_number   1
_chemical_formula_structural   LiPr6B3O14
_chemical_formula_sum   'Li4 Pr24 B12 O56'
_cell_volume   1330.46948110
_cell_formula_units_Z   4
loop_
 _symmetry_equiv_pos_site_id
 _symmetry_equiv_pos_as_xyz
  1  'x, y, z'
loop_
 _atom_site_type_symbol
 _atom_site_label
 _atom_site_symmetry_multiplicity
 _atom_site_fract_x
 _atom_site_fract_y
 _atom_site_fract_z
 _atom_site_occupancy
  Li  Li0  1  0.67820887  0.55952240  0.39626817  1
  Li  Li1  1  0.32179113  0.44047760  0.60373183  1
  Li  Li2  1  0.82179113  0.94047760  0.89626817  1
  Li  Li3  1  0.17820887  0.05952240  0.10373183  1
  Pr  Pr4  1  0.14036904  0.69481491  0.17807777  1
  Pr  Pr5  1  0.85963096  0.30518509  0.82192223  1
  Pr  Pr6  1  0.35963096  0.80518509  0.67807777  1
  Pr  Pr7  1  0.64036904  0.19481491  0.32192223  1
  Pr  Pr8  1  0.96010808  0.94564877  0.67510159  1
  Pr  Pr9  1  0.03989192  0.05435123  0.32489841  1
  Pr  Pr10  1  0.53989192  0.55435123  0.17510159  1
  Pr  Pr11  1  0.46010808  0.44564877  0.82489841  1
  Pr  Pr12  1  0.72816936  0.57612930  0.64307781  1
  Pr  Pr13  1  0.27183064  0.42387070  0.35692219  1
  Pr  Pr14  1  0.77183064  0.92387070  0.14307781  1
  Pr  Pr15  1  0.22816936  0.07612930  0.85692219  1
  Pr  Pr16  1  0.05195221  0.71602850  0.48544359  1
  Pr  Pr17  1  0.94804779  0.28397150  0.51455641  1
  Pr  Pr18  1  0.44804779  0.78397150  0.98544359  1
  Pr  Pr19  1  0.55195221  0.21602850  0.01455641  1
  Pr  Pr20  1  0.70134830  0.93686255  0.49511112  1
  Pr  Pr21  1  0.29865170  0.06313745  0.50488888  1
  Pr  Pr22  1  0.79865170  0.56313745  0.99511112  1
  Pr  Pr23  1  0.20134830  0.43686255  0.00488888  1
  Pr  Pr24  1  0.42231961  0.83259672  0.33429904  1
  Pr  Pr25  1  0.57768039  0.16740328  0.66570096  1
  Pr  Pr26  1  0.07768039  0.66740328  0.83429904  1
  Pr  Pr27  1  0.92231961  0.33259672  0.16570096  1
  B  B28  1  0.42874950  0.97348568  0.17278421  1
  B  B29  1  0.57125050  0.02651432  0.82721579  1
  B  B30  1  0.07125050  0.52651432  0.67278421  1
  B  B31  1  0.92874950  0.47348568  0.32721579  1
  B  B32  1  0.06306683  0.85683842  0.00068689  1
  B  B33  1  0.93693317  0.14316158  0.99931311  1
  B  B34  1  0.43693317  0.64316158  0.50068689  1
  B  B35  1  0.56306683  0.35683842  0.49931311  1
  B  B36  1  0.82002220  0.77849613  0.30662367  1
  B  B37  1  0.17997780  0.22150387  0.69337633  1
  B  B38  1  0.67997780  0.72150387  0.80662367  1
  B  B39  1  0.32002220  0.27849613  0.19337633  1
  O  O40  1  0.93475127  0.82161110  0.25006913  1
  O  O41  1  0.06524873  0.17838890  0.74993087  1
  O  O42  1  0.56524873  0.67838890  0.75006913  1
  O  O43  1  0.43475127  0.32161110  0.24993087  1
  O  O44  1  0.70388304  0.40346161  0.53255058  1
  O  O45  1  0.29611696  0.59653839  0.46744942  1
  O  O46  1  0.79611696  0.09653839  0.03255058  1
  O  O47  1  0.20388304  0.90346161  0.96744942  1
  O  O48  1  0.84680845  0.77947650  0.57865090  1
  O  O49  1  0.15319155  0.22052350  0.42134910  1
  O  O50  1  0.65319155  0.72052350  0.07865090  1
  O  O51  1  0.34680845  0.27947650  0.92134910  1
  O  O52  1  0.03163896  0.88298787  0.08308030  1
  O  O53  1  0.96836104  0.11701213  0.91691970  1
  O  O54  1  0.46836104  0.61701213  0.58308030  1
  O  O55  1  0.53163896  0.38298787  0.41691970  1
  O  O56  1  0.46570569  0.98975342  0.09033811  1
  O  O57  1  0.53429431  0.01024658  0.90966189  1
  O  O58  1  0.03429431  0.51024658  0.59033811  1
  O  O59  1  0.96570569  0.48975342  0.40966189  1
  O  O60  1  0.28639728  0.92752224  0.20189957  1
  O  O61  1  0.71360272  0.07247776  0.79810043  1
  O  O62  1  0.21360272  0.57247776  0.70189957  1
  O  O63  1  0.78639728  0.42752224  0.29810043  1
  O  O64  1  0.45749433  0.28526028  0.54950227  1
  O  O65  1  0.54250567  0.71473972  0.45049773  1
  O  O66  1  0.04250567  0.21473972  0.04950227  1
  O  O67  1  0.95749433  0.78526028  0.95049773  1
  O  O68  1  0.19255462  0.89466374  0.40201096  1
  O  O69  1  0.80744538  0.10533626  0.59798904  1
  O  O70  1  0.30744538  0.60533626  0.90201096  1
  O  O71  1  0.69255462  0.39466374  0.09798904  1
  O  O72  1  0.00905314  0.53615705  0.08916082  1
  O  O73  1  0.99094686  0.46384295  0.91083918  1
  O  O74  1  0.49094686  0.96384295  0.58916082  1
  O  O75  1  0.50905314  0.03615705  0.41083918  1
  O  O76  1  0.16149253  0.87752633  0.58587807  1
  O  O77  1  0.83850747  0.12247367  0.41412193  1
  O  O78  1  0.33850747  0.62247367  0.08587807  1
  O  O79  1  0.66149253  0.37752633  0.91412193  1
  O  O80  1  0.15605387  0.87967649  0.76714542  1
  O  O81  1  0.84394613  0.12032351  0.23285458  1
  O  O82  1  0.34394613  0.62032351  0.26714542  1
  O  O83  1  0.65605387  0.37967649  0.73285458  1
  O  O84  1  0.82057249  0.77010257  0.77602801  1
  O  O85  1  0.17942751  0.22989743  0.22397199  1
  O  O86  1  0.67942751  0.72989743  0.27602801  1
  O  O87  1  0.32057249  0.27010257  0.72397199  1
  O  O88  1  0.85004092  0.79733864  0.38980382  1
  O  O89  1  0.14995908  0.20266136  0.61019618  1
  O  O90  1  0.64995908  0.70266136  0.88980382  1
  O  O91  1  0.35004092  0.29733864  0.11019618  1
  O  O92  1  0.54501810  0.99583634  0.23067071  1
  O  O93  1  0.45498190  0.00416366  0.76932929  1
  O  O94  1  0.95498190  0.50416366  0.73067071  1
  O  O95  1  0.04501810  0.49583634  0.26932929  1
