# generated using pymatgen
data_Ru2W3
_symmetry_space_group_name_H-M   'P 1'
_cell_length_a   4.98114830
_cell_length_b   9.63760937
_cell_length_c   9.63760937
_cell_angle_alpha   90.33352072
_cell_angle_beta   90.00000000
_cell_angle_gamma   90.00000000
_symmetry_Int_Tables_number   1
_chemical_formula_structural   Ru2W3
_chemical_formula_sum   'Ru12 W18'
_cell_volume   462.65872118
_cell_formula_units_Z   6
loop_
 _symmetry_equiv_pos_site_id
 _symmetry_equiv_pos_as_xyz
  1  'x, y, z'
loop_
 _atom_site_type_symbol
 _atom_site_label
 _atom_site_symmetry_multiplicity
 _atom_site_fract_x
 _atom_site_fract_y
 _atom_site_fract_z
 _atom_site_occupancy
  Ru  Ru0  1  0.50814049  0.50000000  0.50000000  1
  Ru  Ru1  1  0.00100372  -0.00000000  -0.00000000  1
  Ru  Ru2  1  0.49828560  0.43369589  0.23567570  1
  Ru  Ru3  1  0.49828560  0.56630411  0.76432430  1
  Ru  Ru4  1  0.00093205  0.06785791  0.73631751  1
  Ru  Ru5  1  0.00093205  0.93214209  0.26368249  1
  Ru  Ru6  1  0.49828560  0.23567570  0.43369589  1
  Ru  Ru7  1  0.49828560  0.76432430  0.56630411  1
  Ru  Ru8  1  0.00093205  0.73631751  0.06785791  1
  Ru  Ru9  1  0.00093205  0.26368249  0.93214209  1
  Ru  Ru10  1  0.25032424  0.31772585  0.68227415  1
  Ru  Ru11  1  0.25032424  0.68227415  0.31772585  1
  W  W12  1  0.49833921  0.10234516  0.89765484  1
  W  W13  1  0.49833921  0.89765484  0.10234516  1
  W  W14  1  0.99904596  0.39708913  0.39708913  1
  W  W15  1  0.99904596  0.60291087  0.60291087  1
  W  W16  1  0.49852521  0.37037223  0.96039007  1
  W  W17  1  0.49852521  0.62962777  0.03960993  1
  W  W18  1  0.00144307  0.13176792  0.46460292  1
  W  W19  1  0.00144307  0.86823208  0.53539708  1
  W  W20  1  0.49852521  0.96039007  0.37037223  1
  W  W21  1  0.49852521  0.03960993  0.62962777  1
  W  W22  1  0.00144307  0.46460292  0.13176792  1
  W  W23  1  0.00144307  0.53539708  0.86823208  1
  W  W24  1  0.74888013  0.18089490  0.18089490  1
  W  W25  1  0.74888013  0.81910510  0.81910510  1
  W  W26  1  0.74977208  0.68067924  0.31932076  1
  W  W27  1  0.74977208  0.31932076  0.68067924  1
  W  W28  1  0.25069441  0.81782386  0.81782386  1
  W  W29  1  0.25069441  0.18217614  0.18217614  1
