# generated using pymatgen
data_Li6Eu(BO3)3
_symmetry_space_group_name_H-M   'P 1'
_cell_length_a   6.78139122
_cell_length_b   7.34275601
_cell_length_c   16.61009115
_cell_angle_alpha   90.00000000
_cell_angle_beta   90.00000000
_cell_angle_gamma   105.39879033
_symmetry_Int_Tables_number   1
_chemical_formula_structural   Li6Eu(BO3)3
_chemical_formula_sum   'Li24 Eu4 B12 O36'
_cell_volume   797.39305918
_cell_formula_units_Z   4
loop_
 _symmetry_equiv_pos_site_id
 _symmetry_equiv_pos_as_xyz
  1  'x, y, z'
loop_
 _atom_site_type_symbol
 _atom_site_label
 _atom_site_symmetry_multiplicity
 _atom_site_fract_x
 _atom_site_fract_y
 _atom_site_fract_z
 _atom_site_occupancy
  Li  Li0  1  0.05291451  0.19396751  0.03545453  1
  Li  Li1  1  0.94708549  0.80603249  0.96454547  1
  Li  Li2  1  0.44708549  0.80603249  0.53545453  1
  Li  Li3  1  0.55291451  0.19396751  0.46454547  1
  Li  Li4  1  0.08833610  0.63893416  0.44539711  1
  Li  Li5  1  0.91166390  0.36106584  0.55460289  1
  Li  Li6  1  0.41166390  0.36106584  0.94539711  1
  Li  Li7  1  0.58833610  0.63893416  0.05460289  1
  Li  Li8  1  0.16793381  0.04316086  0.53096484  1
  Li  Li9  1  0.83206619  0.95683914  0.46903516  1
  Li  Li10  1  0.33206619  0.95683914  0.03096484  1
  Li  Li11  1  0.66793381  0.04316086  0.96903516  1
  Li  Li12  1  0.13271189  0.78885756  0.29391262  1
  Li  Li13  1  0.86728811  0.21114244  0.70608738  1
  Li  Li14  1  0.36728811  0.21114244  0.79391262  1
  Li  Li15  1  0.63271189  0.78885756  0.20608738  1
  Li  Li16  1  0.04530602  0.06283443  0.20371443  1
  Li  Li17  1  0.95469398  0.93716557  0.79628557  1
  Li  Li18  1  0.45469398  0.93716557  0.70371443  1
  Li  Li19  1  0.54530602  0.06283443  0.29628557  1
  Li  Li20  1  0.17733066  0.57441139  0.00288415  1
  Li  Li21  1  0.82266934  0.42558861  0.99711585  1
  Li  Li22  1  0.32266934  0.42558861  0.50288415  1
  Li  Li23  1  0.67733066  0.57441139  0.49711585  1
  Eu  Eu24  1  0.34650645  0.42360354  0.30851482  1
  Eu  Eu25  1  0.65349355  0.57639646  0.69148518  1
  Eu  Eu26  1  0.15349355  0.57639646  0.80851482  1
  Eu  Eu27  1  0.84650645  0.42360354  0.19148518  1
  B  B28  1  0.00070018  0.79076206  0.11818174  1
  B  B29  1  -0.00070018  0.20923794  0.88181826  1
  B  B30  1  0.49929982  0.20923794  0.61818174  1
  B  B31  1  0.50070018  0.79076206  0.38181826  1
  B  B32  1  0.18736157  0.05949878  0.38544662  1
  B  B33  1  0.81263843  0.94050122  0.61455338  1
  B  B34  1  0.31263843  0.94050122  0.88544662  1
  B  B35  1  0.68736157  0.05949878  0.11455338  1
  B  B36  1  0.33794525  0.41900357  0.13379958  1
  B  B37  1  0.66205475  0.58099643  0.86620042  1
  B  B38  1  0.16205475  0.58099643  0.63379958  1
  B  B39  1  0.83794525  0.41900357  0.36620042  1
  O  O40  1  0.32436578  0.41424233  0.05196717  1
  O  O41  1  0.67563422  0.58575767  0.94803283  1
  O  O42  1  0.17563422  0.58575767  0.55196717  1
  O  O43  1  0.82436578  0.41424233  0.44803283  1
  O  O44  1  0.22558736  0.07564134  0.30293515  1
  O  O45  1  0.77441264  0.92435866  0.69706485  1
  O  O46  1  0.27441264  0.92435866  0.80293515  1
  O  O47  1  0.72558736  0.07564134  0.19706485  1
  O  O48  1  0.16871289  0.34414107  0.18246339  1
  O  O49  1  0.83128711  0.65585893  0.81753661  1
  O  O50  1  0.33128711  0.65585893  0.68246339  1
  O  O51  1  0.66871289  0.34414107  0.31753661  1
  O  O52  1  0.26741193  0.21854482  0.43261792  1
  O  O53  1  0.73258807  0.78145518  0.56738208  1
  O  O54  1  0.23258807  0.78145518  0.93261792  1
  O  O55  1  0.76741193  0.21854482  0.06738208  1
  O  O56  1  0.41417352  0.03509640  0.58599086  1
  O  O57  1  0.58582648  0.96490360  0.41400914  1
  O  O58  1  0.08582648  0.96490360  0.08599086  1
  O  O59  1  0.91417352  0.03509640  0.91400914  1
  O  O60  1  0.07497173  0.89466968  0.42101939  1
  O  O61  1  0.92502827  0.10533032  0.57898061  1
  O  O62  1  0.42502827  0.10533032  0.92101939  1
  O  O63  1  0.57497173  0.89466968  0.07898061  1
  O  O64  1  0.53925601  0.37301551  0.57161415  1
  O  O65  1  0.46074399  0.62698449  0.42838585  1
  O  O66  1  0.96074399  0.62698449  0.07161415  1
  O  O67  1  0.03925601  0.37301551  0.92838585  1
  O  O68  1  0.02289775  0.50727487  0.32831788  1
  O  O69  1  0.97710225  0.49272513  0.67168212  1
  O  O70  1  0.47710225  0.49272513  0.82831788  1
  O  O71  1  0.52289775  0.50727487  0.17168212  1
  O  O72  1  0.05386785  0.23192061  0.80052526  1
  O  O73  1  0.94613215  0.76807939  0.19947474  1
  O  O74  1  0.44613215  0.76807939  0.30052526  1
  O  O75  1  0.55386785  0.23192061  0.69947474  1
