# generated using pymatgen
data_La3(GeRh)2
_symmetry_space_group_name_H-M   'P 1'
_cell_length_a   5.77565168
_cell_length_b   8.29216567
_cell_length_c   13.54288053
_cell_angle_alpha   90.00000000
_cell_angle_beta   90.00000000
_cell_angle_gamma   90.00000000
_symmetry_Int_Tables_number   1
_chemical_formula_structural   La3(GeRh)2
_chemical_formula_sum   'La12 Ge8 Rh8'
_cell_volume   648.60458054
_cell_formula_units_Z   4
loop_
 _symmetry_equiv_pos_site_id
 _symmetry_equiv_pos_as_xyz
  1  'x, y, z'
loop_
 _atom_site_type_symbol
 _atom_site_label
 _atom_site_symmetry_multiplicity
 _atom_site_fract_x
 _atom_site_fract_y
 _atom_site_fract_z
 _atom_site_occupancy
  La  La0  1  0.65104333  0.24864289  0.25000000  1
  La  La1  1  0.34895667  0.75135711  0.75000000  1
  La  La2  1  0.34895667  0.74864289  0.25000000  1
  La  La3  1  0.65104333  0.25135711  0.75000000  1
  La  La4  1  0.15370004  0.39356877  0.09804599  1
  La  La5  1  0.84629996  0.60643123  0.90195401  1
  La  La6  1  0.84629996  0.60643123  0.59804599  1
  La  La7  1  0.84629996  0.89356877  0.40195401  1
  La  La8  1  0.15370004  0.39356877  0.40195401  1
  La  La9  1  0.15370004  0.10643123  0.59804599  1
  La  La10  1  0.15370004  0.10643123  0.90195401  1
  La  La11  1  0.84629996  0.89356877  0.09804599  1
  Ge  Ge12  1  0.15618055  0.10350172  0.25000000  1
  Ge  Ge13  1  0.84381945  0.89649828  0.75000000  1
  Ge  Ge14  1  0.84381945  0.60350172  0.25000000  1
  Ge  Ge15  1  0.15618055  0.39649828  0.75000000  1
  Ge  Ge16  1  0.64323239  0.25000000  0.00000000  1
  Ge  Ge17  1  0.35676761  0.75000000  0.00000000  1
  Ge  Ge18  1  0.35676761  0.75000000  0.50000000  1
  Ge  Ge19  1  0.64323239  0.25000000  0.50000000  1
  Rh  Rh20  1  0.38198771  0.03633709  0.09112867  1
  Rh  Rh21  1  0.61801229  0.96366291  0.90887133  1
  Rh  Rh22  1  0.61801229  0.96366291  0.59112867  1
  Rh  Rh23  1  0.61801229  0.53633709  0.40887133  1
  Rh  Rh24  1  0.38198771  0.03633709  0.40887133  1
  Rh  Rh25  1  0.38198771  0.46366291  0.59112867  1
  Rh  Rh26  1  0.38198771  0.46366291  0.90887133  1
  Rh  Rh27  1  0.61801229  0.53633709  0.09112867  1
