# generated using pymatgen
data_K3Tb(BO3)2
_symmetry_space_group_name_H-M   'P 1'
_cell_length_a   5.59785114
_cell_length_b   6.87721947
_cell_length_c   9.48885149
_cell_angle_alpha   90.00000000
_cell_angle_beta   90.00000000
_cell_angle_gamma   90.00000000
_symmetry_Int_Tables_number   1
_chemical_formula_structural   K3Tb(BO3)2
_chemical_formula_sum   'K6 Tb2 B4 O12'
_cell_volume   365.29849163
_cell_formula_units_Z   2
loop_
 _symmetry_equiv_pos_site_id
 _symmetry_equiv_pos_as_xyz
  1  'x, y, z'
loop_
 _atom_site_type_symbol
 _atom_site_label
 _atom_site_symmetry_multiplicity
 _atom_site_fract_x
 _atom_site_fract_y
 _atom_site_fract_z
 _atom_site_occupancy
  K  K0  1  0.00000000  0.26708908  0.66784580  1
  K  K1  1  -0.00000000  0.73291092  0.33215420  1
  K  K2  1  0.50000000  0.23291092  0.16784580  1
  K  K3  1  0.50000000  0.76708908  0.83215420  1
  K  K4  1  0.50000000  -0.00000000  0.50000000  1
  K  K5  1  0.00000000  0.50000000  -0.00000000  1
  Tb  Tb6  1  0.00000000  0.00000000  -0.00000000  1
  Tb  Tb7  1  0.50000000  0.50000000  0.50000000  1
  B  B8  1  0.00000000  0.26259728  0.33387950  1
  B  B9  1  -0.00000000  0.73740272  0.66612050  1
  B  B10  1  0.50000000  0.23740272  0.83387950  1
  B  B11  1  0.50000000  0.76259728  0.16612050  1
  O  O12  1  0.21583897  0.29859826  0.40336684  1
  O  O13  1  0.78416103  0.70140174  0.59663316  1
  O  O14  1  0.21583897  0.70140174  0.59663316  1
  O  O15  1  0.28416103  0.20140174  0.90336684  1
  O  O16  1  0.78416103  0.29859826  0.40336684  1
  O  O17  1  0.71583897  0.79859826  0.09663316  1
  O  O18  1  0.28416103  0.79859826  0.09663316  1
  O  O19  1  0.71583897  0.20140174  0.90336684  1
  O  O20  1  -0.00000000  0.19339692  0.19601718  1
  O  O21  1  -0.00000000  0.80660308  0.80398282  1
  O  O22  1  0.50000000  0.30660308  0.69601718  1
  O  O23  1  0.50000000  0.69339692  0.30398282  1
