# generated using pymatgen
data_LiZnP2HO7
_symmetry_space_group_name_H-M   'P 1'
_cell_length_a   5.09930663
_cell_length_b   13.59292079
_cell_length_c   16.27862435
_cell_angle_alpha   90.00000000
_cell_angle_beta   90.00000000
_cell_angle_gamma   90.00000000
_symmetry_Int_Tables_number   1
_chemical_formula_structural   LiZnP2HO7
_chemical_formula_sum   'Li8 Zn8 P16 H8 O56'
_cell_volume   1128.34423715
_cell_formula_units_Z   8
loop_
 _symmetry_equiv_pos_site_id
 _symmetry_equiv_pos_as_xyz
  1  'x, y, z'
loop_
 _atom_site_type_symbol
 _atom_site_label
 _atom_site_symmetry_multiplicity
 _atom_site_fract_x
 _atom_site_fract_y
 _atom_site_fract_z
 _atom_site_occupancy
  Li  Li0  1  0.29556489  0.75921902  0.65188145  1
  Li  Li1  1  0.70443511  0.24078098  0.15188145  1
  Li  Li2  1  0.70443511  0.25921902  0.65188145  1
  Li  Li3  1  0.29556489  0.74078098  0.15188145  1
  Li  Li4  1  0.91651872  0.44724007  0.91358584  1
  Li  Li5  1  0.08348128  0.55275993  0.41358584  1
  Li  Li6  1  0.08348128  0.94724007  0.91358584  1
  Li  Li7  1  0.91651872  0.05275993  0.41358584  1
  Zn  Zn8  1  0.91873376  0.44650077  0.57739664  1
  Zn  Zn9  1  0.08126624  0.55349923  0.07739664  1
  Zn  Zn10  1  0.08126624  0.94650077  0.57739664  1
  Zn  Zn11  1  0.91873376  0.05349923  0.07739664  1
  Zn  Zn12  1  0.31216361  0.75940736  0.83415161  1
  Zn  Zn13  1  0.68783639  0.24059264  0.33415161  1
  Zn  Zn14  1  0.68783639  0.25940736  0.83415161  1
  Zn  Zn15  1  0.31216361  0.74059264  0.33415161  1
  P  P16  1  0.58440195  0.64963089  0.98613621  1
  P  P17  1  0.41559805  0.35036911  0.48613621  1
  P  P18  1  0.41559805  0.14963089  0.98613621  1
  P  P19  1  0.58440195  0.85036911  0.48613621  1
  P  P20  1  0.97598098  0.43579283  0.24263441  1
  P  P21  1  0.02401902  0.56420717  0.74263441  1
  P  P22  1  0.02401902  0.93579283  0.24263441  1
  P  P23  1  0.97598098  0.06420717  0.74263441  1
  P  P24  1  0.58859608  0.85996838  0.99887958  1
  P  P25  1  0.41140392  0.14003162  0.49887958  1
  P  P26  1  0.41140392  0.35996838  0.99887958  1
  P  P27  1  0.58859608  0.64003162  0.49887958  1
  P  P28  1  0.82003668  0.85830382  0.74563036  1
  P  P29  1  0.17996332  0.14169618  0.24563036  1
  P  P30  1  0.17996332  0.35830382  0.74563036  1
  P  P31  1  0.82003668  0.64169618  0.24563036  1
  H  H32  1  0.70860191  0.59307418  0.84132532  1
  H  H33  1  0.29139809  0.40692582  0.34132532  1
  H  H34  1  0.29139809  0.09307418  0.84132532  1
  H  H35  1  0.70860191  0.90692582  0.34132532  1
  H  H36  1  0.56915170  0.60074229  0.62683373  1
  H  H37  1  0.43084830  0.39925771  0.12683373  1
  H  H38  1  0.43084830  0.10074229  0.62683373  1
  H  H39  1  0.56915170  0.89925771  0.12683373  1
  O  O40  1  0.85285669  0.54786173  0.66679391  1
  O  O41  1  0.14714331  0.45213827  0.16679391  1
  O  O42  1  0.14714331  0.04786173  0.66679391  1
  O  O43  1  0.85285669  0.95213827  0.16679391  1
  O  O44  1  0.82840442  0.16043773  0.74355001  1
  O  O45  1  0.17159558  0.83956227  0.24355001  1
  O  O46  1  0.17159558  0.66043773  0.74355001  1
  O  O47  1  0.82840442  0.33956227  0.24355001  1
  O  O48  1  0.49067319  0.64845196  0.89563822  1
  O  O49  1  0.50932681  0.35154804  0.39563822  1
  O  O50  1  0.50932681  0.14845196  0.89563822  1
  O  O51  1  0.49067319  0.85154804  0.39563822  1
  O  O52  1  0.97337378  0.84213325  0.66619141  1
  O  O53  1  0.02662622  0.15786675  0.16619141  1
  O  O54  1  0.02662622  0.34213325  0.66619141  1
  O  O55  1  0.97337378  0.65786675  0.16619141  1
  O  O56  1  0.36445803  0.85005480  0.54990526  1
  O  O57  1  0.63554197  0.14994520  0.04990526  1
  O  O58  1  0.63554197  0.35005480  0.54990526  1
  O  O59  1  0.36445803  0.64994520  0.04990526  1
  O  O60  1  0.97370871  0.83628692  0.82473668  1
  O  O61  1  0.02629129  0.16371308  0.32473668  1
  O  O62  1  0.02629129  0.33628692  0.82473668  1
  O  O63  1  0.97370871  0.66371308  0.32473668  1
  O  O64  1  0.44685654  0.63287428  0.58655428  1
  O  O65  1  0.55314346  0.36712572  0.08655428  1
  O  O66  1  0.55314346  0.13287428  0.58655428  1
  O  O67  1  0.44685654  0.86712572  0.08655428  1
  O  O68  1  0.73570506  0.75481343  0.99981696  1
  O  O69  1  0.26429494  0.24518657  0.49981696  1
  O  O70  1  0.26429494  0.25481343  0.99981696  1
  O  O71  1  0.73570506  0.74518657  0.49981696  1
  O  O72  1  0.79011664  0.56971987  0.99804828  1
  O  O73  1  0.20988336  0.43028013  0.49804828  1
  O  O74  1  0.20988336  0.06971987  0.99804828  1
  O  O75  1  0.79011664  0.93028013  0.49804828  1
  O  O76  1  0.85766140  0.54755373  0.82355976  1
  O  O77  1  0.14233860  0.45244627  0.32355976  1
  O  O78  1  0.14233860  0.04755373  0.82355976  1
  O  O79  1  0.85766140  0.95244627  0.32355976  1
  O  O80  1  0.76164820  0.97803321  0.74936089  1
  O  O81  1  0.23835180  0.02196679  0.24936089  1
  O  O82  1  0.23835180  0.47803321  0.74936089  1
  O  O83  1  0.76164820  0.52196679  0.24936089  1
  O  O84  1  0.54829746  0.81064396  0.74374809  1
  O  O85  1  0.45170254  0.18935604  0.24374809  1
  O  O86  1  0.45170254  0.31064396  0.74374809  1
  O  O87  1  0.54829746  0.68935604  0.24374809  1
  O  O88  1  0.79646533  0.93890532  0.99256905  1
  O  O89  1  0.20353467  0.06109468  0.49256905  1
  O  O90  1  0.20353467  0.43890532  0.99256905  1
  O  O91  1  0.79646533  0.56109468  0.49256905  1
  O  O92  1  0.37841334  0.85731961  0.93328206  1
  O  O93  1  0.62158666  0.14268039  0.43328206  1
  O  O94  1  0.62158666  0.35731961  0.93328206  1
  O  O95  1  0.37841334  0.64268039  0.43328206  1
