# generated using pymatgen
data_K2Rb4Fe2O5
_symmetry_space_group_name_H-M   'P 1'
_cell_length_a   6.96007315
_cell_length_b   6.96007315
_cell_length_c   6.99628020
_cell_angle_alpha   89.94645282
_cell_angle_beta   89.94645282
_cell_angle_gamma   119.59412570
_symmetry_Int_Tables_number   1
_chemical_formula_structural   K2Rb4Fe2O5
_chemical_formula_sum   'K2 Rb4 Fe2 O5'
_cell_volume   294.70424947
_cell_formula_units_Z   1
loop_
 _symmetry_equiv_pos_site_id
 _symmetry_equiv_pos_as_xyz
  1  'x, y, z'
loop_
 _atom_site_type_symbol
 _atom_site_label
 _atom_site_symmetry_multiplicity
 _atom_site_fract_x
 _atom_site_fract_y
 _atom_site_fract_z
 _atom_site_occupancy
  K  K0  1  0.77763787  0.22236213  0.50000000  1
  K  K1  1  0.22236213  0.77763787  0.50000000  1
  Rb  Rb2  1  0.75801411  0.24198589  -0.00000000  1
  Rb  Rb3  1  0.24198589  0.75801411  -0.00000000  1
  Rb  Rb4  1  0.33516435  0.33516435  0.68462170  1
  Rb  Rb5  1  0.66483565  0.66483565  0.31537830  1
  Fe  Fe6  1  0.80214701  0.80214701  0.80438435  1
  Fe  Fe7  1  0.19785299  0.19785299  0.19561565  1
  O  O8  1  0.56602558  0.83937514  0.71091827  1
  O  O9  1  0.43397442  0.16062486  0.28908173  1
  O  O10  1  0.16062486  0.43397442  0.28908173  1
  O  O11  1  0.83937514  0.56602558  0.71091827  1
  O  O12  1  0.00000000  0.00000000  -0.00000000  1
