# generated using pymatgen
data_K2NdF5
_symmetry_space_group_name_H-M   'P 1'
_cell_length_a   6.77666279
_cell_length_b   7.55803258
_cell_length_c   11.10499898
_cell_angle_alpha   90.00000000
_cell_angle_beta   90.00000000
_cell_angle_gamma   90.00000000
_symmetry_Int_Tables_number   1
_chemical_formula_structural   K2NdF5
_chemical_formula_sum   'K8 Nd4 F20'
_cell_volume   568.77848242
_cell_formula_units_Z   4
loop_
 _symmetry_equiv_pos_site_id
 _symmetry_equiv_pos_as_xyz
  1  'x, y, z'
loop_
 _atom_site_type_symbol
 _atom_site_label
 _atom_site_symmetry_multiplicity
 _atom_site_fract_x
 _atom_site_fract_y
 _atom_site_fract_z
 _atom_site_occupancy
  K  K0  1  0.97461122  0.00322104  0.67252052  1
  K  K1  1  0.02538878  0.99677896  0.32747948  1
  K  K2  1  0.47461122  0.99677896  0.82747948  1
  K  K3  1  0.02538878  0.50322104  0.32747948  1
  K  K4  1  0.52538878  0.00322104  0.17252052  1
  K  K5  1  0.97461122  0.49677896  0.67252052  1
  K  K6  1  0.52538878  0.49677896  0.17252052  1
  K  K7  1  0.47461122  0.50322104  0.82747948  1
  Nd  Nd8  1  0.93258273  0.75000000  0.99761063  1
  Nd  Nd9  1  0.06741727  0.25000000  0.00238937  1
  Nd  Nd10  1  0.43258273  0.25000000  0.50238937  1
  Nd  Nd11  1  0.56741727  0.75000000  0.49761063  1
  F  F12  1  0.67185232  0.75000000  0.69724042  1
  F  F13  1  0.32814768  0.25000000  0.30275958  1
  F  F14  1  0.17185232  0.25000000  0.80275958  1
  F  F15  1  0.82814768  0.75000000  0.19724042  1
  F  F16  1  0.13937740  0.75000000  0.83322542  1
  F  F17  1  0.86062260  0.25000000  0.16677458  1
  F  F18  1  0.63937740  0.25000000  0.66677458  1
  F  F19  1  0.36062260  0.75000000  0.33322542  1
  F  F20  1  0.59452290  0.75000000  0.98894535  1
  F  F21  1  0.40547710  0.25000000  0.01105465  1
  F  F22  1  0.09452290  0.25000000  0.51105465  1
  F  F23  1  0.90547710  0.75000000  0.48894535  1
  F  F24  1  0.85476535  0.46763036  0.91737286  1
  F  F25  1  0.14523465  0.53236964  0.08262714  1
  F  F26  1  0.35476535  0.53236964  0.58262714  1
  F  F27  1  0.14523465  0.96763036  0.08262714  1
  F  F28  1  0.64523465  0.46763036  0.41737286  1
  F  F29  1  0.85476535  0.03236964  0.91737286  1
  F  F30  1  0.64523465  0.03236964  0.41737286  1
  F  F31  1  0.35476535  0.96763036  0.58262714  1
