# generated using pymatgen
data_K5Ta(TlAs2)2
_symmetry_space_group_name_H-M   'P 1'
_cell_length_a   7.80470573
_cell_length_b   10.79265614
_cell_length_c   18.94029961
_cell_angle_alpha   90.00000000
_cell_angle_beta   90.00000000
_cell_angle_gamma   90.00000000
_symmetry_Int_Tables_number   1
_chemical_formula_structural   K5Ta(TlAs2)2
_chemical_formula_sum   'K20 Ta4 Tl8 As16'
_cell_volume   1595.40782603
_cell_formula_units_Z   4
loop_
 _symmetry_equiv_pos_site_id
 _symmetry_equiv_pos_as_xyz
  1  'x, y, z'
loop_
 _atom_site_type_symbol
 _atom_site_label
 _atom_site_symmetry_multiplicity
 _atom_site_fract_x
 _atom_site_fract_y
 _atom_site_fract_z
 _atom_site_occupancy
  K  K0  1  0.10558956  0.75000000  0.52123590  1
  K  K1  1  0.89441044  0.25000000  0.47876410  1
  K  K2  1  0.60558956  0.25000000  0.97876410  1
  K  K3  1  0.39441044  0.75000000  0.02123590  1
  K  K4  1  0.69343447  0.97519367  0.57812705  1
  K  K5  1  0.30656553  0.02480633  0.42187295  1
  K  K6  1  0.19343447  0.02480633  0.92187295  1
  K  K7  1  0.30656553  0.47519367  0.42187295  1
  K  K8  1  0.80656553  0.97519367  0.07812705  1
  K  K9  1  0.69343447  0.52480633  0.57812705  1
  K  K10  1  0.80656553  0.52480633  0.07812705  1
  K  K11  1  0.19343447  0.47519367  0.92187295  1
  K  K12  1  0.97827518  0.94519723  0.75190966  1
  K  K13  1  0.02172482  0.05480277  0.24809034  1
  K  K14  1  0.47827518  0.05480277  0.74809034  1
  K  K15  1  0.02172482  0.44519723  0.24809034  1
  K  K16  1  0.52172482  0.94519723  0.25190966  1
  K  K17  1  0.97827518  0.55480277  0.75190966  1
  K  K18  1  0.52172482  0.55480277  0.25190966  1
  K  K19  1  0.47827518  0.44519723  0.74809034  1
  Ta  Ta20  1  0.58378553  0.75000000  0.83691742  1
  Ta  Ta21  1  0.41621447  0.25000000  0.16308258  1
  Ta  Ta22  1  0.08378553  0.25000000  0.66308258  1
  Ta  Ta23  1  0.91621447  0.75000000  0.33691742  1
  Tl  Tl24  1  0.31893228  0.75000000  0.68232025  1
  Tl  Tl25  1  0.68106772  0.25000000  0.31767975  1
  Tl  Tl26  1  0.81893228  0.25000000  0.81767975  1
  Tl  Tl27  1  0.18106772  0.75000000  0.18232025  1
  Tl  Tl28  1  0.92579178  0.75000000  0.94876657  1
  Tl  Tl29  1  0.07420822  0.25000000  0.05123343  1
  Tl  Tl30  1  0.42579178  0.25000000  0.55123343  1
  Tl  Tl31  1  0.57420822  0.75000000  0.44876657  1
  As  As32  1  0.26348456  0.75000000  0.83698458  1
  As  As33  1  0.73651544  0.25000000  0.16301542  1
  As  As34  1  0.76348456  0.25000000  0.66301542  1
  As  As35  1  0.23651544  0.75000000  0.33698458  1
  As  As36  1  0.67131004  0.75000000  0.70808923  1
  As  As37  1  0.32868996  0.25000000  0.29191077  1
  As  As38  1  0.17131004  0.25000000  0.79191077  1
  As  As39  1  0.82868996  0.75000000  0.20808923  1
  As  As40  1  0.69709861  0.93851660  0.89863480  1
  As  As41  1  0.30290139  0.06148340  0.10136520  1
  As  As42  1  0.19709861  0.06148340  0.60136520  1
  As  As43  1  0.30290139  0.43851660  0.10136520  1
  As  As44  1  0.80290139  0.93851660  0.39863480  1
  As  As45  1  0.69709861  0.56148340  0.89863480  1
  As  As46  1  0.80290139  0.56148340  0.39863480  1
  As  As47  1  0.19709861  0.43851660  0.60136520  1
