# generated using pymatgen
data_Nd8Sb14Rh17
_symmetry_space_group_name_H-M   'P 1'
_cell_length_a   12.31887183
_cell_length_b   12.31887183
_cell_length_c   13.94391854
_cell_angle_alpha   116.21426272
_cell_angle_beta   116.21426272
_cell_angle_gamma   90.00000000
_symmetry_Int_Tables_number   1
_chemical_formula_structural   Nd8Sb14Rh17
_chemical_formula_sum   'Nd16 Sb28 Rh34'
_cell_volume   1652.35303128
_cell_formula_units_Z   2
loop_
 _symmetry_equiv_pos_site_id
 _symmetry_equiv_pos_as_xyz
  1  'x, y, z'
loop_
 _atom_site_type_symbol
 _atom_site_label
 _atom_site_symmetry_multiplicity
 _atom_site_fract_x
 _atom_site_fract_y
 _atom_site_fract_z
 _atom_site_occupancy
  Nd  Nd0  1  0.41139952  0.91139952  0.35493828  1
  Nd  Nd1  1  0.94353876  0.44353876  0.35493828  1
  Nd  Nd2  1  0.44353876  0.41139952  0.35493828  1
  Nd  Nd3  1  0.91139952  0.94353876  0.35493828  1
  Nd  Nd4  1  0.16992455  0.16992455  0.33984909  1
  Nd  Nd5  1  0.66992455  0.66992455  0.33984909  1
  Nd  Nd6  1  0.67185437  0.17185437  0.34370874  1
  Nd  Nd7  1  0.17185437  0.67185437  0.34370874  1
  Nd  Nd8  1  0.43767989  0.67566868  0.85545255  1
  Nd  Nd9  1  0.41777266  0.17978386  0.85545255  1
  Nd  Nd10  1  0.17978386  0.43767989  0.85545255  1
  Nd  Nd11  1  0.93767989  0.67978386  0.85545255  1
  Nd  Nd12  1  0.67566868  0.41777266  0.85545255  1
  Nd  Nd13  1  0.91777266  0.17566868  0.85545255  1
  Nd  Nd14  1  0.67978386  0.91777266  0.85545255  1
  Nd  Nd15  1  0.17566868  0.93767989  0.85545255  1
  Sb  Sb16  1  0.48238574  0.22238678  0.46760105  1
  Sb  Sb17  1  0.98521531  0.24521427  0.46760105  1
  Sb  Sb18  1  0.24521427  0.48238574  0.46760105  1
  Sb  Sb19  1  0.98238574  0.74521427  0.46760105  1
  Sb  Sb20  1  0.22238678  0.98521531  0.46760105  1
  Sb  Sb21  1  0.48521531  0.72238678  0.46760105  1
  Sb  Sb22  1  0.74521427  0.48521531  0.46760105  1
  Sb  Sb23  1  0.72238678  0.98238574  0.46760105  1
  Sb  Sb24  1  0.21505058  0.17199882  0.11392387  1
  Sb  Sb25  1  0.89887329  0.94192505  0.11392387  1
  Sb  Sb26  1  0.94192505  0.21505058  0.11392387  1
  Sb  Sb27  1  0.71505058  0.44192505  0.11392387  1
  Sb  Sb28  1  0.17199882  0.89887329  0.11392387  1
  Sb  Sb29  1  0.39887329  0.67199882  0.11392387  1
  Sb  Sb30  1  0.44192505  0.39887329  0.11392387  1
  Sb  Sb31  1  0.67199882  0.71505058  0.11392387  1
  Sb  Sb32  1  0.37719680  0.37719680  0.75439359  1
  Sb  Sb33  1  0.87719680  0.87719680  0.75439359  1
  Sb  Sb34  1  0.61851939  0.11851939  0.06074483  1
  Sb  Sb35  1  0.44222544  0.94222544  0.06074483  1
  Sb  Sb36  1  0.94222544  0.61851939  0.06074483  1
  Sb  Sb37  1  0.11851939  0.44222544  0.06074483  1
  Sb  Sb38  1  0.87550253  0.37550253  0.75100506  1
  Sb  Sb39  1  0.37550253  0.87550253  0.75100506  1
  Sb  Sb40  1  0.60849336  0.10849336  0.73329719  1
  Sb  Sb41  1  0.12480383  0.62480383  0.73329719  1
  Sb  Sb42  1  0.62480383  0.60849336  0.73329719  1
  Sb  Sb43  1  0.10849336  0.12480383  0.73329719  1
  Rh  Rh44  1  0.16081104  0.38279955  0.23420728  1
  Rh  Rh45  1  0.07339624  0.85140774  0.23420728  1
  Rh  Rh46  1  0.85140774  0.16081104  0.23420728  1
  Rh  Rh47  1  0.66081104  0.35140774  0.23420728  1
  Rh  Rh48  1  0.38279955  0.07339624  0.23420728  1
  Rh  Rh49  1  0.57339624  0.88279955  0.23420728  1
  Rh  Rh50  1  0.35140774  0.57339624  0.23420728  1
  Rh  Rh51  1  0.88279955  0.66081104  0.23420728  1
  Rh  Rh52  1  0.41538857  0.91538857  0.59356268  1
  Rh  Rh53  1  0.17817412  0.67817412  0.59356268  1
  Rh  Rh54  1  0.67817412  0.41538857  0.59356268  1
  Rh  Rh55  1  0.91538857  0.17817412  0.59356268  1
  Rh  Rh56  1  0.16779002  0.66779002  0.08687343  1
  Rh  Rh57  1  0.91908342  0.41908342  0.08687343  1
  Rh  Rh58  1  0.41908342  0.16779002  0.08687343  1
  Rh  Rh59  1  0.66779002  0.91908342  0.08687343  1
  Rh  Rh60  1  0.71162209  0.21162209  0.96653957  1
  Rh  Rh61  1  0.25491748  0.75491748  0.96653957  1
  Rh  Rh62  1  0.75491748  0.71162209  0.96653957  1
  Rh  Rh63  1  0.21162209  0.25491748  0.96653957  1
  Rh  Rh64  1  0.43020675  0.41948377  0.60417601  1
  Rh  Rh65  1  0.17396925  0.18469224  0.60417601  1
  Rh  Rh66  1  0.18469224  0.43020675  0.60417601  1
  Rh  Rh67  1  0.93020675  0.68469224  0.60417601  1
  Rh  Rh68  1  0.41948377  0.17396925  0.60417601  1
  Rh  Rh69  1  0.67396925  0.91948377  0.60417601  1
  Rh  Rh70  1  0.68469224  0.67396925  0.60417601  1
  Rh  Rh71  1  0.91948377  0.93020675  0.60417601  1
  Rh  Rh72  1  0.93239368  0.43239368  0.61245026  1
  Rh  Rh73  1  0.68005658  0.18005658  0.61245026  1
  Rh  Rh74  1  0.18005658  0.93239368  0.61245026  1
  Rh  Rh75  1  0.43239368  0.68005658  0.61245026  1
  Rh  Rh76  1  0.00369400  0.00369400  0.00738799  1
  Rh  Rh77  1  0.50369400  0.50369400  0.00738799  1
