# generated using pymatgen
data_KDyS2O9
_symmetry_space_group_name_H-M   'P 1'
_cell_length_a   8.52246175
_cell_length_b   10.10304445
_cell_length_c   10.59117766
_cell_angle_alpha   120.30159426
_cell_angle_beta   90.00000000
_cell_angle_gamma   90.00000000
_symmetry_Int_Tables_number   1
_chemical_formula_structural   KDyS2O9
_chemical_formula_sum   'K4 Dy4 S8 O36'
_cell_volume   787.34363674
_cell_formula_units_Z   4
loop_
 _symmetry_equiv_pos_site_id
 _symmetry_equiv_pos_as_xyz
  1  'x, y, z'
loop_
 _atom_site_type_symbol
 _atom_site_label
 _atom_site_symmetry_multiplicity
 _atom_site_fract_x
 _atom_site_fract_y
 _atom_site_fract_z
 _atom_site_occupancy
  K  K0  1  0.67765801  0.96997928  0.69020498  1
  K  K1  1  0.32234199  0.03002072  0.30979502  1
  K  K2  1  0.17765801  0.53002072  0.80979502  1
  K  K3  1  0.82234199  0.46997928  0.19020498  1
  Dy  Dy4  1  0.63152273  0.71853935  0.96975733  1
  Dy  Dy5  1  0.36847727  0.28146065  0.03024267  1
  Dy  Dy6  1  0.13152273  0.78146065  0.53024267  1
  Dy  Dy7  1  0.86847727  0.21853935  0.46975733  1
  S  S8  1  0.86531962  0.87233676  0.31563204  1
  S  S9  1  0.13468038  0.12766324  0.68436796  1
  S  S10  1  0.36531962  0.62766324  0.18436796  1
  S  S11  1  0.63468038  0.37233676  0.81563204  1
  S  S12  1  0.80220977  0.60137795  0.60818251  1
  S  S13  1  0.19779023  0.39862205  0.39181749  1
  S  S14  1  0.30220977  0.89862205  0.89181749  1
  S  S15  1  0.69779023  0.10137795  0.10818251  1
  O  O16  1  0.98647510  0.97124792  0.30275601  1
  O  O17  1  0.01352490  0.02875208  0.69724399  1
  O  O18  1  0.48647510  0.52875208  0.19724399  1
  O  O19  1  0.51352490  0.47124792  0.80275601  1
  O  O20  1  0.79264098  0.76275260  0.17405944  1
  O  O21  1  0.20735902  0.23724740  0.82594056  1
  O  O22  1  0.29264098  0.73724740  0.32594056  1
  O  O23  1  0.70735902  0.26275260  0.67405944  1
  O  O24  1  0.69707292  0.68026845  0.73969819  1
  O  O25  1  0.30292708  0.31973155  0.26030181  1
  O  O26  1  0.19707292  0.81973155  0.76030181  1
  O  O27  1  0.80292708  0.18026845  0.23969819  1
  O  O28  1  0.88791045  0.77080021  0.93341873  1
  O  O29  1  0.11208955  0.22919979  0.06658127  1
  O  O30  1  0.38791045  0.72919979  0.56658127  1
  O  O31  1  0.61208955  0.27080021  0.43341873  1
  O  O32  1  0.74541768  0.98170489  0.42067358  1
  O  O33  1  0.25458232  0.01829511  0.57932642  1
  O  O34  1  0.24541768  0.51829511  0.07932642  1
  O  O35  1  0.75458232  0.48170489  0.92067358  1
  O  O36  1  0.20833990  0.97098178  0.02771704  1
  O  O37  1  0.79166010  0.02901822  0.97228296  1
  O  O38  1  0.70833990  0.52901822  0.47228296  1
  O  O39  1  0.29166010  0.47098178  0.52771704  1
  O  O40  1  0.40386200  0.77722315  0.88767064  1
  O  O41  1  0.59613800  0.22277685  0.11232936  1
  O  O42  1  0.90386200  0.72277685  0.61232936  1
  O  O43  1  0.09613800  0.27722315  0.38767064  1
  O  O44  1  0.60308795  0.98354270  0.11926381  1
  O  O45  1  0.39691205  0.01645730  0.88073619  1
  O  O46  1  0.10308795  0.51645730  0.38073619  1
  O  O47  1  0.89691205  0.48354270  0.61926381  1
  O  O48  1  0.93559548  0.78076096  0.37596273  1
  O  O49  1  0.06440452  0.21923904  0.62403727  1
  O  O50  1  0.43559548  0.71923904  0.12403727  1
  O  O51  1  0.56440452  0.28076096  0.87596273  1
