# generated using pymatgen
data_HoZrF7
_symmetry_space_group_name_H-M   'P 1'
_cell_length_a   5.70059504
_cell_length_b   6.11337782
_cell_length_c   8.28305025
_cell_angle_alpha   102.24204924
_cell_angle_beta   90.00000000
_cell_angle_gamma   90.00000000
_symmetry_Int_Tables_number   1
_chemical_formula_structural   HoZrF7
_chemical_formula_sum   'Ho2 Zr2 F14'
_cell_volume   282.09935104
_cell_formula_units_Z   2
loop_
 _symmetry_equiv_pos_site_id
 _symmetry_equiv_pos_as_xyz
  1  'x, y, z'
loop_
 _atom_site_type_symbol
 _atom_site_label
 _atom_site_symmetry_multiplicity
 _atom_site_fract_x
 _atom_site_fract_y
 _atom_site_fract_z
 _atom_site_occupancy
  Ho  Ho0  1  0.69948520  0.65386422  0.68334227  1
  Ho  Ho1  1  0.19948520  0.34613578  0.31665773  1
  Zr  Zr2  1  0.70920097  0.81234246  0.22403162  1
  Zr  Zr3  1  0.20920097  0.18765754  0.77596838  1
  F  F4  1  0.88617841  0.44994145  0.47547906  1
  F  F5  1  0.38617841  0.55005855  0.52452094  1
  F  F6  1  0.42634310  0.91907731  0.76425157  1
  F  F7  1  0.92634310  0.08092269  0.23574843  1
  F  F8  1  0.93940631  0.96198751  0.76223830  1
  F  F9  1  0.43940631  0.03801249  0.23776170  1
  F  F10  1  0.99374540  0.45690136  0.78630475  1
  F  F11  1  0.49374540  0.54309864  0.21369525  1
  F  F12  1  0.70353349  0.75556095  0.97329674  1
  F  F13  1  0.20353349  0.24443905  0.02670326  1
  F  F14  1  0.71194157  0.85959560  0.47611837  1
  F  F15  1  0.21194157  0.14040440  0.52388163  1
  F  F16  1  0.50652555  0.38037367  0.78041694  1
  F  F17  1  0.00652555  0.61962633  0.21958306  1
