# generated using pymatgen
data_K2GdCl5
_symmetry_space_group_name_H-M   'P 1'
_cell_length_a   8.12346057
_cell_length_b   8.68653577
_cell_length_c   13.07364372
_cell_angle_alpha   90.00000000
_cell_angle_beta   90.00000000
_cell_angle_gamma   90.00000000
_symmetry_Int_Tables_number   1
_chemical_formula_structural   K2GdCl5
_chemical_formula_sum   'K8 Gd4 Cl20'
_cell_volume   922.53814991
_cell_formula_units_Z   4
loop_
 _symmetry_equiv_pos_site_id
 _symmetry_equiv_pos_as_xyz
  1  'x, y, z'
loop_
 _atom_site_type_symbol
 _atom_site_label
 _atom_site_symmetry_multiplicity
 _atom_site_fract_x
 _atom_site_fract_y
 _atom_site_fract_z
 _atom_site_occupancy
  K  K0  1  0.55129318  0.49524682  0.67223691  1
  K  K1  1  0.44870682  0.50475318  0.32776309  1
  K  K2  1  0.05129318  0.50475318  0.82776309  1
  K  K3  1  0.44870682  0.99524682  0.32776309  1
  K  K4  1  0.94870682  0.49524682  0.17223691  1
  K  K5  1  0.55129318  0.00475318  0.67223691  1
  K  K6  1  0.94870682  0.00475318  0.17223691  1
  K  K7  1  0.05129318  0.99524682  0.82776309  1
  Gd  Gd8  1  0.57314093  0.75000000  0.99621835  1
  Gd  Gd9  1  0.42685907  0.25000000  0.00378165  1
  Gd  Gd10  1  0.07314093  0.25000000  0.50378165  1
  Gd  Gd11  1  0.92685907  0.75000000  0.49621835  1
  Cl  Cl12  1  0.38070545  0.75000000  0.82691570  1
  Cl  Cl13  1  0.61929455  0.25000000  0.17308430  1
  Cl  Cl14  1  0.88070545  0.25000000  0.67308430  1
  Cl  Cl15  1  0.11929455  0.75000000  0.32691570  1
  Cl  Cl16  1  0.65936369  0.45870319  0.92597956  1
  Cl  Cl17  1  0.34063631  0.54129681  0.07402044  1
  Cl  Cl18  1  0.15936369  0.54129681  0.57402044  1
  Cl  Cl19  1  0.34063631  0.95870319  0.07402044  1
  Cl  Cl20  1  0.84063631  0.45870319  0.42597956  1
  Cl  Cl21  1  0.65936369  0.04129681  0.92597956  1
  Cl  Cl22  1  0.84063631  0.04129681  0.42597956  1
  Cl  Cl23  1  0.15936369  0.95870319  0.57402044  1
  Cl  Cl24  1  0.91132114  0.75000000  0.98999138  1
  Cl  Cl25  1  0.08867886  0.25000000  0.01000862  1
  Cl  Cl26  1  0.41132114  0.25000000  0.51000862  1
  Cl  Cl27  1  0.58867886  0.75000000  0.48999138  1
  Cl  Cl28  1  0.84145892  0.75000000  0.69715293  1
  Cl  Cl29  1  0.15854108  0.25000000  0.30284707  1
  Cl  Cl30  1  0.34145892  0.25000000  0.80284707  1
  Cl  Cl31  1  0.65854108  0.75000000  0.19715293  1
