# generated using pymatgen
data_K2CoI4
_symmetry_space_group_name_H-M   'P 1'
_cell_length_a   7.88800041
_cell_length_b   8.18371302
_cell_length_c   9.82743622
_cell_angle_alpha   90.00000000
_cell_angle_beta   108.21680026
_cell_angle_gamma   90.00000000
_symmetry_Int_Tables_number   1
_chemical_formula_structural   K2CoI4
_chemical_formula_sum   'K4 Co2 I8'
_cell_volume   602.59633946
_cell_formula_units_Z   2
loop_
 _symmetry_equiv_pos_site_id
 _symmetry_equiv_pos_as_xyz
  1  'x, y, z'
loop_
 _atom_site_type_symbol
 _atom_site_label
 _atom_site_symmetry_multiplicity
 _atom_site_fract_x
 _atom_site_fract_y
 _atom_site_fract_z
 _atom_site_occupancy
  K  K0  1  0.21798646  0.25000000  0.55156130  1
  K  K1  1  0.78201354  0.75000000  0.44843870  1
  K  K2  1  0.26626843  0.25000000  0.06815215  1
  K  K3  1  0.73373157  0.75000000  0.93184785  1
  Co  Co4  1  0.77768100  0.25000000  0.70070462  1
  Co  Co5  1  0.22231900  0.75000000  0.29929538  1
  I  I6  1  0.60375994  0.25000000  0.42956287  1
  I  I7  1  0.39624006  0.75000000  0.57043713  1
  I  I8  1  0.00762760  0.99844171  0.24012285  1
  I  I9  1  0.99237240  0.00155829  0.75987715  1
  I  I10  1  0.99237240  0.49844171  0.75987715  1
  I  I11  1  0.00762760  0.50155829  0.24012285  1
  I  I12  1  0.58353889  0.25000000  0.87057242  1
  I  I13  1  0.41646111  0.75000000  0.12942758  1
