# generated using pymatgen
data_KZr6MnCl14
_symmetry_space_group_name_H-M   'P 1'
_cell_length_a   10.05786924
_cell_length_b   10.05786924
_cell_length_c   12.12745687
_cell_angle_alpha   90.00000000
_cell_angle_beta   90.00000000
_cell_angle_gamma   94.64231463
_symmetry_Int_Tables_number   1
_chemical_formula_structural   KZr6MnCl14
_chemical_formula_sum   'K2 Zr12 Mn2 Cl28'
_cell_volume   1222.79769173
_cell_formula_units_Z   2
loop_
 _symmetry_equiv_pos_site_id
 _symmetry_equiv_pos_as_xyz
  1  'x, y, z'
loop_
 _atom_site_type_symbol
 _atom_site_label
 _atom_site_symmetry_multiplicity
 _atom_site_fract_x
 _atom_site_fract_y
 _atom_site_fract_z
 _atom_site_occupancy
  K  K0  1  0.50000000  0.50000000  -0.00000000  1
  K  K1  1  0.00000000  -0.00000000  0.50000000  1
  Zr  Zr2  1  0.35354525  0.35354525  0.39076682  1
  Zr  Zr3  1  0.64645475  0.64645475  0.60923318  1
  Zr  Zr4  1  0.14645475  0.14645475  0.89076682  1
  Zr  Zr5  1  0.85354525  0.85354525  0.10923318  1
  Zr  Zr6  1  0.18877331  0.95122407  0.11787600  1
  Zr  Zr7  1  0.81122669  0.04877593  0.88212400  1
  Zr  Zr8  1  0.31122669  0.54877593  0.61787600  1
  Zr  Zr9  1  0.45122407  0.68877331  0.38212400  1
  Zr  Zr10  1  0.68877331  0.45122407  0.38212400  1
  Zr  Zr11  1  0.54877593  0.31122669  0.61787600  1
  Zr  Zr12  1  0.04877593  0.81122669  0.88212400  1
  Zr  Zr13  1  0.95122407  0.18877331  0.11787600  1
  Mn  Mn14  1  0.00000000  -0.00000000  -0.00000000  1
  Mn  Mn15  1  0.50000000  0.50000000  0.50000000  1
  Cl  Cl16  1  0.35524461  0.11222124  0.00796848  1
  Cl  Cl17  1  0.64475539  0.88777876  0.99203152  1
  Cl  Cl18  1  0.14475539  0.38777876  0.50796848  1
  Cl  Cl19  1  0.61222124  0.85524461  0.49203152  1
  Cl  Cl20  1  0.85524461  0.61222124  0.49203152  1
  Cl  Cl21  1  0.38777876  0.14475539  0.50796848  1
  Cl  Cl22  1  0.88777876  0.64475539  0.99203152  1
  Cl  Cl23  1  0.11222124  0.35524461  0.00796848  1
  Cl  Cl24  1  0.24905009  0.75094991  -0.00000000  1
  Cl  Cl25  1  0.75094991  0.24905009  -0.00000000  1
  Cl  Cl26  1  0.25094991  0.74905009  0.50000000  1
  Cl  Cl27  1  0.74905009  0.25094991  0.50000000  1
  Cl  Cl28  1  0.39218906  0.89218906  0.25000000  1
  Cl  Cl29  1  0.60781094  0.10781094  0.75000000  1
  Cl  Cl30  1  0.10781094  0.60781094  0.75000000  1
  Cl  Cl31  1  0.89218906  0.39218906  0.25000000  1
  Cl  Cl32  1  0.15102485  0.15102485  0.25629964  1
  Cl  Cl33  1  0.84897515  0.84897515  0.74370036  1
  Cl  Cl34  1  0.34897515  0.34897515  0.75629964  1
  Cl  Cl35  1  0.65102485  0.65102485  0.24370036  1
  Cl  Cl36  1  0.53706502  0.29523007  0.25438779  1
  Cl  Cl37  1  0.46293498  0.70476993  0.74561221  1
  Cl  Cl38  1  0.96293498  0.20476993  0.75438779  1
  Cl  Cl39  1  0.79523007  0.03706502  0.24561221  1
  Cl  Cl40  1  0.03706502  0.79523007  0.24561221  1
  Cl  Cl41  1  0.20476993  0.96293498  0.75438779  1
  Cl  Cl42  1  0.70476993  0.46293498  0.74561221  1
  Cl  Cl43  1  0.29523007  0.53706502  0.25438779  1
