# generated using pymatgen
data_K10Tl7
_symmetry_space_group_name_H-M   'P 1'
_cell_length_a   10.22298716
_cell_length_b   13.64435874
_cell_length_c   22.95723603
_cell_angle_alpha   90.00000000
_cell_angle_beta   90.00000000
_cell_angle_gamma   93.17361898
_symmetry_Int_Tables_number   1
_chemical_formula_structural   K10Tl7
_chemical_formula_sum   'K40 Tl28'
_cell_volume   3197.30437517
_cell_formula_units_Z   4
loop_
 _symmetry_equiv_pos_site_id
 _symmetry_equiv_pos_as_xyz
  1  'x, y, z'
loop_
 _atom_site_type_symbol
 _atom_site_label
 _atom_site_symmetry_multiplicity
 _atom_site_fract_x
 _atom_site_fract_y
 _atom_site_fract_z
 _atom_site_occupancy
  K  K0  1  0.95164474  0.23335451  0.47772957  1
  K  K1  1  0.04835526  0.76664549  0.52227043  1
  K  K2  1  0.04835526  0.26664549  0.97772957  1
  K  K3  1  0.95164474  0.73335451  0.02227043  1
  K  K4  1  0.69618442  0.99636827  0.73001459  1
  K  K5  1  0.30381558  0.00363173  0.26998541  1
  K  K6  1  0.30381558  0.50363173  0.23001459  1
  K  K7  1  0.69618442  0.49636827  0.76998541  1
  K  K8  1  0.67792074  0.94201013  0.21639746  1
  K  K9  1  0.32207926  0.05798987  0.78360254  1
  K  K10  1  0.32207926  0.55798987  0.71639746  1
  K  K11  1  0.67792074  0.44201013  0.28360254  1
  K  K12  1  0.35970296  0.85393979  0.64496758  1
  K  K13  1  0.64029704  0.14606021  0.35503242  1
  K  K14  1  0.64029704  0.64606021  0.14496758  1
  K  K15  1  0.35970296  0.35393979  0.85503242  1
  K  K16  1  0.98694212  0.91844307  0.87750539  1
  K  K17  1  0.01305788  0.08155693  0.12249461  1
  K  K18  1  0.01305788  0.58155693  0.37750539  1
  K  K19  1  0.98694212  0.41844307  0.62249461  1
  K  K20  1  0.68667548  0.97152085  0.52993374  1
  K  K21  1  0.31332452  0.02847915  0.47006626  1
  K  K22  1  0.31332452  0.52847915  0.02993374  1
  K  K23  1  0.68667548  0.47152085  0.97006626  1
  K  K24  1  0.66088978  0.66684230  0.60629261  1
  K  K25  1  0.33911022  0.33315770  0.39370739  1
  K  K26  1  0.33911022  0.83315770  0.10629261  1
  K  K27  1  0.66088978  0.16684230  0.89370739  1
  K  K28  1  0.96084876  0.75630670  0.72778252  1
  K  K29  1  0.03915124  0.24369330  0.27221748  1
  K  K30  1  0.03915124  0.74369330  0.22778252  1
  K  K31  1  0.96084876  0.25630670  0.77221748  1
  K  K32  1  0.68672037  0.46690292  0.47489011  1
  K  K33  1  0.31327963  0.53309708  0.52510989  1
  K  K34  1  0.31327963  0.03309708  0.97489011  1
  K  K35  1  0.68672037  0.96690292  0.02510989  1
  K  K36  1  0.92851537  0.91339129  0.37139554  1
  K  K37  1  0.07148463  0.08660871  0.62860446  1
  K  K38  1  0.07148463  0.58660871  0.87139554  1
  K  K39  1  0.92851537  0.41339129  0.12860446  1
  Tl  Tl40  1  0.58194573  0.74662886  0.75813194  1
  Tl  Tl41  1  0.41805427  0.25337114  0.24186806  1
  Tl  Tl42  1  0.41805427  0.75337114  0.25813194  1
  Tl  Tl43  1  0.58194573  0.24662886  0.74186806  1
  Tl  Tl44  1  0.57079170  0.72392510  0.99318813  1
  Tl  Tl45  1  0.42920830  0.27607490  0.00681187  1
  Tl  Tl46  1  0.42920830  0.77607490  0.49318813  1
  Tl  Tl47  1  0.57079170  0.22392510  0.50681187  1
  Tl  Tl48  1  0.72103627  0.72436223  0.44805827  1
  Tl  Tl49  1  0.27896373  0.27563777  0.55194173  1
  Tl  Tl50  1  0.27896373  0.77563777  0.94805827  1
  Tl  Tl51  1  0.72103627  0.22436223  0.05194173  1
  Tl  Tl52  1  0.28269115  0.79224117  0.80381825  1
  Tl  Tl53  1  0.71730885  0.20775883  0.19618175  1
  Tl  Tl54  1  0.71730885  0.70775883  0.30381825  1
  Tl  Tl55  1  0.28269115  0.29224117  0.69618175  1
  Tl  Tl56  1  0.54230620  0.87862945  0.87855520  1
  Tl  Tl57  1  0.45769380  0.12137055  0.12144480  1
  Tl  Tl58  1  0.45769380  0.62137055  0.37855520  1
  Tl  Tl59  1  0.54230620  0.37862945  0.62144480  1
  Tl  Tl60  1  0.45293143  0.62478078  0.87181010  1
  Tl  Tl61  1  0.54706857  0.37521922  0.12818990  1
  Tl  Tl62  1  0.54706857  0.87521922  0.37181010  1
  Tl  Tl63  1  0.45293143  0.12478078  0.62818990  1
  Tl  Tl64  1  0.76066364  0.70760797  0.87625934  1
  Tl  Tl65  1  0.23933636  0.29239203  0.12374066  1
  Tl  Tl66  1  0.23933636  0.79239203  0.37625934  1
  Tl  Tl67  1  0.76066364  0.20760797  0.62374066  1
