# generated using pymatgen
data_K2TiZnO4
_symmetry_space_group_name_H-M   'P 1'
_cell_length_a   5.74965711
_cell_length_b   11.51209810
_cell_length_c   16.20491276
_cell_angle_alpha   90.00000000
_cell_angle_beta   90.00000000
_cell_angle_gamma   90.00000000
_symmetry_Int_Tables_number   1
_chemical_formula_structural   K2TiZnO4
_chemical_formula_sum   'K16 Ti8 Zn8 O32'
_cell_volume   1072.61316902
_cell_formula_units_Z   8
loop_
 _symmetry_equiv_pos_site_id
 _symmetry_equiv_pos_as_xyz
  1  'x, y, z'
loop_
 _atom_site_type_symbol
 _atom_site_label
 _atom_site_symmetry_multiplicity
 _atom_site_fract_x
 _atom_site_fract_y
 _atom_site_fract_z
 _atom_site_occupancy
  K  K0  1  0.96879890  0.77231735  0.62965172  1
  K  K1  1  0.03120110  0.22768265  0.12965172  1
  K  K2  1  0.03120110  0.27231735  0.62965172  1
  K  K3  1  0.96879890  0.72768265  0.12965172  1
  K  K4  1  0.98201560  0.50316085  0.75635562  1
  K  K5  1  0.01798440  0.49683915  0.25635562  1
  K  K6  1  0.01798440  0.00316085  0.75635562  1
  K  K7  1  0.98201560  0.99683915  0.25635562  1
  K  K8  1  0.46731936  0.73390830  0.00033856  1
  K  K9  1  0.53268064  0.26609170  0.50033856  1
  K  K10  1  0.53268064  0.23390830  0.00033856  1
  K  K11  1  0.46731936  0.76609170  0.50033856  1
  K  K12  1  0.48861162  0.99173437  0.87420413  1
  K  K13  1  0.51138838  0.00826563  0.37420413  1
  K  K14  1  0.51138838  0.49173437  0.87420413  1
  K  K15  1  0.48861162  0.50826563  0.37420413  1
  Ti  Ti16  1  0.47632970  0.51398581  0.62566114  1
  Ti  Ti17  1  0.52367030  0.48601419  0.12566114  1
  Ti  Ti18  1  0.52367030  0.01398581  0.62566114  1
  Ti  Ti19  1  0.47632970  0.98601419  0.12566114  1
  Ti  Ti20  1  0.99103384  0.73067519  0.88044177  1
  Ti  Ti21  1  0.00896616  0.26932481  0.38044177  1
  Ti  Ti22  1  0.00896616  0.23067519  0.88044177  1
  Ti  Ti23  1  0.99103384  0.76932481  0.38044177  1
  Zn  Zn24  1  0.97760021  0.98181853  0.00541202  1
  Zn  Zn25  1  0.02239979  0.01818147  0.50541202  1
  Zn  Zn26  1  0.02239979  0.48181853  0.00541202  1
  Zn  Zn27  1  0.97760021  0.51818147  0.50541202  1
  Zn  Zn28  1  0.49105366  0.76362298  0.75044677  1
  Zn  Zn29  1  0.50894634  0.23637702  0.25044677  1
  Zn  Zn30  1  0.50894634  0.26362298  0.75044677  1
  Zn  Zn31  1  0.49105366  0.73637702  0.25044677  1
  O  O32  1  0.41435238  0.66542057  0.65490427  1
  O  O33  1  0.58564762  0.33457943  0.15490427  1
  O  O34  1  0.58564762  0.16542057  0.65490427  1
  O  O35  1  0.41435238  0.83457943  0.15490427  1
  O  O36  1  0.73629823  0.68983146  0.81828181  1
  O  O37  1  0.26370177  0.31016854  0.31828181  1
  O  O38  1  0.26370177  0.18983146  0.81828181  1
  O  O39  1  0.73629823  0.81016854  0.31828181  1
  O  O40  1  0.88162178  0.40514622  0.41833239  1
  O  O41  1  0.11837822  0.59485378  0.91833239  1
  O  O42  1  0.11837822  0.90514622  0.41833239  1
  O  O43  1  0.88162178  0.09485378  0.91833239  1
  O  O44  1  0.78705948  0.48825196  0.60570748  1
  O  O45  1  0.21294052  0.51174804  0.10570748  1
  O  O46  1  0.21294052  0.98825196  0.60570748  1
  O  O47  1  0.78705948  0.01174804  0.10570748  1
  O  O48  1  0.78740665  0.30398987  0.81765987  1
  O  O49  1  0.21259335  0.69601013  0.31765987  1
  O  O50  1  0.21259335  0.80398987  0.81765987  1
  O  O51  1  0.78740665  0.19601013  0.31765987  1
  O  O52  1  0.68926102  0.98580891  0.53052553  1
  O  O53  1  0.31073898  0.01419109  0.03052553  1
  O  O54  1  0.31073898  0.48580891  0.53052553  1
  O  O55  1  0.68926102  0.51419109  0.03052553  1
  O  O56  1  0.90603113  0.82143829  0.96881439  1
  O  O57  1  0.09396887  0.17856171  0.46881439  1
  O  O58  1  0.09396887  0.32143829  0.96881439  1
  O  O59  1  0.90603113  0.67856171  0.46881439  1
  O  O60  1  0.61686971  0.91476088  0.70856255  1
  O  O61  1  0.38313029  0.08523912  0.20856255  1
  O  O62  1  0.38313029  0.41476088  0.70856255  1
  O  O63  1  0.61686971  0.58523912  0.20856255  1
