# generated using pymatgen
data_K2DyF5
_symmetry_space_group_name_H-M   'P 1'
_cell_length_a   6.70739542
_cell_length_b   7.30302378
_cell_length_c   11.05881279
_cell_angle_alpha   90.00000000
_cell_angle_beta   90.00000000
_cell_angle_gamma   90.00000000
_symmetry_Int_Tables_number   1
_chemical_formula_structural   K2DyF5
_chemical_formula_sum   'K8 Dy4 F20'
_cell_volume   541.70785228
_cell_formula_units_Z   4
loop_
 _symmetry_equiv_pos_site_id
 _symmetry_equiv_pos_as_xyz
  1  'x, y, z'
loop_
 _atom_site_type_symbol
 _atom_site_label
 _atom_site_symmetry_multiplicity
 _atom_site_fract_x
 _atom_site_fract_y
 _atom_site_fract_z
 _atom_site_occupancy
  K  K0  1  0.97209923  0.00234221  0.67223784  1
  K  K1  1  0.02790077  0.99765779  0.32776216  1
  K  K2  1  0.47209923  0.99765779  0.82776216  1
  K  K3  1  0.02790077  0.50234221  0.32776216  1
  K  K4  1  0.52790077  0.00234221  0.17223784  1
  K  K5  1  0.97209923  0.49765779  0.67223784  1
  K  K6  1  0.52790077  0.49765779  0.17223784  1
  K  K7  1  0.47209923  0.50234221  0.82776216  1
  Dy  Dy8  1  0.93585072  0.75000000  0.99875519  1
  Dy  Dy9  1  0.06414928  0.25000000  0.00124481  1
  Dy  Dy10  1  0.43585072  0.25000000  0.50124481  1
  Dy  Dy11  1  0.56414928  0.75000000  0.49875519  1
  F  F12  1  0.66453114  0.75000000  0.69039806  1
  F  F13  1  0.33546886  0.25000000  0.30960194  1
  F  F14  1  0.16453114  0.25000000  0.80960194  1
  F  F15  1  0.83546886  0.75000000  0.19039806  1
  F  F16  1  0.13200104  0.75000000  0.83878444  1
  F  F17  1  0.86799896  0.25000000  0.16121556  1
  F  F18  1  0.63200104  0.25000000  0.66121556  1
  F  F19  1  0.36799896  0.75000000  0.33878444  1
  F  F20  1  0.60704929  0.75000000  0.98675185  1
  F  F21  1  0.39295071  0.25000000  0.01324815  1
  F  F22  1  0.10704929  0.25000000  0.51324815  1
  F  F23  1  0.89295071  0.75000000  0.48675185  1
  F  F24  1  0.85688352  0.46642510  0.92176861  1
  F  F25  1  0.14311648  0.53357490  0.07823139  1
  F  F26  1  0.35688352  0.53357490  0.57823139  1
  F  F27  1  0.14311648  0.96642510  0.07823139  1
  F  F28  1  0.64311648  0.46642510  0.42176861  1
  F  F29  1  0.85688352  0.03357490  0.92176861  1
  F  F30  1  0.64311648  0.03357490  0.42176861  1
  F  F31  1  0.35688352  0.96642510  0.57823139  1
