# generated using pymatgen
data_La23Cd4Ir7
_symmetry_space_group_name_H-M   'P 1'
_cell_length_a   10.18739143
_cell_length_b   10.18739143
_cell_length_c   23.09234927
_cell_angle_alpha   90.00000000
_cell_angle_beta   90.00000000
_cell_angle_gamma   119.99999891
_symmetry_Int_Tables_number   1
_chemical_formula_structural   La23Cd4Ir7
_chemical_formula_sum   'La46 Cd8 Ir14'
_cell_volume   2075.50957343
_cell_formula_units_Z   2
loop_
 _symmetry_equiv_pos_site_id
 _symmetry_equiv_pos_as_xyz
  1  'x, y, z'
loop_
 _atom_site_type_symbol
 _atom_site_label
 _atom_site_symmetry_multiplicity
 _atom_site_fract_x
 _atom_site_fract_y
 _atom_site_fract_z
 _atom_site_occupancy
  La  La0  1  0.20677873  0.41355746  0.71886755  1
  La  La1  1  0.20677873  0.79322127  0.71886755  1
  La  La2  1  0.79321320  0.58642640  0.21880972  1
  La  La3  1  0.58644254  0.79322127  0.71886755  1
  La  La4  1  0.79321320  0.20678680  0.21880972  1
  La  La5  1  0.41357360  0.20678680  0.21880972  1
  La  La6  1  0.79321551  0.58643102  0.94775466  1
  La  La7  1  0.79321551  0.20678449  0.94775466  1
  La  La8  1  0.20680225  0.41360449  0.44778168  1
  La  La9  1  0.41356898  0.20678449  0.94775466  1
  La  La10  1  0.20680225  0.79319775  0.44778168  1
  La  La11  1  0.58639551  0.79319775  0.44778168  1
  La  La12  1  0.20833035  0.41666070  0.99042007  1
  La  La13  1  0.20833035  0.79166965  0.99042007  1
  La  La14  1  0.79164735  0.58329470  0.49036188  1
  La  La15  1  0.58333930  0.79166965  0.99042007  1
  La  La16  1  0.79164735  0.20835265  0.49036188  1
  La  La17  1  0.41670530  0.20835265  0.49036188  1
  La  La18  1  0.87224768  0.74449536  0.63497268  1
  La  La19  1  0.87224768  0.12775232  0.63497268  1
  La  La20  1  0.12773886  0.25547773  0.13496559  1
  La  La21  1  0.25550464  0.12775232  0.63497268  1
  La  La22  1  0.12773886  0.87226114  0.13496559  1
  La  La23  1  0.74452227  0.87226114  0.13496559  1
  La  La24  1  0.46050022  0.92100044  0.85564577  1
  La  La25  1  0.46050022  0.53949978  0.85564577  1
  La  La26  1  0.53944383  0.07888767  0.35562134  1
  La  La27  1  0.07899956  0.53949978  0.85564577  1
  La  La28  1  0.53944383  0.46055617  0.35562134  1
  La  La29  1  0.92111233  0.46055617  0.35562134  1
  La  La30  1  -0.00000000  0.00000000  0.99972482  1
  La  La31  1  -0.00000000  0.00000000  0.49968289  1
  La  La32  1  0.45987200  0.91974399  0.58577632  1
  La  La33  1  0.45987200  0.54012800  0.58577632  1
  La  La34  1  0.54014113  0.08028226  0.08574752  1
  La  La35  1  0.08025601  0.54012800  0.58577632  1
  La  La36  1  0.54014113  0.45985887  0.08574752  1
  La  La37  1  0.91971774  0.45985887  0.08574752  1
  La  La38  1  0.79608878  0.59217756  0.78175362  1
  La  La39  1  0.79608878  0.20391122  0.78175362  1
  La  La40  1  0.20391876  0.40783751  0.28172292  1
  La  La41  1  0.40782244  0.20391122  0.78175362  1
  La  La42  1  0.20391876  0.79608124  0.28172292  1
  La  La43  1  0.59216249  0.79608124  0.28172292  1
  La  La44  1  0.66666700  0.33333300  0.64642925  1
  La  La45  1  0.33333300  0.66666700  0.14639972  1
  Cd  Cd46  1  -0.00000000  0.00000000  0.74961505  1
  Cd  Cd47  1  -0.00000000  0.00000000  0.24958933  1
  Cd  Cd48  1  0.10610347  0.21220695  0.86291568  1
  Cd  Cd49  1  0.10610347  0.89389653  0.86291568  1
  Cd  Cd50  1  0.89389953  0.78779906  0.36291068  1
  Cd  Cd51  1  0.78779305  0.89389653  0.86291568  1
  Cd  Cd52  1  0.89389953  0.10610047  0.36291068  1
  Cd  Cd53  1  0.21220094  0.10610047  0.36291068  1
  Ir  Ir54  1  0.51985411  0.03970821  0.71075250  1
  Ir  Ir55  1  0.51985411  0.48014589  0.71075250  1
  Ir  Ir56  1  0.48013429  0.96026857  0.21072302  1
  Ir  Ir57  1  0.96029179  0.48014589  0.71075250  1
  Ir  Ir58  1  0.48013429  0.51986571  0.21072302  1
  Ir  Ir59  1  0.03973143  0.51986571  0.21072302  1
  Ir  Ir60  1  0.66666700  0.33333300  0.86560423  1
  Ir  Ir61  1  0.33333300  0.66666700  0.36561548  1
  Ir  Ir62  1  0.14431383  0.28862766  0.56306138  1
  Ir  Ir63  1  0.14431383  0.85568617  0.56306138  1
  Ir  Ir64  1  0.85567830  0.71135660  0.06302851  1
  Ir  Ir65  1  0.71137234  0.85568617  0.56306138  1
  Ir  Ir66  1  0.85567830  0.14432170  0.06302851  1
  Ir  Ir67  1  0.28864340  0.14432170  0.06302851  1
