# generated using pymatgen
data_K2Th(NO3)6
_symmetry_space_group_name_H-M   'P 1'
_cell_length_a   6.77078496
_cell_length_b   13.92749496
_cell_length_c   13.92749496
_cell_angle_alpha   120.00000610
_cell_angle_beta   90.00000000
_cell_angle_gamma   90.00000000
_symmetry_Int_Tables_number   1
_chemical_formula_structural   K2Th(NO3)6
_chemical_formula_sum   'K6 Th3 N18 O54'
_cell_volume   1137.40634338
_cell_formula_units_Z   3
loop_
 _symmetry_equiv_pos_site_id
 _symmetry_equiv_pos_as_xyz
  1  'x, y, z'
loop_
 _atom_site_type_symbol
 _atom_site_label
 _atom_site_symmetry_multiplicity
 _atom_site_fract_x
 _atom_site_fract_y
 _atom_site_fract_z
 _atom_site_occupancy
  K  K0  1  0.78080246  0.67496607  0.99279813  1
  K  K1  1  0.21919754  0.32503393  0.00720187  1
  K  K2  1  0.78080246  0.31783206  0.32503393  1
  K  K3  1  0.21919754  0.68216794  0.67496607  1
  K  K4  1  0.78080246  0.00720187  0.68216794  1
  K  K5  1  0.21919754  0.99279813  0.31783206  1
  Th  Th6  1  -0.00000000  -0.00000000  -0.00000000  1
  Th  Th7  1  0.50576818  0.66666700  0.33333300  1
  Th  Th8  1  0.49423182  0.33333300  0.66666700  1
  N  N9  1  0.72797318  0.82111325  0.82753851  1
  N  N10  1  0.27202682  0.17888675  0.17246149  1
  N  N11  1  0.72797318  0.00642527  0.17888675  1
  N  N12  1  0.27202682  0.99357473  0.82111325  1
  N  N13  1  0.72797318  0.17246148  0.99357473  1
  N  N14  1  0.27202682  0.82753852  0.00642527  1
  N  N15  1  0.77749746  0.80149028  0.27192623  1
  N  N16  1  0.22250254  0.19850972  0.72807377  1
  N  N17  1  0.77749746  0.47043595  0.19850972  1
  N  N18  1  0.22250254  0.52956405  0.80149028  1
  N  N19  1  0.77749746  0.72807377  0.52956405  1
  N  N20  1  0.22250254  0.27192623  0.47043595  1
  N  N21  1  0.75609290  0.47956835  0.61522802  1
  N  N22  1  0.24390710  0.52043165  0.38477198  1
  N  N23  1  0.75609290  0.13565967  0.52043165  1
  N  N24  1  0.24390710  0.86434033  0.47956835  1
  N  N25  1  0.75609290  0.38477198  0.86434033  1
  N  N26  1  0.24390710  0.61522802  0.13565967  1
  O  O27  1  0.61276670  0.42237636  0.54955163  1
  O  O28  1  0.38723330  0.57762364  0.45044837  1
  O  O29  1  0.61276670  0.12717527  0.57762364  1
  O  O30  1  0.38723330  0.87282473  0.42237636  1
  O  O31  1  0.61276670  0.45044837  0.87282473  1
  O  O32  1  0.38723330  0.54955163  0.12717527  1
  O  O33  1  0.87945326  0.79719447  0.86878506  1
  O  O34  1  0.12054674  0.20280553  0.13121494  1
  O  O35  1  0.87945326  0.07159059  0.20280553  1
  O  O36  1  0.12054674  0.92840941  0.79719447  1
  O  O37  1  0.87945326  0.13121494  0.92840941  1
  O  O38  1  0.12054674  0.86878506  0.07159059  1
  O  O39  1  0.70905462  0.93437615  0.07555274  1
  O  O40  1  0.29094538  0.06562385  0.92444726  1
  O  O41  1  0.70905462  0.14117659  0.06562385  1
  O  O42  1  0.29094538  0.85882341  0.93437615  1
  O  O43  1  0.70905462  0.92444726  0.85882341  1
  O  O44  1  0.29094538  0.07555274  0.14117659  1
  O  O45  1  0.77674885  0.46967463  0.70154817  1
  O  O46  1  0.22325115  0.53032537  0.29845183  1
  O  O47  1  0.77674885  0.23187354  0.53032537  1
  O  O48  1  0.22325115  0.76812646  0.46967463  1
  O  O49  1  0.77674885  0.29845183  0.76812646  1
  O  O50  1  0.22325115  0.70154817  0.23187354  1
  O  O51  1  0.80229159  0.79846191  0.36096986  1
  O  O52  1  0.19770841  0.20153809  0.63903014  1
  O  O53  1  0.80229159  0.56250795  0.20153809  1
  O  O54  1  0.19770841  0.43749205  0.79846191  1
  O  O55  1  0.80229159  0.63903014  0.43749205  1
  O  O56  1  0.19770841  0.36096986  0.56250795  1
  O  O57  1  0.62244946  0.75071222  0.21409319  1
  O  O58  1  0.37755054  0.24928778  0.78590681  1
  O  O59  1  0.62244946  0.46338097  0.24928778  1
  O  O60  1  0.37755054  0.53661903  0.75071222  1
  O  O61  1  0.62244946  0.78590681  0.53661903  1
  O  O62  1  0.37755054  0.21409319  0.46338097  1
  O  O63  1  0.89299241  0.84798909  0.23967041  1
  O  O64  1  0.10700759  0.15201091  0.76032959  1
  O  O65  1  0.89299241  0.39168132  0.15201091  1
  O  O66  1  0.10700759  0.60831868  0.84798909  1
  O  O67  1  0.89299241  0.76032959  0.60831868  1
  O  O68  1  0.10700759  0.23967041  0.39168132  1
  O  O69  1  0.61314195  0.74973532  0.76362391  1
  O  O70  1  0.38685805  0.25026468  0.23637609  1
  O  O71  1  0.61314195  0.01388859  0.25026468  1
  O  O72  1  0.38685805  0.98611141  0.74973532  1
  O  O73  1  0.61314195  0.23637609  0.98611141  1
  O  O74  1  0.38685805  0.76362391  0.01388859  1
  O  O75  1  0.86354682  0.53823854  0.59529807  1
  O  O76  1  0.13645318  0.46176146  0.40470193  1
  O  O77  1  0.86354682  0.05705954  0.46176146  1
  O  O78  1  0.13645318  0.94294046  0.53823854  1
  O  O79  1  0.86354682  0.40470192  0.94294046  1
  O  O80  1  0.13645318  0.59529808  0.05705954  1
