# generated using pymatgen
data_HoIn2Pd
_symmetry_space_group_name_H-M   'P 1'
_cell_length_a   9.16699985
_cell_length_b   10.82705591
_cell_length_c   10.82705591
_cell_angle_alpha   79.67597449
_cell_angle_beta   64.95451266
_cell_angle_gamma   64.95451266
_symmetry_Int_Tables_number   1
_chemical_formula_structural   HoIn2Pd
_chemical_formula_sum   'Ho10 In20 Pd10'
_cell_volume   882.01814187
_cell_formula_units_Z   10
loop_
 _symmetry_equiv_pos_site_id
 _symmetry_equiv_pos_as_xyz
  1  'x, y, z'
loop_
 _atom_site_type_symbol
 _atom_site_label
 _atom_site_symmetry_multiplicity
 _atom_site_fract_x
 _atom_site_fract_y
 _atom_site_fract_z
 _atom_site_occupancy
  Ho  Ho0  1  0.66974288  0.71872030  0.71872030  1
  Ho  Ho1  1  0.10718347  0.28127970  0.28127970  1
  Ho  Ho2  1  0.38846318  0.28127970  0.71872030  1
  Ho  Ho3  1  0.38846318  0.71872030  0.28127970  1
  Ho  Ho4  1  0.67561831  1.00000000  0.40311629  1
  Ho  Ho5  1  0.07873460  1.00000000  0.59688371  1
  Ho  Ho6  1  0.07873460  0.59688371  1.00000000  1
  Ho  Ho7  1  0.67561831  0.40311629  1.00000000  1
  Ho  Ho8  1  0.45766711  1.00000000  1.00000000  1
  Ho  Ho9  1  0.99531810  0.00000000  0.00000000  1
  In  In10  1  0.26824487  0.20886748  0.50677904  1
  In  In11  1  0.98389139  0.79113252  0.49322096  1
  In  In12  1  0.77502391  0.49322096  0.20886748  1
  In  In13  1  0.26824487  0.50677904  0.20886748  1
  In  In14  1  0.47711235  0.50677904  0.79113252  1
  In  In15  1  0.98389139  0.49322096  0.79113252  1
  In  In16  1  0.77502391  0.20886748  0.49322096  1
  In  In17  1  0.47711235  0.79113252  0.50677904  1
  In  In18  1  0.24724826  0.61761691  0.61761691  1
  In  In19  1  0.48248208  0.38238309  0.38238309  1
  In  In20  1  0.86486517  0.38238309  0.61761691  1
  In  In21  1  0.86486517  0.61761691  0.38238309  1
  In  In22  1  0.35832976  1.00000000  0.73466940  1
  In  In23  1  0.09299917  1.00000000  0.26533060  1
  In  In24  1  0.09299917  0.26533060  1.00000000  1
  In  In25  1  0.35832976  0.73466940  1.00000000  1
  In  In26  1  0.88069704  0.83858826  0.83858826  1
  In  In27  1  0.55787355  0.16141174  0.16141174  1
  In  In28  1  0.71928529  0.16141174  0.83858826  1
  In  In29  1  0.71928529  0.83858826  0.16141174  1
  Pd  Pd30  1  0.11440177  0.50000000  0.50000000  1
  Pd  Pd31  1  0.61440177  0.50000000  0.50000000  1
  Pd  Pd32  1  0.37281536  0.00000000  0.32186484  1
  Pd  Pd33  1  0.69468020  0.00000000  0.67813516  1
  Pd  Pd34  1  0.69468020  0.67813516  0.00000000  1
  Pd  Pd35  1  0.37281536  0.32186484  0.00000000  1
  Pd  Pd36  1  0.23950061  0.78698859  0.78698859  1
  Pd  Pd37  1  0.81347780  0.21301141  0.21301141  1
  Pd  Pd38  1  0.02648920  0.21301141  0.78698859  1
  Pd  Pd39  1  0.02648920  0.78698859  0.21301141  1
