# generated using pymatgen
data_Nd8Ni18P11
_symmetry_space_group_name_H-M   'P 1'
_cell_length_a   3.93273212
_cell_length_b   18.29184530
_cell_length_c   18.29184530
_cell_angle_alpha   120.00000252
_cell_angle_beta   90.00000000
_cell_angle_gamma   90.00000000
_symmetry_Int_Tables_number   1
_chemical_formula_structural   Nd8Ni18P11
_chemical_formula_sum   'Nd16 Ni36 P22'
_cell_volume   1139.56742236
_cell_formula_units_Z   2
loop_
 _symmetry_equiv_pos_site_id
 _symmetry_equiv_pos_as_xyz
  1  'x, y, z'
loop_
 _atom_site_type_symbol
 _atom_site_label
 _atom_site_symmetry_multiplicity
 _atom_site_fract_x
 _atom_site_fract_y
 _atom_site_fract_z
 _atom_site_occupancy
  Nd  Nd0  1  0.50000000  0.52283211  0.04566423  1
  Nd  Nd1  1  0.50000000  0.52283211  0.47716789  1
  Nd  Nd2  1  0.50000000  0.95433577  0.47716789  1
  Nd  Nd3  1  0.50000000  0.73971259  0.47942518  1
  Nd  Nd4  1  0.50000000  0.73971259  0.26028741  1
  Nd  Nd5  1  0.50000000  0.52057482  0.26028741  1
  Nd  Nd6  1  -0.00000000  0.22079887  0.44159775  1
  Nd  Nd7  1  -0.00000000  0.22079887  0.77920113  1
  Nd  Nd8  1  0.00000000  0.55840225  0.77920113  1
  Nd  Nd9  1  -0.00000000  0.99872194  0.21713087  1
  Nd  Nd10  1  -0.00000000  0.21840893  0.00127806  1
  Nd  Nd11  1  -0.00000000  0.21840893  0.21713087  1
  Nd  Nd12  1  0.00000000  0.78286913  0.78159107  1
  Nd  Nd13  1  0.00000000  0.78286913  0.00127806  1
  Nd  Nd14  1  0.00000000  0.99872194  0.78159107  1
  Nd  Nd15  1  -0.00000000  0.00000000  -0.00000000  1
  Ni  Ni16  1  0.50000000  0.28977373  0.57954747  1
  Ni  Ni17  1  0.50000000  0.28977373  0.71022627  1
  Ni  Ni18  1  0.50000000  0.42045253  0.71022627  1
  Ni  Ni19  1  0.50000000  0.92379900  0.29425377  1
  Ni  Ni20  1  0.50000000  0.37045477  0.07620100  1
  Ni  Ni21  1  0.50000000  0.37045477  0.29425377  1
  Ni  Ni22  1  0.50000000  0.70574623  0.62954523  1
  Ni  Ni23  1  0.50000000  0.70574623  0.07620100  1
  Ni  Ni24  1  0.50000000  0.92379900  0.62954523  1
  Ni  Ni25  1  -0.00000000  0.59946877  0.62992465  1
  Ni  Ni26  1  0.00000000  0.03045588  0.40053123  1
  Ni  Ni27  1  0.00000000  0.03045588  0.62992465  1
  Ni  Ni28  1  -0.00000000  0.37007535  0.96954412  1
  Ni  Ni29  1  0.00000000  0.37007535  0.40053123  1
  Ni  Ni30  1  -0.00000000  0.59946877  0.96954412  1
  Ni  Ni31  1  -0.00000000  0.81573606  0.63147212  1
  Ni  Ni32  1  0.00000000  0.81573606  0.18426394  1
  Ni  Ni33  1  0.00000000  0.36852788  0.18426394  1
  Ni  Ni34  1  0.00000000  0.59413992  0.18827984  1
  Ni  Ni35  1  0.00000000  0.59413992  0.40586008  1
  Ni  Ni36  1  -0.00000000  0.81172016  0.40586008  1
  Ni  Ni37  1  0.50000000  0.92679120  0.85358241  1
  Ni  Ni38  1  0.50000000  0.92679120  0.07320880  1
  Ni  Ni39  1  0.50000000  0.14641759  0.07320880  1
  Ni  Ni40  1  0.50000000  0.50159534  0.63103453  1
  Ni  Ni41  1  0.50000000  0.12943919  0.49840466  1
  Ni  Ni42  1  0.50000000  0.12943919  0.63103453  1
  Ni  Ni43  1  0.50000000  0.36896547  0.87056081  1
  Ni  Ni44  1  0.50000000  0.36896547  0.49840466  1
  Ni  Ni45  1  0.50000000  0.50159534  0.87056081  1
  Ni  Ni46  1  -0.00000000  0.38373429  0.76746858  1
  Ni  Ni47  1  -0.00000000  0.38373429  0.61626571  1
  Ni  Ni48  1  0.00000000  0.23253142  0.61626571  1
  Ni  Ni49  1  0.50000000  0.14512604  0.29025208  1
  Ni  Ni50  1  0.50000000  0.14512604  0.85487396  1
  Ni  Ni51  1  0.50000000  0.70974792  0.85487396  1
  P  P52  1  -0.00000000  0.66666700  0.33333300  1
  P  P53  1  0.50000000  0.85454228  0.70908457  1
  P  P54  1  0.50000000  0.85454228  0.14545772  1
  P  P55  1  0.50000000  0.29091543  0.14545772  1
  P  P56  1  0.00000000  0.88239001  0.33218084  1
  P  P57  1  -0.00000000  0.44979083  0.11760999  1
  P  P58  1  -0.00000000  0.44979083  0.33218084  1
  P  P59  1  0.00000000  0.66781916  0.55020917  1
  P  P60  1  -0.00000000  0.66781916  0.11760999  1
  P  P61  1  0.00000000  0.88239001  0.55020917  1
  P  P62  1  0.00000000  0.45207958  0.90415915  1
  P  P63  1  0.00000000  0.45207958  0.54792042  1
  P  P64  1  -0.00000000  0.09584085  0.54792042  1
  P  P65  1  0.50000000  0.64124926  0.71271321  1
  P  P66  1  0.50000000  0.07146395  0.35875074  1
  P  P67  1  0.50000000  0.07146395  0.71271321  1
  P  P68  1  0.50000000  0.28728679  0.92853605  1
  P  P69  1  0.50000000  0.28728679  0.35875074  1
  P  P70  1  0.50000000  0.64124926  0.92853605  1
  P  P71  1  0.50000000  0.07223661  0.14447322  1
  P  P72  1  0.50000000  0.07223661  0.92776339  1
  P  P73  1  0.50000000  0.85552678  0.92776339  1
