# generated using pymatgen
data_Ho4MgCo
_symmetry_space_group_name_H-M   'P 1'
_cell_length_a   9.54629217
_cell_length_b   9.54629217
_cell_length_c   9.54629217
_cell_angle_alpha   60.00000000
_cell_angle_beta   60.00000000
_cell_angle_gamma   60.00000000
_symmetry_Int_Tables_number   1
_chemical_formula_structural   Ho4MgCo
_chemical_formula_sum   'Ho16 Mg4 Co4'
_cell_volume   615.16153035
_cell_formula_units_Z   4
loop_
 _symmetry_equiv_pos_site_id
 _symmetry_equiv_pos_as_xyz
  1  'x, y, z'
loop_
 _atom_site_type_symbol
 _atom_site_label
 _atom_site_symmetry_multiplicity
 _atom_site_fract_x
 _atom_site_fract_y
 _atom_site_fract_z
 _atom_site_occupancy
  Ho  Ho0  1  0.65497633  0.65497633  0.65497633  1
  Ho  Ho1  1  0.03507101  0.65497633  0.65497633  1
  Ho  Ho2  1  0.65497633  0.03507101  0.65497633  1
  Ho  Ho3  1  0.65497633  0.65497633  0.03507101  1
  Ho  Ho4  1  0.81398660  0.81398660  0.18601340  1
  Ho  Ho5  1  0.18601340  0.18601340  0.81398660  1
  Ho  Ho6  1  0.81398660  0.18601340  0.81398660  1
  Ho  Ho7  1  0.18601340  0.81398660  0.18601340  1
  Ho  Ho8  1  0.18601340  0.81398660  0.81398660  1
  Ho  Ho9  1  0.81398660  0.18601340  0.18601340  1
  Ho  Ho10  1  0.43679458  0.43679458  0.06320542  1
  Ho  Ho11  1  0.06320542  0.06320542  0.43679458  1
  Ho  Ho12  1  0.43679458  0.06320542  0.43679458  1
  Ho  Ho13  1  0.06320542  0.43679458  0.06320542  1
  Ho  Ho14  1  0.06320542  0.43679458  0.43679458  1
  Ho  Ho15  1  0.43679458  0.06320542  0.06320542  1
  Mg  Mg16  1  0.42096165  0.42096165  0.42096165  1
  Mg  Mg17  1  0.73711505  0.42096165  0.42096165  1
  Mg  Mg18  1  0.42096165  0.73711505  0.42096165  1
  Mg  Mg19  1  0.42096165  0.42096165  0.73711505  1
  Co  Co20  1  0.85897206  0.85897206  0.85897206  1
  Co  Co21  1  0.42308383  0.85897206  0.85897206  1
  Co  Co22  1  0.85897206  0.42308383  0.85897206  1
  Co  Co23  1  0.85897206  0.85897206  0.42308383  1
