# generated using pymatgen
data_Ho6Ta4Al43
_symmetry_space_group_name_H-M   'P 1'
_cell_length_a   11.12958260
_cell_length_b   11.12958260
_cell_length_c   17.70165671
_cell_angle_alpha   90.00000000
_cell_angle_beta   90.00000000
_cell_angle_gamma   120.00000011
_symmetry_Int_Tables_number   1
_chemical_formula_structural   Ho6Ta4Al43
_chemical_formula_sum   'Ho12 Ta8 Al86'
_cell_volume   1898.90089564
_cell_formula_units_Z   2
loop_
 _symmetry_equiv_pos_site_id
 _symmetry_equiv_pos_as_xyz
  1  'x, y, z'
loop_
 _atom_site_type_symbol
 _atom_site_label
 _atom_site_symmetry_multiplicity
 _atom_site_fract_x
 _atom_site_fract_y
 _atom_site_fract_z
 _atom_site_occupancy
  Ho  Ho0  1  0.47018809  0.47018809  0.90367827  1
  Ho  Ho1  1  0.52981191  0.52981191  0.09632173  1
  Ho  Ho2  1  1.00000000  0.52981191  0.90367827  1
  Ho  Ho3  1  0.52981191  0.52981191  0.40367827  1
  Ho  Ho4  1  1.00000000  0.52981191  0.59632173  1
  Ho  Ho5  1  0.00000000  0.47018809  0.09632173  1
  Ho  Ho6  1  0.47018809  0.47018809  0.59632173  1
  Ho  Ho7  1  0.00000000  0.47018809  0.40367827  1
  Ho  Ho8  1  0.52981191  1.00000000  0.90367827  1
  Ho  Ho9  1  0.47018809  0.00000000  0.09632173  1
  Ho  Ho10  1  0.47018809  0.00000000  0.40367827  1
  Ho  Ho11  1  0.52981191  1.00000000  0.59632173  1
  Ta  Ta12  1  -0.00000000  -0.00000000  -0.00000000  1
  Ta  Ta13  1  -0.00000000  -0.00000000  0.50000000  1
  Ta  Ta14  1  0.27428874  0.27428874  0.75000000  1
  Ta  Ta15  1  0.72571126  0.72571126  0.25000000  1
  Ta  Ta16  1  1.00000000  0.72571126  0.75000000  1
  Ta  Ta17  1  0.00000000  0.27428874  0.25000000  1
  Ta  Ta18  1  0.72571126  1.00000000  0.75000000  1
  Ta  Ta19  1  0.27428874  0.00000000  0.25000000  1
  Al  Al20  1  0.85075074  0.44587980  0.75000000  1
  Al  Al21  1  0.14924926  0.55412020  0.25000000  1
  Al  Al22  1  0.59512906  0.14924926  0.75000000  1
  Al  Al23  1  0.40487094  0.55412020  0.75000000  1
  Al  Al24  1  0.40487094  0.85075074  0.25000000  1
  Al  Al25  1  0.59512906  0.44587980  0.25000000  1
  Al  Al26  1  0.55412020  0.40487094  0.75000000  1
  Al  Al27  1  0.44587980  0.85075074  0.75000000  1
  Al  Al28  1  0.44587980  0.59512906  0.25000000  1
  Al  Al29  1  0.55412020  0.14924926  0.25000000  1
  Al  Al30  1  0.14924926  0.59512906  0.75000000  1
  Al  Al31  1  0.85075074  0.40487094  0.25000000  1
  Al  Al32  1  0.84075194  0.84075194  0.38492746  1
  Al  Al33  1  0.15924806  0.15924806  0.61507254  1
  Al  Al34  1  1.00000000  0.15924806  0.38492746  1
  Al  Al35  1  0.15924806  0.15924806  0.88492746  1
  Al  Al36  1  1.00000000  0.15924806  0.11507254  1
  Al  Al37  1  0.00000000  0.84075194  0.61507254  1
  Al  Al38  1  0.84075194  0.84075194  0.11507254  1
  Al  Al39  1  0.00000000  0.84075194  0.88492746  1
  Al  Al40  1  0.15924806  1.00000000  0.38492746  1
  Al  Al41  1  0.84075194  0.00000000  0.61507254  1
  Al  Al42  1  0.84075194  0.00000000  0.88492746  1
  Al  Al43  1  0.15924806  1.00000000  0.11507254  1
  Al  Al44  1  0.75292039  0.24707961  -0.00000000  1
  Al  Al45  1  0.24707961  0.75292039  0.00000000  1
  Al  Al46  1  0.49415922  0.24707961  0.00000000  1
  Al  Al47  1  0.24707961  0.75292039  0.50000000  1
  Al  Al48  1  0.50584078  0.75292039  0.50000000  1
  Al  Al49  1  0.50584078  0.75292039  -0.00000000  1
  Al  Al50  1  0.75292039  0.24707961  0.50000000  1
  Al  Al51  1  0.49415922  0.24707961  0.50000000  1
  Al  Al52  1  0.75292039  0.50584078  0.00000000  1
  Al  Al53  1  0.24707961  0.49415922  -0.00000000  1
  Al  Al54  1  0.24707961  0.49415922  0.50000000  1
  Al  Al55  1  0.75292039  0.50584078  0.50000000  1
  Al  Al56  1  0.85295354  0.85295354  0.75000000  1
  Al  Al57  1  0.14704646  0.14704646  0.25000000  1
  Al  Al58  1  1.00000000  0.14704646  0.75000000  1
  Al  Al59  1  0.00000000  0.85295354  0.25000000  1
  Al  Al60  1  0.14704646  1.00000000  0.75000000  1
  Al  Al61  1  0.85295354  0.00000000  0.25000000  1
  Al  Al62  1  0.66666700  0.33333300  0.87359861  1
  Al  Al63  1  0.33333300  0.66666700  0.12640139  1
  Al  Al64  1  0.33333300  0.66666700  0.37359861  1
  Al  Al65  1  0.33333300  0.66666700  0.62640139  1
  Al  Al66  1  0.66666700  0.33333300  0.62640139  1
  Al  Al67  1  0.66666700  0.33333300  0.37359861  1
  Al  Al68  1  0.66666700  0.33333300  0.12640139  1
  Al  Al69  1  0.33333300  0.66666700  0.87359861  1
  Al  Al70  1  0.74370488  0.74370488  0.96974797  1
  Al  Al71  1  0.25629512  0.25629512  0.03025203  1
  Al  Al72  1  -0.00000000  0.25629512  0.96974797  1
  Al  Al73  1  0.25629512  0.25629512  0.46974797  1
  Al  Al74  1  -0.00000000  0.25629512  0.53025203  1
  Al  Al75  1  0.00000000  0.74370488  0.03025203  1
  Al  Al76  1  0.74370488  0.74370488  0.53025203  1
  Al  Al77  1  0.00000000  0.74370488  0.46974797  1
  Al  Al78  1  0.25629512  -0.00000000  0.96974797  1
  Al  Al79  1  0.74370488  0.00000000  0.03025203  1
  Al  Al80  1  0.74370488  0.00000000  0.46974797  1
  Al  Al81  1  0.25629512  -0.00000000  0.53025203  1
  Al  Al82  1  0.84269797  0.23749817  0.83661701  1
  Al  Al83  1  0.15730203  0.76250183  0.16338299  1
  Al  Al84  1  0.39480020  0.15730203  0.83661701  1
  Al  Al85  1  0.15730203  0.76250183  0.33661701  1
  Al  Al86  1  0.60519980  0.76250183  0.66338299  1
  Al  Al87  1  0.60519980  0.84269797  0.16338299  1
  Al  Al88  1  0.84269797  0.23749817  0.66338299  1
  Al  Al89  1  0.39480020  0.23749817  0.33661701  1
  Al  Al90  1  0.76250183  0.60519980  0.83661701  1
  Al  Al91  1  0.60519980  0.84269797  0.33661701  1
  Al  Al92  1  0.23749817  0.84269797  0.66338299  1
  Al  Al93  1  0.23749817  0.39480020  0.16338299  1
  Al  Al94  1  0.39480020  0.15730203  0.66338299  1
  Al  Al95  1  0.76250183  0.15730203  0.33661701  1
  Al  Al96  1  0.39480020  0.23749817  0.16338299  1
  Al  Al97  1  0.60519980  0.76250183  0.83661701  1
  Al  Al98  1  0.23749817  0.39480020  0.33661701  1
  Al  Al99  1  0.76250183  0.15730203  0.16338299  1
  Al  Al100  1  0.76250183  0.60519980  0.66338299  1
  Al  Al101  1  0.23749817  0.84269797  0.83661701  1
  Al  Al102  1  0.15730203  0.39480020  0.66338299  1
  Al  Al103  1  0.84269797  0.60519980  0.33661701  1
  Al  Al104  1  0.84269797  0.60519980  0.16338299  1
  Al  Al105  1  0.15730203  0.39480020  0.83661701  1
