# generated using pymatgen
data_Ho12In3Fe2
_symmetry_space_group_name_H-M   'P 1'
_cell_length_a   8.42044237
_cell_length_b   8.42044237
_cell_length_c   8.42044237
_cell_angle_alpha   110.04379017
_cell_angle_beta   108.33205224
_cell_angle_gamma   110.04379017
_symmetry_Int_Tables_number   1
_chemical_formula_structural   Ho12In3Fe2
_chemical_formula_sum   'Ho12 In3 Fe2'
_cell_volume   459.46704418
_cell_formula_units_Z   1
loop_
 _symmetry_equiv_pos_site_id
 _symmetry_equiv_pos_as_xyz
  1  'x, y, z'
loop_
 _atom_site_type_symbol
 _atom_site_label
 _atom_site_symmetry_multiplicity
 _atom_site_fract_x
 _atom_site_fract_y
 _atom_site_fract_z
 _atom_site_occupancy
  Ho  Ho0  1  0.20819174  0.24747944  0.45567118  1
  Ho  Ho1  1  0.79180826  0.75252056  0.54432882  1
  Ho  Ho2  1  0.20819174  0.75252056  0.96071230  1
  Ho  Ho3  1  0.96071230  0.75252056  0.20819174  1
  Ho  Ho4  1  0.79180826  0.24747944  0.03928770  1
  Ho  Ho5  1  0.03928770  0.24747944  0.79180826  1
  Ho  Ho6  1  0.45567118  0.24747944  0.20819174  1
  Ho  Ho7  1  0.54432882  0.75252056  0.79180826  1
  Ho  Ho8  1  0.30533563  0.61067126  0.30533563  1
  Ho  Ho9  1  0.69466437  0.38932874  0.69466437  1
  Ho  Ho10  1  0.69466437  0.00000000  0.30533563  1
  Ho  Ho11  1  0.30533563  -0.00000000  0.69466437  1
  In  In12  1  -0.00000000  0.50000000  0.50000000  1
  In  In13  1  0.50000000  0.50000000  -0.00000000  1
  In  In14  1  -0.00000000  -0.00000000  -0.00000000  1
  Fe  Fe15  1  0.39090205  -0.00000000  0.39090205  1
  Fe  Fe16  1  0.60909795  0.00000000  0.60909795  1
