# generated using pymatgen
data_Ho3Ga15Ru4
_symmetry_space_group_name_H-M   'P 1'
_cell_length_a   8.80794816
_cell_length_b   9.63859354
_cell_length_c   17.84738611
_cell_angle_alpha   90.00000000
_cell_angle_beta   90.00000000
_cell_angle_gamma   90.00000000
_symmetry_Int_Tables_number   1
_chemical_formula_structural   Ho3Ga15Ru4
_chemical_formula_sum   'Ho12 Ga60 Ru16'
_cell_volume   1515.17583599
_cell_formula_units_Z   4
loop_
 _symmetry_equiv_pos_site_id
 _symmetry_equiv_pos_as_xyz
  1  'x, y, z'
loop_
 _atom_site_type_symbol
 _atom_site_label
 _atom_site_symmetry_multiplicity
 _atom_site_fract_x
 _atom_site_fract_y
 _atom_site_fract_z
 _atom_site_occupancy
  Ho  Ho0  1  0.37562821  0.25000000  0.16775060  1
  Ho  Ho1  1  0.62437179  0.75000000  0.83224940  1
  Ho  Ho2  1  0.12437179  0.75000000  0.66775060  1
  Ho  Ho3  1  0.87562821  0.25000000  0.33224940  1
  Ho  Ho4  1  0.37538395  0.25000000  0.74838718  1
  Ho  Ho5  1  0.62461605  0.75000000  0.25161282  1
  Ho  Ho6  1  0.12461605  0.75000000  0.24838718  1
  Ho  Ho7  1  0.87538395  0.25000000  0.75161282  1
  Ho  Ho8  1  0.12545565  0.25000000  0.52400438  1
  Ho  Ho9  1  0.87454435  0.75000000  0.47599562  1
  Ho  Ho10  1  0.37454435  0.75000000  0.02400438  1
  Ho  Ho11  1  0.62545565  0.25000000  0.97599562  1
  Ga  Ga12  1  0.12676121  0.06082402  0.25282265  1
  Ga  Ga13  1  0.87323879  0.93917598  0.74717735  1
  Ga  Ga14  1  0.37323879  0.93917598  0.75282265  1
  Ga  Ga15  1  0.87323879  0.56082402  0.74717735  1
  Ga  Ga16  1  0.62676121  0.06082402  0.24717735  1
  Ga  Ga17  1  0.12676121  0.43917598  0.25282265  1
  Ga  Ga18  1  0.62676121  0.43917598  0.24717735  1
  Ga  Ga19  1  0.37323879  0.56082402  0.75282265  1
  Ga  Ga20  1  0.00710937  0.25000000  0.16897515  1
  Ga  Ga21  1  0.99289063  0.75000000  0.83102485  1
  Ga  Ga22  1  0.49289063  0.75000000  0.66897515  1
  Ga  Ga23  1  0.50710937  0.25000000  0.33102485  1
  Ga  Ga24  1  0.13360162  0.25000000  0.04162070  1
  Ga  Ga25  1  0.86639838  0.75000000  0.95837930  1
  Ga  Ga26  1  0.36639838  0.75000000  0.54162070  1
  Ga  Ga27  1  0.63360162  0.25000000  0.45837930  1
  Ga  Ga28  1  0.37443380  0.57785267  0.33107869  1
  Ga  Ga29  1  0.62556620  0.42214733  0.66892131  1
  Ga  Ga30  1  0.12556620  0.42214733  0.83107869  1
  Ga  Ga31  1  0.62556620  0.07785267  0.66892131  1
  Ga  Ga32  1  0.87443380  0.57785267  0.16892131  1
  Ga  Ga33  1  0.37443380  0.92214733  0.33107869  1
  Ga  Ga34  1  0.87443380  0.92214733  0.16892131  1
  Ga  Ga35  1  0.12556620  0.07785267  0.83107869  1
  Ga  Ga36  1  0.22068627  0.25000000  0.35947420  1
  Ga  Ga37  1  0.77931373  0.75000000  0.64052580  1
  Ga  Ga38  1  0.27931373  0.75000000  0.85947420  1
  Ga  Ga39  1  0.72068627  0.25000000  0.14052580  1
  Ga  Ga40  1  0.12392050  0.08772425  0.67223460  1
  Ga  Ga41  1  0.87607950  0.91227575  0.32776540  1
  Ga  Ga42  1  0.37607950  0.91227575  0.17223460  1
  Ga  Ga43  1  0.87607950  0.58772425  0.32776540  1
  Ga  Ga44  1  0.62392050  0.08772425  0.82776540  1
  Ga  Ga45  1  0.12392050  0.41227575  0.67223460  1
  Ga  Ga46  1  0.62392050  0.41227575  0.82776540  1
  Ga  Ga47  1  0.37607950  0.58772425  0.17223460  1
  Ga  Ga48  1  0.37724895  0.06138858  0.46544078  1
  Ga  Ga49  1  0.62275105  0.93861142  0.53455922  1
  Ga  Ga50  1  0.12275105  0.93861142  0.96544078  1
  Ga  Ga51  1  0.62275105  0.56138858  0.53455922  1
  Ga  Ga52  1  0.87724895  0.06138858  0.03455922  1
  Ga  Ga53  1  0.37724895  0.43861142  0.46544078  1
  Ga  Ga54  1  0.87724895  0.43861142  0.03455922  1
  Ga  Ga55  1  0.12275105  0.56138858  0.96544078  1
  Ga  Ga56  1  0.45096385  0.25000000  0.57773772  1
  Ga  Ga57  1  0.54903615  0.75000000  0.42226228  1
  Ga  Ga58  1  0.04903615  0.75000000  0.07773772  1
  Ga  Ga59  1  0.95096385  0.25000000  0.92226228  1
  Ga  Ga60  1  0.30453223  0.25000000  0.91783729  1
  Ga  Ga61  1  0.69546777  0.75000000  0.08216271  1
  Ga  Ga62  1  0.19546777  0.75000000  0.41783729  1
  Ga  Ga63  1  0.80453223  0.25000000  0.58216271  1
  Ga  Ga64  1  0.37392312  0.06977227  0.03282301  1
  Ga  Ga65  1  0.62607688  0.93022773  0.96717699  1
  Ga  Ga66  1  0.12607688  0.93022773  0.53282301  1
  Ga  Ga67  1  0.62607688  0.56977227  0.96717699  1
  Ga  Ga68  1  0.87392312  0.06977227  0.46717699  1
  Ga  Ga69  1  0.37392312  0.43022773  0.03282301  1
  Ga  Ga70  1  0.87392312  0.43022773  0.46717699  1
  Ga  Ga71  1  0.12607688  0.56977227  0.53282301  1
  Ru  Ru72  1  0.11689348  0.00389237  0.39060368  1
  Ru  Ru73  1  0.88310652  0.99610763  0.60939632  1
  Ru  Ru74  1  0.38310652  0.99610763  0.89060368  1
  Ru  Ru75  1  0.88310652  0.50389237  0.60939632  1
  Ru  Ru76  1  0.61689348  0.00389237  0.10939632  1
  Ru  Ru77  1  0.11689348  0.49610763  0.39060368  1
  Ru  Ru78  1  0.61689348  0.49610763  0.10939632  1
  Ru  Ru79  1  0.38310652  0.50389237  0.89060368  1
  Ru  Ru80  1  0.13034746  0.00472865  0.11346001  1
  Ru  Ru81  1  0.86965254  0.99527135  0.88653999  1
  Ru  Ru82  1  0.36965254  0.99527135  0.61346001  1
  Ru  Ru83  1  0.86965254  0.50472865  0.88653999  1
  Ru  Ru84  1  0.63034746  0.00472865  0.38653999  1
  Ru  Ru85  1  0.13034746  0.49527135  0.11346001  1
  Ru  Ru86  1  0.63034746  0.49527135  0.38653999  1
  Ru  Ru87  1  0.36965254  0.50472865  0.61346001  1
