# generated using pymatgen
data_Hf6Be15Cu8
_symmetry_space_group_name_H-M   'P 1'
_cell_length_a   7.82454824
_cell_length_b   7.82454824
_cell_length_c   7.82454824
_cell_angle_alpha   60.00000000
_cell_angle_beta   60.00000000
_cell_angle_gamma   60.00000000
_symmetry_Int_Tables_number   1
_chemical_formula_structural   Hf6Be15Cu8
_chemical_formula_sum   'Hf6 Be15 Cu8'
_cell_volume   338.73714230
_cell_formula_units_Z   1
loop_
 _symmetry_equiv_pos_site_id
 _symmetry_equiv_pos_as_xyz
  1  'x, y, z'
loop_
 _atom_site_type_symbol
 _atom_site_label
 _atom_site_symmetry_multiplicity
 _atom_site_fract_x
 _atom_site_fract_y
 _atom_site_fract_z
 _atom_site_occupancy
  Hf  Hf0  1  0.70209258  0.70209258  0.29790742  1
  Hf  Hf1  1  0.29790742  0.29790742  0.70209258  1
  Hf  Hf2  1  0.70209258  0.29790742  0.70209258  1
  Hf  Hf3  1  0.29790742  0.70209258  0.29790742  1
  Hf  Hf4  1  0.29790742  0.70209258  0.70209258  1
  Hf  Hf5  1  0.70209258  0.29790742  0.29790742  1
  Be  Be6  1  0.67576723  0.67576723  0.67576723  1
  Be  Be7  1  0.32423277  0.32423277  0.32423277  1
  Be  Be8  1  0.97269830  0.67576723  0.67576723  1
  Be  Be9  1  0.67576723  0.97269830  0.67576723  1
  Be  Be10  1  0.02730170  0.32423277  0.32423277  1
  Be  Be11  1  0.32423277  0.02730170  0.32423277  1
  Be  Be12  1  0.67576723  0.67576723  0.97269830  1
  Be  Be13  1  0.32423277  0.32423277  0.02730170  1
  Be  Be14  1  0.00000000  0.00000000  0.50000000  1
  Be  Be15  1  0.50000000  0.50000000  -0.00000000  1
  Be  Be16  1  0.00000000  0.50000000  -0.00000000  1
  Be  Be17  1  0.50000000  0.00000000  0.50000000  1
  Be  Be18  1  0.50000000  0.00000000  -0.00000000  1
  Be  Be19  1  0.00000000  0.50000000  0.50000000  1
  Be  Be20  1  0.00000000  0.00000000  -0.00000000  1
  Cu  Cu21  1  0.87679093  0.87679093  0.87679093  1
  Cu  Cu22  1  0.12320907  0.12320907  0.12320907  1
  Cu  Cu23  1  0.36962720  0.87679093  0.87679093  1
  Cu  Cu24  1  0.87679093  0.36962720  0.87679093  1
  Cu  Cu25  1  0.63037280  0.12320907  0.12320907  1
  Cu  Cu26  1  0.12320907  0.63037280  0.12320907  1
  Cu  Cu27  1  0.87679093  0.87679093  0.36962720  1
  Cu  Cu28  1  0.12320907  0.12320907  0.63037280  1
