# generated using pymatgen
data_Ho(Ni2B)6
_symmetry_space_group_name_H-M   'P 1'
_cell_length_a   6.02451430
_cell_length_b   6.02451430
_cell_length_c   10.92876068
_cell_angle_alpha   90.00000000
_cell_angle_beta   90.00000000
_cell_angle_gamma   104.85491891
_symmetry_Int_Tables_number   1
_chemical_formula_structural   Ho(Ni2B)6
_chemical_formula_sum   'Ho2 Ni24 B12'
_cell_volume   383.39985514
_cell_formula_units_Z   2
loop_
 _symmetry_equiv_pos_site_id
 _symmetry_equiv_pos_as_xyz
  1  'x, y, z'
loop_
 _atom_site_type_symbol
 _atom_site_label
 _atom_site_symmetry_multiplicity
 _atom_site_fract_x
 _atom_site_fract_y
 _atom_site_fract_z
 _atom_site_occupancy
  Ho  Ho0  1  0.66477097  0.66477097  0.35787449  1
  Ho  Ho1  1  0.33522903  0.33522903  0.85787449  1
  Ni  Ni2  1  0.30494425  0.04452140  0.09532103  1
  Ni  Ni3  1  0.69505575  0.95547860  0.59532103  1
  Ni  Ni4  1  0.95547860  0.69505575  0.59532103  1
  Ni  Ni5  1  0.04452140  0.30494425  0.09532103  1
  Ni  Ni6  1  0.06365276  0.06365276  0.28170658  1
  Ni  Ni7  1  0.93634724  0.93634724  0.78170658  1
  Ni  Ni8  1  0.49640141  0.13056032  0.29900244  1
  Ni  Ni9  1  0.50359859  0.86943968  0.79900244  1
  Ni  Ni10  1  0.86943968  0.50359859  0.79900244  1
  Ni  Ni11  1  0.13056032  0.49640141  0.29900244  1
  Ni  Ni12  1  0.28392519  0.28392519  0.46093316  1
  Ni  Ni13  1  0.71607481  0.71607481  0.96093316  1
  Ni  Ni14  1  0.71296086  0.97302997  0.13858159  1
  Ni  Ni15  1  0.28703914  0.02697003  0.63858159  1
  Ni  Ni16  1  0.02697003  0.28703914  0.63858159  1
  Ni  Ni17  1  0.97302997  0.71296086  0.13858159  1
  Ni  Ni18  1  0.38234371  0.64508765  0.11765724  1
  Ni  Ni19  1  0.61765629  0.35491235  0.61765724  1
  Ni  Ni20  1  0.35491235  0.61765629  0.61765724  1
  Ni  Ni21  1  0.64508765  0.38234371  0.11765724  1
  Ni  Ni22  1  0.23040889  0.84035998  0.43017016  1
  Ni  Ni23  1  0.76959111  0.15964002  0.93017016  1
  Ni  Ni24  1  0.15964002  0.76959111  0.93017016  1
  Ni  Ni25  1  0.84035998  0.23040889  0.43017016  1
  B  B26  1  0.25776160  0.82672198  0.24685553  1
  B  B27  1  0.74223840  0.17327802  0.74685553  1
  B  B28  1  0.17327802  0.74223840  0.74685553  1
  B  B29  1  0.82672198  0.25776160  0.24685553  1
  B  B30  1  0.33609899  0.33609899  0.20144293  1
  B  B31  1  0.66390101  0.66390101  0.70144293  1
  B  B32  1  0.51098546  0.09802317  0.48500708  1
  B  B33  1  0.48901454  0.90197683  0.98500708  1
  B  B34  1  0.90197683  0.48901454  0.98500708  1
  B  B35  1  0.09802317  0.51098546  0.48500708  1
  B  B36  1  0.98876403  0.98876403  0.01385268  1
  B  B37  1  0.01123597  0.01123597  0.51385268  1
