# generated using pymatgen
data_Ho(Al5Re)2
_symmetry_space_group_name_H-M   'P 1'
_cell_length_a   6.96761433
_cell_length_b   6.96761433
_cell_length_c   27.00917020
_cell_angle_alpha   90.00000000
_cell_angle_beta   90.00000000
_cell_angle_gamma   96.04432924
_symmetry_Int_Tables_number   1
_chemical_formula_structural   Ho(Al5Re)2
_chemical_formula_sum   'Ho6 Al60 Re12'
_cell_volume   1303.94223084
_cell_formula_units_Z   6
loop_
 _symmetry_equiv_pos_site_id
 _symmetry_equiv_pos_as_xyz
  1  'x, y, z'
loop_
 _atom_site_type_symbol
 _atom_site_label
 _atom_site_symmetry_multiplicity
 _atom_site_fract_x
 _atom_site_fract_y
 _atom_site_fract_z
 _atom_site_occupancy
  Ho  Ho0  1  0.87599941  0.12400059  0.91528021  1
  Ho  Ho1  1  0.12400059  0.87599941  0.08471979  1
  Ho  Ho2  1  0.12400059  0.87599941  0.41528021  1
  Ho  Ho3  1  0.87599941  0.12400059  0.58471979  1
  Ho  Ho4  1  0.61709207  0.38290793  0.75000000  1
  Ho  Ho5  1  0.38290793  0.61709207  0.25000000  1
  Al  Al6  1  0.59735563  0.40264437  0.86600358  1
  Al  Al7  1  0.40264437  0.59735563  0.13399642  1
  Al  Al8  1  0.40264437  0.59735563  0.36600358  1
  Al  Al9  1  0.59735563  0.40264437  0.63399642  1
  Al  Al10  1  0.59657032  0.81846296  0.75000000  1
  Al  Al11  1  0.40342968  0.18153704  0.25000000  1
  Al  Al12  1  0.18153704  0.40342968  0.75000000  1
  Al  Al13  1  0.81846296  0.59657032  0.25000000  1
  Al  Al14  1  0.87537136  0.12462864  0.35400537  1
  Al  Al15  1  0.12462864  0.87537136  0.64599463  1
  Al  Al16  1  0.12462864  0.87537136  0.85400537  1
  Al  Al17  1  0.87537136  0.12462864  0.14599463  1
  Al  Al18  1  0.37012402  0.62987598  0.82258000  1
  Al  Al19  1  0.62987598  0.37012402  0.17742000  1
  Al  Al20  1  0.62987598  0.37012402  0.32258000  1
  Al  Al21  1  0.37012402  0.62987598  0.67742000  1
  Al  Al22  1  0.52885968  0.77279118  0.91933127  1
  Al  Al23  1  0.47114032  0.22720882  0.08066873  1
  Al  Al24  1  0.47114032  0.22720882  0.41933127  1
  Al  Al25  1  0.22720882  0.47114032  0.58066873  1
  Al  Al26  1  0.52885968  0.77279118  0.58066873  1
  Al  Al27  1  0.77279118  0.52885968  0.41933127  1
  Al  Al28  1  0.77279118  0.52885968  0.08066873  1
  Al  Al29  1  0.22720882  0.47114032  0.91933127  1
  Al  Al30  1  0.26060647  0.03855650  0.75000000  1
  Al  Al31  1  0.73939353  0.96144350  0.25000000  1
  Al  Al32  1  0.96144350  0.73939353  0.75000000  1
  Al  Al33  1  0.03855650  0.26060647  0.25000000  1
  Al  Al34  1  0.62271031  0.37728969  0.97803964  1
  Al  Al35  1  0.37728969  0.62271031  0.02196036  1
  Al  Al36  1  0.37728969  0.62271031  0.47803964  1
  Al  Al37  1  0.62271031  0.37728969  0.52196036  1
  Al  Al38  1  0.52578753  0.03149722  0.82856159  1
  Al  Al39  1  0.47421247  0.96850278  0.17143841  1
  Al  Al40  1  0.47421247  0.96850278  0.32856159  1
  Al  Al41  1  0.96850278  0.47421247  0.67143841  1
  Al  Al42  1  0.52578753  0.03149722  0.67143841  1
  Al  Al43  1  0.03149722  0.52578753  0.32856159  1
  Al  Al44  1  0.03149722  0.52578753  0.17143841  1
  Al  Al45  1  0.96850278  0.47421247  0.82856159  1
  Al  Al46  1  0.90645140  0.09354860  0.80031630  1
  Al  Al47  1  0.09354860  0.90645140  0.19968370  1
  Al  Al48  1  0.09354860  0.90645140  0.30031630  1
  Al  Al49  1  0.90645140  0.09354860  0.69968370  1
  Al  Al50  1  0.38026682  0.12404060  0.91700233  1
  Al  Al51  1  0.61973318  0.87595940  0.08299767  1
  Al  Al52  1  0.61973318  0.87595940  0.41700233  1
  Al  Al53  1  0.87595940  0.61973318  0.58299767  1
  Al  Al54  1  0.38026682  0.12404060  0.58299767  1
  Al  Al55  1  0.12404060  0.38026682  0.41700233  1
  Al  Al56  1  0.12404060  0.38026682  0.08299767  1
  Al  Al57  1  0.87595940  0.61973318  0.91700233  1
  Al  Al58  1  0.79380978  0.79380978  -0.00000000  1
  Al  Al59  1  0.20619022  0.20619022  -0.00000000  1
  Al  Al60  1  0.20619022  0.20619022  0.50000000  1
  Al  Al61  1  0.79380978  0.79380978  0.50000000  1
  Al  Al62  1  0.83518812  0.16481188  0.46599579  1
  Al  Al63  1  0.16481188  0.83518812  0.53400421  1
  Al  Al64  1  0.16481188  0.83518812  0.96599579  1
  Al  Al65  1  0.83518812  0.16481188  0.03400421  1
  Re  Re66  1  0.74463018  0.75112742  0.83680868  1
  Re  Re67  1  0.25536982  0.24887258  0.16319132  1
  Re  Re68  1  0.25536982  0.24887258  0.33680868  1
  Re  Re69  1  0.24887258  0.25536982  0.66319132  1
  Re  Re70  1  0.74463018  0.75112742  0.66319132  1
  Re  Re71  1  0.75112742  0.74463018  0.33680868  1
  Re  Re72  1  0.75112742  0.74463018  0.16319132  1
  Re  Re73  1  0.24887258  0.25536982  0.83680868  1
  Re  Re74  1  0.50000000  0.00000000  -0.00000000  1
  Re  Re75  1  0.50000000  0.00000000  0.50000000  1
  Re  Re76  1  0.00000000  0.50000000  0.50000000  1
  Re  Re77  1  0.00000000  0.50000000  -0.00000000  1
