# generated using pymatgen
data_Hf9Mo4Se
_symmetry_space_group_name_H-M   'P 1'
_cell_length_a   8.67050023
_cell_length_b   8.71773112
_cell_length_c   8.71773112
_cell_angle_alpha   120.00000169
_cell_angle_beta   90.00000000
_cell_angle_gamma   90.00000000
_symmetry_Int_Tables_number   1
_chemical_formula_structural   Hf9Mo4Se
_chemical_formula_sum   'Hf18 Mo8 Se2'
_cell_volume   570.66563258
_cell_formula_units_Z   2
loop_
 _symmetry_equiv_pos_site_id
 _symmetry_equiv_pos_as_xyz
  1  'x, y, z'
loop_
 _atom_site_type_symbol
 _atom_site_label
 _atom_site_symmetry_multiplicity
 _atom_site_fract_x
 _atom_site_fract_y
 _atom_site_fract_z
 _atom_site_occupancy
  Hf  Hf0  1  0.75000000  0.45699425  0.54300575  1
  Hf  Hf1  1  0.25000000  0.54300575  0.45699425  1
  Hf  Hf2  1  0.75000000  0.08601149  0.54300575  1
  Hf  Hf3  1  0.25000000  0.91398851  0.45699425  1
  Hf  Hf4  1  0.75000000  0.45699425  0.91398851  1
  Hf  Hf5  1  0.25000000  0.54300575  0.08601149  1
  Hf  Hf6  1  0.95434061  0.80590716  0.19409284  1
  Hf  Hf7  1  0.04565939  0.19409284  0.80590716  1
  Hf  Hf8  1  0.95434061  0.38818568  0.19409284  1
  Hf  Hf9  1  0.45434061  0.19409284  0.80590716  1
  Hf  Hf10  1  0.04565939  0.61181432  0.80590716  1
  Hf  Hf11  1  0.54565939  0.80590716  0.19409284  1
  Hf  Hf12  1  0.95434061  0.80590716  0.61181432  1
  Hf  Hf13  1  0.45434061  0.61181432  0.80590716  1
  Hf  Hf14  1  0.04565939  0.19409284  0.38818568  1
  Hf  Hf15  1  0.54565939  0.38818568  0.19409284  1
  Hf  Hf16  1  0.45434061  0.19409284  0.38818568  1
  Hf  Hf17  1  0.54565939  0.80590716  0.61181432  1
  Mo  Mo18  1  0.00000000  0.00000000  -0.00000000  1
  Mo  Mo19  1  0.50000000  0.00000000  -0.00000000  1
  Mo  Mo20  1  0.75000000  0.10996795  0.89003205  1
  Mo  Mo21  1  0.25000000  0.89003205  0.10996795  1
  Mo  Mo22  1  0.75000000  0.78006410  0.89003205  1
  Mo  Mo23  1  0.25000000  0.21993590  0.10996795  1
  Mo  Mo24  1  0.75000000  0.10996795  0.21993590  1
  Mo  Mo25  1  0.25000000  0.89003205  0.78006410  1
  Se  Se26  1  0.75000000  0.66666700  0.33333300  1
  Se  Se27  1  0.25000000  0.33333300  0.66666700  1
