# generated using pymatgen
data_Hf6BCl14
_symmetry_space_group_name_H-M   'P 1'
_cell_length_a   9.63689743
_cell_length_b   9.63689743
_cell_length_c   11.61068436
_cell_angle_alpha   90.00000000
_cell_angle_beta   90.00000000
_cell_angle_gamma   95.14699434
_symmetry_Int_Tables_number   1
_chemical_formula_structural   Hf6BCl14
_chemical_formula_sum   'Hf12 B2 Cl28'
_cell_volume   1073.93401365
_cell_formula_units_Z   2
loop_
 _symmetry_equiv_pos_site_id
 _symmetry_equiv_pos_as_xyz
  1  'x, y, z'
loop_
 _atom_site_type_symbol
 _atom_site_label
 _atom_site_symmetry_multiplicity
 _atom_site_fract_x
 _atom_site_fract_y
 _atom_site_fract_z
 _atom_site_occupancy
  Hf  Hf0  1  0.18433018  0.95092452  0.11691360  1
  Hf  Hf1  1  0.81566982  0.04907548  0.88308640  1
  Hf  Hf2  1  0.31566982  0.54907548  0.61691360  1
  Hf  Hf3  1  0.45092452  0.68433018  0.38308640  1
  Hf  Hf4  1  0.68433018  0.45092452  0.38308640  1
  Hf  Hf5  1  0.54907548  0.31566982  0.61691360  1
  Hf  Hf6  1  0.04907548  0.81566982  0.88308640  1
  Hf  Hf7  1  0.95092452  0.18433018  0.11691360  1
  Hf  Hf8  1  0.35446576  0.35446576  0.39497872  1
  Hf  Hf9  1  0.64553424  0.64553424  0.60502128  1
  Hf  Hf10  1  0.14553424  0.14553424  0.89497872  1
  Hf  Hf11  1  0.85446576  0.85446576  0.10502128  1
  B  B12  1  -0.00000000  -0.00000000  -0.00000000  1
  B  B13  1  0.50000000  0.50000000  0.50000000  1
  Cl  Cl14  1  0.53460241  0.28818231  0.25466584  1
  Cl  Cl15  1  0.46539759  0.71181769  0.74533416  1
  Cl  Cl16  1  0.96539759  0.21181769  0.75466584  1
  Cl  Cl17  1  0.78818231  0.03460241  0.24533416  1
  Cl  Cl18  1  0.03460241  0.78818231  0.24533416  1
  Cl  Cl19  1  0.21181769  0.96539759  0.75466584  1
  Cl  Cl20  1  0.71181769  0.46539759  0.74533416  1
  Cl  Cl21  1  0.28818231  0.53460241  0.25466584  1
  Cl  Cl22  1  0.35994862  0.11404747  0.01076061  1
  Cl  Cl23  1  0.64005138  0.88595253  0.98923939  1
  Cl  Cl24  1  0.14005138  0.38595253  0.51076061  1
  Cl  Cl25  1  0.61404747  0.85994862  0.48923939  1
  Cl  Cl26  1  0.85994862  0.61404747  0.48923939  1
  Cl  Cl27  1  0.38595253  0.14005138  0.51076061  1
  Cl  Cl28  1  0.88595253  0.64005138  0.98923939  1
  Cl  Cl29  1  0.11404747  0.35994862  0.01076061  1
  Cl  Cl30  1  0.39312035  0.89312035  0.25000000  1
  Cl  Cl31  1  0.60687965  0.10687965  0.75000000  1
  Cl  Cl32  1  0.10687965  0.60687965  0.75000000  1
  Cl  Cl33  1  0.89312035  0.39312035  0.25000000  1
  Cl  Cl34  1  0.25012561  0.74987439  -0.00000000  1
  Cl  Cl35  1  0.74987439  0.25012561  -0.00000000  1
  Cl  Cl36  1  0.24987439  0.75012561  0.50000000  1
  Cl  Cl37  1  0.75012561  0.24987439  0.50000000  1
  Cl  Cl38  1  0.15295893  0.15295893  0.26019065  1
  Cl  Cl39  1  0.84704107  0.84704107  0.73980935  1
  Cl  Cl40  1  0.34704107  0.34704107  0.76019065  1
  Cl  Cl41  1  0.65295893  0.65295893  0.23980935  1
