# generated using pymatgen
data_Dy4(Al8Pd3)3
_symmetry_space_group_name_H-M   'P 1'
_cell_length_a   7.47941326
_cell_length_b   7.55518114
_cell_length_c   13.24643259
_cell_angle_alpha   84.64849294
_cell_angle_beta   79.39252590
_cell_angle_gamma   60.09809739
_symmetry_Int_Tables_number   1
_chemical_formula_structural   Dy4(Al8Pd3)3
_chemical_formula_sum   'Dy4 Al24 Pd9'
_cell_volume   637.79939393
_cell_formula_units_Z   1
loop_
 _symmetry_equiv_pos_site_id
 _symmetry_equiv_pos_as_xyz
  1  'x, y, z'
loop_
 _atom_site_type_symbol
 _atom_site_label
 _atom_site_symmetry_multiplicity
 _atom_site_fract_x
 _atom_site_fract_y
 _atom_site_fract_z
 _atom_site_occupancy
  Dy  Dy0  1  0.39295000  0.16892543  0.80881580  1
  Dy  Dy1  1  0.60705000  0.83107457  0.19118420  1
  Dy  Dy2  1  0.73391634  0.49791654  0.80853167  1
  Dy  Dy3  1  0.26608366  0.50208346  0.19146833  1
  Al  Al4  1  0.68519816  0.83371456  0.94497919  1
  Al  Al5  1  0.31480184  0.16628544  0.05502081  1
  Al  Al6  1  0.14620188  0.83302236  0.56060639  1
  Al  Al7  1  0.85379812  0.16697764  0.43939361  1
  Al  Al8  1  0.47926095  0.16682956  0.55840399  1
  Al  Al9  1  0.52073905  0.83317044  0.44159601  1
  Al  Al10  1  0.21554890  0.16543333  0.32959614  1
  Al  Al11  1  0.78445110  0.83456667  0.67040386  1
  Al  Al12  1  0.43705040  0.50600731  0.67043620  1
  Al  Al13  1  0.56294960  0.49399269  0.32956380  1
  Al  Al14  1  0.10892194  0.15938958  0.66953151  1
  Al  Al15  1  0.89107806  0.84061042  0.33046849  1
  Al  Al16  1  0.35329219  0.49938390  0.94517000  1
  Al  Al17  1  0.64670781  0.50061610  0.05483000  1
  Al  Al18  1  0.01548238  0.16748760  0.95358555  1
  Al  Al19  1  0.98451762  0.83251240  0.04641445  1
  Al  Al20  1  0.18671425  0.49923732  0.44120653  1
  Al  Al21  1  0.81328575  0.50076268  0.55879347  1
  Al  Al22  1  0.73424932  0.16341928  0.18304683  1
  Al  Al23  1  0.26575068  0.83658072  0.81695317  1
  Al  Al24  1  0.06164632  0.63154229  0.81540631  1
  Al  Al25  1  0.93835368  0.36845771  0.18459369  1
  Al  Al26  1  0.85513837  0.04130996  0.81609062  1
  Al  Al27  1  0.14486163  0.95869004  0.18390938  1
  Pd  Pd28  1  0.11991346  0.49351213  0.63804929  1
  Pd  Pd29  1  0.88008654  0.50648787  0.36195071  1
  Pd  Pd30  1  0.65715044  0.17089597  0.99968267  1
  Pd  Pd31  1  0.34284956  0.82910403  0.00031733  1
  Pd  Pd32  1  0.53897530  0.16662603  0.36162853  1
  Pd  Pd33  1  0.46102470  0.83337397  0.63837147  1
  Pd  Pd34  1  0.77921184  0.17395480  0.63695567  1
  Pd  Pd35  1  0.22078816  0.82604520  0.36304433  1
  Pd  Pd36  1  0.00000000  0.50000000  0.00000000  1
