# generated using pymatgen
data_Dy4MgIr
_symmetry_space_group_name_H-M   'P 1'
_cell_length_a   9.70685204
_cell_length_b   9.70685204
_cell_length_c   9.70685204
_cell_angle_alpha   60.00000000
_cell_angle_beta   60.00000000
_cell_angle_gamma   60.00000000
_symmetry_Int_Tables_number   1
_chemical_formula_structural   Dy4MgIr
_chemical_formula_sum   'Dy16 Mg4 Ir4'
_cell_volume   646.72586635
_cell_formula_units_Z   4
loop_
 _symmetry_equiv_pos_site_id
 _symmetry_equiv_pos_as_xyz
  1  'x, y, z'
loop_
 _atom_site_type_symbol
 _atom_site_label
 _atom_site_symmetry_multiplicity
 _atom_site_fract_x
 _atom_site_fract_y
 _atom_site_fract_z
 _atom_site_occupancy
  Dy  Dy0  1  0.65253583  0.65253583  0.65253583  1
  Dy  Dy1  1  0.04239251  0.65253583  0.65253583  1
  Dy  Dy2  1  0.65253583  0.04239251  0.65253583  1
  Dy  Dy3  1  0.65253583  0.65253583  0.04239251  1
  Dy  Dy4  1  0.81300576  0.81300576  0.18699424  1
  Dy  Dy5  1  0.18699424  0.18699424  0.81300576  1
  Dy  Dy6  1  0.81300576  0.18699424  0.81300576  1
  Dy  Dy7  1  0.18699424  0.81300576  0.18699424  1
  Dy  Dy8  1  0.18699424  0.81300576  0.81300576  1
  Dy  Dy9  1  0.81300576  0.18699424  0.18699424  1
  Dy  Dy10  1  0.43635478  0.43635478  0.06364522  1
  Dy  Dy11  1  0.06364522  0.06364522  0.43635478  1
  Dy  Dy12  1  0.43635478  0.06364522  0.43635478  1
  Dy  Dy13  1  0.06364522  0.43635478  0.06364522  1
  Dy  Dy14  1  0.06364522  0.43635478  0.43635478  1
  Dy  Dy15  1  0.43635478  0.06364522  0.06364522  1
  Mg  Mg16  1  0.42068495  0.42068495  0.42068495  1
  Mg  Mg17  1  0.73794516  0.42068495  0.42068495  1
  Mg  Mg18  1  0.42068495  0.73794516  0.42068495  1
  Mg  Mg19  1  0.42068495  0.42068495  0.73794516  1
  Ir  Ir20  1  0.85826748  0.85826748  0.85826748  1
  Ir  Ir21  1  0.42519757  0.85826748  0.85826748  1
  Ir  Ir22  1  0.85826748  0.42519757  0.85826748  1
  Ir  Ir23  1  0.85826748  0.85826748  0.42519757  1
