# generated using pymatgen
data_Dy5(SiB4)2
_symmetry_space_group_name_H-M   'P 1'
_cell_length_a   7.23019507
_cell_length_b   7.23019507
_cell_length_c   8.08990444
_cell_angle_alpha   90.00000000
_cell_angle_beta   90.00000000
_cell_angle_gamma   90.00000000
_symmetry_Int_Tables_number   1
_chemical_formula_structural   Dy5(SiB4)2
_chemical_formula_sum   'Dy10 Si4 B16'
_cell_volume   422.90558540
_cell_formula_units_Z   2
loop_
 _symmetry_equiv_pos_site_id
 _symmetry_equiv_pos_as_xyz
  1  'x, y, z'
loop_
 _atom_site_type_symbol
 _atom_site_label
 _atom_site_symmetry_multiplicity
 _atom_site_fract_x
 _atom_site_fract_y
 _atom_site_fract_z
 _atom_site_occupancy
  Dy  Dy0  1  0.68042355  0.18042355  0.22415364  1
  Dy  Dy1  1  0.31957645  0.81957645  0.77584636  1
  Dy  Dy2  1  0.31957645  0.81957645  0.22415364  1
  Dy  Dy3  1  0.81957645  0.68042355  0.22415364  1
  Dy  Dy4  1  0.81957645  0.68042355  0.77584636  1
  Dy  Dy5  1  0.68042355  0.18042355  0.77584636  1
  Dy  Dy6  1  0.18042355  0.31957645  0.77584636  1
  Dy  Dy7  1  0.18042355  0.31957645  0.22415364  1
  Dy  Dy8  1  -0.00000000  0.00000000  0.50000000  1
  Dy  Dy9  1  0.50000000  0.50000000  0.50000000  1
  Si  Si10  1  0.11486277  0.61486277  0.50000000  1
  Si  Si11  1  0.88513723  0.38513723  0.50000000  1
  Si  Si12  1  0.38513723  0.11486277  0.50000000  1
  Si  Si13  1  0.61486277  0.88513723  0.50000000  1
  B  B14  1  0.17261738  0.03915654  0.00000000  1
  B  B15  1  0.82738262  0.96084346  0.00000000  1
  B  B16  1  0.96084346  0.17261738  0.00000000  1
  B  B17  1  0.32738262  0.53915654  0.00000000  1
  B  B18  1  0.03915654  0.82738262  0.00000000  1
  B  B19  1  0.67261738  0.46084346  0.00000000  1
  B  B20  1  0.53915654  0.67261738  0.00000000  1
  B  B21  1  0.46084346  0.32738262  0.00000000  1
  B  B22  1  0.08988964  0.58988964  0.00000000  1
  B  B23  1  0.91011036  0.41011036  0.00000000  1
  B  B24  1  0.41011036  0.08988964  0.00000000  1
  B  B25  1  0.58988964  0.91011036  0.00000000  1
  B  B26  1  -0.00000000  0.00000000  0.16250253  1
  B  B27  1  -0.00000000  0.00000000  0.83749747  1
  B  B28  1  0.50000000  0.50000000  0.83749747  1
  B  B29  1  0.50000000  0.50000000  0.16250253  1
