# generated using pymatgen
data_Er12Co5Bi
_symmetry_space_group_name_H-M   'P 1'
_cell_length_a   8.22336131
_cell_length_b   8.22336131
_cell_length_c   8.22336131
_cell_angle_alpha   106.79584091
_cell_angle_beta   110.79925671
_cell_angle_gamma   110.85124118
_symmetry_Int_Tables_number   1
_chemical_formula_structural   Er12Co5Bi
_chemical_formula_sum   'Er12 Co5 Bi1'
_cell_volume   427.38527455
_cell_formula_units_Z   1
loop_
 _symmetry_equiv_pos_site_id
 _symmetry_equiv_pos_as_xyz
  1  'x, y, z'
loop_
 _atom_site_type_symbol
 _atom_site_label
 _atom_site_symmetry_multiplicity
 _atom_site_fract_x
 _atom_site_fract_y
 _atom_site_fract_z
 _atom_site_occupancy
  Er  Er0  1  0.53345524  0.81764795  0.71580729  1
  Er  Er1  1  0.46654476  0.18235205  0.28419271  1
  Er  Er2  1  0.89815934  0.18235205  0.71580729  1
  Er  Er3  1  0.10184066  0.81764795  0.28419271  1
  Er  Er4  1  0.69237145  0.68826990  0.38064135  1
  Er  Er5  1  0.30762855  0.31173010  0.61935865  1
  Er  Er6  1  0.30762855  0.68826990  0.99589845  1
  Er  Er7  1  0.69237145  0.31173010  0.00410155  1
  Er  Er8  1  0.80299810  0.59147580  0.78847769  1
  Er  Er9  1  0.19700190  0.40852420  0.21152231  1
  Er  Er10  1  0.19700190  0.98547959  0.78847769  1
  Er  Er11  1  0.80299810  0.01452041  0.21152231  1
  Co  Co12  1  0.62443659  0.62443659  -0.00000000  1
  Co  Co13  1  0.37556341  0.37556341  -0.00000000  1
  Co  Co14  1  0.50000000  0.11201553  0.61201553  1
  Co  Co15  1  0.50000000  0.88798447  0.38798447  1
  Co  Co16  1  -0.00000000  0.00000000  -0.00000000  1
  Bi  Bi17  1  -0.00000000  0.50000000  0.50000000  1
