# generated using pymatgen
data_ErZnRh
_symmetry_space_group_name_H-M   'P 1'
_cell_length_a   4.05560759
_cell_length_b   6.90312608
_cell_length_c   8.05178355
_cell_angle_alpha   90.00000000
_cell_angle_beta   90.00000000
_cell_angle_gamma   90.00000000
_symmetry_Int_Tables_number   1
_chemical_formula_structural   ErZnRh
_chemical_formula_sum   'Er4 Zn4 Rh4'
_cell_volume   225.42071565
_cell_formula_units_Z   4
loop_
 _symmetry_equiv_pos_site_id
 _symmetry_equiv_pos_as_xyz
  1  'x, y, z'
loop_
 _atom_site_type_symbol
 _atom_site_label
 _atom_site_symmetry_multiplicity
 _atom_site_fract_x
 _atom_site_fract_y
 _atom_site_fract_z
 _atom_site_occupancy
  Er  Er0  1  0.75000000  0.96921327  0.31659882  1
  Er  Er1  1  0.25000000  0.03078673  0.68340118  1
  Er  Er2  1  0.25000000  0.53078673  0.81659882  1
  Er  Er3  1  0.75000000  0.46921327  0.18340118  1
  Zn  Zn4  1  0.75000000  0.85818281  0.93580311  1
  Zn  Zn5  1  0.25000000  0.14181719  0.06419689  1
  Zn  Zn6  1  0.25000000  0.64181719  0.43580311  1
  Zn  Zn7  1  0.75000000  0.35818281  0.56419689  1
  Rh  Rh8  1  0.75000000  0.73964193  0.62329875  1
  Rh  Rh9  1  0.25000000  0.26035807  0.37670125  1
  Rh  Rh10  1  0.25000000  0.76035807  0.12329875  1
  Rh  Rh11  1  0.75000000  0.23964193  0.87670125  1
