# generated using pymatgen
data_DySiNi
_symmetry_space_group_name_H-M   'P 1'
_cell_length_a   4.18156697
_cell_length_b   6.87593125
_cell_length_c   7.08134923
_cell_angle_alpha   90.00000000
_cell_angle_beta   90.00000000
_cell_angle_gamma   90.00000000
_symmetry_Int_Tables_number   1
_chemical_formula_structural   DySiNi
_chemical_formula_sum   'Dy4 Si4 Ni4'
_cell_volume   203.60413567
_cell_formula_units_Z   4
loop_
 _symmetry_equiv_pos_site_id
 _symmetry_equiv_pos_as_xyz
  1  'x, y, z'
loop_
 _atom_site_type_symbol
 _atom_site_label
 _atom_site_symmetry_multiplicity
 _atom_site_fract_x
 _atom_site_fract_y
 _atom_site_fract_z
 _atom_site_occupancy
  Dy  Dy0  1  0.75000000  0.01451205  0.29995447  1
  Dy  Dy1  1  0.25000000  0.98548795  0.70004553  1
  Dy  Dy2  1  0.25000000  0.48548795  0.79995447  1
  Dy  Dy3  1  0.75000000  0.51451205  0.20004553  1
  Si  Si4  1  0.75000000  0.69064202  0.59246689  1
  Si  Si5  1  0.25000000  0.30935798  0.40753311  1
  Si  Si6  1  0.25000000  0.80935798  0.09246689  1
  Si  Si7  1  0.75000000  0.19064202  0.90753311  1
  Ni  Ni8  1  0.75000000  0.81961774  0.92131200  1
  Ni  Ni9  1  0.25000000  0.18038226  0.07868800  1
  Ni  Ni10  1  0.25000000  0.68038226  0.42131200  1
  Ni  Ni11  1  0.75000000  0.31961774  0.57868800  1
