# generated using pymatgen
data_Er2Sc3Si4
_symmetry_space_group_name_H-M   'P 1'
_cell_length_a   7.07236065
_cell_length_b   7.35872167
_cell_length_c   13.96094984
_cell_angle_alpha   90.00000000
_cell_angle_beta   90.00000000
_cell_angle_gamma   90.00000000
_symmetry_Int_Tables_number   1
_chemical_formula_structural   Er2Sc3Si4
_chemical_formula_sum   'Er8 Sc12 Si16'
_cell_volume   726.57716171
_cell_formula_units_Z   4
loop_
 _symmetry_equiv_pos_site_id
 _symmetry_equiv_pos_as_xyz
  1  'x, y, z'
loop_
 _atom_site_type_symbol
 _atom_site_label
 _atom_site_symmetry_multiplicity
 _atom_site_fract_x
 _atom_site_fract_y
 _atom_site_fract_z
 _atom_site_occupancy
  Er  Er0  1  0.98806913  0.82535008  0.40293543  1
  Er  Er1  1  0.01193087  0.17464992  0.59706457  1
  Er  Er2  1  0.51193087  0.32535008  0.59706457  1
  Er  Er3  1  0.01193087  0.17464992  0.90293543  1
  Er  Er4  1  0.48806913  0.67464992  0.40293543  1
  Er  Er5  1  0.98806913  0.82535008  0.09706457  1
  Er  Er6  1  0.48806913  0.67464992  0.09706457  1
  Er  Er7  1  0.51193087  0.32535008  0.90293543  1
  Sc  Sc8  1  0.83904808  0.49651361  0.75000000  1
  Sc  Sc9  1  0.16095192  0.50348639  0.25000000  1
  Sc  Sc10  1  0.66095192  0.99651361  0.25000000  1
  Sc  Sc11  1  0.33904808  0.00348639  0.75000000  1
  Sc  Sc12  1  0.67014563  0.82314419  0.87532824  1
  Sc  Sc13  1  0.32985437  0.17685581  0.12467176  1
  Sc  Sc14  1  0.82985437  0.32314419  0.12467176  1
  Sc  Sc15  1  0.32985437  0.17685581  0.37532824  1
  Sc  Sc16  1  0.17014563  0.67685581  0.87532824  1
  Sc  Sc17  1  0.67014563  0.82314419  0.62467176  1
  Sc  Sc18  1  0.17014563  0.67685581  0.62467176  1
  Sc  Sc19  1  0.82985437  0.32314419  0.37532824  1
  Si  Si20  1  0.96720529  0.88187785  0.75000000  1
  Si  Si21  1  0.03279471  0.11812215  0.25000000  1
  Si  Si22  1  0.53279471  0.38187785  0.25000000  1
  Si  Si23  1  0.46720529  0.61812215  0.75000000  1
  Si  Si24  1  0.71442565  0.12660234  0.75000000  1
  Si  Si25  1  0.28557435  0.87339766  0.25000000  1
  Si  Si26  1  0.78557435  0.62660234  0.25000000  1
  Si  Si27  1  0.21442565  0.37339766  0.75000000  1
  Si  Si28  1  0.84196462  0.53518208  0.96052843  1
  Si  Si29  1  0.15803538  0.46481792  0.03947157  1
  Si  Si30  1  0.65803538  0.03518208  0.03947157  1
  Si  Si31  1  0.15803538  0.46481792  0.46052843  1
  Si  Si32  1  0.34196462  0.96481792  0.96052843  1
  Si  Si33  1  0.84196462  0.53518208  0.53947157  1
  Si  Si34  1  0.34196462  0.96481792  0.53947157  1
  Si  Si35  1  0.65803538  0.03518208  0.46052843  1
