# generated using pymatgen
data_Nb4Rh
_symmetry_space_group_name_H-M   'P 1'
_cell_length_a   2.84328196
_cell_length_b   2.84328196
_cell_length_c   11.41394166
_cell_angle_alpha   84.93484367
_cell_angle_beta   84.93484367
_cell_angle_gamma   106.92723171
_symmetry_Int_Tables_number   1
_chemical_formula_structural   Nb4Rh
_chemical_formula_sum   'Nb4 Rh1'
_cell_volume   87.29934939
_cell_formula_units_Z   1
loop_
 _symmetry_equiv_pos_site_id
 _symmetry_equiv_pos_as_xyz
  1  'x, y, z'
loop_
 _atom_site_type_symbol
 _atom_site_label
 _atom_site_symmetry_multiplicity
 _atom_site_fract_x
 _atom_site_fract_y
 _atom_site_fract_z
 _atom_site_occupancy
  Nb  Nb0  1  0.40650223  0.40650223  0.18699554  1
  Nb  Nb1  1  0.80252223  0.80252223  0.39495555  1
  Nb  Nb2  1  0.19747777  0.19747777  0.60504445  1
  Nb  Nb3  1  0.59349777  0.59349777  0.81300446  1
  Rh  Rh4  1  -0.00000000  0.00000000  0.00000000  1
