# generated using pymatgen
data_CuTeSeI
_symmetry_space_group_name_H-M   'P 1'
_cell_length_a   4.86635159
_cell_length_b   8.46387113
_cell_length_c   12.15256101
_cell_angle_alpha   102.84289330
_cell_angle_beta   90.00000000
_cell_angle_gamma   90.00000000
_symmetry_Int_Tables_number   1
_chemical_formula_structural   CuTeSeI
_chemical_formula_sum   'Cu4 Te4 Se4 I4'
_cell_volume   488.01984018
_cell_formula_units_Z   4
loop_
 _symmetry_equiv_pos_site_id
 _symmetry_equiv_pos_as_xyz
  1  'x, y, z'
loop_
 _atom_site_type_symbol
 _atom_site_label
 _atom_site_symmetry_multiplicity
 _atom_site_fract_x
 _atom_site_fract_y
 _atom_site_fract_z
 _atom_site_occupancy
  Cu  Cu0  1  0.12140829  0.94579518  0.74910871  1
  Cu  Cu1  1  0.87859171  0.05420482  0.25089129  1
  Cu  Cu2  1  0.62140829  0.55420482  0.75089129  1
  Cu  Cu3  1  0.37859171  0.44579518  0.24910871  1
  Te  Te4  1  0.49135427  0.13887737  0.85131243  1
  Te  Te5  1  0.50864573  0.86112263  0.14868757  1
  Te  Te6  1  0.99135427  0.36112263  0.64868757  1
  Te  Te7  1  0.00864573  0.63887737  0.35131243  1
  Se  Se8  1  0.28052133  0.41876825  0.84005388  1
  Se  Se9  1  0.71947867  0.58123175  0.15994612  1
  Se  Se10  1  0.78052133  0.08123175  0.65994612  1
  Se  Se11  1  0.21947867  0.91876825  0.34005388  1
  I  I12  1  0.36083308  0.70466518  0.60742953  1
  I  I13  1  0.63916692  0.29533482  0.39257047  1
  I  I14  1  0.86083308  0.79533482  0.89257047  1
  I  I15  1  0.13916692  0.20466518  0.10742953  1
