# generated using pymatgen
data_CsSrBr3
_symmetry_space_group_name_H-M   'P 1'
_cell_length_a   8.25432318
_cell_length_b   8.61899617
_cell_length_c   11.87550002
_cell_angle_alpha   90.00000000
_cell_angle_beta   90.00000000
_cell_angle_gamma   90.00000000
_symmetry_Int_Tables_number   1
_chemical_formula_structural   CsSrBr3
_chemical_formula_sum   'Cs4 Sr4 Br12'
_cell_volume   844.87033442
_cell_formula_units_Z   4
loop_
 _symmetry_equiv_pos_site_id
 _symmetry_equiv_pos_as_xyz
  1  'x, y, z'
loop_
 _atom_site_type_symbol
 _atom_site_label
 _atom_site_symmetry_multiplicity
 _atom_site_fract_x
 _atom_site_fract_y
 _atom_site_fract_z
 _atom_site_occupancy
  Cs  Cs0  1  0.02000870  0.43697142  0.25000000  1
  Cs  Cs1  1  0.97999130  0.56302858  0.75000000  1
  Cs  Cs2  1  0.52000870  0.06302858  0.75000000  1
  Cs  Cs3  1  0.47999130  0.93697142  0.25000000  1
  Sr  Sr4  1  -0.00000000  0.00000000  -0.00000000  1
  Sr  Sr5  1  0.50000000  0.50000000  -0.00000000  1
  Sr  Sr6  1  -0.00000000  0.00000000  0.50000000  1
  Sr  Sr7  1  0.50000000  0.50000000  0.50000000  1
  Br  Br8  1  0.29715826  0.20737637  0.04314877  1
  Br  Br9  1  0.70284174  0.79262363  0.95685123  1
  Br  Br10  1  0.79715826  0.29262363  0.95685123  1
  Br  Br11  1  0.70284174  0.79262363  0.54314877  1
  Br  Br12  1  0.20284174  0.70737637  0.04314877  1
  Br  Br13  1  0.29715826  0.20737637  0.45685123  1
  Br  Br14  1  0.20284174  0.70737637  0.45685123  1
  Br  Br15  1  0.79715826  0.29262363  0.54314877  1
  Br  Br16  1  0.58428951  0.52306809  0.25000000  1
  Br  Br17  1  0.41571049  0.47693191  0.75000000  1
  Br  Br18  1  0.08428951  0.97693191  0.75000000  1
  Br  Br19  1  0.91571049  0.02306809  0.25000000  1
