# generated using pymatgen
data_Er(Al5Re)2
_symmetry_space_group_name_H-M   'P 1'
_cell_length_a   6.96708733
_cell_length_b   6.96708733
_cell_length_c   27.01854428
_cell_angle_alpha   90.00000000
_cell_angle_beta   90.00000000
_cell_angle_gamma   95.76276002
_symmetry_Int_Tables_number   1
_chemical_formula_structural   Er(Al5Re)2
_chemical_formula_sum   'Er6 Al60 Re12'
_cell_volume   1304.86037785
_cell_formula_units_Z   6
loop_
 _symmetry_equiv_pos_site_id
 _symmetry_equiv_pos_as_xyz
  1  'x, y, z'
loop_
 _atom_site_type_symbol
 _atom_site_label
 _atom_site_symmetry_multiplicity
 _atom_site_fract_x
 _atom_site_fract_y
 _atom_site_fract_z
 _atom_site_occupancy
  Er  Er0  1  0.87584813  0.12415187  0.91528094  1
  Er  Er1  1  0.12415187  0.87584813  0.08471906  1
  Er  Er2  1  0.12415187  0.87584813  0.41528094  1
  Er  Er3  1  0.87584813  0.12415187  0.58471906  1
  Er  Er4  1  0.61653147  0.38346853  0.75000000  1
  Er  Er5  1  0.38346853  0.61653147  0.25000000  1
  Al  Al6  1  0.59761614  0.40238386  0.86568040  1
  Al  Al7  1  0.40238386  0.59761614  0.13431960  1
  Al  Al8  1  0.40238386  0.59761614  0.36568040  1
  Al  Al9  1  0.59761614  0.40238386  0.63431960  1
  Al  Al10  1  0.59703928  0.81789172  0.75000000  1
  Al  Al11  1  0.40296072  0.18210828  0.25000000  1
  Al  Al12  1  0.18210828  0.40296072  0.75000000  1
  Al  Al13  1  0.81789172  0.59703928  0.25000000  1
  Al  Al14  1  0.87569546  0.12430454  0.35395343  1
  Al  Al15  1  0.12430454  0.87569546  0.64604657  1
  Al  Al16  1  0.12430454  0.87569546  0.85395343  1
  Al  Al17  1  0.87569546  0.12430454  0.14604657  1
  Al  Al18  1  0.37048805  0.62951195  0.82264622  1
  Al  Al19  1  0.62951195  0.37048805  0.17735378  1
  Al  Al20  1  0.62951195  0.37048805  0.32264622  1
  Al  Al21  1  0.37048805  0.62951195  0.67735378  1
  Al  Al22  1  0.52892611  0.77306049  0.91932170  1
  Al  Al23  1  0.47107389  0.22693951  0.08067830  1
  Al  Al24  1  0.47107389  0.22693951  0.41932170  1
  Al  Al25  1  0.22693951  0.47107389  0.58067830  1
  Al  Al26  1  0.52892611  0.77306049  0.58067830  1
  Al  Al27  1  0.77306049  0.52892611  0.41932170  1
  Al  Al28  1  0.77306049  0.52892611  0.08067830  1
  Al  Al29  1  0.22693951  0.47107389  0.91932170  1
  Al  Al30  1  0.26097147  0.03893329  0.75000000  1
  Al  Al31  1  0.73902853  0.96106671  0.25000000  1
  Al  Al32  1  0.96106671  0.73902853  0.75000000  1
  Al  Al33  1  0.03893329  0.26097147  0.25000000  1
  Al  Al34  1  0.62300864  0.37699136  0.97806237  1
  Al  Al35  1  0.37699136  0.62300864  0.02193763  1
  Al  Al36  1  0.37699136  0.62300864  0.47806237  1
  Al  Al37  1  0.62300864  0.37699136  0.52193763  1
  Al  Al38  1  0.52589801  0.03206971  0.82852323  1
  Al  Al39  1  0.47410199  0.96793029  0.17147677  1
  Al  Al40  1  0.47410199  0.96793029  0.32852323  1
  Al  Al41  1  0.96793029  0.47410199  0.67147677  1
  Al  Al42  1  0.52589801  0.03206971  0.67147677  1
  Al  Al43  1  0.03206971  0.52589801  0.32852323  1
  Al  Al44  1  0.03206971  0.52589801  0.17147677  1
  Al  Al45  1  0.96793029  0.47410199  0.82852323  1
  Al  Al46  1  0.90628711  0.09371289  0.80052785  1
  Al  Al47  1  0.09371289  0.90628711  0.19947215  1
  Al  Al48  1  0.09371289  0.90628711  0.30052785  1
  Al  Al49  1  0.90628711  0.09371289  0.69947215  1
  Al  Al50  1  0.38044461  0.12406972  0.91693497  1
  Al  Al51  1  0.61955539  0.87593028  0.08306503  1
  Al  Al52  1  0.61955539  0.87593028  0.41693497  1
  Al  Al53  1  0.87593028  0.61955539  0.58306503  1
  Al  Al54  1  0.38044461  0.12406972  0.58306503  1
  Al  Al55  1  0.12406972  0.38044461  0.41693497  1
  Al  Al56  1  0.12406972  0.38044461  0.08306503  1
  Al  Al57  1  0.87593028  0.61955539  0.91693497  1
  Al  Al58  1  0.79398741  0.79398741  -0.00000000  1
  Al  Al59  1  0.20601259  0.20601259  -0.00000000  1
  Al  Al60  1  0.20601259  0.20601259  0.50000000  1
  Al  Al61  1  0.79398741  0.79398741  0.50000000  1
  Al  Al62  1  0.83518715  0.16481285  0.46609092  1
  Al  Al63  1  0.16481285  0.83518715  0.53390908  1
  Al  Al64  1  0.16481285  0.83518715  0.96609092  1
  Al  Al65  1  0.83518715  0.16481285  0.03390908  1
  Re  Re66  1  0.74458631  0.75095964  0.83699073  1
  Re  Re67  1  0.25541369  0.24904036  0.16300927  1
  Re  Re68  1  0.25541369  0.24904036  0.33699073  1
  Re  Re69  1  0.24904036  0.25541369  0.66300927  1
  Re  Re70  1  0.74458631  0.75095964  0.66300927  1
  Re  Re71  1  0.75095964  0.74458631  0.33699073  1
  Re  Re72  1  0.75095964  0.74458631  0.16300927  1
  Re  Re73  1  0.24904036  0.25541369  0.83699073  1
  Re  Re74  1  0.50000000  0.00000000  -0.00000000  1
  Re  Re75  1  0.50000000  0.00000000  0.50000000  1
  Re  Re76  1  0.00000000  0.50000000  0.50000000  1
  Re  Re77  1  0.00000000  0.50000000  -0.00000000  1
