# generated using pymatgen
data_Fe3Pb5F19
_symmetry_space_group_name_H-M   'P 1'
_cell_length_a   7.90944707
_cell_length_b   11.07877334
_cell_length_c   11.07877334
_cell_angle_alpha   82.67927699
_cell_angle_beta   69.08613367
_cell_angle_gamma   69.08613367
_symmetry_Int_Tables_number   1
_chemical_formula_structural   Fe3Pb5F19
_chemical_formula_sum   'Fe6 Pb10 F38'
_cell_volume   847.09684509
_cell_formula_units_Z   2
loop_
 _symmetry_equiv_pos_site_id
 _symmetry_equiv_pos_as_xyz
  1  'x, y, z'
loop_
 _atom_site_type_symbol
 _atom_site_label
 _atom_site_symmetry_multiplicity
 _atom_site_fract_x
 _atom_site_fract_y
 _atom_site_fract_z
 _atom_site_occupancy
  Fe  Fe0  1  0.71354757  0.50000000  0.17771281  1
  Fe  Fe1  1  0.39126038  0.50000000  0.82228719  1
  Fe  Fe2  1  0.89126038  0.82228719  0.50000000  1
  Fe  Fe3  1  0.21354757  0.17771281  0.50000000  1
  Fe  Fe4  1  0.25120269  0.00000000  0.00000000  1
  Fe  Fe5  1  0.75120269  0.00000000  0.00000000  1
  Pb  Pb6  1  0.33509965  0.84263786  0.70185691  1
  Pb  Pb7  1  0.87959442  0.15736214  0.29814309  1
  Pb  Pb8  1  0.03695655  0.29814309  0.84263786  1
  Pb  Pb9  1  0.83509965  0.70185691  0.84263786  1
  Pb  Pb10  1  0.17773751  0.70185691  0.15736214  1
  Pb  Pb11  1  0.37959442  0.29814309  0.15736214  1
  Pb  Pb12  1  0.53695655  0.84263786  0.29814309  1
  Pb  Pb13  1  0.67773751  0.15736214  0.70185691  1
  Pb  Pb14  1  0.71034768  0.50000000  0.50000000  1
  Pb  Pb15  1  0.21034768  0.50000000  0.50000000  1
  F  F16  1  0.53623153  0.50000000  0.35511777  1
  F  F17  1  0.39134931  0.50000000  0.64488223  1
  F  F18  1  0.89134931  0.64488223  0.50000000  1
  F  F19  1  0.03623153  0.35511777  0.50000000  1
  F  F20  1  0.28103503  0.24334423  0.62800871  1
  F  F21  1  0.15238797  0.75665577  0.37199129  1
  F  F22  1  0.90904374  0.37199129  0.24334423  1
  F  F23  1  0.78103503  0.62800871  0.24334423  1
  F  F24  1  0.52437926  0.62800871  0.75665577  1
  F  F25  1  0.65238797  0.37199129  0.75665577  1
  F  F26  1  0.40904374  0.24334423  0.37199129  1
  F  F27  1  0.02437926  0.75665577  0.62800871  1
  F  F28  1  0.37028405  0.50000000  0.00086191  1
  F  F29  1  0.87114596  0.50000000  0.99913809  1
  F  F30  1  0.37114596  0.99913809  0.50000000  1
  F  F31  1  0.87028405  0.00086191  0.50000000  1
  F  F32  1  0.21345733  0.50000000  0.26981579  1
  F  F33  1  0.98327312  0.50000000  0.73018421  1
  F  F34  1  0.48327312  0.73018421  0.50000000  1
  F  F35  1  0.71345733  0.26981579  0.50000000  1
  F  F36  1  0.99704479  1.00000000  1.00000000  1
  F  F37  1  0.49704479  1.00000000  1.00000000  1
  F  F38  1  0.29689536  0.06111590  0.82322100  1
  F  F39  1  0.18123225  0.93888410  0.17677900  1
  F  F40  1  0.12011635  0.17677900  0.06111590  1
  F  F41  1  0.79689536  0.82322100  0.06111590  1
  F  F42  1  0.35801126  0.82322100  0.93888410  1
  F  F43  1  0.68123225  0.17677900  0.93888410  1
  F  F44  1  0.62011635  0.06111590  0.17677900  1
  F  F45  1  0.85801126  0.93888410  0.82322100  1
  F  F46  1  0.64727953  0.85699640  0.64697766  1
  F  F47  1  0.15125359  0.14300360  0.35302234  1
  F  F48  1  0.29425719  0.35302234  0.85699640  1
  F  F49  1  0.14727953  0.64697766  0.85699640  1
  F  F50  1  0.50427593  0.64697766  0.14300360  1
  F  F51  1  0.65125359  0.35302234  0.14300360  1
  F  F52  1  0.79425719  0.85699640  0.35302234  1
  F  F53  1  0.00427593  0.14300360  0.64697766  1
