# generated using pymatgen
data_Dy12Co5Bi
_symmetry_space_group_name_H-M   'P 1'
_cell_length_a   8.26948272
_cell_length_b   8.26948272
_cell_length_c   8.26948272
_cell_angle_alpha   107.03397424
_cell_angle_beta   110.85125896
_cell_angle_gamma   110.55572102
_symmetry_Int_Tables_number   1
_chemical_formula_structural   Dy12Co5Bi
_chemical_formula_sum   'Dy12 Co5 Bi1'
_cell_volume   434.73387225
_cell_formula_units_Z   1
loop_
 _symmetry_equiv_pos_site_id
 _symmetry_equiv_pos_as_xyz
  1  'x, y, z'
loop_
 _atom_site_type_symbol
 _atom_site_label
 _atom_site_symmetry_multiplicity
 _atom_site_fract_x
 _atom_site_fract_y
 _atom_site_fract_z
 _atom_site_occupancy
  Dy  Dy0  1  0.53264271  0.81774316  0.71489955  1
  Dy  Dy1  1  0.46735729  0.18225684  0.28510045  1
  Dy  Dy2  1  0.89715639  0.18225684  0.71489955  1
  Dy  Dy3  1  0.10284361  0.81774316  0.28510045  1
  Dy  Dy4  1  0.69231815  0.68800217  0.38032033  1
  Dy  Dy5  1  0.30768185  0.31199783  0.61967967  1
  Dy  Dy6  1  0.30768185  0.68800217  0.99568402  1
  Dy  Dy7  1  0.69231815  0.31199783  0.00431598  1
  Dy  Dy8  1  0.80368753  0.59314955  0.78946202  1
  Dy  Dy9  1  0.19631247  0.40685045  0.21053798  1
  Dy  Dy10  1  0.19631247  0.98577449  0.78946202  1
  Dy  Dy11  1  0.80368753  0.01422551  0.21053798  1
  Co  Co12  1  0.62451891  0.62451891  -0.00000000  1
  Co  Co13  1  0.37548109  0.37548109  0.00000000  1
  Co  Co14  1  0.50000000  0.11178598  0.61178598  1
  Co  Co15  1  0.50000000  0.88821402  0.38821402  1
  Co  Co16  1  -0.00000000  -0.00000000  -0.00000000  1
  Bi  Bi17  1  -0.00000000  0.50000000  0.50000000  1
