# generated using pymatgen
data_Eu2ZnPtO6
_symmetry_space_group_name_H-M   'P 1'
_cell_length_a   5.53434054
_cell_length_b   5.79662172
_cell_length_c   7.83340275
_cell_angle_alpha   90.00000000
_cell_angle_beta   89.85386802
_cell_angle_gamma   90.00000000
_symmetry_Int_Tables_number   1
_chemical_formula_structural   Eu2ZnPtO6
_chemical_formula_sum   'Eu4 Zn2 Pt2 O12'
_cell_volume   251.29849181
_cell_formula_units_Z   2
loop_
 _symmetry_equiv_pos_site_id
 _symmetry_equiv_pos_as_xyz
  1  'x, y, z'
loop_
 _atom_site_type_symbol
 _atom_site_label
 _atom_site_symmetry_multiplicity
 _atom_site_fract_x
 _atom_site_fract_y
 _atom_site_fract_z
 _atom_site_occupancy
  Eu  Eu0  1  0.01591284  0.43713313  0.25280413  1
  Eu  Eu1  1  0.98408716  0.56286687  0.74719587  1
  Eu  Eu2  1  0.48408716  0.93713313  0.24719587  1
  Eu  Eu3  1  0.51591284  0.06286687  0.75280413  1
  Zn  Zn4  1  -0.00000000  0.00000000  0.50000000  1
  Zn  Zn5  1  0.50000000  0.50000000  0.00000000  1
  Pt  Pt6  1  -0.00000000  -0.00000000  0.00000000  1
  Pt  Pt7  1  0.50000000  0.50000000  0.50000000  1
  O  O8  1  0.89652520  0.03715152  0.24716524  1
  O  O9  1  0.10347480  0.96284848  0.75283476  1
  O  O10  1  0.60347480  0.53715152  0.25283476  1
  O  O11  1  0.39652520  0.46284848  0.74716524  1
  O  O12  1  0.18806938  0.70710488  0.05565324  1
  O  O13  1  0.81193062  0.29289512  0.94434676  1
  O  O14  1  0.31193062  0.20710488  0.44434676  1
  O  O15  1  0.68806938  0.79289512  0.55565324  1
  O  O16  1  0.30063505  0.19209230  0.04793413  1
  O  O17  1  0.69936495  0.80790770  0.95206587  1
  O  O18  1  0.19936495  0.69209230  0.45206587  1
  O  O19  1  0.80063505  0.30790770  0.54793413  1
