# generated using pymatgen
data_ErNiPb
_symmetry_space_group_name_H-M   'P 1'
_cell_length_a   4.34967489
_cell_length_b   7.10858891
_cell_length_c   8.06651773
_cell_angle_alpha   90.00000000
_cell_angle_beta   90.00000000
_cell_angle_gamma   90.00000000
_symmetry_Int_Tables_number   1
_chemical_formula_structural   ErNiPb
_chemical_formula_sum   'Er4 Ni4 Pb4'
_cell_volume   249.41713706
_cell_formula_units_Z   4
loop_
 _symmetry_equiv_pos_site_id
 _symmetry_equiv_pos_as_xyz
  1  'x, y, z'
loop_
 _atom_site_type_symbol
 _atom_site_label
 _atom_site_symmetry_multiplicity
 _atom_site_fract_x
 _atom_site_fract_y
 _atom_site_fract_z
 _atom_site_occupancy
  Er  Er0  1  0.75000000  0.98480101  0.31473391  1
  Er  Er1  1  0.25000000  0.01519899  0.68526609  1
  Er  Er2  1  0.25000000  0.51519899  0.81473391  1
  Er  Er3  1  0.75000000  0.48480101  0.18526609  1
  Ni  Ni4  1  0.75000000  0.73443754  0.60950843  1
  Ni  Ni5  1  0.25000000  0.26556246  0.39049157  1
  Ni  Ni6  1  0.25000000  0.76556246  0.10950843  1
  Ni  Ni7  1  0.75000000  0.23443754  0.89049157  1
  Pb  Pb8  1  0.75000000  0.83042798  0.92747144  1
  Pb  Pb9  1  0.25000000  0.16957202  0.07252856  1
  Pb  Pb10  1  0.25000000  0.66957202  0.42747144  1
  Pb  Pb11  1  0.75000000  0.33042798  0.57252856  1
