# generated using pymatgen
data_Nb4WC5
_symmetry_space_group_name_H-M   'P 1'
_cell_length_a   3.16144167
_cell_length_b   3.16144167
_cell_length_c   13.07225253
_cell_angle_alpha   90.00000000
_cell_angle_beta   96.94530757
_cell_angle_gamma   120.00000000
_symmetry_Int_Tables_number   1
_chemical_formula_structural   Nb4WC5
_chemical_formula_sum   'Nb4 W1 C5'
_cell_volume   112.04076460
_cell_formula_units_Z   1
loop_
 _symmetry_equiv_pos_site_id
 _symmetry_equiv_pos_as_xyz
  1  'x, y, z'
loop_
 _atom_site_type_symbol
 _atom_site_label
 _atom_site_symmetry_multiplicity
 _atom_site_fract_x
 _atom_site_fract_y
 _atom_site_fract_z
 _atom_site_occupancy
  Nb  Nb0  1  0.19887207  0.09943603  0.29830810  1
  Nb  Nb1  1  0.99951434  0.49975717  0.49927151  1
  Nb  Nb2  1  0.80048566  0.90024283  0.70072849  1
  Nb  Nb3  1  0.60112793  0.30056397  0.90169190  1
  W  W4  1  0.40000000  0.70000000  0.10000000  1
  C  C5  1  0.20125063  0.60062531  0.80187594  1
  C  C6  1  0.40000000  0.20000000  0.60000000  1
  C  C7  1  0.59874937  0.79937469  0.39812406  1
  C  C8  1  0.00336501  0.00168250  0.00504751  1
  C  C9  1  0.79663499  0.39831750  0.19495249  1
