# generated using pymatgen
data_CsNd(WO4)2
_symmetry_space_group_name_H-M   'P 1'
_cell_length_a   7.79451481
_cell_length_b   7.79451481
_cell_length_c   7.63080618
_cell_angle_alpha   63.09771527
_cell_angle_beta   63.09771527
_cell_angle_gamma   89.84462952
_symmetry_Int_Tables_number   1
_chemical_formula_structural   CsNd(WO4)2
_chemical_formula_sum   'Cs2 Nd2 W4 O16'
_cell_volume   356.59802683
_cell_formula_units_Z   2
loop_
 _symmetry_equiv_pos_site_id
 _symmetry_equiv_pos_as_xyz
  1  'x, y, z'
loop_
 _atom_site_type_symbol
 _atom_site_label
 _atom_site_symmetry_multiplicity
 _atom_site_fract_x
 _atom_site_fract_y
 _atom_site_fract_z
 _atom_site_occupancy
  Cs  Cs0  1  0.80204374  0.19795626  0.75000000  1
  Cs  Cs1  1  0.19795626  0.80204374  0.25000000  1
  Nd  Nd2  1  0.22436369  0.77563631  0.75000000  1
  Nd  Nd3  1  0.77563631  0.22436369  0.25000000  1
  W  W4  1  0.30420446  0.31596497  0.71882129  1
  W  W5  1  0.69579554  0.68403503  0.28117871  1
  W  W6  1  0.68403503  0.69579554  0.78117871  1
  W  W7  1  0.31596497  0.30420446  0.21882129  1
  O  O8  1  0.37899933  0.25435164  0.93550995  1
  O  O9  1  0.62100067  0.74564836  0.06449005  1
  O  O10  1  0.74564836  0.62100067  0.56449005  1
  O  O11  1  0.25435164  0.37899933  0.43550995  1
  O  O12  1  0.61891851  0.92886807  0.63359397  1
  O  O13  1  0.38108149  0.07113193  0.36640603  1
  O  O14  1  0.07113193  0.38108149  0.86640603  1
  O  O15  1  0.92886807  0.61891851  0.13359397  1
  O  O16  1  0.41538954  0.62750064  0.52979676  1
  O  O17  1  0.58461046  0.37249936  0.47020324  1
  O  O18  1  0.37249936  0.58461046  0.97020324  1
  O  O19  1  0.62750064  0.41538954  0.02979676  1
  O  O20  1  0.21658416  0.05819732  0.80108658  1
  O  O21  1  0.78341584  0.94180268  0.19891342  1
  O  O22  1  0.94180268  0.78341584  0.69891342  1
  O  O23  1  0.05819732  0.21658416  0.30108658  1
