# generated using pymatgen
data_CsLu2Cl7
_symmetry_space_group_name_H-M   'P 1'
_cell_length_a   6.96272303
_cell_length_b   13.50150608
_cell_length_c   12.59908396
_cell_angle_alpha   90.00000000
_cell_angle_beta   90.00000000
_cell_angle_gamma   90.00000000
_symmetry_Int_Tables_number   1
_chemical_formula_structural   CsLu2Cl7
_chemical_formula_sum   'Cs4 Lu8 Cl28'
_cell_volume   1184.40520187
_cell_formula_units_Z   4
loop_
 _symmetry_equiv_pos_site_id
 _symmetry_equiv_pos_as_xyz
  1  'x, y, z'
loop_
 _atom_site_type_symbol
 _atom_site_label
 _atom_site_symmetry_multiplicity
 _atom_site_fract_x
 _atom_site_fract_y
 _atom_site_fract_z
 _atom_site_occupancy
  Cs  Cs0  1  0.75000000  0.95710383  0.19582211  1
  Cs  Cs1  1  0.25000000  0.04289617  0.80417789  1
  Cs  Cs2  1  0.25000000  0.54289617  0.69582211  1
  Cs  Cs3  1  0.75000000  0.45710383  0.30417789  1
  Lu  Lu4  1  0.75000000  0.76238648  0.54053768  1
  Lu  Lu5  1  0.25000000  0.23761352  0.45946232  1
  Lu  Lu6  1  0.25000000  0.73761352  0.04053768  1
  Lu  Lu7  1  0.75000000  0.26238648  0.95946232  1
  Lu  Lu8  1  0.75000000  0.74921740  0.84234342  1
  Lu  Lu9  1  0.25000000  0.25078260  0.15765658  1
  Lu  Lu10  1  0.25000000  0.75078260  0.34234342  1
  Lu  Lu11  1  0.75000000  0.24921740  0.65765658  1
  Cl  Cl12  1  0.98635732  0.82316907  0.69328820  1
  Cl  Cl13  1  0.01364268  0.17683093  0.30671180  1
  Cl  Cl14  1  0.01364268  0.67683093  0.19328820  1
  Cl  Cl15  1  0.48635732  0.17683093  0.30671180  1
  Cl  Cl16  1  0.98635732  0.32316907  0.80671180  1
  Cl  Cl17  1  0.51364268  0.82316907  0.69328820  1
  Cl  Cl18  1  0.51364268  0.32316907  0.80671180  1
  Cl  Cl19  1  0.48635732  0.67683093  0.19328820  1
  Cl  Cl20  1  0.99264731  0.87548598  0.42498566  1
  Cl  Cl21  1  0.00735269  0.12451402  0.57501434  1
  Cl  Cl22  1  0.00735269  0.62451402  0.92498566  1
  Cl  Cl23  1  0.49264731  0.12451402  0.57501434  1
  Cl  Cl24  1  0.99264731  0.37548598  0.07501434  1
  Cl  Cl25  1  0.50735269  0.87548598  0.42498566  1
  Cl  Cl26  1  0.50735269  0.37548598  0.07501434  1
  Cl  Cl27  1  0.49264731  0.62451402  0.92498566  1
  Cl  Cl28  1  0.98967282  0.86341133  0.95993819  1
  Cl  Cl29  1  0.01032718  0.13658867  0.04006181  1
  Cl  Cl30  1  0.01032718  0.63658867  0.45993819  1
  Cl  Cl31  1  0.48967282  0.13658867  0.04006181  1
  Cl  Cl32  1  0.98967282  0.36341133  0.54006181  1
  Cl  Cl33  1  0.51032718  0.86341133  0.95993819  1
  Cl  Cl34  1  0.51032718  0.36341133  0.54006181  1
  Cl  Cl35  1  0.48967282  0.63658867  0.45993819  1
  Cl  Cl36  1  0.75000000  0.61046425  0.68844221  1
  Cl  Cl37  1  0.25000000  0.38953575  0.31155779  1
  Cl  Cl38  1  0.25000000  0.88953575  0.18844221  1
  Cl  Cl39  1  0.75000000  0.11046425  0.81155779  1
