# generated using pymatgen
data_Dy6Ta4Al43
_symmetry_space_group_name_H-M   'P 1'
_cell_length_a   11.13340305
_cell_length_b   11.13340305
_cell_length_c   17.73623137
_cell_angle_alpha   90.00000000
_cell_angle_beta   90.00000000
_cell_angle_gamma   119.99999700
_symmetry_Int_Tables_number   1
_chemical_formula_structural   Dy6Ta4Al43
_chemical_formula_sum   'Dy12 Ta8 Al86'
_cell_volume   1903.91630868
_cell_formula_units_Z   2
loop_
 _symmetry_equiv_pos_site_id
 _symmetry_equiv_pos_as_xyz
  1  'x, y, z'
loop_
 _atom_site_type_symbol
 _atom_site_label
 _atom_site_symmetry_multiplicity
 _atom_site_fract_x
 _atom_site_fract_y
 _atom_site_fract_z
 _atom_site_occupancy
  Dy  Dy0  1  0.47039342  0.47039342  0.90370016  1
  Dy  Dy1  1  0.52960658  0.52960658  0.09629984  1
  Dy  Dy2  1  0.00000000  0.52960658  0.90370016  1
  Dy  Dy3  1  0.52960658  0.52960658  0.40370016  1
  Dy  Dy4  1  0.00000000  0.52960658  0.59629984  1
  Dy  Dy5  1  1.00000000  0.47039342  0.09629984  1
  Dy  Dy6  1  0.47039342  0.47039342  0.59629984  1
  Dy  Dy7  1  1.00000000  0.47039342  0.40370016  1
  Dy  Dy8  1  0.52960658  0.00000000  0.90370016  1
  Dy  Dy9  1  0.47039342  1.00000000  0.09629984  1
  Dy  Dy10  1  0.47039342  1.00000000  0.40370016  1
  Dy  Dy11  1  0.52960658  0.00000000  0.59629984  1
  Ta  Ta12  1  -0.00000000  -0.00000000  0.00000000  1
  Ta  Ta13  1  -0.00000000  -0.00000000  0.50000000  1
  Ta  Ta14  1  0.27435245  0.27435245  0.75000000  1
  Ta  Ta15  1  0.72564755  0.72564755  0.25000000  1
  Ta  Ta16  1  0.00000000  0.72564755  0.75000000  1
  Ta  Ta17  1  1.00000000  0.27435245  0.25000000  1
  Ta  Ta18  1  0.72564755  0.00000000  0.75000000  1
  Ta  Ta19  1  0.27435245  1.00000000  0.25000000  1
  Al  Al20  1  0.85054828  0.44563916  0.75000000  1
  Al  Al21  1  0.14945172  0.55436084  0.25000000  1
  Al  Al22  1  0.59509089  0.14945172  0.75000000  1
  Al  Al23  1  0.40490911  0.55436084  0.75000000  1
  Al  Al24  1  0.40490911  0.85054828  0.25000000  1
  Al  Al25  1  0.59509089  0.44563916  0.25000000  1
  Al  Al26  1  0.55436084  0.40490911  0.75000000  1
  Al  Al27  1  0.44563916  0.85054828  0.75000000  1
  Al  Al28  1  0.44563916  0.59509089  0.25000000  1
  Al  Al29  1  0.55436084  0.14945172  0.25000000  1
  Al  Al30  1  0.14945172  0.59509089  0.75000000  1
  Al  Al31  1  0.85054828  0.40490911  0.25000000  1
  Al  Al32  1  0.84091213  0.84091213  0.38485866  1
  Al  Al33  1  0.15908787  0.15908787  0.61514134  1
  Al  Al34  1  0.00000000  0.15908787  0.38485866  1
  Al  Al35  1  0.15908787  0.15908787  0.88485866  1
  Al  Al36  1  0.00000000  0.15908787  0.11514134  1
  Al  Al37  1  1.00000000  0.84091213  0.61514134  1
  Al  Al38  1  0.84091213  0.84091213  0.11514134  1
  Al  Al39  1  1.00000000  0.84091213  0.88485866  1
  Al  Al40  1  0.15908787  0.00000000  0.38485866  1
  Al  Al41  1  0.84091213  1.00000000  0.61514134  1
  Al  Al42  1  0.84091213  1.00000000  0.88485866  1
  Al  Al43  1  0.15908787  0.00000000  0.11514134  1
  Al  Al44  1  0.75290203  0.24709797  0.00000000  1
  Al  Al45  1  0.24709797  0.75290203  0.00000000  1
  Al  Al46  1  0.49419595  0.24709797  0.00000000  1
  Al  Al47  1  0.24709797  0.75290203  0.50000000  1
  Al  Al48  1  0.50580405  0.75290203  0.50000000  1
  Al  Al49  1  0.50580405  0.75290203  0.00000000  1
  Al  Al50  1  0.75290203  0.24709797  0.50000000  1
  Al  Al51  1  0.49419595  0.24709797  0.50000000  1
  Al  Al52  1  0.75290203  0.50580405  0.00000000  1
  Al  Al53  1  0.24709797  0.49419595  0.00000000  1
  Al  Al54  1  0.24709797  0.49419595  0.50000000  1
  Al  Al55  1  0.75290203  0.50580405  0.50000000  1
  Al  Al56  1  0.85308691  0.85308691  0.75000000  1
  Al  Al57  1  0.14691309  0.14691309  0.25000000  1
  Al  Al58  1  0.00000000  0.14691309  0.75000000  1
  Al  Al59  1  1.00000000  0.85308691  0.25000000  1
  Al  Al60  1  0.14691309  0.00000000  0.75000000  1
  Al  Al61  1  0.85308691  1.00000000  0.25000000  1
  Al  Al62  1  0.66666700  0.33333300  0.87354955  1
  Al  Al63  1  0.33333300  0.66666700  0.12645045  1
  Al  Al64  1  0.33333300  0.66666700  0.37354955  1
  Al  Al65  1  0.33333300  0.66666700  0.62645045  1
  Al  Al66  1  0.66666700  0.33333300  0.62645045  1
  Al  Al67  1  0.66666700  0.33333300  0.37354955  1
  Al  Al68  1  0.66666700  0.33333300  0.12645045  1
  Al  Al69  1  0.33333300  0.66666700  0.87354955  1
  Al  Al70  1  0.74389379  0.74389379  0.96979316  1
  Al  Al71  1  0.25610621  0.25610621  0.03020684  1
  Al  Al72  1  1.00000000  0.25610621  0.96979316  1
  Al  Al73  1  0.25610621  0.25610621  0.46979316  1
  Al  Al74  1  1.00000000  0.25610621  0.53020684  1
  Al  Al75  1  0.00000000  0.74389379  0.03020684  1
  Al  Al76  1  0.74389379  0.74389379  0.53020684  1
  Al  Al77  1  0.00000000  0.74389379  0.46979316  1
  Al  Al78  1  0.25610621  1.00000000  0.96979316  1
  Al  Al79  1  0.74389379  0.00000000  0.03020684  1
  Al  Al80  1  0.74389379  0.00000000  0.46979316  1
  Al  Al81  1  0.25610621  1.00000000  0.53020684  1
  Al  Al82  1  0.84273518  0.23734600  0.83645695  1
  Al  Al83  1  0.15726482  0.76265400  0.16354305  1
  Al  Al84  1  0.39461082  0.15726482  0.83645695  1
  Al  Al85  1  0.15726482  0.76265400  0.33645695  1
  Al  Al86  1  0.60538918  0.76265400  0.66354305  1
  Al  Al87  1  0.60538918  0.84273518  0.16354305  1
  Al  Al88  1  0.84273518  0.23734600  0.66354305  1
  Al  Al89  1  0.39461082  0.23734600  0.33645695  1
  Al  Al90  1  0.76265400  0.60538918  0.83645695  1
  Al  Al91  1  0.60538918  0.84273518  0.33645695  1
  Al  Al92  1  0.23734600  0.84273518  0.66354305  1
  Al  Al93  1  0.23734600  0.39461082  0.16354305  1
  Al  Al94  1  0.39461082  0.15726482  0.66354305  1
  Al  Al95  1  0.76265400  0.15726482  0.33645695  1
  Al  Al96  1  0.39461082  0.23734600  0.16354305  1
  Al  Al97  1  0.60538918  0.76265400  0.83645695  1
  Al  Al98  1  0.23734600  0.39461082  0.33645695  1
  Al  Al99  1  0.76265400  0.15726482  0.16354305  1
  Al  Al100  1  0.76265400  0.60538918  0.66354305  1
  Al  Al101  1  0.23734600  0.84273518  0.83645695  1
  Al  Al102  1  0.15726482  0.39461082  0.66354305  1
  Al  Al103  1  0.84273518  0.60538918  0.33645695  1
  Al  Al104  1  0.84273518  0.60538918  0.16354305  1
  Al  Al105  1  0.15726482  0.39461082  0.83645695  1
