# generated using pymatgen
data_CsY2Cl7
_symmetry_space_group_name_H-M   'P 1'
_cell_length_a   7.05732932
_cell_length_b   14.08731417
_cell_length_c   12.74830694
_cell_angle_alpha   90.00000000
_cell_angle_beta   90.00000000
_cell_angle_gamma   90.00000000
_symmetry_Int_Tables_number   1
_chemical_formula_structural   CsY2Cl7
_chemical_formula_sum   'Cs4 Y8 Cl28'
_cell_volume   1267.42157346
_cell_formula_units_Z   4
loop_
 _symmetry_equiv_pos_site_id
 _symmetry_equiv_pos_as_xyz
  1  'x, y, z'
loop_
 _atom_site_type_symbol
 _atom_site_label
 _atom_site_symmetry_multiplicity
 _atom_site_fract_x
 _atom_site_fract_y
 _atom_site_fract_z
 _atom_site_occupancy
  Cs  Cs0  1  0.75000000  0.95876548  0.19636559  1
  Cs  Cs1  1  0.25000000  0.04123452  0.80363441  1
  Cs  Cs2  1  0.25000000  0.54123452  0.69636559  1
  Cs  Cs3  1  0.75000000  0.45876548  0.30363441  1
  Y  Y4  1  0.75000000  0.76213785  0.54090492  1
  Y  Y5  1  0.25000000  0.23786215  0.45909508  1
  Y  Y6  1  0.25000000  0.73786215  0.04090492  1
  Y  Y7  1  0.75000000  0.26213785  0.95909508  1
  Y  Y8  1  0.75000000  0.74963027  0.84362041  1
  Y  Y9  1  0.25000000  0.25036973  0.15637959  1
  Y  Y10  1  0.25000000  0.75036973  0.34362041  1
  Y  Y11  1  0.75000000  0.24963027  0.65637959  1
  Cl  Cl12  1  0.98657973  0.82124537  0.69413352  1
  Cl  Cl13  1  0.01342027  0.17875463  0.30586648  1
  Cl  Cl14  1  0.01342027  0.67875463  0.19413352  1
  Cl  Cl15  1  0.48657973  0.17875463  0.30586648  1
  Cl  Cl16  1  0.98657973  0.32124537  0.80586648  1
  Cl  Cl17  1  0.51342027  0.82124537  0.69413352  1
  Cl  Cl18  1  0.51342027  0.32124537  0.80586648  1
  Cl  Cl19  1  0.48657973  0.67875463  0.19413352  1
  Cl  Cl20  1  0.99108323  0.87203438  0.42553649  1
  Cl  Cl21  1  0.00891677  0.12796562  0.57446351  1
  Cl  Cl22  1  0.00891677  0.62796562  0.92553649  1
  Cl  Cl23  1  0.49108323  0.12796562  0.57446351  1
  Cl  Cl24  1  0.99108323  0.37203438  0.07446351  1
  Cl  Cl25  1  0.50891677  0.87203438  0.42553649  1
  Cl  Cl26  1  0.50891677  0.37203438  0.07446351  1
  Cl  Cl27  1  0.49108323  0.62796562  0.92553649  1
  Cl  Cl28  1  0.99096450  0.86144955  0.95965714  1
  Cl  Cl29  1  0.00903550  0.13855045  0.04034286  1
  Cl  Cl30  1  0.00903550  0.63855045  0.45965714  1
  Cl  Cl31  1  0.49096450  0.13855045  0.04034286  1
  Cl  Cl32  1  0.99096450  0.36144955  0.54034286  1
  Cl  Cl33  1  0.50903550  0.86144955  0.95965714  1
  Cl  Cl34  1  0.50903550  0.36144955  0.54034286  1
  Cl  Cl35  1  0.49096450  0.63855045  0.45965714  1
  Cl  Cl36  1  0.75000000  0.61540048  0.68913950  1
  Cl  Cl37  1  0.25000000  0.38459952  0.31086050  1
  Cl  Cl38  1  0.25000000  0.88459952  0.18913950  1
  Cl  Cl39  1  0.75000000  0.11540048  0.81086050  1
