# generated using pymatgen
data_CsSbS(O2F)2
_symmetry_space_group_name_H-M   'P 1'
_cell_length_a   5.46722851
_cell_length_b   10.13724997
_cell_length_c   11.69428258
_cell_angle_alpha   90.00000000
_cell_angle_beta   90.00000000
_cell_angle_gamma   90.00000000
_symmetry_Int_Tables_number   1
_chemical_formula_structural   CsSbS(O2F)2
_chemical_formula_sum   'Cs4 Sb4 S4 O16 F8'
_cell_volume   648.12827134
_cell_formula_units_Z   4
loop_
 _symmetry_equiv_pos_site_id
 _symmetry_equiv_pos_as_xyz
  1  'x, y, z'
loop_
 _atom_site_type_symbol
 _atom_site_label
 _atom_site_symmetry_multiplicity
 _atom_site_fract_x
 _atom_site_fract_y
 _atom_site_fract_z
 _atom_site_occupancy
  Cs  Cs0  1  0.61420055  0.01430960  0.16084412  1
  Cs  Cs1  1  0.11420055  0.98569040  0.83915588  1
  Cs  Cs2  1  0.61420055  0.51430960  0.33915588  1
  Cs  Cs3  1  0.11420055  0.48569040  0.66084412  1
  Sb  Sb4  1  0.10419940  0.32715035  0.08059755  1
  Sb  Sb5  1  0.60419940  0.67284965  0.91940245  1
  Sb  Sb6  1  0.10419940  0.82715035  0.41940245  1
  Sb  Sb7  1  0.60419940  0.17284965  0.58059755  1
  S  S8  1  0.16390938  0.20292610  0.36575035  1
  S  S9  1  0.66390938  0.79707390  0.63424965  1
  S  S10  1  0.16390938  0.70292610  0.13424965  1
  S  S11  1  0.66390938  0.29707390  0.86575035  1
  O  O12  1  0.01182024  0.08739005  0.33824680  1
  O  O13  1  0.51182024  0.91260995  0.66175320  1
  O  O14  1  0.01182024  0.58739005  0.16175320  1
  O  O15  1  0.51182024  0.41260995  0.83824680  1
  O  O16  1  0.39967694  0.15093311  0.42201759  1
  O  O17  1  0.89967694  0.84906689  0.57798241  1
  O  O18  1  0.39967694  0.65093311  0.07798241  1
  O  O19  1  0.89967694  0.34906689  0.92201759  1
  O  O20  1  0.25524242  0.26949079  0.25745430  1
  O  O21  1  0.75524242  0.73050921  0.74254570  1
  O  O22  1  0.25524242  0.76949079  0.24254570  1
  O  O23  1  0.75524242  0.23050921  0.75745430  1
  O  O24  1  0.03992347  0.29858172  0.43930506  1
  O  O25  1  0.53992347  0.70141828  0.56069494  1
  O  O26  1  0.03992347  0.79858172  0.06069494  1
  O  O27  1  0.53992347  0.20141828  0.93930506  1
  F  F28  1  0.07956120  0.13367224  0.06175547  1
  F  F29  1  0.57956120  0.86632776  0.93824453  1
  F  F30  1  0.07956120  0.63367224  0.43824453  1
  F  F31  1  0.57956120  0.36632776  0.56175547  1
  F  F32  1  0.28366640  0.17828851  0.65506218  1
  F  F33  1  0.78366640  0.82171149  0.34493782  1
  F  F34  1  0.28366640  0.67828851  0.84493782  1
  F  F35  1  0.78366640  0.32171149  0.15506218  1
