# generated using pymatgen
data_CuAg2(PO3)4
_symmetry_space_group_name_H-M   'P 1'
_cell_length_a   7.96632870
_cell_length_b   8.31543604
_cell_length_c   8.31543604
_cell_angle_alpha   109.40646172
_cell_angle_beta   93.20171201
_cell_angle_gamma   93.20171201
_symmetry_Int_Tables_number   1
_chemical_formula_structural   CuAg2(PO3)4
_chemical_formula_sum   'Cu2 Ag4 P8 O24'
_cell_volume   517.11468126
_cell_formula_units_Z   2
loop_
 _symmetry_equiv_pos_site_id
 _symmetry_equiv_pos_as_xyz
  1  'x, y, z'
loop_
 _atom_site_type_symbol
 _atom_site_label
 _atom_site_symmetry_multiplicity
 _atom_site_fract_x
 _atom_site_fract_y
 _atom_site_fract_z
 _atom_site_occupancy
  Cu  Cu0  1  0.75000000  0.63644726  0.36355274  1
  Cu  Cu1  1  0.25000000  0.36355274  0.63644726  1
  Ag  Ag2  1  0.68977513  0.31431668  0.02529198  1
  Ag  Ag3  1  0.31022487  0.68568332  0.97470802  1
  Ag  Ag4  1  0.81022487  0.97470802  0.68568332  1
  Ag  Ag5  1  0.18977513  0.02529198  0.31431668  1
  P  P6  1  0.67607588  0.56206712  0.71041665  1
  P  P7  1  0.32392412  0.43793288  0.28958335  1
  P  P8  1  0.82392412  0.28958335  0.43793288  1
  P  P9  1  0.17607588  0.71041665  0.56206712  1
  P  P10  1  0.87203400  0.73958637  0.05008760  1
  P  P11  1  0.12796600  0.26041363  0.94991240  1
  P  P12  1  0.62796600  0.94991240  0.26041363  1
  P  P13  1  0.37203400  0.05008760  0.73958637  1
  O  O14  1  0.94810380  0.18871469  0.91824279  1
  O  O15  1  0.05189620  0.81128531  0.08175721  1
  O  O16  1  0.55189620  0.08175721  0.81128531  1
  O  O17  1  0.44810380  0.91824279  0.18871469  1
  O  O18  1  0.75000000  0.37904918  0.62095082  1
  O  O19  1  0.25000000  0.62095082  0.37904918  1
  O  O20  1  0.84097111  0.41629570  0.34335398  1
  O  O21  1  0.15902889  0.58370430  0.65664602  1
  O  O22  1  0.65902889  0.65664602  0.58370430  1
  O  O23  1  0.34097111  0.34335398  0.41629570  1
  O  O24  1  0.83295744  0.66375848  0.84684508  1
  O  O25  1  0.16704256  0.33624152  0.15315492  1
  O  O26  1  0.66704256  0.15315492  0.33624152  1
  O  O27  1  0.33295744  0.84684508  0.66375848  1
  O  O28  1  0.75000000  0.89561224  0.10438776  1
  O  O29  1  0.25000000  0.10438776  0.89561224  1
  O  O30  1  0.52676520  0.53456961  0.80135582  1
  O  O31  1  0.47323480  0.46543039  0.19864418  1
  O  O32  1  0.97323480  0.19864418  0.46543039  1
  O  O33  1  0.02676520  0.80135582  0.53456961  1
  O  O34  1  0.81656493  0.60677016  0.12929832  1
  O  O35  1  0.18343507  0.39322984  0.87070168  1
  O  O36  1  0.68343507  0.87070168  0.39322984  1
  O  O37  1  0.31656493  0.12929832  0.60677016  1
