# generated using pymatgen
data_DySi3Ni5
_symmetry_space_group_name_H-M   'P 1'
_cell_length_a   3.78678098
_cell_length_b   18.67981204
_cell_length_c   6.58604412
_cell_angle_alpha   90.00000000
_cell_angle_beta   90.00000000
_cell_angle_gamma   90.00000000
_symmetry_Int_Tables_number   1
_chemical_formula_structural   DySi3Ni5
_chemical_formula_sum   'Dy4 Si12 Ni20'
_cell_volume   465.87276771
_cell_formula_units_Z   4
loop_
 _symmetry_equiv_pos_site_id
 _symmetry_equiv_pos_as_xyz
  1  'x, y, z'
loop_
 _atom_site_type_symbol
 _atom_site_label
 _atom_site_symmetry_multiplicity
 _atom_site_fract_x
 _atom_site_fract_y
 _atom_site_fract_z
 _atom_site_occupancy
  Dy  Dy0  1  0.75000000  0.64410465  0.12376023  1
  Dy  Dy1  1  0.25000000  0.35589535  0.87623977  1
  Dy  Dy2  1  0.25000000  0.85589535  0.62376023  1
  Dy  Dy3  1  0.75000000  0.14410465  0.37623977  1
  Si  Si4  1  0.75000000  0.91436286  0.91865349  1
  Si  Si5  1  0.25000000  0.08563714  0.08134651  1
  Si  Si6  1  0.25000000  0.58563714  0.41865349  1
  Si  Si7  1  0.75000000  0.41436286  0.58134651  1
  Si  Si8  1  0.75000000  0.92550828  0.34473493  1
  Si  Si9  1  0.25000000  0.07449172  0.65526507  1
  Si  Si10  1  0.25000000  0.57449172  0.84473493  1
  Si  Si11  1  0.75000000  0.42550828  0.15526507  1
  Si  Si12  1  0.75000000  0.73741232  0.62365990  1
  Si  Si13  1  0.25000000  0.26258768  0.37634010  1
  Si  Si14  1  0.25000000  0.76258768  0.12365990  1
  Si  Si15  1  0.75000000  0.23741232  0.87634010  1
  Ni  Ni16  1  0.75000000  0.79386866  0.93177013  1
  Ni  Ni17  1  0.25000000  0.20613134  0.06822987  1
  Ni  Ni18  1  0.25000000  0.70613134  0.43177013  1
  Ni  Ni19  1  0.75000000  0.29386866  0.56822987  1
  Ni  Ni20  1  0.75000000  0.51504654  0.38517799  1
  Ni  Ni21  1  0.25000000  0.48495346  0.61482201  1
  Ni  Ni22  1  0.25000000  0.98495346  0.88517799  1
  Ni  Ni23  1  0.75000000  0.01504654  0.11482201  1
  Ni  Ni24  1  0.75000000  0.80043684  0.31604736  1
  Ni  Ni25  1  0.25000000  0.19956316  0.68395264  1
  Ni  Ni26  1  0.25000000  0.69956316  0.81604736  1
  Ni  Ni27  1  0.75000000  0.30043684  0.18395264  1
  Ni  Ni28  1  0.75000000  0.61529170  0.64327825  1
  Ni  Ni29  1  0.25000000  0.38470830  0.35672175  1
  Ni  Ni30  1  0.25000000  0.88470830  0.14327825  1
  Ni  Ni31  1  0.75000000  0.11529170  0.85672175  1
  Ni  Ni32  1  0.75000000  0.99468878  0.63252717  1
  Ni  Ni33  1  0.25000000  0.00531122  0.36747283  1
  Ni  Ni34  1  0.25000000  0.50531122  0.13252717  1
  Ni  Ni35  1  0.75000000  0.49468878  0.86747283  1
