# generated using pymatgen
data_Er5(SiSb)2
_symmetry_space_group_name_H-M   'P 1'
_cell_length_a   7.77899762
_cell_length_b   7.79762059
_cell_length_c   8.44853113
_cell_angle_alpha   90.00000000
_cell_angle_beta   117.41135628
_cell_angle_gamma   90.00000000
_symmetry_Int_Tables_number   1
_chemical_formula_structural   Er5(SiSb)2
_chemical_formula_sum   'Er10 Si4 Sb4'
_cell_volume   454.93042616
_cell_formula_units_Z   2
loop_
 _symmetry_equiv_pos_site_id
 _symmetry_equiv_pos_as_xyz
  1  'x, y, z'
loop_
 _atom_site_type_symbol
 _atom_site_label
 _atom_site_symmetry_multiplicity
 _atom_site_fract_x
 _atom_site_fract_y
 _atom_site_fract_z
 _atom_site_occupancy
  Er  Er0  1  0.29029104  0.33634299  0.25163551  1
  Er  Er1  1  0.70970896  0.66365701  0.74836449  1
  Er  Er2  1  0.20970896  0.83634299  0.74836449  1
  Er  Er3  1  0.53865553  0.16365701  0.74836449  1
  Er  Er4  1  0.79029104  0.16365701  0.25163551  1
  Er  Er5  1  0.46134447  0.83634299  0.25163551  1
  Er  Er6  1  0.96134447  0.66365701  0.25163551  1
  Er  Er7  1  0.03865553  0.33634299  0.74836449  1
  Er  Er8  1  -0.00000000  -0.00000000  -0.00000000  1
  Er  Er9  1  0.50000000  0.50000000  -0.00000000  1
  Si  Si10  1  0.36484385  0.13410153  -0.00000000  1
  Si  Si11  1  0.63515615  0.86589847  -0.00000000  1
  Si  Si12  1  0.13515615  0.63410153  -0.00000000  1
  Si  Si13  1  0.86484385  0.36589847  -0.00000000  1
  Sb  Sb14  1  0.20545050  -0.00000000  0.41090100  1
  Sb  Sb15  1  0.79454950  -0.00000000  0.58909900  1
  Sb  Sb16  1  0.29454950  0.50000000  0.58909900  1
  Sb  Sb17  1  0.70545050  0.50000000  0.41090100  1
