# generated using pymatgen
data_YbWO5
_symmetry_space_group_name_H-M   'P 1'
_cell_length_a   5.43524936
_cell_length_b   6.60244521
_cell_length_c   12.83476119
_cell_angle_alpha   90.00000000
_cell_angle_beta   90.00000000
_cell_angle_gamma   107.33573387
_symmetry_Int_Tables_number   1
_chemical_formula_structural   YbWO5
_chemical_formula_sum   'Yb4 W4 O20'
_cell_volume   439.66530445
_cell_formula_units_Z   4
loop_
 _symmetry_equiv_pos_site_id
 _symmetry_equiv_pos_as_xyz
  1  'x, y, z'
loop_
 _atom_site_type_symbol
 _atom_site_label
 _atom_site_symmetry_multiplicity
 _atom_site_fract_x
 _atom_site_fract_y
 _atom_site_fract_z
 _atom_site_occupancy
  Yb  Yb0  1  0.12140481  0.77206238  0.44227955  1
  Yb  Yb1  1  0.87859519  0.22793762  0.55772045  1
  Yb  Yb2  1  0.37859519  0.72793762  0.94227955  1
  Yb  Yb3  1  0.62140481  0.27206238  0.05772045  1
  W  W4  1  0.95756587  0.84993385  0.13714668  1
  W  W5  1  0.04243413  0.15006615  0.86285332  1
  W  W6  1  0.54243413  0.65006615  0.63714668  1
  W  W7  1  0.45756587  0.34993385  0.36285332  1
  O  O8  1  0.01084801  0.55341997  0.08027397  1
  O  O9  1  0.98915199  0.44658003  0.91972603  1
  O  O10  1  0.48915199  0.94658003  0.58027397  1
  O  O11  1  0.51084801  0.05341997  0.41972603  1
  O  O12  1  0.83662799  0.84273984  0.57236467  1
  O  O13  1  0.16337201  0.15726016  0.42763533  1
  O  O14  1  0.66337201  0.65726016  0.07236467  1
  O  O15  1  0.33662799  0.34273984  0.92763533  1
  O  O16  1  0.26086113  0.96431870  0.06485183  1
  O  O17  1  0.73913887  0.03568130  0.93514817  1
  O  O18  1  0.23913887  0.53568130  0.56485183  1
  O  O19  1  0.76086113  0.46431870  0.43514817  1
  O  O20  1  0.00845952  0.79053934  0.27018220  1
  O  O21  1  0.99154048  0.20946066  0.72981780  1
  O  O22  1  0.49154048  0.70946066  0.77018220  1
  O  O23  1  0.50845952  0.29053934  0.22981780  1
  O  O24  1  0.16146403  0.92326999  0.85056606  1
  O  O25  1  0.83853597  0.07673001  0.14943394  1
  O  O26  1  0.33853597  0.57673001  0.35056606  1
  O  O27  1  0.66146403  0.42326999  0.64943394  1
