# generated using pymatgen
data_Dy4InIr
_symmetry_space_group_name_H-M   'P 1'
_cell_length_a   9.67003275
_cell_length_b   9.67003275
_cell_length_c   9.67003275
_cell_angle_alpha   60.00000000
_cell_angle_beta   60.00000000
_cell_angle_gamma   60.00000000
_symmetry_Int_Tables_number   1
_chemical_formula_structural   Dy4InIr
_chemical_formula_sum   'Dy16 In4 Ir4'
_cell_volume   639.39441228
_cell_formula_units_Z   4
loop_
 _symmetry_equiv_pos_site_id
 _symmetry_equiv_pos_as_xyz
  1  'x, y, z'
loop_
 _atom_site_type_symbol
 _atom_site_label
 _atom_site_symmetry_multiplicity
 _atom_site_fract_x
 _atom_site_fract_y
 _atom_site_fract_z
 _atom_site_occupancy
  Dy  Dy0  1  0.65087006  0.65087006  0.65087006  1
  Dy  Dy1  1  0.04738983  0.65087006  0.65087006  1
  Dy  Dy2  1  0.65087006  0.04738983  0.65087006  1
  Dy  Dy3  1  0.65087006  0.65087006  0.04738983  1
  Dy  Dy4  1  0.81048853  0.81048853  0.18951147  1
  Dy  Dy5  1  0.18951147  0.18951147  0.81048853  1
  Dy  Dy6  1  0.81048853  0.18951147  0.81048853  1
  Dy  Dy7  1  0.18951147  0.81048853  0.18951147  1
  Dy  Dy8  1  0.18951147  0.81048853  0.81048853  1
  Dy  Dy9  1  0.81048853  0.18951147  0.18951147  1
  Dy  Dy10  1  0.43843934  0.43843934  0.06156066  1
  Dy  Dy11  1  0.06156066  0.06156066  0.43843934  1
  Dy  Dy12  1  0.43843934  0.06156066  0.43843934  1
  Dy  Dy13  1  0.06156066  0.43843934  0.06156066  1
  Dy  Dy14  1  0.06156066  0.43843934  0.43843934  1
  Dy  Dy15  1  0.43843934  0.06156066  0.06156066  1
  In  In16  1  0.41722296  0.41722296  0.41722296  1
  In  In17  1  0.74833111  0.41722296  0.41722296  1
  In  In18  1  0.41722296  0.74833111  0.41722296  1
  In  In19  1  0.41722296  0.41722296  0.74833111  1
  Ir  Ir20  1  0.85848230  0.85848230  0.85848230  1
  Ir  Ir21  1  0.42455310  0.85848230  0.85848230  1
  Ir  Ir22  1  0.85848230  0.42455310  0.85848230  1
  Ir  Ir23  1  0.85848230  0.85848230  0.42455310  1
