# generated using pymatgen
data_Cs2FeF5
_symmetry_space_group_name_H-M   'P 1'
_cell_length_a   6.09360030
_cell_length_b   8.02404649
_cell_length_c   12.86409712
_cell_angle_alpha   89.99991232
_cell_angle_beta   90.00001756
_cell_angle_gamma   90.00001152
_symmetry_Int_Tables_number   1
_chemical_formula_structural   Cs2FeF5
_chemical_formula_sum   'Cs8 Fe4 F20'
_cell_volume   628.99430083
_cell_formula_units_Z   4
loop_
 _symmetry_equiv_pos_site_id
 _symmetry_equiv_pos_as_xyz
  1  'x, y, z'
loop_
 _atom_site_type_symbol
 _atom_site_label
 _atom_site_symmetry_multiplicity
 _atom_site_fract_x
 _atom_site_fract_y
 _atom_site_fract_z
 _atom_site_occupancy
  Cs  Cs0  1  0.75000188  0.50795423  0.27442188  1
  Cs  Cs1  1  0.25000009  0.49204520  0.72557889  1
  Cs  Cs2  1  0.24999793  0.99204427  0.77442131  1
  Cs  Cs3  1  0.75000264  0.00795398  0.22557903  1
  Cs  Cs4  1  0.74999622  0.85005157  0.58427422  1
  Cs  Cs5  1  0.25000318  0.14994692  0.41572521  1
  Cs  Cs6  1  0.25000039  0.64994797  0.08427459  1
  Cs  Cs7  1  0.74999788  0.35005291  0.91572597  1
  Fe  Fe8  1  0.74999876  0.84617651  0.93865464  1
  Fe  Fe9  1  0.24999993  0.15382321  0.06134619  1
  Fe  Fe10  1  0.24999903  0.65382312  0.43865404  1
  Fe  Fe11  1  0.75000273  0.34617571  0.56134581  1
  F  F12  1  0.75000016  0.72616666  0.07111985  1
  F  F13  1  0.24999912  0.27383012  0.92888017  1
  F  F14  1  0.24999777  0.77383190  0.57111934  1
  F  F15  1  0.74999999  0.22617201  0.42887970  1
  F  F16  1  0.97847923  0.70430666  0.88430245  1
  F  F17  1  0.02152091  0.29569325  0.11569737  1
  F  F18  1  0.02152069  0.79569420  0.38430353  1
  F  F19  1  0.47847888  0.29569427  0.11569692  1
  F  F20  1  0.97847866  0.20430542  0.61569746  1
  F  F21  1  0.52152184  0.70430659  0.88430308  1
  F  F22  1  0.52152131  0.20430658  0.61569710  1
  F  F23  1  0.47847765  0.79569202  0.38430299  1
  F  F24  1  -0.00000094  0.00000079  -0.00000006  1
  F  F25  1  0.00000025  0.50000091  0.50000016  1
  F  F26  1  0.50000059  0.00000150  0.00000026  1
  F  F27  1  0.50000051  0.49999913  0.50000007  1
  F  F28  1  0.75000031  0.98612052  0.81750157  1
  F  F29  1  0.25000163  0.01388246  0.18249760  1
  F  F30  1  0.24999954  0.51388272  0.31750208  1
  F  F31  1  0.75000121  0.48611671  0.68249659  1
