# generated using pymatgen
data_CsHo2Cl7
_symmetry_space_group_name_H-M   'P 1'
_cell_length_a   7.06015844
_cell_length_b   13.83504692
_cell_length_c   12.72105012
_cell_angle_alpha   90.00000000
_cell_angle_beta   90.00000000
_cell_angle_gamma   90.00000000
_symmetry_Int_Tables_number   1
_chemical_formula_structural   CsHo2Cl7
_chemical_formula_sum   'Cs4 Ho8 Cl28'
_cell_volume   1242.56194135
_cell_formula_units_Z   4
loop_
 _symmetry_equiv_pos_site_id
 _symmetry_equiv_pos_as_xyz
  1  'x, y, z'
loop_
 _atom_site_type_symbol
 _atom_site_label
 _atom_site_symmetry_multiplicity
 _atom_site_fract_x
 _atom_site_fract_y
 _atom_site_fract_z
 _atom_site_occupancy
  Cs  Cs0  1  0.75000000  0.95879990  0.19502874  1
  Cs  Cs1  1  0.25000000  0.04120010  0.80497126  1
  Cs  Cs2  1  0.25000000  0.54120010  0.69502874  1
  Cs  Cs3  1  0.75000000  0.45879990  0.30497126  1
  Ho  Ho4  1  0.75000000  0.76170560  0.54002257  1
  Ho  Ho5  1  0.25000000  0.23829440  0.45997743  1
  Ho  Ho6  1  0.25000000  0.73829440  0.04002257  1
  Ho  Ho7  1  0.75000000  0.26170560  0.95997743  1
  Ho  Ho8  1  0.75000000  0.74978327  0.84307727  1
  Ho  Ho9  1  0.25000000  0.25021673  0.15692273  1
  Ho  Ho10  1  0.25000000  0.75021673  0.34307727  1
  Ho  Ho11  1  0.75000000  0.24978327  0.65692273  1
  Cl  Cl12  1  0.98534093  0.82290079  0.69353368  1
  Cl  Cl13  1  0.01465907  0.17709921  0.30646632  1
  Cl  Cl14  1  0.01465907  0.67709921  0.19353368  1
  Cl  Cl15  1  0.48534093  0.17709921  0.30646632  1
  Cl  Cl16  1  0.98534093  0.32290079  0.80646632  1
  Cl  Cl17  1  0.51465907  0.82290079  0.69353368  1
  Cl  Cl18  1  0.51465907  0.32290079  0.80646632  1
  Cl  Cl19  1  0.48534093  0.67709921  0.19353368  1
  Cl  Cl20  1  0.99084529  0.87327720  0.42426144  1
  Cl  Cl21  1  0.00915471  0.12672280  0.57573856  1
  Cl  Cl22  1  0.00915471  0.62672280  0.92426144  1
  Cl  Cl23  1  0.49084529  0.12672280  0.57573856  1
  Cl  Cl24  1  0.99084529  0.37327720  0.07573856  1
  Cl  Cl25  1  0.50915471  0.87327720  0.42426144  1
  Cl  Cl26  1  0.50915471  0.37327720  0.07573856  1
  Cl  Cl27  1  0.49084529  0.62672280  0.92426144  1
  Cl  Cl28  1  0.98969517  0.86294429  0.96003030  1
  Cl  Cl29  1  0.01030483  0.13705571  0.03996970  1
  Cl  Cl30  1  0.01030483  0.63705571  0.46003030  1
  Cl  Cl31  1  0.48969517  0.13705571  0.03996970  1
  Cl  Cl32  1  0.98969517  0.36294429  0.53996970  1
  Cl  Cl33  1  0.51030483  0.86294429  0.96003030  1
  Cl  Cl34  1  0.51030483  0.36294429  0.53996970  1
  Cl  Cl35  1  0.48969517  0.63705571  0.46003030  1
  Cl  Cl36  1  0.75000000  0.61261643  0.68793246  1
  Cl  Cl37  1  0.25000000  0.38738357  0.31206754  1
  Cl  Cl38  1  0.25000000  0.88738357  0.18793246  1
  Cl  Cl39  1  0.75000000  0.11261643  0.81206754  1
