# generated using pymatgen
data_CsLu(TaBr3)6
_symmetry_space_group_name_H-M   'P 1'
_cell_length_a   9.90203688
_cell_length_b   9.90203688
_cell_length_c   18.48478782
_cell_angle_alpha   90.00000000
_cell_angle_beta   90.00000000
_cell_angle_gamma   119.99999343
_symmetry_Int_Tables_number   1
_chemical_formula_structural   CsLu(TaBr3)6
_chemical_formula_sum   'Cs2 Lu2 Ta12 Br36'
_cell_volume   1569.61886219
_cell_formula_units_Z   2
loop_
 _symmetry_equiv_pos_site_id
 _symmetry_equiv_pos_as_xyz
  1  'x, y, z'
loop_
 _atom_site_type_symbol
 _atom_site_label
 _atom_site_symmetry_multiplicity
 _atom_site_fract_x
 _atom_site_fract_y
 _atom_site_fract_z
 _atom_site_occupancy
  Cs  Cs0  1  0.33333300  0.66666700  0.75000000  1
  Cs  Cs1  1  0.66666700  0.33333300  0.25000000  1
  Lu  Lu2  1  0.66666700  0.33333300  0.75000000  1
  Lu  Lu3  1  0.33333300  0.66666700  0.25000000  1
  Ta  Ta4  1  0.96154276  0.14731746  0.93588901  1
  Ta  Ta5  1  0.03845724  0.85268254  0.06411099  1
  Ta  Ta6  1  0.18577469  0.03845724  0.93588901  1
  Ta  Ta7  1  0.18577469  0.14731746  0.56411099  1
  Ta  Ta8  1  0.81422531  0.96154276  0.06411099  1
  Ta  Ta9  1  0.81422531  0.85268254  0.43588901  1
  Ta  Ta10  1  0.85268254  0.81422531  0.93588901  1
  Ta  Ta11  1  0.85268254  0.03845724  0.56411099  1
  Ta  Ta12  1  0.14731746  0.18577469  0.06411099  1
  Ta  Ta13  1  0.14731746  0.96154276  0.43588901  1
  Ta  Ta14  1  0.96154276  0.81422531  0.56411099  1
  Ta  Ta15  1  0.03845724  0.18577469  0.43588901  1
  Br  Br16  1  0.91178443  0.36190101  0.83770956  1
  Br  Br17  1  0.08821557  0.63809899  0.16229044  1
  Br  Br18  1  0.45011658  0.08821557  0.83770956  1
  Br  Br19  1  0.45011658  0.36190101  0.66229044  1
  Br  Br20  1  0.54988342  0.91178443  0.16229044  1
  Br  Br21  1  0.54988342  0.63809899  0.33770956  1
  Br  Br22  1  0.63809899  0.54988342  0.83770956  1
  Br  Br23  1  0.63809899  0.08821557  0.66229044  1
  Br  Br24  1  0.36190101  0.45011658  0.16229044  1
  Br  Br25  1  0.36190101  0.91178443  0.33770956  1
  Br  Br26  1  0.91178443  0.54988342  0.66229044  1
  Br  Br27  1  0.08821557  0.45011658  0.33770956  1
  Br  Br28  1  0.76783359  0.95308901  0.84063507  1
  Br  Br29  1  0.23216641  0.04691099  0.15936493  1
  Br  Br30  1  0.18525542  0.23216641  0.84063507  1
  Br  Br31  1  0.18525542  0.95308901  0.65936493  1
  Br  Br32  1  0.81474458  0.76783359  0.15936493  1
  Br  Br33  1  0.81474458  0.04691099  0.34063507  1
  Br  Br34  1  0.04691099  0.81474458  0.84063507  1
  Br  Br35  1  0.04691099  0.23216641  0.65936493  1
  Br  Br36  1  0.95308901  0.18525542  0.15936493  1
  Br  Br37  1  0.95308901  0.76783359  0.34063507  1
  Br  Br38  1  0.76783359  0.81474458  0.65936493  1
  Br  Br39  1  0.23216641  0.18525542  0.34063507  1
  Br  Br40  1  0.58418147  0.72295213  0.99888412  1
  Br  Br41  1  0.41581853  0.27704787  0.00111588  1
  Br  Br42  1  0.13877066  0.41581853  0.99888412  1
  Br  Br43  1  0.13877066  0.72295213  0.50111588  1
  Br  Br44  1  0.86122934  0.58418147  0.00111588  1
  Br  Br45  1  0.86122934  0.27704787  0.49888412  1
  Br  Br46  1  0.27704787  0.86122934  0.99888412  1
  Br  Br47  1  0.27704787  0.41581853  0.50111588  1
  Br  Br48  1  0.72295213  0.13877066  0.00111588  1
  Br  Br49  1  0.72295213  0.58418147  0.49888412  1
  Br  Br50  1  0.58418147  0.86122934  0.50111588  1
  Br  Br51  1  0.41581853  0.13877066  0.49888412  1
