# generated using pymatgen
data_CsY(WO4)2
_symmetry_space_group_name_H-M   'P 1'
_cell_length_a   7.70344689
_cell_length_b   7.70344689
_cell_length_c   7.57192589
_cell_angle_alpha   62.57575435
_cell_angle_beta   62.57575435
_cell_angle_gamma   88.57179208
_symmetry_Int_Tables_number   1
_chemical_formula_structural   CsY(WO4)2
_chemical_formula_sum   'Cs2 Y2 W4 O16'
_cell_volume   343.88387913
_cell_formula_units_Z   2
loop_
 _symmetry_equiv_pos_site_id
 _symmetry_equiv_pos_as_xyz
  1  'x, y, z'
loop_
 _atom_site_type_symbol
 _atom_site_label
 _atom_site_symmetry_multiplicity
 _atom_site_fract_x
 _atom_site_fract_y
 _atom_site_fract_z
 _atom_site_occupancy
  Cs  Cs0  1  0.80210496  0.19789504  0.75000000  1
  Cs  Cs1  1  0.19789504  0.80210496  0.25000000  1
  Y  Y2  1  0.22263152  0.77736848  0.75000000  1
  Y  Y3  1  0.77736848  0.22263152  0.25000000  1
  W  W4  1  0.30186907  0.31371262  0.71442755  1
  W  W5  1  0.69813093  0.68628738  0.28557245  1
  W  W6  1  0.68628738  0.69813093  0.78557245  1
  W  W7  1  0.31371262  0.30186907  0.21442755  1
  O  O8  1  0.37859988  0.25373478  0.93348912  1
  O  O9  1  0.62140012  0.74626522  0.06651088  1
  O  O10  1  0.74626522  0.62140012  0.56651088  1
  O  O11  1  0.25373478  0.37859988  0.43348912  1
  O  O12  1  0.63108399  0.93939386  0.62599815  1
  O  O13  1  0.36891601  0.06060614  0.37400185  1
  O  O14  1  0.06060614  0.36891601  0.87400185  1
  O  O15  1  0.93939386  0.63108399  0.12599815  1
  O  O16  1  0.40806658  0.62721488  0.53623309  1
  O  O17  1  0.59193342  0.37278512  0.46376691  1
  O  O18  1  0.37278512  0.59193342  0.96376691  1
  O  O19  1  0.62721488  0.40806658  0.03623309  1
  O  O20  1  0.22336563  0.05094223  0.79746984  1
  O  O21  1  0.77663437  0.94905777  0.20253016  1
  O  O22  1  0.94905777  0.77663437  0.70253016  1
  O  O23  1  0.05094223  0.22336563  0.29746984  1
