# generated using pymatgen
data_CsLaZr6CCl18
_symmetry_space_group_name_H-M   'P 1'
_cell_length_a   9.66630660
_cell_length_b   9.66630660
_cell_length_c   18.30880726
_cell_angle_alpha   90.00000000
_cell_angle_beta   90.00000000
_cell_angle_gamma   119.99999726
_symmetry_Int_Tables_number   1
_chemical_formula_structural   CsLaZr6CCl18
_chemical_formula_sum   'Cs2 La2 Zr12 C2 Cl36'
_cell_volume   1481.53470314
_cell_formula_units_Z   2
loop_
 _symmetry_equiv_pos_site_id
 _symmetry_equiv_pos_as_xyz
  1  'x, y, z'
loop_
 _atom_site_type_symbol
 _atom_site_label
 _atom_site_symmetry_multiplicity
 _atom_site_fract_x
 _atom_site_fract_y
 _atom_site_fract_z
 _atom_site_occupancy
  Cs  Cs0  1  0.33333300  0.66666700  0.75000000  1
  Cs  Cs1  1  0.66666700  0.33333300  0.25000000  1
  La  La2  1  0.66666700  0.33333300  0.75000000  1
  La  La3  1  0.33333300  0.66666700  0.25000000  1
  Zr  Zr4  1  0.96135900  0.17134860  0.92787039  1
  Zr  Zr5  1  0.03864100  0.82865140  0.07212961  1
  Zr  Zr6  1  0.20998960  0.03864100  0.92787039  1
  Zr  Zr7  1  0.20998960  0.17134860  0.57212961  1
  Zr  Zr8  1  0.79001040  0.96135900  0.07212961  1
  Zr  Zr9  1  0.79001040  0.82865140  0.42787039  1
  Zr  Zr10  1  0.82865140  0.79001040  0.92787039  1
  Zr  Zr11  1  0.82865140  0.03864100  0.57212961  1
  Zr  Zr12  1  0.17134860  0.20998960  0.07212961  1
  Zr  Zr13  1  0.17134860  0.96135900  0.42787039  1
  Zr  Zr14  1  0.96135900  0.79001040  0.57212961  1
  Zr  Zr15  1  0.03864100  0.20998960  0.42787039  1
  C  C16  1  -0.00000000  -0.00000000  0.00000000  1
  C  C17  1  -0.00000000  -0.00000000  0.50000000  1
  Cl  Cl18  1  0.57790982  0.72648512  0.99928663  1
  Cl  Cl19  1  0.42209018  0.27351488  0.00071337  1
  Cl  Cl20  1  0.14857530  0.42209018  0.99928663  1
  Cl  Cl21  1  0.14857530  0.72648512  0.50071337  1
  Cl  Cl22  1  0.85142470  0.57790982  0.00071337  1
  Cl  Cl23  1  0.85142470  0.27351488  0.49928663  1
  Cl  Cl24  1  0.27351488  0.85142470  0.99928663  1
  Cl  Cl25  1  0.27351488  0.42209018  0.50071337  1
  Cl  Cl26  1  0.72648512  0.14857530  0.00071337  1
  Cl  Cl27  1  0.72648512  0.57790982  0.49928663  1
  Cl  Cl28  1  0.57790982  0.85142470  0.50071337  1
  Cl  Cl29  1  0.42209018  0.14857530  0.49928663  1
  Cl  Cl30  1  0.76697432  0.95749395  0.83984433  1
  Cl  Cl31  1  0.23302568  0.04250605  0.16015567  1
  Cl  Cl32  1  0.19051962  0.23302568  0.83984433  1
  Cl  Cl33  1  0.19051962  0.95749395  0.66015567  1
  Cl  Cl34  1  0.80948038  0.76697432  0.16015567  1
  Cl  Cl35  1  0.80948038  0.04250605  0.33984433  1
  Cl  Cl36  1  0.04250605  0.80948038  0.83984433  1
  Cl  Cl37  1  0.04250605  0.23302568  0.66015567  1
  Cl  Cl38  1  0.95749395  0.19051962  0.16015567  1
  Cl  Cl39  1  0.95749395  0.76697432  0.33984433  1
  Cl  Cl40  1  0.76697432  0.80948038  0.66015567  1
  Cl  Cl41  1  0.23302568  0.19051962  0.33984433  1
  Cl  Cl42  1  0.92533276  0.37753245  0.83917849  1
  Cl  Cl43  1  0.07466724  0.62246755  0.16082151  1
  Cl  Cl44  1  0.45219968  0.07466724  0.83917849  1
  Cl  Cl45  1  0.45219968  0.37753245  0.66082151  1
  Cl  Cl46  1  0.54780032  0.92533276  0.16082151  1
  Cl  Cl47  1  0.54780032  0.62246755  0.33917849  1
  Cl  Cl48  1  0.62246755  0.54780032  0.83917849  1
  Cl  Cl49  1  0.62246755  0.07466724  0.66082151  1
  Cl  Cl50  1  0.37753245  0.45219968  0.16082151  1
  Cl  Cl51  1  0.37753245  0.92533276  0.33917849  1
  Cl  Cl52  1  0.92533276  0.54780032  0.66082151  1
  Cl  Cl53  1  0.07466724  0.45219968  0.33917849  1
