# generated using pymatgen
data_Cs2HoCl5
_symmetry_space_group_name_H-M   'P 1'
_cell_length_a   7.56196824
_cell_length_b   9.71945425
_cell_length_c   15.51526183
_cell_angle_alpha   90.00000000
_cell_angle_beta   90.00000000
_cell_angle_gamma   90.00000000
_symmetry_Int_Tables_number   1
_chemical_formula_structural   Cs2HoCl5
_chemical_formula_sum   'Cs8 Ho4 Cl20'
_cell_volume   1140.34388450
_cell_formula_units_Z   4
loop_
 _symmetry_equiv_pos_site_id
 _symmetry_equiv_pos_as_xyz
  1  'x, y, z'
loop_
 _atom_site_type_symbol
 _atom_site_label
 _atom_site_symmetry_multiplicity
 _atom_site_fract_x
 _atom_site_fract_y
 _atom_site_fract_z
 _atom_site_occupancy
  Cs  Cs0  1  0.75000000  0.83451770  0.58379161  1
  Cs  Cs1  1  0.25000000  0.16548230  0.41620839  1
  Cs  Cs2  1  0.25000000  0.66548230  0.08379161  1
  Cs  Cs3  1  0.75000000  0.33451770  0.91620839  1
  Cs  Cs4  1  0.75000000  0.52453445  0.28760218  1
  Cs  Cs5  1  0.25000000  0.47546555  0.71239782  1
  Cs  Cs6  1  0.25000000  0.97546555  0.78760218  1
  Cs  Cs7  1  0.75000000  0.02453445  0.21239782  1
  Ho  Ho8  1  0.75000000  0.82244758  0.93462091  1
  Ho  Ho9  1  0.25000000  0.17755242  0.06537909  1
  Ho  Ho10  1  0.25000000  0.67755242  0.43462091  1
  Ho  Ho11  1  0.75000000  0.32244758  0.56537909  1
  Cl  Cl12  1  0.75000000  0.98056360  0.79972349  1
  Cl  Cl13  1  0.25000000  0.01943640  0.20027651  1
  Cl  Cl14  1  0.25000000  0.51943640  0.29972349  1
  Cl  Cl15  1  0.75000000  0.48056360  0.70027651  1
  Cl  Cl16  1  0.49796000  0.66674975  0.88132195  1
  Cl  Cl17  1  0.50204000  0.33325025  0.11867805  1
  Cl  Cl18  1  0.50204000  0.83325025  0.38132195  1
  Cl  Cl19  1  0.99796000  0.33325025  0.11867805  1
  Cl  Cl20  1  0.49796000  0.16674975  0.61867805  1
  Cl  Cl21  1  0.00204000  0.66674975  0.88132195  1
  Cl  Cl22  1  0.00204000  0.16674975  0.61867805  1
  Cl  Cl23  1  0.99796000  0.83325025  0.38132195  1
  Cl  Cl24  1  0.75000000  0.71208294  0.09052888  1
  Cl  Cl25  1  0.25000000  0.28791706  0.90947112  1
  Cl  Cl26  1  0.25000000  0.78791706  0.59052888  1
  Cl  Cl27  1  0.75000000  0.21208294  0.40947112  1
  Cl  Cl28  1  -0.00000000  0.00000000  -0.00000000  1
  Cl  Cl29  1  0.00000000  0.50000000  0.50000000  1
  Cl  Cl30  1  0.50000000  0.00000000  -0.00000000  1
  Cl  Cl31  1  0.50000000  0.50000000  0.50000000  1
