# generated using pymatgen
data_CeBiRh
_symmetry_space_group_name_H-M   'P 1'
_cell_length_a   4.81933153
_cell_length_b   7.45581899
_cell_length_c   7.92519932
_cell_angle_alpha   90.00000000
_cell_angle_beta   90.00000000
_cell_angle_gamma   90.00000000
_symmetry_Int_Tables_number   1
_chemical_formula_structural   CeBiRh
_chemical_formula_sum   'Ce4 Bi4 Rh4'
_cell_volume   284.76876554
_cell_formula_units_Z   4
loop_
 _symmetry_equiv_pos_site_id
 _symmetry_equiv_pos_as_xyz
  1  'x, y, z'
loop_
 _atom_site_type_symbol
 _atom_site_label
 _atom_site_symmetry_multiplicity
 _atom_site_fract_x
 _atom_site_fract_y
 _atom_site_fract_z
 _atom_site_occupancy
  Ce  Ce0  1  0.75000000  0.98385920  0.30825592  1
  Ce  Ce1  1  0.25000000  0.01614080  0.69174408  1
  Ce  Ce2  1  0.25000000  0.51614080  0.80825592  1
  Ce  Ce3  1  0.75000000  0.48385920  0.19174408  1
  Bi  Bi4  1  0.75000000  0.82615639  0.90742797  1
  Bi  Bi5  1  0.25000000  0.17384361  0.09257203  1
  Bi  Bi6  1  0.25000000  0.67384361  0.40742797  1
  Bi  Bi7  1  0.75000000  0.32615639  0.59257203  1
  Rh  Rh8  1  0.75000000  0.73927033  0.56750303  1
  Rh  Rh9  1  0.25000000  0.26072967  0.43249697  1
  Rh  Rh10  1  0.25000000  0.76072967  0.06750303  1
  Rh  Rh11  1  0.75000000  0.23927033  0.93249697  1
