# generated using pymatgen
data_Na3Mn2BO6
_symmetry_space_group_name_H-M   'P 1'
_cell_length_a   2.94225426
_cell_length_b   5.56366480
_cell_length_c   9.33896245
_cell_angle_alpha   88.67058769
_cell_angle_beta   87.50337538
_cell_angle_gamma   75.33240113
_symmetry_Int_Tables_number   1
_chemical_formula_structural   Na3Mn2BO6
_chemical_formula_sum   'Na3 Mn2 B1 O6'
_cell_volume   147.74200340
_cell_formula_units_Z   1
loop_
 _symmetry_equiv_pos_site_id
 _symmetry_equiv_pos_as_xyz
  1  'x, y, z'
loop_
 _atom_site_type_symbol
 _atom_site_label
 _atom_site_symmetry_multiplicity
 _atom_site_fract_x
 _atom_site_fract_y
 _atom_site_fract_z
 _atom_site_occupancy
  Na  Na0  1  -0.00000000  0.50000000  0.50000000  1
  Na  Na1  1  0.47472804  0.45552552  0.81511390  1
  Na  Na2  1  0.52527196  0.54447448  0.18488610  1
  Mn  Mn3  1  0.74235952  0.03928836  0.34876356  1
  Mn  Mn4  1  0.25764048  0.96071164  0.65123644  1
  B  B5  1  -0.00000000  0.00000000  -0.00000000  1
  O  O6  1  0.14694889  0.25589897  0.28929747  1
  O  O7  1  0.65455037  0.18620371  0.59572170  1
  O  O8  1  0.07884304  0.18316349  0.92811510  1
  O  O9  1  0.85305111  0.74410103  0.71070253  1
  O  O10  1  0.92115696  0.81683651  0.07188490  1
  O  O11  1  0.34544963  0.81379629  0.40427830  1
