# generated using pymatgen
data_Cs2TmCl5
_symmetry_space_group_name_H-M   'P 1'
_cell_length_a   7.56253223
_cell_length_b   9.76255150
_cell_length_c   15.41979856
_cell_angle_alpha   90.00000000
_cell_angle_beta   90.00000000
_cell_angle_gamma   90.00000000
_symmetry_Int_Tables_number   1
_chemical_formula_structural   Cs2TmCl5
_chemical_formula_sum   'Cs8 Tm4 Cl20'
_cell_volume   1138.43771960
_cell_formula_units_Z   4
loop_
 _symmetry_equiv_pos_site_id
 _symmetry_equiv_pos_as_xyz
  1  'x, y, z'
loop_
 _atom_site_type_symbol
 _atom_site_label
 _atom_site_symmetry_multiplicity
 _atom_site_fract_x
 _atom_site_fract_y
 _atom_site_fract_z
 _atom_site_occupancy
  Cs  Cs0  1  0.75000000  0.83580155  0.58289191  1
  Cs  Cs1  1  0.25000000  0.16419845  0.41710809  1
  Cs  Cs2  1  0.25000000  0.66419845  0.08289191  1
  Cs  Cs3  1  0.75000000  0.33580155  0.91710809  1
  Cs  Cs4  1  0.75000000  0.52473838  0.28811664  1
  Cs  Cs5  1  0.25000000  0.47526162  0.71188336  1
  Cs  Cs6  1  0.25000000  0.97526162  0.78811664  1
  Cs  Cs7  1  0.75000000  0.02473838  0.21188336  1
  Tm  Tm8  1  0.75000000  0.82524335  0.93631153  1
  Tm  Tm9  1  0.25000000  0.17475665  0.06368847  1
  Tm  Tm10  1  0.25000000  0.67475665  0.43631153  1
  Tm  Tm11  1  0.75000000  0.32524335  0.56368847  1
  Cl  Cl12  1  0.75000000  0.97817066  0.80149363  1
  Cl  Cl13  1  0.25000000  0.02182934  0.19850637  1
  Cl  Cl14  1  0.25000000  0.52182934  0.30149363  1
  Cl  Cl15  1  0.75000000  0.47817066  0.69850637  1
  Cl  Cl16  1  0.50052726  0.67095101  0.88321947  1
  Cl  Cl17  1  0.49947274  0.32904899  0.11678053  1
  Cl  Cl18  1  0.49947274  0.82904899  0.38321947  1
  Cl  Cl19  1  0.00052726  0.32904899  0.11678053  1
  Cl  Cl20  1  0.50052726  0.17095101  0.61678053  1
  Cl  Cl21  1  -0.00052726  0.67095101  0.88321947  1
  Cl  Cl22  1  -0.00052726  0.17095101  0.61678053  1
  Cl  Cl23  1  0.00052726  0.82904899  0.38321947  1
  Cl  Cl24  1  0.75000000  0.71539169  0.09062980  1
  Cl  Cl25  1  0.25000000  0.28460831  0.90937020  1
  Cl  Cl26  1  0.25000000  0.78460831  0.59062980  1
  Cl  Cl27  1  0.75000000  0.21539169  0.40937020  1
  Cl  Cl28  1  -0.00000000  0.00000000  -0.00000000  1
  Cl  Cl29  1  -0.00000000  0.50000000  0.50000000  1
  Cl  Cl30  1  0.50000000  0.00000000  -0.00000000  1
  Cl  Cl31  1  0.50000000  0.50000000  0.50000000  1
