# generated using pymatgen
data_CeMg(NiH)4
_symmetry_space_group_name_H-M   'P 1'
_cell_length_a   5.00368584
_cell_length_b   5.43086702
_cell_length_c   7.31674504
_cell_angle_alpha   90.00000000
_cell_angle_beta   90.00000000
_cell_angle_gamma   90.00000000
_symmetry_Int_Tables_number   1
_chemical_formula_structural   CeMg(NiH)4
_chemical_formula_sum   'Ce2 Mg2 Ni8 H8'
_cell_volume   198.82780819
_cell_formula_units_Z   2
loop_
 _symmetry_equiv_pos_site_id
 _symmetry_equiv_pos_as_xyz
  1  'x, y, z'
loop_
 _atom_site_type_symbol
 _atom_site_label
 _atom_site_symmetry_multiplicity
 _atom_site_fract_x
 _atom_site_fract_y
 _atom_site_fract_z
 _atom_site_occupancy
  Ce  Ce0  1  0.00000000  0.69824270  0.48859541  1
  Ce  Ce1  1  0.50000000  0.30175730  0.98859541  1
  Mg  Mg2  1  0.00000000  0.18382935  0.71070634  1
  Mg  Mg3  1  0.50000000  0.81617065  0.21070634  1
  Ni  Ni4  1  -0.00000000  0.01094671  0.09107527  1
  Ni  Ni5  1  0.50000000  0.98905329  0.59107527  1
  Ni  Ni6  1  0.00000000  0.55046572  0.11266561  1
  Ni  Ni7  1  0.50000000  0.44953428  0.61266561  1
  Ni  Ni8  1  0.25396245  0.22857956  0.36564800  1
  Ni  Ni9  1  0.24603755  0.77142044  0.86564800  1
  Ni  Ni10  1  0.75396245  0.77142044  0.86564800  1
  Ni  Ni11  1  0.74603755  0.22857956  0.36564800  1
  H  H12  1  0.00000000  0.28081122  0.99592025  1
  H  H13  1  0.50000000  0.71918878  0.49592025  1
  H  H14  1  0.00000000  0.05412738  0.31299127  1
  H  H15  1  0.50000000  0.94587262  0.81299127  1
  H  H16  1  0.25706890  0.49085787  0.24342492  1
  H  H17  1  0.24293110  0.50914213  0.74342492  1
  H  H18  1  0.75706890  0.50914213  0.74342492  1
  H  H19  1  0.74293110  0.49085787  0.24342492  1
