# generated using pymatgen
data_Cs2La10Ru2I17
_symmetry_space_group_name_H-M   'P 1'
_cell_length_a   10.19531130
_cell_length_b   11.90877209
_cell_length_c   11.90877209
_cell_angle_alpha   107.67629253
_cell_angle_beta   93.11627757
_cell_angle_gamma   93.11627757
_symmetry_Int_Tables_number   1
_chemical_formula_structural   Cs2La10Ru2I17
_chemical_formula_sum   'Cs2 La10 Ru2 I17'
_cell_volume   1371.76402199
_cell_formula_units_Z   1
loop_
 _symmetry_equiv_pos_site_id
 _symmetry_equiv_pos_as_xyz
  1  'x, y, z'
loop_
 _atom_site_type_symbol
 _atom_site_label
 _atom_site_symmetry_multiplicity
 _atom_site_fract_x
 _atom_site_fract_y
 _atom_site_fract_z
 _atom_site_occupancy
  Cs  Cs0  1  -0.00000000  0.67447994  0.32552006  1
  Cs  Cs1  1  -0.00000000  0.32552006  0.67447994  1
  La  La2  1  0.57193889  0.70759226  0.00717934  1
  La  La3  1  0.42806111  0.29240774  0.99282066  1
  La  La4  1  0.42806111  0.99282066  0.29240774  1
  La  La5  1  0.57193889  0.00717934  0.70759226  1
  La  La6  1  0.44237494  0.66934763  0.66934763  1
  La  La7  1  0.55762506  0.33065237  0.33065237  1
  La  La8  1  0.32129571  0.93611999  0.93611999  1
  La  La9  1  0.67870429  0.06388001  0.06388001  1
  La  La10  1  0.81587306  0.79350531  0.79350531  1
  La  La11  1  0.18412694  0.20649469  0.20649469  1
  Ru  Ru12  1  0.57096244  0.85695095  0.85695095  1
  Ru  Ru13  1  0.42903756  0.14304905  0.14304905  1
  I  I14  1  0.86077239  0.61591915  0.95018401  1
  I  I15  1  0.13922761  0.38408085  0.04981599  1
  I  I16  1  0.13922761  0.04981599  0.38408085  1
  I  I17  1  0.86077239  0.95018401  0.61591915  1
  I  I18  1  0.57986235  0.52778466  0.18918271  1
  I  I19  1  0.42013765  0.47221534  0.81081729  1
  I  I20  1  0.42013765  0.81081729  0.47221534  1
  I  I21  1  0.57986235  0.18918271  0.52778466  1
  I  I22  1  0.71522606  0.56226314  0.56226314  1
  I  I23  1  0.28477394  0.43773686  0.43773686  1
  I  I24  1  0.72498879  0.24708459  0.89944300  1
  I  I25  1  0.27501121  0.75291541  0.10055700  1
  I  I26  1  0.27501121  0.10055700  0.75291541  1
  I  I27  1  0.72498879  0.89944300  0.24708459  1
  I  I28  1  0.86885027  0.28889504  0.28889504  1
  I  I29  1  0.13114973  0.71110496  0.71110496  1
  I  I30  1  -0.00000000  -0.00000000  0.00000000  1
