# generated using pymatgen
data_Cs3LaBr6
_symmetry_space_group_name_H-M   'P 1'
_cell_length_a   8.89269419
_cell_length_b   14.97965902
_cell_length_c   14.26947817
_cell_angle_alpha   107.87996338
_cell_angle_beta   90.00000000
_cell_angle_gamma   90.00000000
_symmetry_Int_Tables_number   1
_chemical_formula_structural   Cs3LaBr6
_chemical_formula_sum   'Cs12 La4 Br24'
_cell_volume   1809.02380240
_cell_formula_units_Z   4
loop_
 _symmetry_equiv_pos_site_id
 _symmetry_equiv_pos_as_xyz
  1  'x, y, z'
loop_
 _atom_site_type_symbol
 _atom_site_label
 _atom_site_symmetry_multiplicity
 _atom_site_fract_x
 _atom_site_fract_y
 _atom_site_fract_z
 _atom_site_occupancy
  Cs  Cs0  1  0.43472691  0.68464249  0.73436189  1
  Cs  Cs1  1  0.56527309  0.31535751  0.26563811  1
  Cs  Cs2  1  0.93472691  0.31535751  0.76563811  1
  Cs  Cs3  1  0.06527309  0.68464249  0.23436189  1
  Cs  Cs4  1  0.96542483  0.90207759  0.64110629  1
  Cs  Cs5  1  0.03457517  0.09792241  0.35889371  1
  Cs  Cs6  1  0.46542483  0.09792241  0.85889371  1
  Cs  Cs7  1  0.53457517  0.90207759  0.14110629  1
  Cs  Cs8  1  0.93290477  0.67922361  0.88723716  1
  Cs  Cs9  1  0.06709523  0.32077639  0.11276284  1
  Cs  Cs10  1  0.43290477  0.32077639  0.61276284  1
  Cs  Cs11  1  0.56709523  0.67922361  0.38723716  1
  La  La12  1  -0.00000000  0.50000000  0.50000000  1
  La  La13  1  0.50000000  0.50000000  0.00000000  1
  La  La14  1  -0.00000000  0.00000000  0.00000000  1
  La  La15  1  0.50000000  0.00000000  0.50000000  1
  Br  Br16  1  0.49926407  0.88078292  0.62788980  1
  Br  Br17  1  0.50073593  0.11921708  0.37211020  1
  Br  Br18  1  0.99926407  0.11921708  0.87211020  1
  Br  Br19  1  0.00073593  0.88078292  0.12788980  1
  Br  Br20  1  0.29602649  0.65304346  0.99454185  1
  Br  Br21  1  0.70397351  0.34695654  0.00545815  1
  Br  Br22  1  0.79602649  0.34695654  0.50545815  1
  Br  Br23  1  0.20397351  0.65304346  0.49454185  1
  Br  Br24  1  0.78958985  0.65020112  0.60520147  1
  Br  Br25  1  0.21041015  0.34979888  0.39479853  1
  Br  Br26  1  0.28958985  0.34979888  0.89479853  1
  Br  Br27  1  0.71041015  0.65020112  0.10520147  1
  Br  Br28  1  0.63930439  0.49994962  0.81089198  1
  Br  Br29  1  0.36069561  0.50005038  0.18910802  1
  Br  Br30  1  0.13930439  0.50005038  0.68910802  1
  Br  Br31  1  0.86069561  0.49994962  0.31089198  1
  Br  Br32  1  0.18190401  0.86658340  0.84959126  1
  Br  Br33  1  0.81809599  0.13341660  0.15040874  1
  Br  Br34  1  0.68190401  0.13341660  0.65040874  1
  Br  Br35  1  0.31809599  0.86658340  0.34959126  1
  Br  Br36  1  0.72304545  0.90076144  0.90319734  1
  Br  Br37  1  0.27695455  0.09923856  0.09680266  1
  Br  Br38  1  0.22304545  0.09923856  0.59680266  1
  Br  Br39  1  0.77695455  0.90076144  0.40319734  1
