# generated using pymatgen
data_Ce2(CN2)3
_symmetry_space_group_name_H-M   'P 1'
_cell_length_a   4.02614227
_cell_length_b   5.35770525
_cell_length_c   7.79291391
_cell_angle_alpha   96.60323450
_cell_angle_beta   104.97044289
_cell_angle_gamma   90.00000000
_symmetry_Int_Tables_number   1
_chemical_formula_structural   Ce2(CN2)3
_chemical_formula_sum   'Ce2 C3 N6'
_cell_volume   161.24000834
_cell_formula_units_Z   1
loop_
 _symmetry_equiv_pos_site_id
 _symmetry_equiv_pos_as_xyz
  1  'x, y, z'
loop_
 _atom_site_type_symbol
 _atom_site_label
 _atom_site_symmetry_multiplicity
 _atom_site_fract_x
 _atom_site_fract_y
 _atom_site_fract_z
 _atom_site_occupancy
  Ce  Ce0  1  0.13479370  0.57241612  0.26958740  1
  Ce  Ce1  1  0.86520630  0.42758388  0.73041260  1
  C  C2  1  0.67253666  0.09373116  0.34507332  1
  C  C3  1  0.32746334  0.90626884  0.65492668  1
  C  C4  1  0.00000000  0.00000000  0.00000000  1
  N  N5  1  0.31070285  0.67218927  0.62140570  1
  N  N6  1  0.68929715  0.32781073  0.37859430  1
  N  N7  1  0.34183113  0.13569664  0.68366227  1
  N  N8  1  0.65816887  0.86430336  0.31633773  1
  N  N9  1  0.01109531  0.23214339  0.02219062  1
  N  N10  1  0.98890469  0.76785661  0.97780938  1
