# generated using pymatgen
data_Cs3Nb6SBr17
_symmetry_space_group_name_H-M   'P 1'
_cell_length_a   9.71889930
_cell_length_b   13.21319777
_cell_length_c   13.21319777
_cell_angle_alpha   95.88831782
_cell_angle_beta   90.23742642
_cell_angle_gamma   90.23742642
_symmetry_Int_Tables_number   1
_chemical_formula_structural   Cs3Nb6SBr17
_chemical_formula_sum   'Cs6 Nb12 S2 Br34'
_cell_volume   1687.82390136
_cell_formula_units_Z   2
loop_
 _symmetry_equiv_pos_site_id
 _symmetry_equiv_pos_as_xyz
  1  'x, y, z'
loop_
 _atom_site_type_symbol
 _atom_site_label
 _atom_site_symmetry_multiplicity
 _atom_site_fract_x
 _atom_site_fract_y
 _atom_site_fract_z
 _atom_site_occupancy
  Cs  Cs0  1  0.66259238  0.27447478  0.16928416  1
  Cs  Cs1  1  0.33740762  0.72552522  0.83071584  1
  Cs  Cs2  1  0.83740762  0.83071584  0.72552522  1
  Cs  Cs3  1  0.16259238  0.16928416  0.27447478  1
  Cs  Cs4  1  0.75000000  0.45258065  0.54741935  1
  Cs  Cs5  1  0.25000000  0.54741935  0.45258065  1
  Nb  Nb6  1  0.97788703  0.80276213  0.16449893  1
  Nb  Nb7  1  0.02211297  0.19723787  0.83550107  1
  Nb  Nb8  1  0.52211297  0.83550107  0.19723787  1
  Nb  Nb9  1  0.47788703  0.16449893  0.80276213  1
  Nb  Nb10  1  0.85707378  0.61711571  0.23916027  1
  Nb  Nb11  1  0.14292622  0.38288429  0.76083973  1
  Nb  Nb12  1  0.64292622  0.76083973  0.38288429  1
  Nb  Nb13  1  0.35707378  0.23916027  0.61711571  1
  Nb  Nb14  1  0.74114925  0.69568017  0.05254546  1
  Nb  Nb15  1  0.25885075  0.30431983  0.94745454  1
  Nb  Nb16  1  0.75885075  0.94745454  0.30431983  1
  Nb  Nb17  1  0.24114925  0.05254546  0.69568017  1
  S  S18  1  0.75000000  0.77687677  0.22312323  1
  S  S19  1  0.25000000  0.22312323  0.77687677  1
  Br  Br20  1  0.61428455  0.87043691  0.01054925  1
  Br  Br21  1  0.38571545  0.12956309  0.98945075  1
  Br  Br22  1  0.88571545  0.98945075  0.12956309  1
  Br  Br23  1  0.11428455  0.01054925  0.87043691  1
  Br  Br24  1  0.88292519  0.35922575  0.80010860  1
  Br  Br25  1  0.11707481  0.64077425  0.19989140  1
  Br  Br26  1  0.61707481  0.19989140  0.64077425  1
  Br  Br27  1  0.38292519  0.80010860  0.35922575  1
  Br  Br28  1  0.47958855  0.64966959  0.09931017  1
  Br  Br29  1  0.52041145  0.35033041  0.90068983  1
  Br  Br30  1  0.02041145  0.90068983  0.35033041  1
  Br  Br31  1  0.97958855  0.09931017  0.64966959  1
  Br  Br32  1  0.60837598  0.56150685  0.30985998  1
  Br  Br33  1  0.39162402  0.43849315  0.69014002  1
  Br  Br34  1  0.89162402  0.69014002  0.43849315  1
  Br  Br35  1  0.10837598  0.30985998  0.56150685  1
  Br  Br36  1  0.94181756  0.43463721  0.30652374  1
  Br  Br37  1  0.05818244  0.56536279  0.69347626  1
  Br  Br38  1  0.55818244  0.69347626  0.56536279  1
  Br  Br39  1  0.44181756  0.30652374  0.43463721  1
  Br  Br40  1  0.75000000  0.11973592  0.88026408  1
  Br  Br41  1  0.25000000  0.88026408  0.11973592  1
  Br  Br42  1  0.81923242  0.50795993  0.06455762  1
  Br  Br43  1  0.18076758  0.49204007  0.93544238  1
  Br  Br44  1  0.68076758  0.93544238  0.49204007  1
  Br  Br45  1  0.31923242  0.06455762  0.50795993  1
  Br  Br46  1  0.67441089  0.62753347  0.85662549  1
  Br  Br47  1  0.32558911  0.37246653  0.14337451  1
  Br  Br48  1  0.82558911  0.14337451  0.37246653  1
  Br  Br49  1  0.17441089  0.85662549  0.62753347  1
  Br  Br50  1  0.97700314  0.74207546  0.96932623  1
  Br  Br51  1  0.02299686  0.25792454  0.03067377  1
  Br  Br52  1  0.52299686  0.03067377  0.25792454  1
  Br  Br53  1  0.47700314  0.96932623  0.74207546  1
