# generated using pymatgen
data_BaFeP(O2F)2
_symmetry_space_group_name_H-M   'P 1'
_cell_length_a   5.28907851
_cell_length_b   7.28391592
_cell_length_c   12.97759156
_cell_angle_alpha   90.00000000
_cell_angle_beta   90.00000000
_cell_angle_gamma   102.04880265
_symmetry_Int_Tables_number   1
_chemical_formula_structural   BaFeP(O2F)2
_chemical_formula_sum   'Ba4 Fe4 P4 O16 F8'
_cell_volume   488.95021361
_cell_formula_units_Z   4
loop_
 _symmetry_equiv_pos_site_id
 _symmetry_equiv_pos_as_xyz
  1  'x, y, z'
loop_
 _atom_site_type_symbol
 _atom_site_label
 _atom_site_symmetry_multiplicity
 _atom_site_fract_x
 _atom_site_fract_y
 _atom_site_fract_z
 _atom_site_occupancy
  Ba  Ba0  1  0.46363179  0.81427273  0.29901476  1
  Ba  Ba1  1  0.53636821  0.18572727  0.70098524  1
  Ba  Ba2  1  0.03636821  0.68572727  0.79901476  1
  Ba  Ba3  1  0.96363179  0.31427273  0.20098524  1
  Fe  Fe4  1  0.50000000  -0.00000000  -0.00000000  1
  Fe  Fe5  1  -0.00000000  0.50000000  0.50000000  1
  Fe  Fe6  1  0.50000000  0.50000000  0.00000000  1
  Fe  Fe7  1  -0.00000000  -0.00000000  0.50000000  1
  P  P8  1  0.93183092  0.80456110  0.11421915  1
  P  P9  1  0.06816908  0.19543890  0.88578085  1
  P  P10  1  0.56816908  0.69543890  0.61421915  1
  P  P11  1  0.43183092  0.30456110  0.38578085  1
  O  O12  1  0.20092056  0.93202093  0.09316442  1
  O  O13  1  0.79907944  0.06797907  0.90683558  1
  O  O14  1  0.29907944  0.56797907  0.59316442  1
  O  O15  1  0.70092056  0.43202093  0.40683558  1
  O  O16  1  0.76972294  0.56276707  0.61626247  1
  O  O17  1  0.23027706  0.43723293  0.38373753  1
  O  O18  1  0.73027706  0.93723293  0.11626247  1
  O  O19  1  0.26972294  0.06276707  0.88373753  1
  O  O20  1  0.85442729  0.65464071  0.02770896  1
  O  O21  1  0.14557271  0.34535929  0.97229104  1
  O  O22  1  0.64557271  0.84535929  0.52770896  1
  O  O23  1  0.35442729  0.15464071  0.47229104  1
  O  O24  1  0.93336872  0.71188740  0.21996335  1
  O  O25  1  0.06663128  0.28811260  0.78003665  1
  O  O26  1  0.56663128  0.78811260  0.71996335  1
  O  O27  1  0.43336872  0.21188740  0.28003665  1
  F  F28  1  0.11410128  0.94647372  0.63792424  1
  F  F29  1  0.88589872  0.05352628  0.36207576  1
  F  F30  1  0.38589872  0.55352628  0.13792424  1
  F  F31  1  0.61410128  0.44647372  0.86207576  1
  F  F32  1  0.08113680  0.76361908  0.44294777  1
  F  F33  1  0.91886320  0.23638092  0.55705223  1
  F  F34  1  0.41886320  0.73638092  0.94294777  1
  F  F35  1  0.58113680  0.26361908  0.05705223  1
