# generated using pymatgen
data_Na3BP4PbO16
_symmetry_space_group_name_H-M   'P 1'
_cell_length_a   7.01885167
_cell_length_b   7.01202556
_cell_length_c   14.75577124
_cell_angle_alpha   76.56825227
_cell_angle_beta   76.40114303
_cell_angle_gamma   89.93279205
_symmetry_Int_Tables_number   1
_chemical_formula_structural   Na3BP4PbO16
_chemical_formula_sum   'Na6 B2 P8 Pb2 O32'
_cell_volume   685.46099275
_cell_formula_units_Z   2
loop_
 _symmetry_equiv_pos_site_id
 _symmetry_equiv_pos_as_xyz
  1  'x, y, z'
loop_
 _atom_site_type_symbol
 _atom_site_label
 _atom_site_symmetry_multiplicity
 _atom_site_fract_x
 _atom_site_fract_y
 _atom_site_fract_z
 _atom_site_occupancy
  Na  Na0  1  0.69525693  0.02813287  0.13742768  1
  Na  Na1  1  0.02851292  0.16705703  0.63974892  1
  Na  Na2  1  0.83464443  0.67890515  0.86485457  1
  Na  Na3  1  0.29414687  0.96501686  0.86548893  1
  Na  Na4  1  0.67289893  0.29589230  0.36479216  1
  Na  Na5  1  0.95920702  0.83591338  0.36655719  1
  B  B6  1  0.37680723  0.62468174  0.25129381  1
  B  B7  1  0.62751993  0.37224090  0.75138979  1
  P  P8  1  0.48495124  0.80162343  0.37776288  1
  P  P9  1  0.13980444  0.32414394  0.37758180  1
  P  P10  1  0.79896203  0.13576158  0.87915000  1
  P  P11  1  0.32415413  0.48424613  0.87727837  1
  P  P12  1  0.52005038  0.19793541  0.61999343  1
  P  P13  1  0.86304796  0.67700305  0.62251590  1
  P  P14  1  0.20072770  0.86285008  0.12209340  1
  P  P15  1  0.68136931  0.51907536  0.12066062  1
  Pb  Pb16  1  0.16220330  0.31992365  0.13554549  1
  Pb  Pb17  1  0.32117998  0.70257743  0.63446040  1
  O  O18  1  0.19147629  0.34862623  0.96714754  1
  O  O19  1  0.82241693  0.17426099  0.97387755  1
  O  O20  1  0.34542834  0.84067520  0.46797861  1
  O  O21  1  0.17146718  0.20401770  0.47284672  1
  O  O22  1  0.80731695  0.65126977  0.02902102  1
  O  O23  1  0.16983585  0.81108907  0.03096288  1
  O  O24  1  0.65173781  0.16318346  0.52788912  1
  O  O25  1  0.81015681  0.79887197  0.53200090  1
  O  O26  1  0.34695040  0.76825746  0.31088097  1
  O  O27  1  0.34630996  0.41949583  0.31011321  1
  O  O28  1  0.77008532  0.34239917  0.81115793  1
  O  O29  1  0.42185432  0.34599327  0.80975417  1
  O  O30  1  0.65317931  0.23023570  0.68953755  1
  O  O31  1  0.65915031  0.57867579  0.69287576  1
  O  O32  1  0.22794298  0.65774900  0.19258555  1
  O  O33  1  0.57867875  0.65239420  0.18979418  1
  O  O34  1  0.99859813  0.48321574  0.39999075  1
  O  O35  1  0.60796970  0.62295773  0.40000936  1
  O  O36  1  0.47785004  0.60471898  0.90193464  1
  O  O37  1  0.61658873  0.99752703  0.89866511  1
  O  O38  1  0.00467997  0.51769617  0.60116353  1
  O  O39  1  0.40034136  0.37968887  0.59553250  1
  O  O40  1  0.52478321  0.40046263  0.09513512  1
  O  O41  1  0.38020491  0.00437296  0.10175331  1
  O  O42  1  0.05680611  0.19655333  0.32175132  1
  O  O43  1  0.63165690  0.97561867  0.32294206  1
  O  O44  1  0.20192484  0.62909520  0.82093153  1
  O  O45  1  0.97959364  0.04915172  0.82643816  1
  O  O46  1  0.95722086  0.80657439  0.67358826  1
  O  O47  1  0.37522116  0.01852416  0.67440717  1
  O  O48  1  0.80648516  0.37599453  0.17620649  1
  O  O49  1  0.02064306  0.95767275  0.17253171  1
