# generated using pymatgen
data_Ba5Er8Ni4O21
_symmetry_space_group_name_H-M   'P 1'
_cell_length_a   5.69854745
_cell_length_b   10.11131003
_cell_length_c   10.11131003
_cell_angle_alpha   85.44557323
_cell_angle_beta   73.63288537
_cell_angle_gamma   73.63288537
_symmetry_Int_Tables_number   1
_chemical_formula_structural   Ba5Er8Ni4O21
_chemical_formula_sum   'Ba5 Er8 Ni4 O21'
_cell_volume   536.34858042
_cell_formula_units_Z   1
loop_
 _symmetry_equiv_pos_site_id
 _symmetry_equiv_pos_as_xyz
  1  'x, y, z'
loop_
 _atom_site_type_symbol
 _atom_site_label
 _atom_site_symmetry_multiplicity
 _atom_site_fract_x
 _atom_site_fract_y
 _atom_site_fract_z
 _atom_site_occupancy
  Ba  Ba0  1  0.13838487  0.32407254  0.39915773  1
  Ba  Ba1  1  0.86161513  0.67592746  0.60084227  1
  Ba  Ba2  1  0.53754260  0.60084227  0.32407254  1
  Ba  Ba3  1  0.46245740  0.39915773  0.67592746  1
  Ba  Ba4  1  0.00000000  -0.00000000  0.00000000  1
  Er  Er5  1  0.25004668  0.91695932  0.58294732  1
  Er  Er6  1  0.74995332  0.08304068  0.41705268  1
  Er  Er7  1  0.83299400  0.41705268  0.91695932  1
  Er  Er8  1  0.16700600  0.58294732  0.08304068  1
  Er  Er9  1  0.41153177  0.94550442  0.23143205  1
  Er  Er10  1  0.58846823  0.05449558  0.76856795  1
  Er  Er11  1  0.64296382  0.76856795  0.94550442  1
  Er  Er12  1  0.35703618  0.23143205  0.05449558  1
  Ni  Ni13  1  0.04084192  0.20463491  0.71368125  1
  Ni  Ni14  1  0.95915808  0.79536509  0.28631875  1
  Ni  Ni15  1  0.75452317  0.28631875  0.20463491  1
  Ni  Ni16  1  0.24547683  0.71368125  0.79536509  1
  O  O17  1  0.39385785  0.11052500  0.59411788  1
  O  O18  1  0.60614215  0.88947500  0.40588212  1
  O  O19  1  0.09850073  0.88947500  0.40588212  1
  O  O20  1  0.98797573  0.40588212  0.11052500  1
  O  O21  1  0.90149927  0.11052500  0.59411788  1
  O  O22  1  0.01202427  0.59411788  0.88947500  1
  O  O23  1  0.50438285  0.59411788  0.88947500  1
  O  O24  1  0.49561715  0.40588212  0.11052500  1
  O  O25  1  0.50000000  -0.00000000  0.00000000  1
  O  O26  1  0.36911006  0.66895192  0.59282795  1
  O  O27  1  0.63088994  0.33104808  0.40717205  1
  O  O28  1  0.96193802  0.40717205  0.66895192  1
  O  O29  1  0.03806198  0.59282795  0.33104808  1
  O  O30  1  0.42858147  0.86939986  0.77382804  1
  O  O31  1  0.57141853  0.13060014  0.22617196  1
  O  O32  1  0.07180937  0.13060014  0.22617196  1
  O  O33  1  0.20240951  0.22617196  0.86939986  1
  O  O34  1  0.92819063  0.86939986  0.77382804  1
  O  O35  1  0.79759049  0.77382804  0.13060014  1
  O  O36  1  0.29798133  0.77382804  0.13060014  1
  O  O37  1  0.70201867  0.22617196  0.86939986  1
