# generated using pymatgen
data_Ca3Ge3(RhO6)2
_symmetry_space_group_name_H-M   'P 1'
_cell_length_a   10.83974882
_cell_length_b   10.83974882
_cell_length_c   10.83974882
_cell_angle_alpha   109.47122063
_cell_angle_beta   109.47122063
_cell_angle_gamma   109.47122063
_symmetry_Int_Tables_number   1
_chemical_formula_structural   Ca3Ge3(RhO6)2
_chemical_formula_sum   'Ca12 Ge12 Rh8 O48'
_cell_volume   980.47328698
_cell_formula_units_Z   4
loop_
 _symmetry_equiv_pos_site_id
 _symmetry_equiv_pos_as_xyz
  1  'x, y, z'
loop_
 _atom_site_type_symbol
 _atom_site_label
 _atom_site_symmetry_multiplicity
 _atom_site_fract_x
 _atom_site_fract_y
 _atom_site_fract_z
 _atom_site_occupancy
  Ca  Ca0  1  0.87500000  0.62500000  0.75000000  1
  Ca  Ca1  1  0.12500000  0.37500000  0.25000000  1
  Ca  Ca2  1  0.62500000  0.87500000  0.25000000  1
  Ca  Ca3  1  0.62500000  0.75000000  0.87500000  1
  Ca  Ca4  1  0.87500000  0.25000000  0.62500000  1
  Ca  Ca5  1  0.37500000  0.12500000  0.75000000  1
  Ca  Ca6  1  0.37500000  0.25000000  0.12500000  1
  Ca  Ca7  1  0.12500000  0.75000000  0.37500000  1
  Ca  Ca8  1  0.75000000  0.87500000  0.62500000  1
  Ca  Ca9  1  0.25000000  0.12500000  0.37500000  1
  Ca  Ca10  1  0.25000000  0.62500000  0.87500000  1
  Ca  Ca11  1  0.75000000  0.37500000  0.12500000  1
  Ge  Ge12  1  0.62500000  0.37500000  0.75000000  1
  Ge  Ge13  1  0.37500000  0.62500000  0.25000000  1
  Ge  Ge14  1  0.87500000  0.12500000  0.25000000  1
  Ge  Ge15  1  0.37500000  0.75000000  0.62500000  1
  Ge  Ge16  1  0.62500000  0.25000000  0.37500000  1
  Ge  Ge17  1  0.12500000  0.87500000  0.75000000  1
  Ge  Ge18  1  0.12500000  0.25000000  0.87500000  1
  Ge  Ge19  1  0.87500000  0.75000000  0.12500000  1
  Ge  Ge20  1  0.75000000  0.62500000  0.37500000  1
  Ge  Ge21  1  0.25000000  0.37500000  0.62500000  1
  Ge  Ge22  1  0.25000000  0.87500000  0.12500000  1
  Ge  Ge23  1  0.75000000  0.12500000  0.87500000  1
  Rh  Rh24  1  -0.00000000  -0.00000000  0.00000000  1
  Rh  Rh25  1  0.50000000  0.00000000  0.50000000  1
  Rh  Rh26  1  0.50000000  0.50000000  0.00000000  1
  Rh  Rh27  1  -0.00000000  -0.00000000  0.50000000  1
  Rh  Rh28  1  -0.00000000  0.50000000  0.50000000  1
  Rh  Rh29  1  0.50000000  0.50000000  0.50000000  1
  Rh  Rh30  1  0.50000000  0.00000000  0.00000000  1
  Rh  Rh31  1  -0.00000000  0.50000000  0.00000000  1
  O  O32  1  0.70668497  0.62064673  0.51973229  1
  O  O33  1  0.29331503  0.37935327  0.48026771  1
  O  O34  1  0.79331503  0.81304731  0.41396176  1
  O  O35  1  0.39908555  0.87935327  0.08603824  1
  O  O36  1  0.62064673  0.51973229  0.70668497  1
  O  O37  1  0.70668497  0.08603824  0.68695269  1
  O  O38  1  0.20668497  0.18695269  0.58603824  1
  O  O39  1  0.60091445  0.12064673  0.91396176  1
  O  O40  1  0.37935327  0.48026771  0.29331503  1
  O  O41  1  0.29331503  0.91396176  0.31304731  1
  O  O42  1  0.10091445  0.68695269  0.98026771  1
  O  O43  1  0.81304731  0.41396176  0.79331503  1
  O  O44  1  0.79331503  0.98026771  0.87935327  1
  O  O45  1  0.89908555  0.31304731  0.01973229  1
  O  O46  1  0.18695269  0.58603824  0.20668497  1
  O  O47  1  0.20668497  0.01973229  0.12064673  1
  O  O48  1  0.87935327  0.08603824  0.39908555  1
  O  O49  1  0.39908555  0.51973229  0.81304731  1
  O  O50  1  0.12064673  0.91396176  0.60091445  1
  O  O51  1  0.60091445  0.48026771  0.18695269  1
  O  O52  1  0.68695269  0.98026771  0.10091445  1
  O  O53  1  0.10091445  0.41396176  0.62064673  1
  O  O54  1  0.31304731  0.01973229  0.89908555  1
  O  O55  1  0.89908555  0.58603824  0.37935327  1
  O  O56  1  0.51973229  0.70668497  0.62064673  1
  O  O57  1  0.62064673  0.10091445  0.41396176  1
  O  O58  1  0.48026771  0.29331503  0.37935327  1
  O  O59  1  0.37935327  0.89908555  0.58603824  1
  O  O60  1  0.08603824  0.39908555  0.87935327  1
  O  O61  1  0.87935327  0.79331503  0.98026771  1
  O  O62  1  0.91396176  0.60091445  0.12064673  1
  O  O63  1  0.12064673  0.20668497  0.01973229  1
  O  O64  1  0.98026771  0.10091445  0.68695269  1
  O  O65  1  0.68695269  0.70668497  0.08603824  1
  O  O66  1  0.01973229  0.89908555  0.31304731  1
  O  O67  1  0.31304731  0.29331503  0.91396176  1
  O  O68  1  0.41396176  0.79331503  0.81304731  1
  O  O69  1  0.81304731  0.39908555  0.51973229  1
  O  O70  1  0.58603824  0.20668497  0.18695269  1
  O  O71  1  0.18695269  0.60091445  0.48026771  1
  O  O72  1  0.08603824  0.68695269  0.70668497  1
  O  O73  1  0.91396176  0.31304731  0.29331503  1
  O  O74  1  0.98026771  0.87935327  0.79331503  1
  O  O75  1  0.01973229  0.12064673  0.20668497  1
  O  O76  1  0.41396176  0.62064673  0.10091445  1
  O  O77  1  0.58603824  0.37935327  0.89908555  1
  O  O78  1  0.51973229  0.81304731  0.39908555  1
  O  O79  1  0.48026771  0.18695269  0.60091445  1
