# generated using pymatgen
data_Cs2CoBr4
_symmetry_space_group_name_H-M   'P 1'
_cell_length_a   7.90619120
_cell_length_b   10.59352904
_cell_length_c   13.87740660
_cell_angle_alpha   90.00000000
_cell_angle_beta   90.00000000
_cell_angle_gamma   90.00000000
_symmetry_Int_Tables_number   1
_chemical_formula_structural   Cs2CoBr4
_chemical_formula_sum   'Cs8 Co4 Br16'
_cell_volume   1162.29478026
_cell_formula_units_Z   4
loop_
 _symmetry_equiv_pos_site_id
 _symmetry_equiv_pos_as_xyz
  1  'x, y, z'
loop_
 _atom_site_type_symbol
 _atom_site_label
 _atom_site_symmetry_multiplicity
 _atom_site_fract_x
 _atom_site_fract_y
 _atom_site_fract_z
 _atom_site_occupancy
  Cs  Cs0  1  0.75000000  0.51417860  0.31807159  1
  Cs  Cs1  1  0.25000000  0.48582140  0.68192841  1
  Cs  Cs2  1  0.25000000  0.98582140  0.81807159  1
  Cs  Cs3  1  0.75000000  0.01417860  0.18192841  1
  Cs  Cs4  1  0.75000000  0.84007973  0.58742948  1
  Cs  Cs5  1  0.25000000  0.15992027  0.41257052  1
  Cs  Cs6  1  0.25000000  0.65992027  0.08742948  1
  Cs  Cs7  1  0.75000000  0.34007973  0.91257052  1
  Co  Co8  1  0.75000000  0.76768639  0.92220185  1
  Co  Co9  1  0.25000000  0.23231361  0.07779815  1
  Co  Co10  1  0.25000000  0.73231361  0.42220185  1
  Co  Co11  1  0.75000000  0.26768639  0.57779815  1
  Br  Br12  1  0.99785596  0.68890676  0.84277289  1
  Br  Br13  1  0.00214404  0.31109324  0.15722711  1
  Br  Br14  1  0.00214404  0.81109324  0.34277289  1
  Br  Br15  1  0.49785596  0.31109324  0.15722711  1
  Br  Br16  1  0.99785596  0.18890676  0.65722711  1
  Br  Br17  1  0.50214404  0.68890676  0.84277289  1
  Br  Br18  1  0.50214404  0.18890676  0.65722711  1
  Br  Br19  1  0.49785596  0.81109324  0.34277289  1
  Br  Br20  1  0.75000000  0.99425169  0.91443206  1
  Br  Br21  1  0.25000000  0.00574831  0.08556794  1
  Br  Br22  1  0.25000000  0.50574831  0.41443206  1
  Br  Br23  1  0.75000000  0.49425169  0.58556794  1
  Br  Br24  1  0.75000000  0.18751618  0.41482278  1
  Br  Br25  1  0.25000000  0.81248382  0.58517722  1
  Br  Br26  1  0.25000000  0.31248382  0.91482278  1
  Br  Br27  1  0.75000000  0.68751618  0.08517722  1
