# generated using pymatgen
data_CdP14Pb
_symmetry_space_group_name_H-M   'P 1'
_cell_length_a   9.91458399
_cell_length_b   13.31745446
_cell_length_c   11.14077425
_cell_angle_alpha   90.00000000
_cell_angle_beta   90.00000000
_cell_angle_gamma   90.00000000
_symmetry_Int_Tables_number   1
_chemical_formula_structural   CdP14Pb
_chemical_formula_sum   'Cd4 P56 Pb4'
_cell_volume   1470.99464112
_cell_formula_units_Z   4
loop_
 _symmetry_equiv_pos_site_id
 _symmetry_equiv_pos_as_xyz
  1  'x, y, z'
loop_
 _atom_site_type_symbol
 _atom_site_label
 _atom_site_symmetry_multiplicity
 _atom_site_fract_x
 _atom_site_fract_y
 _atom_site_fract_z
 _atom_site_occupancy
  Cd  Cd0  1  0.75000000  0.68398756  0.50290183  1
  Cd  Cd1  1  0.25000000  0.31601244  0.49709817  1
  Cd  Cd2  1  0.25000000  0.81601244  0.00290183  1
  Cd  Cd3  1  0.75000000  0.18398756  0.99709817  1
  P  P4  1  0.95235606  0.63402095  0.64184700  1
  P  P5  1  0.04764394  0.36597905  0.35815300  1
  P  P6  1  0.04764394  0.86597905  0.14184700  1
  P  P7  1  0.45235606  0.36597905  0.35815300  1
  P  P8  1  0.95235606  0.13402095  0.85815300  1
  P  P9  1  0.54764394  0.63402095  0.64184700  1
  P  P10  1  0.54764394  0.13402095  0.85815300  1
  P  P11  1  0.45235606  0.86597905  0.14184700  1
  P  P12  1  0.75000000  0.83359863  0.35116074  1
  P  P13  1  0.25000000  0.16640137  0.64883926  1
  P  P14  1  0.25000000  0.66640137  0.85116074  1
  P  P15  1  0.75000000  0.33359863  0.14883926  1
  P  P16  1  0.41624671  0.93377716  0.71088549  1
  P  P17  1  0.58375329  0.06622284  0.28911451  1
  P  P18  1  0.58375329  0.56622284  0.21088549  1
  P  P19  1  0.91624671  0.06622284  0.28911451  1
  P  P20  1  0.41624671  0.43377716  0.78911451  1
  P  P21  1  0.08375329  0.93377716  0.71088549  1
  P  P22  1  0.08375329  0.43377716  0.78911451  1
  P  P23  1  0.91624671  0.56622284  0.21088549  1
  P  P24  1  0.92345088  0.67110809  0.83194490  1
  P  P25  1  0.07654912  0.32889191  0.16805510  1
  P  P26  1  0.07654912  0.82889191  0.33194490  1
  P  P27  1  0.42345088  0.32889191  0.16805510  1
  P  P28  1  0.92345088  0.17110809  0.66805510  1
  P  P29  1  0.57654912  0.67110809  0.83194490  1
  P  P30  1  0.57654912  0.17110809  0.66805510  1
  P  P31  1  0.42345088  0.82889191  0.33194490  1
  P  P32  1  0.91972659  0.92823610  0.41362128  1
  P  P33  1  0.08027341  0.07176390  0.58637872  1
  P  P34  1  0.08027341  0.57176390  0.91362128  1
  P  P35  1  0.41972659  0.07176390  0.58637872  1
  P  P36  1  0.91972659  0.42823610  0.08637872  1
  P  P37  1  0.58027341  0.92823610  0.41362128  1
  P  P38  1  0.58027341  0.42823610  0.08637872  1
  P  P39  1  0.41972659  0.57176390  0.91362128  1
  P  P40  1  0.75000000  0.58007098  0.89640711  1
  P  P41  1  0.25000000  0.41992902  0.10359289  1
  P  P42  1  0.25000000  0.91992902  0.39640711  1
  P  P43  1  0.75000000  0.08007098  0.60359289  1
  P  P44  1  0.92417197  0.97105690  0.84502792  1
  P  P45  1  0.07582803  0.02894310  0.15497208  1
  P  P46  1  0.07582803  0.52894310  0.34502792  1
  P  P47  1  0.42417197  0.02894310  0.15497208  1
  P  P48  1  0.92417197  0.47105690  0.65497208  1
  P  P49  1  0.57582803  0.97105690  0.84502792  1
  P  P50  1  0.57582803  0.47105690  0.65497208  1
  P  P51  1  0.42417197  0.52894310  0.34502792  1
  P  P52  1  0.75000000  0.53344119  0.33769132  1
  P  P53  1  0.25000000  0.46655881  0.66230868  1
  P  P54  1  0.25000000  0.96655881  0.83769132  1
  P  P55  1  0.75000000  0.03344119  0.16230868  1
  P  P56  1  0.75000000  0.94425874  0.72245529  1
  P  P57  1  0.25000000  0.05574126  0.27754471  1
  P  P58  1  0.25000000  0.55574126  0.22245529  1
  P  P59  1  0.75000000  0.44425874  0.77754471  1
  Pb  Pb60  1  0.75000000  0.32855856  0.40134340  1
  Pb  Pb61  1  0.25000000  0.67144144  0.59865660  1
  Pb  Pb62  1  0.25000000  0.17144144  0.90134340  1
  Pb  Pb63  1  0.75000000  0.82855856  0.09865660  1
