# generated using pymatgen
data_BaLaAgTe3
_symmetry_space_group_name_H-M   'P 1'
_cell_length_a   4.63154639
_cell_length_b   7.96477154
_cell_length_c   11.88845322
_cell_angle_alpha   90.00000000
_cell_angle_beta   90.00000000
_cell_angle_gamma   106.90298212
_symmetry_Int_Tables_number   1
_chemical_formula_structural   BaLaAgTe3
_chemical_formula_sum   'Ba2 La2 Ag2 Te6'
_cell_volume   419.60935174
_cell_formula_units_Z   2
loop_
 _symmetry_equiv_pos_site_id
 _symmetry_equiv_pos_as_xyz
  1  'x, y, z'
loop_
 _atom_site_type_symbol
 _atom_site_label
 _atom_site_symmetry_multiplicity
 _atom_site_fract_x
 _atom_site_fract_y
 _atom_site_fract_z
 _atom_site_occupancy
  Ba  Ba0  1  0.75000476  0.50000952  0.25000000  1
  Ba  Ba1  1  0.24999524  0.49999048  0.75000000  1
  La  La2  1  0.00000000  0.00000000  -0.00000000  1
  La  La3  1  0.00000000  0.00000000  0.50000000  1
  Ag  Ag4  1  0.46699943  0.93399886  0.25000000  1
  Ag  Ag5  1  0.53300057  0.06600114  0.75000000  1
  Te  Te6  1  0.35739980  0.71479959  0.05968155  1
  Te  Te7  1  0.64260020  0.28520041  0.94031845  1
  Te  Te8  1  0.64260020  0.28520041  0.55968155  1
  Te  Te9  1  0.35739980  0.71479959  0.44031845  1
  Te  Te10  1  0.07845334  0.15690668  0.25000000  1
  Te  Te11  1  0.92154666  0.84309332  0.75000000  1
