# generated using pymatgen
data_Ba2Gd(CuO2)4
_symmetry_space_group_name_H-M   'P 1'
_cell_length_a   3.89956529
_cell_length_b   3.91479662
_cell_length_c   13.83769994
_cell_angle_alpha   98.13199510
_cell_angle_beta   90.00000000
_cell_angle_gamma   90.00000000
_symmetry_Int_Tables_number   1
_chemical_formula_structural   Ba2Gd(CuO2)4
_chemical_formula_sum   'Ba2 Gd1 Cu4 O8'
_cell_volume   209.12227637
_cell_formula_units_Z   1
loop_
 _symmetry_equiv_pos_site_id
 _symmetry_equiv_pos_as_xyz
  1  'x, y, z'
loop_
 _atom_site_type_symbol
 _atom_site_label
 _atom_site_symmetry_multiplicity
 _atom_site_fract_x
 _atom_site_fract_y
 _atom_site_fract_z
 _atom_site_occupancy
  Ba  Ba0  1  0.50000000  0.36463697  0.72927393  1
  Ba  Ba1  1  0.50000000  0.63536303  0.27072607  1
  Gd  Gd2  1  0.50000000  0.50000000  0.00000000  1
  Cu  Cu3  1  -0.00000000  0.06159307  0.12318615  1
  Cu  Cu4  1  -0.00000000  0.93840693  0.87681385  1
  Cu  Cu5  1  0.00000000  0.21258648  0.42517295  1
  Cu  Cu6  1  0.00000000  0.78741352  0.57482705  1
  O  O7  1  0.00000000  0.14524791  0.29049582  1
  O  O8  1  0.00000000  0.85475209  0.70950418  1
  O  O9  1  -0.00000000  0.44741228  0.89482457  1
  O  O10  1  -0.00000000  0.55258772  0.10517543  1
  O  O11  1  -0.00000000  0.28188117  0.56376233  1
  O  O12  1  -0.00000000  0.71811883  0.43623767  1
  O  O13  1  0.50000000  0.05262666  0.10525332  1
  O  O14  1  0.50000000  0.94737334  0.89474668  1
