# generated using pymatgen
data_AsOsS
_symmetry_space_group_name_H-M   'P 1'
_cell_length_a   5.94472124
_cell_length_b   5.99667386
_cell_length_c   6.03384442
_cell_angle_alpha   111.14937934
_cell_angle_beta   90.00000000
_cell_angle_gamma   90.00000000
_symmetry_Int_Tables_number   1
_chemical_formula_structural   AsOsS
_chemical_formula_sum   'As4 Os4 S4'
_cell_volume   200.60947214
_cell_formula_units_Z   4
loop_
 _symmetry_equiv_pos_site_id
 _symmetry_equiv_pos_as_xyz
  1  'x, y, z'
loop_
 _atom_site_type_symbol
 _atom_site_label
 _atom_site_symmetry_multiplicity
 _atom_site_fract_x
 _atom_site_fract_y
 _atom_site_fract_z
 _atom_site_occupancy
  As  As0  1  0.37233971  0.64855956  0.87447514  1
  As  As1  1  0.62766029  0.35144044  0.12552486  1
  As  As2  1  0.87233971  0.35144044  0.62552486  1
  As  As3  1  0.12766029  0.64855956  0.37447514  1
  Os  Os4  1  0.99411873  0.78364754  0.79619551  1
  Os  Os5  1  0.00588127  0.21635246  0.20380449  1
  Os  Os6  1  0.49411873  0.21635246  0.70380449  1
  Os  Os7  1  0.50588127  0.78364754  0.29619551  1
  S  S8  1  0.62843573  0.84398757  0.68520618  1
  S  S9  1  0.37156427  0.15601243  0.31479382  1
  S  S10  1  0.12843573  0.15601243  0.81479382  1
  S  S11  1  0.87156427  0.84398757  0.18520618  1
