# generated using pymatgen
data_Ba4Nd(IrO4)3
_symmetry_space_group_name_H-M   'P 1'
_cell_length_a   5.99944014
_cell_length_b   6.00502800
_cell_length_c   30.09209205
_cell_angle_alpha   92.69395361
_cell_angle_beta   90.00000000
_cell_angle_gamma   119.96922836
_symmetry_Int_Tables_number   1
_chemical_formula_structural   Ba4Nd(IrO4)3
_chemical_formula_sum   'Ba12 Nd3 Ir9 O36'
_cell_volume   937.78484416
_cell_formula_units_Z   3
loop_
 _symmetry_equiv_pos_site_id
 _symmetry_equiv_pos_as_xyz
  1  'x, y, z'
loop_
 _atom_site_type_symbol
 _atom_site_label
 _atom_site_symmetry_multiplicity
 _atom_site_fract_x
 _atom_site_fract_y
 _atom_site_fract_z
 _atom_site_occupancy
  Ba  Ba0  1  0.00311654  0.00623309  0.87004595  1
  Ba  Ba1  1  0.99688346  0.99376691  0.12995405  1
  Ba  Ba2  1  0.33360912  0.66721825  0.79538663  1
  Ba  Ba3  1  0.66639088  0.33278175  0.20461337  1
  Ba  Ba4  1  0.66836737  0.33673475  0.46201826  1
  Ba  Ba5  1  0.33163263  0.66326525  0.53798174  1
  Ba  Ba6  1  0.99241818  0.98483635  0.28457928  1
  Ba  Ba7  1  0.00758182  0.01516365  0.71542072  1
  Ba  Ba8  1  0.32552268  0.65104537  0.95042532  1
  Ba  Ba9  1  0.67447732  0.34895463  0.04957468  1
  Ba  Ba10  1  0.65949128  0.31898256  0.61674446  1
  Ba  Ba11  1  0.34050872  0.68101744  0.38325554  1
  Nd  Nd12  1  0.33360783  0.66721567  0.66636829  1
  Nd  Nd13  1  0.66639217  0.33278433  0.33363171  1
  Nd  Nd14  1  0.00000000  0.00000000  -0.00000000  1
  Ir  Ir15  1  0.98701689  0.97403378  0.58468940  1
  Ir  Ir16  1  0.01298311  0.02596622  0.41531060  1
  Ir  Ir17  1  0.68058165  0.36116330  0.74795016  1
  Ir  Ir18  1  0.31941835  0.63883670  0.25204984  1
  Ir  Ir19  1  0.66734228  0.33468456  0.83284760  1
  Ir  Ir20  1  0.33265772  0.66531544  0.16715240  1
  Ir  Ir21  1  0.65348769  0.30697539  0.91787344  1
  Ir  Ir22  1  0.34651231  0.69302461  0.08212656  1
  Ir  Ir23  1  0.00000000  0.00000000  0.50000000  1
  O  O24  1  0.50255505  0.47474169  0.87751340  1
  O  O25  1  0.49744495  0.52525831  0.12248660  1
  O  O26  1  0.02781337  0.52525831  0.12248660  1
  O  O27  1  0.97218663  0.47474169  0.87751340  1
  O  O28  1  0.80006729  0.60013457  0.96180309  1
  O  O29  1  0.19993271  0.39986543  0.03819691  1
  O  O30  1  0.50603848  0.01207696  0.86872495  1
  O  O31  1  0.49396152  0.98792304  0.13127505  1
  O  O32  1  0.69452811  0.85473839  0.45553298  1
  O  O33  1  0.30547189  0.14526161  0.54446702  1
  O  O34  1  0.83978971  0.14526161  0.54446702  1
  O  O35  1  0.16021029  0.85473839  0.45553298  1
  O  O36  1  0.66431150  0.80105686  0.61742114  1
  O  O37  1  0.33568850  0.19894314  0.38257886  1
  O  O38  1  0.86325463  0.19894314  0.38257886  1
  O  O39  1  0.13674537  0.80105686  0.61742114  1
  O  O40  1  0.83898971  0.67797943  0.53596454  1
  O  O41  1  0.16101029  0.32202057  0.46403546  1
  O  O42  1  0.82803438  0.65606875  0.79677700  1
  O  O43  1  0.17196562  0.34393125  0.20322300  1
  O  O44  1  0.53578853  0.07157706  0.70324189  1
  O  O45  1  0.46421147  0.92842294  0.29675811  1
  O  O46  1  0.36238296  0.19289737  0.78843874  1
  O  O47  1  0.63761704  0.80710263  0.21156126  1
  O  O48  1  0.16948559  0.80710263  0.21156126  1
  O  O49  1  0.83051441  0.19289737  0.78843874  1
  O  O50  1  0.86791370  0.73582740  0.37044280  1
  O  O51  1  0.13208630  0.26417260  0.62955720  1
  O  O52  1  0.33276765  0.13684781  0.95109951  1
  O  O53  1  0.66723235  0.86315219  0.04890049  1
  O  O54  1  0.19591985  0.86315219  0.04890049  1
  O  O55  1  0.80408015  0.13684781  0.95109951  1
  O  O56  1  0.53139445  0.53303747  0.71514523  1
  O  O57  1  0.46860555  0.46696253  0.28485477  1
  O  O58  1  0.99835698  0.46696253  0.28485477  1
  O  O59  1  0.00164302  0.53303747  0.71514523  1
