# generated using pymatgen
data_Ba6Sm2Ga4O15
_symmetry_space_group_name_H-M   'P 1'
_cell_length_a   6.09238576
_cell_length_b   8.11720952
_cell_length_c   18.78267524
_cell_angle_alpha   91.06882214
_cell_angle_beta   90.00000000
_cell_angle_gamma   90.00000000
_symmetry_Int_Tables_number   1
_chemical_formula_structural   Ba6Sm2Ga4O15
_chemical_formula_sum   'Ba12 Sm4 Ga8 O30'
_cell_volume   928.70125105
_cell_formula_units_Z   2
loop_
 _symmetry_equiv_pos_site_id
 _symmetry_equiv_pos_as_xyz
  1  'x, y, z'
loop_
 _atom_site_type_symbol
 _atom_site_label
 _atom_site_symmetry_multiplicity
 _atom_site_fract_x
 _atom_site_fract_y
 _atom_site_fract_z
 _atom_site_occupancy
  Ba  Ba0  1  0.75591203  0.49876954  0.42057818  1
  Ba  Ba1  1  0.24408797  0.50123046  0.57942182  1
  Ba  Ba2  1  0.75591203  0.50123046  0.07942182  1
  Ba  Ba3  1  0.24408797  0.49876954  0.92057818  1
  Ba  Ba4  1  0.74199087  0.96920946  0.40949435  1
  Ba  Ba5  1  0.25800913  0.03079054  0.59050565  1
  Ba  Ba6  1  0.74199087  0.03079054  0.09050565  1
  Ba  Ba7  1  0.25800913  0.96920946  0.90949435  1
  Ba  Ba8  1  0.72378142  0.00000000  0.75000000  1
  Ba  Ba9  1  0.27621858  0.00000000  0.25000000  1
  Ba  Ba10  1  0.66643029  0.50000000  0.75000000  1
  Ba  Ba11  1  0.33356971  0.50000000  0.25000000  1
  Sm  Sm12  1  0.74413681  0.75145663  0.59035002  1
  Sm  Sm13  1  0.25586319  0.24854337  0.40964998  1
  Sm  Sm14  1  0.74413681  0.24854337  0.90964998  1
  Sm  Sm15  1  0.25586319  0.75145663  0.09035002  1
  Ga  Ga16  1  0.75403534  0.75366079  0.94002612  1
  Ga  Ga17  1  0.24596466  0.24633921  0.05997388  1
  Ga  Ga18  1  0.75403534  0.24633921  0.55997388  1
  Ga  Ga19  1  0.24596466  0.75366079  0.44002612  1
  Ga  Ga20  1  0.77723963  0.77089511  0.23559152  1
  Ga  Ga21  1  0.22276037  0.22910489  0.76440848  1
  Ga  Ga22  1  0.77723963  0.22910489  0.26440848  1
  Ga  Ga23  1  0.22276037  0.77089511  0.73559152  1
  O  O24  1  0.21062333  0.00000000  0.75000000  1
  O  O25  1  0.78937667  0.00000000  0.25000000  1
  O  O26  1  0.49420766  0.76523150  0.49958872  1
  O  O27  1  0.50579234  0.23476850  0.50041128  1
  O  O28  1  0.49420766  0.23476850  0.00041128  1
  O  O29  1  0.50579234  0.76523150  0.99958872  1
  O  O30  1  0.75976791  0.95050708  0.88977996  1
  O  O31  1  0.24023209  0.04949292  0.11022004  1
  O  O32  1  0.75976791  0.04949292  0.61022004  1
  O  O33  1  0.24023209  0.95050708  0.38977996  1
  O  O34  1  0.99825757  0.76300287  0.50114103  1
  O  O35  1  0.00174243  0.23699713  0.49885897  1
  O  O36  1  0.99825757  0.23699713  0.99885897  1
  O  O37  1  0.00174243  0.76300287  0.00114103  1
  O  O38  1  0.32354406  0.69022215  0.81959787  1
  O  O39  1  0.67645594  0.30977785  0.18040213  1
  O  O40  1  0.32354406  0.30977785  0.68040213  1
  O  O41  1  0.67645594  0.69022215  0.31959787  1
  O  O42  1  0.44362378  0.74684581  0.66577281  1
  O  O43  1  0.55637622  0.25315419  0.33422719  1
  O  O44  1  0.44362378  0.25315419  0.83422719  1
  O  O45  1  0.55637622  0.74684581  0.16577281  1
  O  O46  1  0.95319809  0.72729646  0.69380617  1
  O  O47  1  0.04680191  0.27270354  0.30619383  1
  O  O48  1  0.95319809  0.27270354  0.80619383  1
  O  O49  1  0.04680191  0.72729646  0.19380617  1
  O  O50  1  0.75704889  0.53564801  0.90565634  1
  O  O51  1  0.24295111  0.46435199  0.09434366  1
  O  O52  1  0.75704889  0.46435199  0.59434366  1
  O  O53  1  0.24295111  0.53564801  0.40565634  1
