# generated using pymatgen
data_BaNaFeF6
_symmetry_space_group_name_H-M   'P 1'
_cell_length_a   5.66015831
_cell_length_b   19.49566111
_cell_length_c   10.05806768
_cell_angle_alpha   90.00000000
_cell_angle_beta   90.00000000
_cell_angle_gamma   90.00000000
_symmetry_Int_Tables_number   1
_chemical_formula_structural   BaNaFeF6
_chemical_formula_sum   'Ba8 Na8 Fe8 F48'
_cell_volume   1109.89296543
_cell_formula_units_Z   8
loop_
 _symmetry_equiv_pos_site_id
 _symmetry_equiv_pos_as_xyz
  1  'x, y, z'
loop_
 _atom_site_type_symbol
 _atom_site_label
 _atom_site_symmetry_multiplicity
 _atom_site_fract_x
 _atom_site_fract_y
 _atom_site_fract_z
 _atom_site_occupancy
  Ba  Ba0  1  0.24120331  0.88847355  0.63333528  1
  Ba  Ba1  1  0.75879669  0.11152645  0.13333528  1
  Ba  Ba2  1  0.25879669  0.38847355  0.63333528  1
  Ba  Ba3  1  0.74120331  0.61152645  0.13333528  1
  Ba  Ba4  1  0.74260025  0.86243847  0.99834673  1
  Ba  Ba5  1  0.25739975  0.13756153  0.49834673  1
  Ba  Ba6  1  0.75739975  0.36243847  0.99834673  1
  Ba  Ba7  1  0.24260025  0.63756153  0.49834673  1
  Na  Na8  1  0.74383219  0.93542509  0.35959791  1
  Na  Na9  1  0.25616781  0.06457491  0.85959791  1
  Na  Na10  1  0.75616781  0.43542509  0.35959791  1
  Na  Na11  1  0.24383219  0.56457491  0.85959791  1
  Na  Na12  1  0.73640561  0.68706103  0.77275442  1
  Na  Na13  1  0.26359439  0.31293897  0.27275442  1
  Na  Na14  1  0.76359439  0.18706103  0.77275442  1
  Na  Na15  1  0.23640561  0.81293897  0.27275442  1
  Fe  Fe16  1  0.73569325  0.50765958  0.73665984  1
  Fe  Fe17  1  0.26430675  0.49234042  0.23665984  1
  Fe  Fe18  1  0.76430675  0.00765958  0.73665984  1
  Fe  Fe19  1  0.23569325  0.99234042  0.23665984  1
  Fe  Fe20  1  0.74919811  0.75681032  0.39548461  1
  Fe  Fe21  1  0.25080189  0.24318968  0.89548461  1
  Fe  Fe22  1  0.75080189  0.25681032  0.39548461  1
  Fe  Fe23  1  0.24919811  0.74318968  0.89548461  1
  F  F24  1  0.97110590  0.94077652  0.82821867  1
  F  F25  1  0.02889410  0.05922348  0.32821867  1
  F  F26  1  0.52889410  0.44077652  0.82821867  1
  F  F27  1  0.47110590  0.55922348  0.32821867  1
  F  F28  1  0.65423072  0.57227594  0.88157000  1
  F  F29  1  0.34576928  0.42772406  0.38157000  1
  F  F30  1  0.84576928  0.07227594  0.88157000  1
  F  F31  1  0.15423072  0.92772406  0.38157000  1
  F  F32  1  0.50223429  0.96557419  0.83584061  1
  F  F33  1  0.49776571  0.03442581  0.33584061  1
  F  F34  1  0.99776571  0.46557419  0.83584061  1
  F  F35  1  0.00223429  0.53442581  0.33584061  1
  F  F36  1  0.52132792  0.82371885  0.45656382  1
  F  F37  1  0.47867208  0.17628115  0.95656382  1
  F  F38  1  0.97867208  0.32371885  0.45656382  1
  F  F39  1  0.02132792  0.67628115  0.95656382  1
  F  F40  1  0.46611803  0.80821303  0.80504672  1
  F  F41  1  0.53388197  0.19178697  0.30504672  1
  F  F42  1  0.03388197  0.30821303  0.80504672  1
  F  F43  1  0.96611803  0.69178697  0.30504672  1
  F  F44  1  0.69867464  0.69196963  0.54016271  1
  F  F45  1  0.30132536  0.30803037  0.04016271  1
  F  F46  1  0.80132536  0.19196963  0.54016271  1
  F  F47  1  0.19867464  0.80803037  0.04016271  1
  F  F48  1  0.95290484  0.57821963  0.67738054  1
  F  F49  1  0.04709516  0.42178037  0.17738054  1
  F  F50  1  0.54709516  0.07821963  0.67738054  1
  F  F51  1  0.45290484  0.92178037  0.17738054  1
  F  F52  1  0.99154580  0.78786035  0.79787128  1
  F  F53  1  0.00845420  0.21213965  0.29787128  1
  F  F54  1  0.50845420  0.28786035  0.79787128  1
  F  F55  1  0.49154580  0.71213965  0.29787128  1
  F  F56  1  0.44487468  0.53542486  0.64544459  1
  F  F57  1  0.55512532  0.46457514  0.14544459  1
  F  F58  1  0.05512532  0.03542486  0.64544459  1
  F  F59  1  0.94487468  0.96457514  0.14544459  1
  F  F60  1  0.81918551  0.82181140  0.25029472  1
  F  F61  1  0.18081449  0.17818860  0.75029472  1
  F  F62  1  0.68081449  0.32181140  0.25029472  1
  F  F63  1  0.31918551  0.67818860  0.75029472  1
  F  F64  1  0.70295601  0.94366138  0.59248619  1
  F  F65  1  0.29704399  0.05633862  0.09248619  1
  F  F66  1  0.79704399  0.44366138  0.59248619  1
  F  F67  1  0.20295601  0.55633862  0.09248619  1
  F  F68  1  0.53143429  0.71067316  0.98734135  1
  F  F69  1  0.46856571  0.28932684  0.48734135  1
  F  F70  1  0.96856571  0.21067316  0.98734135  1
  F  F71  1  0.03143429  0.78932684  0.48734135  1
