# generated using pymatgen
data_Ba2TbCl7
_symmetry_space_group_name_H-M   'P 1'
_cell_length_a   6.91829789
_cell_length_b   10.64261523
_cell_length_c   15.72707047
_cell_angle_alpha   90.00000000
_cell_angle_beta   90.00000000
_cell_angle_gamma   90.76845261
_symmetry_Int_Tables_number   1
_chemical_formula_structural   Ba2TbCl7
_chemical_formula_sum   'Ba8 Tb4 Cl28'
_cell_volume   1157.86090324
_cell_formula_units_Z   4
loop_
 _symmetry_equiv_pos_site_id
 _symmetry_equiv_pos_as_xyz
  1  'x, y, z'
loop_
 _atom_site_type_symbol
 _atom_site_label
 _atom_site_symmetry_multiplicity
 _atom_site_fract_x
 _atom_site_fract_y
 _atom_site_fract_z
 _atom_site_occupancy
  Ba  Ba0  1  0.23415556  0.95083074  0.77973353  1
  Ba  Ba1  1  0.76584444  0.04916926  0.22026647  1
  Ba  Ba2  1  0.76584444  0.54916926  0.27973353  1
  Ba  Ba3  1  0.23415556  0.45083074  0.72026647  1
  Ba  Ba4  1  0.76613556  0.67618493  0.93909643  1
  Ba  Ba5  1  0.23386444  0.32381507  0.06090357  1
  Ba  Ba6  1  0.23386444  0.82381507  0.43909643  1
  Ba  Ba7  1  0.76613556  0.17618493  0.56090357  1
  Tb  Tb8  1  0.71831729  0.71856402  0.62712281  1
  Tb  Tb9  1  0.28168271  0.28143598  0.37287719  1
  Tb  Tb10  1  0.28168271  0.78143598  0.12712281  1
  Tb  Tb11  1  0.71831729  0.21856402  0.87287719  1
  Cl  Cl12  1  0.37040594  0.62422689  0.57100097  1
  Cl  Cl13  1  0.62959406  0.37577311  0.42899903  1
  Cl  Cl14  1  0.62959406  0.87577311  0.07100097  1
  Cl  Cl15  1  0.37040594  0.12422689  0.92899903  1
  Cl  Cl16  1  0.98663907  0.91396756  0.60491453  1
  Cl  Cl17  1  0.01336093  0.08603244  0.39508547  1
  Cl  Cl18  1  0.01336093  0.58603244  0.10491453  1
  Cl  Cl19  1  0.98663907  0.41396756  0.89508547  1
  Cl  Cl20  1  0.79524634  0.71281631  0.45973991  1
  Cl  Cl21  1  0.20475366  0.28718369  0.54026009  1
  Cl  Cl22  1  0.20475366  0.78718369  0.95973991  1
  Cl  Cl23  1  0.79524634  0.21281631  0.04026009  1
  Cl  Cl24  1  0.79109100  0.97167927  0.86041090  1
  Cl  Cl25  1  0.20890900  0.02832073  0.13958910  1
  Cl  Cl26  1  0.20890900  0.52832073  0.36041090  1
  Cl  Cl27  1  0.79109100  0.47167927  0.63958910  1
  Cl  Cl28  1  0.98856578  0.69819912  0.75729378  1
  Cl  Cl29  1  0.01143422  0.30180088  0.24270622  1
  Cl  Cl30  1  0.01143422  0.80180088  0.25729378  1
  Cl  Cl31  1  0.98856578  0.19819912  0.74270622  1
  Cl  Cl32  1  0.50072942  0.70557625  0.77244990  1
  Cl  Cl33  1  0.49927058  0.29442375  0.22755010  1
  Cl  Cl34  1  0.49927058  0.79442375  0.27244990  1
  Cl  Cl35  1  0.50072942  0.20557625  0.72755010  1
  Cl  Cl36  1  0.49958996  0.92895708  0.60445676  1
  Cl  Cl37  1  0.50041004  0.07104292  0.39554324  1
  Cl  Cl38  1  0.50041004  0.57104292  0.10445676  1
  Cl  Cl39  1  0.49958996  0.42895708  0.89554324  1
