# generated using pymatgen
data_Ba3NdIr2O9
_symmetry_space_group_name_H-M   'P 1'
_cell_length_a   5.99073974
_cell_length_b   5.99073974
_cell_length_c   15.05151668
_cell_angle_alpha   90.80327202
_cell_angle_beta   90.80327202
_cell_angle_gamma   119.85192969
_symmetry_Int_Tables_number   1
_chemical_formula_structural   Ba3NdIr2O9
_chemical_formula_sum   'Ba6 Nd2 Ir4 O18'
_cell_volume   468.32553929
_cell_formula_units_Z   2
loop_
 _symmetry_equiv_pos_site_id
 _symmetry_equiv_pos_as_xyz
  1  'x, y, z'
loop_
 _atom_site_type_symbol
 _atom_site_label
 _atom_site_symmetry_multiplicity
 _atom_site_fract_x
 _atom_site_fract_y
 _atom_site_fract_z
 _atom_site_occupancy
  Ba  Ba0  1  0.99671910  0.00328090  0.75000000  1
  Ba  Ba1  1  0.00328090  0.99671910  0.25000000  1
  Ba  Ba2  1  0.32778326  0.65905362  0.90049980  1
  Ba  Ba3  1  0.67221674  0.34094638  0.09950020  1
  Ba  Ba4  1  0.34094638  0.67221674  0.59950020  1
  Ba  Ba5  1  0.65905362  0.32778326  0.40049980  1
  Nd  Nd6  1  -0.00000000  -0.00000000  -0.00000000  1
  Nd  Nd7  1  -0.00000000  -0.00000000  0.50000000  1
  Ir  Ir8  1  0.65260575  0.31942981  0.83373338  1
  Ir  Ir9  1  0.34739425  0.68057019  0.16626662  1
  Ir  Ir10  1  0.68057019  0.34739425  0.66626662  1
  Ir  Ir11  1  0.31942981  0.65260575  0.33373338  1
  O  O12  1  0.79591835  0.14782086  0.90729360  1
  O  O13  1  0.20408165  0.85217914  0.09270640  1
  O  O14  1  0.85217914  0.20408165  0.59270640  1
  O  O15  1  0.14782086  0.79591835  0.40729360  1
  O  O16  1  0.32909815  0.14821838  0.90017985  1
  O  O17  1  0.67090185  0.85178162  0.09982015  1
  O  O18  1  0.85178162  0.67090185  0.59982015  1
  O  O19  1  0.14821838  0.32909815  0.40017985  1
  O  O20  1  0.50832327  0.49167673  0.75000000  1
  O  O21  1  0.49167673  0.50832327  0.25000000  1
  O  O22  1  0.39003060  0.20580805  0.57894317  1
  O  O23  1  0.60996940  0.79419195  0.42105683  1
  O  O24  1  0.79419195  0.60996940  0.92105683  1
  O  O25  1  0.20580805  0.39003060  0.07894317  1
  O  O26  1  0.50772575  0.02070037  0.74073185  1
  O  O27  1  0.49227425  0.97929963  0.25926815  1
  O  O28  1  0.97929963  0.49227425  0.75926815  1
  O  O29  1  0.02070037  0.50772575  0.24073185  1
