# generated using pymatgen
data_Ba5Tm2ZrAl2O13
_symmetry_space_group_name_H-M   'P 1'
_cell_length_a   6.00699325
_cell_length_b   6.00699325
_cell_length_c   25.06399544
_cell_angle_alpha   90.00000000
_cell_angle_beta   90.00000000
_cell_angle_gamma   119.99999945
_symmetry_Int_Tables_number   1
_chemical_formula_structural   Ba5Tm2ZrAl2O13
_chemical_formula_sum   'Ba10 Tm4 Zr2 Al4 O26'
_cell_volume   783.24066018
_cell_formula_units_Z   2
loop_
 _symmetry_equiv_pos_site_id
 _symmetry_equiv_pos_as_xyz
  1  'x, y, z'
loop_
 _atom_site_type_symbol
 _atom_site_label
 _atom_site_symmetry_multiplicity
 _atom_site_fract_x
 _atom_site_fract_y
 _atom_site_fract_z
 _atom_site_occupancy
  Ba  Ba0  1  0.66666700  0.33333300  0.45739101  1
  Ba  Ba1  1  0.33333300  0.66666700  0.54260899  1
  Ba  Ba2  1  0.33333300  0.66666700  0.95739101  1
  Ba  Ba3  1  0.66666700  0.33333300  0.04260899  1
  Ba  Ba4  1  -0.00000000  0.00000000  0.86157650  1
  Ba  Ba5  1  -0.00000000  0.00000000  0.13842350  1
  Ba  Ba6  1  -0.00000000  0.00000000  0.36157650  1
  Ba  Ba7  1  -0.00000000  0.00000000  0.63842350  1
  Ba  Ba8  1  0.66666700  0.33333300  0.75000000  1
  Ba  Ba9  1  0.33333300  0.66666700  0.25000000  1
  Tm  Tm10  1  0.66666700  0.33333300  0.89623059  1
  Tm  Tm11  1  0.33333300  0.66666700  0.10376941  1
  Tm  Tm12  1  0.33333300  0.66666700  0.39623059  1
  Tm  Tm13  1  0.66666700  0.33333300  0.60376941  1
  Zr  Zr14  1  -0.00000000  0.00000000  0.00000000  1
  Zr  Zr15  1  -0.00000000  0.00000000  0.50000000  1
  Al  Al16  1  0.66666700  0.33333300  0.31918910  1
  Al  Al17  1  0.33333300  0.66666700  0.68081090  1
  Al  Al18  1  0.33333300  0.66666700  0.81918910  1
  Al  Al19  1  0.66666700  0.33333300  0.18081090  1
  O  O20  1  0.49545802  0.50454198  0.84194297  1
  O  O21  1  0.50454198  0.49545802  0.15805703  1
  O  O22  1  0.00908395  0.50454198  0.84194297  1
  O  O23  1  0.50454198  0.49545802  0.34194297  1
  O  O24  1  0.99091605  0.49545802  0.15805703  1
  O  O25  1  0.49545802  0.50454198  0.65805703  1
  O  O26  1  0.49545802  0.99091605  0.84194297  1
  O  O27  1  0.99091605  0.49545802  0.34194297  1
  O  O28  1  0.50454198  0.00908395  0.15805703  1
  O  O29  1  0.00908395  0.50454198  0.65805703  1
  O  O30  1  0.50454198  0.00908395  0.34194297  1
  O  O31  1  0.49545802  0.99091605  0.65805703  1
  O  O32  1  0.83679056  0.16320944  0.94895512  1
  O  O33  1  0.16320944  0.83679056  0.05104488  1
  O  O34  1  0.32641889  0.16320944  0.94895512  1
  O  O35  1  0.16320944  0.83679056  0.44895512  1
  O  O36  1  0.67358111  0.83679056  0.05104488  1
  O  O37  1  0.83679056  0.16320944  0.55104488  1
  O  O38  1  0.83679056  0.67358111  0.94895512  1
  O  O39  1  0.67358111  0.83679056  0.44895512  1
  O  O40  1  0.16320944  0.32641889  0.05104488  1
  O  O41  1  0.32641889  0.16320944  0.55104488  1
  O  O42  1  0.16320944  0.32641889  0.44895512  1
  O  O43  1  0.83679056  0.67358111  0.55104488  1
  O  O44  1  0.66666700  0.33333300  0.25000000  1
  O  O45  1  0.33333300  0.66666700  0.75000000  1
