# generated using pymatgen
data_Na2MgZn5(AsO4)6
_symmetry_space_group_name_H-M   'P 1'
_cell_length_a   6.90025260
_cell_length_b   8.70132270
_cell_length_c   8.70132270
_cell_angle_alpha   90.64954912
_cell_angle_beta   105.97802687
_cell_angle_gamma   105.97802687
_symmetry_Int_Tables_number   1
_chemical_formula_structural   Na2MgZn5(AsO4)6
_chemical_formula_sum   'Na2 Mg1 Zn5 As6 O24'
_cell_volume   480.70281688
_cell_formula_units_Z   1
loop_
 _symmetry_equiv_pos_site_id
 _symmetry_equiv_pos_as_xyz
  1  'x, y, z'
loop_
 _atom_site_type_symbol
 _atom_site_label
 _atom_site_symmetry_multiplicity
 _atom_site_fract_x
 _atom_site_fract_y
 _atom_site_fract_z
 _atom_site_occupancy
  Na  Na0  1  0.25000000  0.00941145  0.99058855  1
  Na  Na1  1  0.75000000  0.99065845  0.00934155  1
  Mg  Mg2  1  0.25000000  0.71722294  0.28277706  1
  Zn  Zn3  1  0.12181567  0.04994119  0.36722463  1
  Zn  Zn4  1  0.37818433  0.63277537  0.95005881  1
  Zn  Zn5  1  0.87780851  0.94917849  0.63243595  1
  Zn  Zn6  1  0.62219149  0.36756405  0.05082151  1
  Zn  Zn7  1  0.75000000  0.28356190  0.71643810  1
  As  As8  1  0.38502991  0.88950658  0.66218329  1
  As  As9  1  0.11497009  0.33781671  0.11049342  1
  As  As10  1  0.61450971  0.11041231  0.33873539  1
  As  As11  1  0.88549029  0.66126461  0.88958769  1
  As  As12  1  0.25000000  0.31135471  0.68864529  1
  As  As13  1  0.75000000  0.68925505  0.31074495  1
  O  O14  1  0.18377137  0.97882635  0.59997412  1
  O  O15  1  0.31622863  0.40002588  0.02117365  1
  O  O16  1  0.81617445  0.02176489  0.40022817  1
  O  O17  1  0.68382555  0.59977183  0.97823511  1
  O  O18  1  0.02460162  0.19781380  0.73221522  1
  O  O19  1  0.47539838  0.26778478  0.80218620  1
  O  O20  1  0.97587264  0.80126436  0.26810090  1
  O  O21  1  0.52412736  0.73189910  0.19873564  1
  O  O22  1  0.23343632  0.27705023  0.48742872  1
  O  O23  1  0.26656368  0.51257128  0.72294977  1
  O  O24  1  0.76641102  0.72317873  0.51226688  1
  O  O25  1  0.73358898  0.48773312  0.27682127  1
  O  O26  1  0.09575223  0.14226507  0.15097949  1
  O  O27  1  0.40424777  0.84902051  0.85773493  1
  O  O28  1  0.90445035  0.85680449  0.84857628  1
  O  O29  1  0.59554965  0.15142372  0.14319551  1
  O  O30  1  0.37358332  0.97345163  0.32815818  1
  O  O31  1  0.12641668  0.67184182  0.02654837  1
  O  O32  1  0.62685904  0.02562742  0.67143297  1
  O  O33  1  0.87314096  0.32856703  0.97437258  1
  O  O34  1  0.33613054  0.72368783  0.53308872  1
  O  O35  1  0.16386946  0.46691128  0.27631217  1
  O  O36  1  0.66572373  0.27832930  0.46753827  1
  O  O37  1  0.83427627  0.53246173  0.72167070  1
