# generated using pymatgen
data_Ba6Tb2Ga4O15
_symmetry_space_group_name_H-M   'P 1'
_cell_length_a   6.05144387
_cell_length_b   8.05463282
_cell_length_c   18.69429882
_cell_angle_alpha   91.39198995
_cell_angle_beta   90.00000000
_cell_angle_gamma   90.00000000
_symmetry_Int_Tables_number   1
_chemical_formula_structural   Ba6Tb2Ga4O15
_chemical_formula_sum   'Ba12 Tb4 Ga8 O30'
_cell_volume   910.93157517
_cell_formula_units_Z   2
loop_
 _symmetry_equiv_pos_site_id
 _symmetry_equiv_pos_as_xyz
  1  'x, y, z'
loop_
 _atom_site_type_symbol
 _atom_site_label
 _atom_site_symmetry_multiplicity
 _atom_site_fract_x
 _atom_site_fract_y
 _atom_site_fract_z
 _atom_site_occupancy
  Ba  Ba0  1  0.75678055  0.49866784  0.42150198  1
  Ba  Ba1  1  0.24321945  0.50133216  0.57849802  1
  Ba  Ba2  1  0.75678055  0.50133216  0.07849802  1
  Ba  Ba3  1  0.24321945  0.49866784  0.92150198  1
  Ba  Ba4  1  0.74321896  0.97090872  0.40996526  1
  Ba  Ba5  1  0.25678104  0.02909128  0.59003474  1
  Ba  Ba6  1  0.74321896  0.02909128  0.09003474  1
  Ba  Ba7  1  0.25678104  0.97090872  0.90996526  1
  Ba  Ba8  1  0.72420048  0.00000000  0.75000000  1
  Ba  Ba9  1  0.27579952  0.00000000  0.25000000  1
  Ba  Ba10  1  0.66538221  0.50000000  0.75000000  1
  Ba  Ba11  1  0.33461779  0.50000000  0.25000000  1
  Tb  Tb12  1  0.74559315  0.75181932  0.59004441  1
  Tb  Tb13  1  0.25440685  0.24818068  0.40995559  1
  Tb  Tb14  1  0.74559315  0.24818068  0.90995559  1
  Tb  Tb15  1  0.25440685  0.75181932  0.09004441  1
  Ga  Ga16  1  0.75042679  0.75440714  0.94105895  1
  Ga  Ga17  1  0.24957321  0.24559286  0.05894105  1
  Ga  Ga18  1  0.75042679  0.24559286  0.55894105  1
  Ga  Ga19  1  0.24957321  0.75440714  0.44105895  1
  Ga  Ga20  1  0.77536618  0.76987505  0.23433727  1
  Ga  Ga21  1  0.22463382  0.23012495  0.76566273  1
  Ga  Ga22  1  0.77536618  0.23012495  0.26566273  1
  Ga  Ga23  1  0.22463382  0.76987505  0.73433727  1
  O  O24  1  0.20608373  0.00000000  0.75000000  1
  O  O25  1  0.79391627  0.00000000  0.25000000  1
  O  O26  1  0.50460923  0.76563108  0.49891217  1
  O  O27  1  0.49539077  0.23436892  0.50108783  1
  O  O28  1  0.50460923  0.23436892  0.00108783  1
  O  O29  1  0.49539077  0.76563108  0.99891217  1
  O  O30  1  0.76210386  0.95300321  0.89077314  1
  O  O31  1  0.23789614  0.04699679  0.10922686  1
  O  O32  1  0.76210386  0.04699679  0.60922686  1
  O  O33  1  0.23789614  0.95300321  0.39077314  1
  O  O34  1  0.00589656  0.76372751  0.50494727  1
  O  O35  1  0.99410344  0.23627249  0.49505273  1
  O  O36  1  0.00589656  0.23627249  0.99505273  1
  O  O37  1  0.99410344  0.76372751  0.00494727  1
  O  O38  1  0.32727160  0.68959917  0.81844442  1
  O  O39  1  0.67272840  0.31040083  0.18155558  1
  O  O40  1  0.32727160  0.31040083  0.68155558  1
  O  O41  1  0.67272840  0.68959917  0.31844442  1
  O  O42  1  0.44867383  0.74816358  0.66428137  1
  O  O43  1  0.55132617  0.25183642  0.33571863  1
  O  O44  1  0.44867383  0.25183642  0.83571863  1
  O  O45  1  0.55132617  0.74816358  0.16428137  1
  O  O46  1  0.95560272  0.72474549  0.69084974  1
  O  O47  1  0.04439728  0.27525451  0.30915026  1
  O  O48  1  0.95560272  0.27525451  0.80915026  1
  O  O49  1  0.04439728  0.72474549  0.19084974  1
  O  O50  1  0.75626588  0.53298773  0.90803963  1
  O  O51  1  0.24373412  0.46701227  0.09196037  1
  O  O52  1  0.75626588  0.46701227  0.59196037  1
  O  O53  1  0.24373412  0.53298773  0.40803963  1
