# generated using pymatgen
data_Ca21(Cd2Bi9)2
_symmetry_space_group_name_H-M   'P 1'
_cell_length_a   12.38497213
_cell_length_b   12.38497213
_cell_length_c   17.86869336
_cell_angle_alpha   88.39230069
_cell_angle_beta   88.39230069
_cell_angle_gamma   87.46156037
_symmetry_Int_Tables_number   1
_chemical_formula_structural   Ca21(Cd2Bi9)2
_chemical_formula_sum   'Ca42 Cd8 Bi36'
_cell_volume   2736.08066416
_cell_formula_units_Z   2
loop_
 _symmetry_equiv_pos_site_id
 _symmetry_equiv_pos_as_xyz
  1  'x, y, z'
loop_
 _atom_site_type_symbol
 _atom_site_label
 _atom_site_symmetry_multiplicity
 _atom_site_fract_x
 _atom_site_fract_y
 _atom_site_fract_z
 _atom_site_occupancy
  Ca  Ca0  1  0.26588939  0.26588939  0.90823761  1
  Ca  Ca1  1  0.73411061  0.73411061  0.09176239  1
  Ca  Ca2  1  0.25027205  0.92251058  0.85575287  1
  Ca  Ca3  1  0.74972795  0.07748942  0.14424713  1
  Ca  Ca4  1  0.07748942  0.74972795  0.14424713  1
  Ca  Ca5  1  0.92251058  0.25027205  0.85575287  1
  Ca  Ca6  1  0.59663012  0.26003830  0.84650130  1
  Ca  Ca7  1  0.40336988  0.73996170  0.15349870  1
  Ca  Ca8  1  0.73996170  0.40336988  0.15349870  1
  Ca  Ca9  1  0.26003830  0.59663012  0.84650130  1
  Ca  Ca10  1  0.24332924  0.92721192  0.64657500  1
  Ca  Ca11  1  0.75667076  0.07278808  0.35342500  1
  Ca  Ca12  1  0.07278808  0.75667076  0.35342500  1
  Ca  Ca13  1  0.92721192  0.24332924  0.64657500  1
  Ca  Ca14  1  0.48966872  0.74230722  0.94579074  1
  Ca  Ca15  1  0.51033128  0.25769278  0.05420926  1
  Ca  Ca16  1  0.25769278  0.51033128  0.05420926  1
  Ca  Ca17  1  0.74230722  0.48966872  0.94579074  1
  Ca  Ca18  1  0.72838964  0.99590855  0.94058085  1
  Ca  Ca19  1  0.27161036  0.00409145  0.05941915  1
  Ca  Ca20  1  0.00409145  0.27161036  0.05941915  1
  Ca  Ca21  1  0.99590855  0.72838964  0.94058085  1
  Ca  Ca22  1  0.56989704  0.32185368  0.61504903  1
  Ca  Ca23  1  0.43010296  0.67814632  0.38495097  1
  Ca  Ca24  1  0.67814632  0.43010296  0.38495097  1
  Ca  Ca25  1  0.32185368  0.56989704  0.61504903  1
  Ca  Ca26  1  0.23094531  0.99221037  0.42585604  1
  Ca  Ca27  1  0.76905469  0.00778963  0.57414396  1
  Ca  Ca28  1  0.00778963  0.76905469  0.57414396  1
  Ca  Ca29  1  0.99221037  0.23094531  0.42585604  1
  Ca  Ca30  1  0.57473847  0.93129630  0.75775229  1
  Ca  Ca31  1  0.42526153  0.06870370  0.24224771  1
  Ca  Ca32  1  0.06870370  0.42526153  0.24224771  1
  Ca  Ca33  1  0.93129630  0.57473847  0.75775229  1
  Ca  Ca34  1  0.59691461  0.59691461  0.74520850  1
  Ca  Ca35  1  0.40308539  0.40308539  0.25479150  1
  Ca  Ca36  1  0.49392954  0.81957116  0.56532542  1
  Ca  Ca37  1  0.50607046  0.18042884  0.43467458  1
  Ca  Ca38  1  0.18042884  0.50607046  0.43467458  1
  Ca  Ca39  1  0.81957116  0.49392954  0.56532542  1
  Ca  Ca40  1  0.25253498  0.25253498  0.57770773  1
  Ca  Ca41  1  0.74746502  0.74746502  0.42229227  1
  Cd  Cd42  1  0.16184374  0.16184374  0.24644353  1
  Cd  Cd43  1  0.83815626  0.83815626  0.75355647  1
  Cd  Cd44  1  0.00646848  0.00646848  0.20253861  1
  Cd  Cd45  1  0.99353152  0.99353152  0.79746139  1
  Cd  Cd46  1  0.39286980  0.14414216  0.75238265  1
  Cd  Cd47  1  0.60713020  0.85585784  0.24761735  1
  Cd  Cd48  1  0.85585784  0.60713020  0.24761735  1
  Cd  Cd49  1  0.14414216  0.39286980  0.75238265  1
  Bi  Bi50  1  0.25039053  0.25039053  0.38687165  1
  Bi  Bi51  1  0.74960947  0.74960947  0.61312835  1
  Bi  Bi52  1  0.46353510  0.46353510  0.92136118  1
  Bi  Bi53  1  0.53646490  0.53646490  0.07863882  1
  Bi  Bi54  1  0.15142484  0.15142484  0.74052120  1
  Bi  Bi55  1  0.84857516  0.84857516  0.25947880  1
  Bi  Bi56  1  0.42210609  0.42210609  0.46476166  1
  Bi  Bi57  1  0.57789391  0.57789391  0.53523834  1
  Bi  Bi58  1  0.77364356  0.08602476  0.75589674  1
  Bi  Bi59  1  0.22635644  0.91397524  0.24410326  1
  Bi  Bi60  1  0.91397524  0.22635644  0.24410326  1
  Bi  Bi61  1  0.08602476  0.77364356  0.75589674  1
  Bi  Bi62  1  0.46688780  0.07161875  0.60086851  1
  Bi  Bi63  1  0.53311220  0.92838125  0.39913149  1
  Bi  Bi64  1  0.92838125  0.53311220  0.39913149  1
  Bi  Bi65  1  0.07161875  0.46688780  0.60086851  1
  Bi  Bi66  1  0.24525743  0.75474257  0.50000000  1
  Bi  Bi67  1  0.75474257  0.24525743  0.50000000  1
  Bi  Bi68  1  0.06726545  0.06726545  0.94516805  1
  Bi  Bi69  1  0.93273455  0.93273455  0.05483195  1
  Bi  Bi70  1  0.73671032  0.73671032  0.89493255  1
  Bi  Bi71  1  0.26328968  0.26328968  0.10506745  1
  Bi  Bi72  1  0.24302688  0.75697312  -0.00000000  1
  Bi  Bi73  1  0.75697312  0.24302688  -0.00000000  1
  Bi  Bi74  1  0.45724382  0.05671286  0.90975691  1
  Bi  Bi75  1  0.54275618  0.94328714  0.09024309  1
  Bi  Bi76  1  0.94328714  0.54275618  0.09024309  1
  Bi  Bi77  1  0.05671286  0.45724382  0.90975691  1
  Bi  Bi78  1  0.39415744  0.39415744  0.74474501  1
  Bi  Bi79  1  0.60584256  0.60584256  0.25525499  1
  Bi  Bi80  1  0.05036705  0.05036705  0.56778511  1
  Bi  Bi81  1  0.94963295  0.94963295  0.43221489  1
  Bi  Bi82  1  0.39642933  0.76215013  0.74285971  1
  Bi  Bi83  1  0.60357067  0.23784987  0.25714029  1
  Bi  Bi84  1  0.23784987  0.60357067  0.25714029  1
  Bi  Bi85  1  0.76215013  0.39642933  0.74285971  1
