# generated using pymatgen
data_AsSe(BrF2)3
_symmetry_space_group_name_H-M   'P 1'
_cell_length_a   8.11343383
_cell_length_b   10.12576528
_cell_length_c   12.52146077
_cell_angle_alpha   90.00000000
_cell_angle_beta   98.98066214
_cell_angle_gamma   90.00000000
_symmetry_Int_Tables_number   1
_chemical_formula_structural   AsSe(BrF2)3
_chemical_formula_sum   'As4 Se4 Br12 F24'
_cell_volume   1016.08647214
_cell_formula_units_Z   4
loop_
 _symmetry_equiv_pos_site_id
 _symmetry_equiv_pos_as_xyz
  1  'x, y, z'
loop_
 _atom_site_type_symbol
 _atom_site_label
 _atom_site_symmetry_multiplicity
 _atom_site_fract_x
 _atom_site_fract_y
 _atom_site_fract_z
 _atom_site_occupancy
  As  As0  1  0.16457088  0.26787613  0.07735278  1
  As  As1  1  0.83542912  0.73212387  0.92264722  1
  As  As2  1  0.83542912  0.76787613  0.42264722  1
  As  As3  1  0.16457088  0.23212387  0.57735278  1
  Se  Se4  1  0.20390804  0.66982126  0.19401911  1
  Se  Se5  1  0.79609196  0.33017874  0.80598089  1
  Se  Se6  1  0.79609196  0.16982126  0.30598089  1
  Se  Se7  1  0.20390804  0.83017874  0.69401911  1
  Br  Br8  1  0.76923784  0.38799756  0.25130612  1
  Br  Br9  1  0.23076216  0.61200244  0.74869388  1
  Br  Br10  1  0.23076216  0.88799756  0.24869388  1
  Br  Br11  1  0.76923784  0.11200244  0.75130612  1
  Br  Br12  1  0.70444773  0.05464163  0.14849101  1
  Br  Br13  1  0.29555227  0.94535837  0.85150899  1
  Br  Br14  1  0.29555227  0.55464163  0.35150899  1
  Br  Br15  1  0.70444773  0.44535837  0.64849101  1
  Br  Br16  1  0.57079952  0.15261439  0.39906625  1
  Br  Br17  1  0.42920048  0.84738561  0.60093375  1
  Br  Br18  1  0.42920048  0.65261439  0.10093375  1
  Br  Br19  1  0.57079952  0.34738561  0.89906625  1
  F  F20  1  0.04016444  0.73301475  0.49358499  1
  F  F21  1  0.95983556  0.26698525  0.50641501  1
  F  F22  1  0.95983556  0.23301475  0.00641501  1
  F  F23  1  0.04016444  0.76698525  0.99358499  1
  F  F24  1  0.36534701  0.30602684  0.14797295  1
  F  F25  1  0.63465299  0.69397316  0.85202705  1
  F  F26  1  0.63465299  0.80602684  0.35202705  1
  F  F27  1  0.36534701  0.19397316  0.64797295  1
  F  F28  1  0.10392589  0.20388806  0.19860503  1
  F  F29  1  0.89607411  0.79611194  0.80139497  1
  F  F30  1  0.89607411  0.70388806  0.30139497  1
  F  F31  1  0.10392589  0.29611194  0.69860503  1
  F  F32  1  0.09256738  0.42734854  0.10986820  1
  F  F33  1  0.90743262  0.57265146  0.89013180  1
  F  F34  1  0.90743262  0.92734854  0.39013180  1
  F  F35  1  0.09256738  0.07265146  0.60986820  1
  F  F36  1  0.23322314  0.10922091  0.04569039  1
  F  F37  1  0.76677686  0.89077909  0.95430961  1
  F  F38  1  0.76677686  0.60922091  0.45430961  1
  F  F39  1  0.23322314  0.39077909  0.54569039  1
  F  F40  1  0.22030289  0.16784827  0.45551096  1
  F  F41  1  0.77969711  0.83215173  0.54448904  1
  F  F42  1  0.77969711  0.66784827  0.04448904  1
  F  F43  1  0.22030289  0.33215173  0.95551096  1
