# generated using pymatgen
data_Zr2Al3Zn
_symmetry_space_group_name_H-M   'P 1'
_cell_length_a   5.33393407
_cell_length_b   5.33393407
_cell_length_c   5.26217422
_cell_angle_alpha   90.00000000
_cell_angle_beta   59.54785964
_cell_angle_gamma   120.00000000
_symmetry_Int_Tables_number   1
_chemical_formula_structural   Zr2Al3Zn
_chemical_formula_sum   'Zr2 Al3 Zn1'
_cell_volume   105.13406193
_cell_formula_units_Z   1
loop_
 _symmetry_equiv_pos_site_id
 _symmetry_equiv_pos_as_xyz
  1  'x, y, z'
loop_
 _atom_site_type_symbol
 _atom_site_label
 _atom_site_symmetry_multiplicity
 _atom_site_fract_x
 _atom_site_fract_y
 _atom_site_fract_z
 _atom_site_occupancy
  Zr  Zr0  1  0.50067790  0.75033895  0.74898314  1
  Zr  Zr1  1  0.99932210  0.99966105  0.00101686  1
  Al  Al2  1  0.25000000  0.37500000  0.37500000  1
  Al  Al3  1  0.25000000  0.87500000  0.37500000  1
  Al  Al4  1  0.75000000  0.37500000  0.37500000  1
  Zn  Zn5  1  0.75000000  0.37500000  0.87500000  1
