# generated using pymatgen
data_Ba3Er(BO3)3
_symmetry_space_group_name_H-M   'P 1'
_cell_length_a   9.47977904
_cell_length_b   9.47977904
_cell_length_c   18.00277563
_cell_angle_alpha   90.00000000
_cell_angle_beta   90.00000000
_cell_angle_gamma   119.99999778
_symmetry_Int_Tables_number   1
_chemical_formula_structural   Ba3Er(BO3)3
_chemical_formula_sum   'Ba18 Er6 B18 O54'
_cell_volume   1401.09163365
_cell_formula_units_Z   6
loop_
 _symmetry_equiv_pos_site_id
 _symmetry_equiv_pos_as_xyz
  1  'x, y, z'
loop_
 _atom_site_type_symbol
 _atom_site_label
 _atom_site_symmetry_multiplicity
 _atom_site_fract_x
 _atom_site_fract_y
 _atom_site_fract_z
 _atom_site_occupancy
  Ba  Ba0  1  0.00000000  0.00000000  0.72129155  1
  Ba  Ba1  1  0.00000000  0.00000000  0.22129155  1
  Ba  Ba2  1  0.34405682  0.34405682  0.62919995  1
  Ba  Ba3  1  1.00000000  0.65594318  0.62919995  1
  Ba  Ba4  1  0.65594318  0.65594318  0.12919995  1
  Ba  Ba5  1  0.00000000  0.34405682  0.12919995  1
  Ba  Ba6  1  0.65594318  1.00000000  0.62919995  1
  Ba  Ba7  1  0.34405682  0.00000000  0.12919995  1
  Ba  Ba8  1  0.32135780  0.32135780  0.87026107  1
  Ba  Ba9  1  1.00000000  0.67864220  0.87026107  1
  Ba  Ba10  1  0.67864220  0.67864220  0.37026107  1
  Ba  Ba11  1  0.00000000  0.32135780  0.37026107  1
  Ba  Ba12  1  0.67864220  1.00000000  0.87026107  1
  Ba  Ba13  1  0.32135780  0.00000000  0.37026107  1
  Ba  Ba14  1  0.66666700  0.33333300  0.77212592  1
  Ba  Ba15  1  0.33333300  0.66666700  0.27212592  1
  Ba  Ba16  1  0.66666700  0.33333300  0.27212592  1
  Ba  Ba17  1  0.33333300  0.66666700  0.77212592  1
  Er  Er18  1  0.00000000  0.00000000  0.00366348  1
  Er  Er19  1  0.00000000  0.00000000  0.50366348  1
  Er  Er20  1  0.66666700  0.33333300  0.99821263  1
  Er  Er21  1  0.33333300  0.66666700  0.49821263  1
  Er  Er22  1  0.66666700  0.33333300  0.49821263  1
  Er  Er23  1  0.33333300  0.66666700  0.99821263  1
  B  B24  1  0.66638221  0.66638221  0.74827250  1
  B  B25  1  0.00000000  0.33361779  0.74827250  1
  B  B26  1  0.33361779  0.33361779  0.24827250  1
  B  B27  1  1.00000000  0.66638221  0.24827250  1
  B  B28  1  0.33361779  0.00000000  0.74827250  1
  B  B29  1  0.66638221  1.00000000  0.24827250  1
  B  B30  1  0.67220072  0.67220072  0.57405638  1
  B  B31  1  0.00000000  0.32779928  0.57405638  1
  B  B32  1  0.32779928  0.32779928  0.07405638  1
  B  B33  1  1.00000000  0.67220072  0.07405638  1
  B  B34  1  0.32779928  0.00000000  0.57405638  1
  B  B35  1  0.67220072  1.00000000  0.07405638  1
  B  B36  1  0.66176844  0.66176844  0.92384750  1
  B  B37  1  0.00000000  0.33823156  0.92384750  1
  B  B38  1  0.33823156  0.33823156  0.42384750  1
  B  B39  1  1.00000000  0.66176844  0.42384750  1
  B  B40  1  0.33823156  0.00000000  0.92384750  1
  B  B41  1  0.66176844  1.00000000  0.42384750  1
  O  O42  1  0.85278047  0.18656186  0.74874868  1
  O  O43  1  0.33378139  0.14721953  0.74874868  1
  O  O44  1  0.14721953  0.81343814  0.24874868  1
  O  O45  1  0.33378139  0.18656186  0.24874868  1
  O  O46  1  0.81343814  0.66621861  0.74874868  1
  O  O47  1  0.66621861  0.85278047  0.24874868  1
  O  O48  1  0.81343814  0.14721953  0.24874868  1
  O  O49  1  0.66621861  0.81343814  0.74874868  1
  O  O50  1  0.18656186  0.33378139  0.24874868  1
  O  O51  1  0.18656186  0.85278047  0.74874868  1
  O  O52  1  0.85278047  0.66621861  0.24874868  1
  O  O53  1  0.14721953  0.33378139  0.74874868  1
  O  O54  1  0.80789938  0.80789938  0.93165818  1
  O  O55  1  1.00000000  0.19210062  0.93165818  1
  O  O56  1  0.19210062  0.19210062  0.43165818  1
  O  O57  1  0.00000000  0.80789938  0.43165818  1
  O  O58  1  0.19210062  1.00000000  0.93165818  1
  O  O59  1  0.80789938  0.00000000  0.43165818  1
  O  O60  1  0.51917131  0.51917131  0.74821241  1
  O  O61  1  0.00000000  0.48082869  0.74821241  1
  O  O62  1  0.48082869  0.48082869  0.24821241  1
  O  O63  1  1.00000000  0.51917131  0.24821241  1
  O  O64  1  0.48082869  0.00000000  0.74821241  1
  O  O65  1  0.51917131  1.00000000  0.24821241  1
  O  O66  1  0.85310902  0.33751176  0.91928819  1
  O  O67  1  0.48440274  0.14689098  0.91928819  1
  O  O68  1  0.14689098  0.66248824  0.41928819  1
  O  O69  1  0.48440274  0.33751176  0.41928819  1
  O  O70  1  0.66248824  0.51559726  0.91928819  1
  O  O71  1  0.51559726  0.85310902  0.41928819  1
  O  O72  1  0.66248824  0.14689098  0.41928819  1
  O  O73  1  0.51559726  0.66248824  0.91928819  1
  O  O74  1  0.33751176  0.48440274  0.41928819  1
  O  O75  1  0.33751176  0.85310902  0.91928819  1
  O  O76  1  0.85310902  0.51559726  0.41928819  1
  O  O77  1  0.14689098  0.48440274  0.91928819  1
  O  O78  1  0.81785070  0.81785070  0.58303817  1
  O  O79  1  1.00000000  0.18214930  0.58303817  1
  O  O80  1  0.18214930  0.18214930  0.08303817  1
  O  O81  1  0.00000000  0.81785070  0.08303817  1
  O  O82  1  0.18214930  1.00000000  0.58303817  1
  O  O83  1  0.81785070  0.00000000  0.08303817  1
  O  O84  1  0.85373580  0.32785155  0.56981804  1
  O  O85  1  0.47411575  0.14626420  0.56981804  1
  O  O86  1  0.14626420  0.67214845  0.06981804  1
  O  O87  1  0.47411575  0.32785155  0.06981804  1
  O  O88  1  0.67214845  0.52588425  0.56981804  1
  O  O89  1  0.52588425  0.85373580  0.06981804  1
  O  O90  1  0.67214845  0.14626420  0.06981804  1
  O  O91  1  0.52588425  0.67214845  0.56981804  1
  O  O92  1  0.32785155  0.47411575  0.06981804  1
  O  O93  1  0.32785155  0.85373580  0.56981804  1
  O  O94  1  0.85373580  0.52588425  0.06981804  1
  O  O95  1  0.14626420  0.47411575  0.56981804  1
