# generated using pymatgen
data_ZrVMo
_symmetry_space_group_name_H-M   'P 1'
_cell_length_a   5.29619716
_cell_length_b   5.29619716
_cell_length_c   5.29619716
_cell_angle_alpha   89.58412330
_cell_angle_beta   59.67363515
_cell_angle_gamma   119.19718567
_symmetry_Int_Tables_number   1
_chemical_formula_structural   ZrVMo
_chemical_formula_sum   'Zr2 V2 Mo2'
_cell_volume   105.40805034
_cell_formula_units_Z   2
loop_
 _symmetry_equiv_pos_site_id
 _symmetry_equiv_pos_as_xyz
  1  'x, y, z'
loop_
 _atom_site_type_symbol
 _atom_site_label
 _atom_site_symmetry_multiplicity
 _atom_site_fract_x
 _atom_site_fract_y
 _atom_site_fract_z
 _atom_site_occupancy
  Zr  Zr0  1  0.50000000  0.75045806  0.74954194  1
  Zr  Zr1  1  0.00000000  0.99954194  0.00045806  1
  V  V2  1  0.25000000  0.87500000  0.37500000  1
  V  V3  1  0.75000000  0.37500000  0.37500000  1
  Mo  Mo4  1  0.75000000  0.37500000  0.87500000  1
  Mo  Mo5  1  0.25000000  0.37500000  0.37500000  1
