# generated using pymatgen
data_Al11Cr4
_symmetry_space_group_name_H-M   'P 1'
_cell_length_a   5.09907886
_cell_length_b   5.14864241
_cell_length_c   8.95948967
_cell_angle_alpha   74.28008892
_cell_angle_beta   89.59569163
_cell_angle_gamma   79.42228198
_symmetry_Int_Tables_number   1
_chemical_formula_structural   Al11Cr4
_chemical_formula_sum   'Al11 Cr4'
_cell_volume   222.34473828
_cell_formula_units_Z   1
loop_
 _symmetry_equiv_pos_site_id
 _symmetry_equiv_pos_as_xyz
  1  'x, y, z'
loop_
 _atom_site_type_symbol
 _atom_site_label
 _atom_site_symmetry_multiplicity
 _atom_site_fract_x
 _atom_site_fract_y
 _atom_site_fract_z
 _atom_site_occupancy
  Al  Al0  1  0.18370303  0.27824596  0.36974607  1
  Al  Al1  1  0.81629697  0.72175404  0.63025393  1
  Al  Al2  1  0.84993820  0.46568261  0.12512529  1
  Al  Al3  1  0.15006180  0.53431739  0.87487471  1
  Al  Al4  1  -0.00000000  0.00000000  -0.00000000  1
  Al  Al5  1  0.48370369  0.10247245  0.12376044  1
  Al  Al6  1  0.51629631  0.89752755  0.87623956  1
  Al  Al7  1  0.42475274  0.32931264  0.62768710  1
  Al  Al8  1  0.57524726  0.67068736  0.37231290  1
  Al  Al9  1  0.05674624  0.82863924  0.31690291  1
  Al  Al10  1  0.94325376  0.17136076  0.68309709  1
  Cr  Cr11  1  0.69908393  0.14501447  0.40004724  1
  Cr  Cr12  1  0.30091607  0.85498553  0.59995276  1
  Cr  Cr13  1  0.34227722  0.60260188  0.13364772  1
  Cr  Cr14  1  0.65772278  0.39739812  0.86635228  1
