# generated using pymatgen
data_ZrMn6GaSn5
_symmetry_space_group_name_H-M   'P 1'
_cell_length_a   5.35205893
_cell_length_b   5.35420097
_cell_length_c   8.90592102
_cell_angle_alpha   90.00000000
_cell_angle_beta   90.00000000
_cell_angle_gamma   59.98651034
_symmetry_Int_Tables_number   1
_chemical_formula_structural   ZrMn6GaSn5
_chemical_formula_sum   'Zr1 Mn6 Ga1 Sn5'
_cell_volume   220.98661853
_cell_formula_units_Z   1
loop_
 _symmetry_equiv_pos_site_id
 _symmetry_equiv_pos_as_xyz
  1  'x, y, z'
loop_
 _atom_site_type_symbol
 _atom_site_label
 _atom_site_symmetry_multiplicity
 _atom_site_fract_x
 _atom_site_fract_y
 _atom_site_fract_z
 _atom_site_occupancy
  Zr  Zr0  1  -0.00001461  0.00000932  0.50000000  1
  Mn  Mn1  1  0.49689809  0.00619048  0.25767430  1
  Mn  Mn2  1  0.00621954  0.49690806  0.25765586  1
  Mn  Mn3  1  0.49686919  0.49691282  0.25766161  1
  Mn  Mn4  1  0.49689809  0.00619048  0.74232570  1
  Mn  Mn5  1  0.00621954  0.49690806  0.74234414  1
  Mn  Mn6  1  0.49686919  0.49691282  0.74233839  1
  Ga  Ga7  1  0.33318140  0.33344219  0.50000000  1
  Sn  Sn8  1  -0.00001182  0.00000080  0.17267748  1
  Sn  Sn9  1  -0.00001182  0.00000080  0.82732252  1
  Sn  Sn10  1  0.66666508  0.66666561  0.00000000  1
  Sn  Sn11  1  0.33328525  0.33334704  -0.00000000  1
  Sn  Sn12  1  0.66673288  0.66651150  0.50000000  1
