# generated using pymatgen
data_YAl7Cu5
_symmetry_space_group_name_H-M   'P 1'
_cell_length_a   5.09170811
_cell_length_b   6.66892554
_cell_length_c   6.66892554
_cell_angle_alpha   97.80366004
_cell_angle_beta   112.44205171
_cell_angle_gamma   67.55794829
_symmetry_Int_Tables_number   1
_chemical_formula_structural   YAl7Cu5
_chemical_formula_sum   'Y1 Al7 Cu5'
_cell_volume   193.43711471
_cell_formula_units_Z   1
loop_
 _symmetry_equiv_pos_site_id
 _symmetry_equiv_pos_as_xyz
  1  'x, y, z'
loop_
 _atom_site_type_symbol
 _atom_site_label
 _atom_site_symmetry_multiplicity
 _atom_site_fract_x
 _atom_site_fract_y
 _atom_site_fract_z
 _atom_site_occupancy
  Y  Y0  1  0.99949623  0.00050377  0.99949623  1
  Al  Al1  1  0.64976931  0.35023069  0.64976931  1
  Al  Al2  1  0.34434187  0.65565813  0.34434187  1
  Al  Al3  1  0.99266227  0.35599944  0.34132397  1
  Al  Al4  1  0.99266227  0.65867603  0.64400056  1
  Al  Al5  1  0.27655189  0.22344811  0.77655189  1
  Al  Al6  1  0.50682404  0.78147530  0.79512338  1
  Al  Al7  1  0.50682404  0.20487662  0.21852470  1
  Cu  Cu8  1  0.50051896  0.00031819  0.50433737  1
  Cu  Cu9  1  0.00350021  0.00031819  0.50433737  1
  Cu  Cu10  1  0.50051896  0.49566263  0.99968181  1
  Cu  Cu11  1  0.00350021  0.49566263  0.99968181  1
  Cu  Cu12  1  0.72282973  0.77717027  0.22282973  1
