# generated using pymatgen
data_YbAlCu5
_symmetry_space_group_name_H-M   'P 1'
_cell_length_a   4.88489280
_cell_length_b   5.11215138
_cell_length_c   5.11215138
_cell_angle_alpha   103.19504525
_cell_angle_beta   118.54002907
_cell_angle_gamma   61.45997093
_symmetry_Int_Tables_number   1
_chemical_formula_structural   YbAlCu5
_chemical_formula_sum   'Yb1 Al1 Cu5'
_cell_volume   98.52120228
_cell_formula_units_Z   1
loop_
 _symmetry_equiv_pos_site_id
 _symmetry_equiv_pos_as_xyz
  1  'x, y, z'
loop_
 _atom_site_type_symbol
 _atom_site_label
 _atom_site_symmetry_multiplicity
 _atom_site_fract_x
 _atom_site_fract_y
 _atom_site_fract_z
 _atom_site_occupancy
  Yb  Yb0  1  -0.00000000  0.00000000  -0.00000000  1
  Al  Al1  1  0.25000000  0.50000000  0.50000000  1
  Cu  Cu2  1  0.30727731  -0.00000000  0.61455462  1
  Cu  Cu3  1  0.69272269  -0.00000000  0.38544538  1
  Cu  Cu4  1  0.69272269  0.61455462  -0.00000000  1
  Cu  Cu5  1  0.30727731  0.38544538  0.00000000  1
  Cu  Cu6  1  0.75000000  0.50000000  0.50000000  1
