# generated using pymatgen
data_Yb2SnS5
_symmetry_space_group_name_H-M   'P 1'
_cell_length_a   3.87402616
_cell_length_b   11.45367476
_cell_length_c   15.12453693
_cell_angle_alpha   90.00000000
_cell_angle_beta   90.00000000
_cell_angle_gamma   90.00000000
_symmetry_Int_Tables_number   1
_chemical_formula_structural   Yb2SnS5
_chemical_formula_sum   'Yb8 Sn4 S20'
_cell_volume   671.10346692
_cell_formula_units_Z   4
loop_
 _symmetry_equiv_pos_site_id
 _symmetry_equiv_pos_as_xyz
  1  'x, y, z'
loop_
 _atom_site_type_symbol
 _atom_site_label
 _atom_site_symmetry_multiplicity
 _atom_site_fract_x
 _atom_site_fract_y
 _atom_site_fract_z
 _atom_site_occupancy
  Yb  Yb0  1  0.01979473  0.25794115  0.57505298  1
  Yb  Yb1  1  0.01979473  0.74205885  0.42494702  1
  Yb  Yb2  1  0.98020527  0.75794115  0.92494702  1
  Yb  Yb3  1  0.98020527  0.24205885  0.07505298  1
  Yb  Yb4  1  0.98949879  0.12258760  0.82336841  1
  Yb  Yb5  1  0.98949879  0.87741240  0.17663159  1
  Yb  Yb6  1  0.01050121  0.62258760  0.67663159  1
  Yb  Yb7  1  0.01050121  0.37741240  0.32336841  1
  Sn  Sn8  1  0.52910367  0.93671629  0.62899014  1
  Sn  Sn9  1  0.52910367  0.06328371  0.37100986  1
  Sn  Sn10  1  0.47089633  0.43671629  0.87100986  1
  Sn  Sn11  1  0.47089633  0.56328371  0.12899014  1
  S  S12  1  0.52822074  0.74090329  0.56311616  1
  S  S13  1  0.52822074  0.25909671  0.43688384  1
  S  S14  1  0.47177926  0.24090329  0.93688384  1
  S  S15  1  0.47177926  0.75909671  0.06311616  1
  S  S16  1  0.98186460  0.50000000  -0.00000000  1
  S  S17  1  0.01813540  -0.00000000  0.50000000  1
  S  S18  1  0.51081920  0.14217964  0.68159424  1
  S  S19  1  0.51081920  0.85782036  0.31840576  1
  S  S20  1  0.48918080  0.64217964  0.81840576  1
  S  S21  1  0.48918080  0.35782036  0.18159424  1
  S  S22  1  0.51107919  0.44953481  0.60906907  1
  S  S23  1  0.51107919  0.55046519  0.39093093  1
  S  S24  1  0.48892081  0.94953481  0.89093093  1
  S  S25  1  0.48892081  0.05046519  0.10906907  1
  S  S26  1  0.96634037  0.38003006  0.76829438  1
  S  S27  1  0.96634037  0.61996994  0.23170562  1
  S  S28  1  0.03365963  0.88003006  0.73170562  1
  S  S29  1  0.03365963  0.11996994  0.26829438  1
  S  S30  1  0.20781616  0.50000000  0.50000000  1
  S  S31  1  0.79218384  0.00000000  -0.00000000  1
