# generated using pymatgen
data_Y2CrSbO7
_symmetry_space_group_name_H-M   'P 1'
_cell_length_a   7.29771429
_cell_length_b   7.26803362
_cell_length_c   7.35298614
_cell_angle_alpha   90.00000000
_cell_angle_beta   59.74914093
_cell_angle_gamma   119.86555178
_symmetry_Int_Tables_number   1
_chemical_formula_structural   Y2CrSbO7
_chemical_formula_sum   'Y4 Cr2 Sb2 O14'
_cell_volume   275.28443948
_cell_formula_units_Z   2
loop_
 _symmetry_equiv_pos_site_id
 _symmetry_equiv_pos_as_xyz
  1  'x, y, z'
loop_
 _atom_site_type_symbol
 _atom_site_label
 _atom_site_symmetry_multiplicity
 _atom_site_fract_x
 _atom_site_fract_y
 _atom_site_fract_z
 _atom_site_occupancy
  Y  Y0  1  0.50000000  0.50000000  0.00000000  1
  Y  Y1  1  0.50000000  0.00000000  0.00000000  1
  Y  Y2  1  0.00000000  0.00000000  0.50000000  1
  Y  Y3  1  0.00000000  0.00000000  0.00000000  1
  Cr  Cr4  1  0.50000000  0.00000000  0.50000000  1
  Cr  Cr5  1  0.50000000  0.50000000  0.50000000  1
  Sb  Sb6  1  -0.00000000  0.50000000  0.00000000  1
  Sb  Sb7  1  -0.00000000  0.50000000  0.50000000  1
  O  O8  1  0.25535980  0.12767990  0.12232010  1
  O  O9  1  0.74464020  0.87232010  0.87767990  1
  O  O10  1  0.67977756  0.83988878  0.41011122  1
  O  O11  1  0.83720581  0.41860290  0.83139710  1
  O  O12  1  0.25217421  0.83120557  0.83636559  1
  O  O13  1  0.25217421  0.42096864  0.41146020  1
  O  O14  1  0.25217421  0.42096864  0.83636559  1
  O  O15  1  0.25217421  0.83120557  0.41146020  1
  O  O16  1  0.32022244  0.16011122  0.58988878  1
  O  O17  1  0.16279419  0.58139710  0.16860290  1
  O  O18  1  0.74782579  0.16879443  0.16363441  1
  O  O19  1  0.74782579  0.57903136  0.58853980  1
  O  O20  1  0.74782579  0.57903136  0.16363441  1
  O  O21  1  0.74782579  0.16879443  0.58853980  1
