# generated using pymatgen
data_TiNi4GeO8
_symmetry_space_group_name_H-M   'P 1'
_cell_length_a   5.91559955
_cell_length_b   5.91559955
_cell_length_c   5.91559955
_cell_angle_alpha   90.00000000
_cell_angle_beta   60.00000000
_cell_angle_gamma   120.00000000
_symmetry_Int_Tables_number   1
_chemical_formula_structural   TiNi4GeO8
_chemical_formula_sum   'Ti1 Ni4 Ge1 O8'
_cell_volume   146.37985241
_cell_formula_units_Z   1
loop_
 _symmetry_equiv_pos_site_id
 _symmetry_equiv_pos_as_xyz
  1  'x, y, z'
loop_
 _atom_site_type_symbol
 _atom_site_label
 _atom_site_symmetry_multiplicity
 _atom_site_fract_x
 _atom_site_fract_y
 _atom_site_fract_z
 _atom_site_occupancy
  Ti  Ti0  1  0.00000000  0.00000000  0.00000000  1
  Ni  Ni1  1  0.74846480  0.37423240  0.87730281  1
  Ni  Ni2  1  0.25153520  0.37423240  0.37423240  1
  Ni  Ni3  1  0.25153520  0.87730281  0.37423240  1
  Ni  Ni4  1  0.74846480  0.37423240  0.37423240  1
  Ge  Ge5  1  0.50000000  0.75000000  0.75000000  1
  O  O6  1  0.25476902  0.12738451  0.61784647  1
  O  O7  1  0.74523098  0.12738451  0.12738451  1
  O  O8  1  0.74523098  0.61784647  0.12738451  1
  O  O9  1  0.25476902  0.12738451  0.12738451  1
  O  O10  1  0.25028550  0.62514275  0.12457176  1
  O  O11  1  0.74971450  0.62514275  0.62514275  1
  O  O12  1  0.74971450  0.12457176  0.62514275  1
  O  O13  1  0.25028550  0.62514275  0.62514275  1
