# generated using pymatgen
data_Zn2GaP3H8(NO6)2
_symmetry_space_group_name_H-M   'P 1'
_cell_length_a   11.81471109
_cell_length_b   11.81294299
_cell_length_c   11.79231060
_cell_angle_alpha   70.61162906
_cell_angle_beta   70.31556903
_cell_angle_gamma   109.59828657
_symmetry_Int_Tables_number   1
_chemical_formula_structural   Zn2GaP3H8(NO6)2
_chemical_formula_sum   'Zn8 Ga4 P12 H32 N8 O48'
_cell_volume   1262.89858327
_cell_formula_units_Z   4
loop_
 _symmetry_equiv_pos_site_id
 _symmetry_equiv_pos_as_xyz
  1  'x, y, z'
loop_
 _atom_site_type_symbol
 _atom_site_label
 _atom_site_symmetry_multiplicity
 _atom_site_fract_x
 _atom_site_fract_y
 _atom_site_fract_z
 _atom_site_occupancy
  Zn  Zn0  1  0.23004404  0.95922322  0.97230681  1
  Zn  Zn1  1  0.02997230  0.72985727  0.53875186  1
  Zn  Zn2  1  0.04544620  0.27326638  0.92659152  1
  Zn  Zn3  1  0.46463923  0.92554686  0.30228061  1
  Zn  Zn4  1  0.69946950  0.97022536  0.57333642  1
  Zn  Zn5  1  0.07450301  0.54939257  0.22417381  1
  Zn  Zn6  1  0.42743084  0.19810571  0.53318528  1
  Zn  Zn7  1  0.77358629  0.57063839  0.95354442  1
  Ga  Ga8  1  0.46052803  0.53150450  0.76685902  1
  Ga  Ga9  1  0.26670983  0.29899075  0.27915268  1
  Ga  Ga10  1  0.72243895  0.76500354  0.19978224  1
  Ga  Ga11  1  0.80029399  0.22271521  0.73432000  1
  P  P12  1  0.30551023  0.27140186  0.76923602  1
  P  P13  1  0.22802660  0.80382482  0.23282146  1
  P  P14  1  0.76455118  0.72562472  0.69443674  1
  P  P15  1  0.19949492  0.41999841  0.04157622  1
  P  P16  1  0.26962238  0.04105747  0.42663433  1
  P  P17  1  0.73974004  0.03594954  0.03856781  1
  P  P18  1  0.96298590  0.24093052  0.46207103  1
  P  P19  1  0.95807897  0.69535425  0.07933124  1
  P  P20  1  0.57247304  0.77073127  0.46034486  1
  P  P21  1  0.54167415  0.07481649  0.72987417  1
  P  P22  1  0.53664463  0.46223924  0.26026906  1
  P  P23  1  0.92033142  0.45791890  0.80469818  1
  H  H24  1  0.26782467  0.66929119  0.79085160  1
  H  H25  1  0.20530642  0.76774802  0.83413320  1
  H  H26  1  0.16559047  0.70704886  0.73217511  1
  H  H27  1  0.22982485  0.43977357  0.60211594  1
  H  H28  1  0.28851805  0.45870129  0.44144994  1
  H  H29  1  0.33169212  0.60073035  0.45915383  1
  H  H30  1  0.54008858  0.83308177  0.89917070  1
  H  H31  1  0.39638672  0.73186576  0.06163030  1
  H  H32  1  0.55758414  0.78988800  0.04148700  1
  H  H33  1  0.95884136  0.05752630  0.71062472  1
  H  H34  1  0.10159017  0.04002119  0.66647015  1
  H  H35  1  0.93892181  0.89723340  0.76925853  1
  H  H36  1  0.33175896  0.83412506  0.66702294  1
  H  H37  1  0.16553439  0.50189765  0.49939711  1
  H  H38  1  0.49922973  0.66664472  0.00003798  1
  H  H39  1  0.00061587  0.99906319  0.83385661  1
  H  H40  1  0.85793040  0.35864646  0.14109355  1
  H  H41  1  0.64122243  0.49665058  0.50176986  1
  H  H42  1  0.49602095  0.13891099  0.00255942  1
  H  H43  1  0.99943778  0.99683526  0.35936574  1
  H  H44  1  0.73121220  0.19753343  0.20172300  1
  H  H45  1  0.79823743  0.23193606  0.30235796  1
  H  H46  1  0.69721219  0.29838942  0.26878222  1
  H  H47  1  0.76902340  0.56722153  0.53449745  1
  H  H48  1  0.70447038  0.40029450  0.56590162  1
  H  H49  1  0.80469087  0.53562858  0.39735545  1
  H  H50  1  0.60217072  0.30191572  0.96524888  1
  H  H51  1  0.46658790  0.26821888  0.93355806  1
  H  H52  1  0.43297764  0.20224345  0.10080945  1
  H  H53  1  0.90122975  0.93232008  0.29745865  1
  H  H54  1  0.03592056  0.09996661  0.19684732  1
  H  H55  1  0.06849135  0.96375775  0.23150833  1
  N  N56  1  0.24419087  0.74615917  0.75451691  1
  N  N57  1  0.25159387  0.49989788  0.50084146  1
  N  N58  1  0.49805714  0.75310241  0.00060745  1
  N  N59  1  0.99986564  0.99807946  0.74711637  1
  N  N60  1  0.77057663  0.27094390  0.22919313  1
  N  N61  1  0.73024995  0.50018202  0.49960681  1
  N  N62  1  0.49975477  0.22810728  0.00050622  1
  N  N63  1  0.00138602  0.99882428  0.27064916  1
  O  O64  1  0.60309123  0.61713889  0.79306267  1
  O  O65  1  0.21044945  0.11759010  0.88052030  1
  O  O66  1  0.12334103  0.70183202  0.38995080  1
  O  O67  1  0.89539107  0.09299365  0.98716657  1
  O  O68  1  0.29358910  0.40633697  0.10680273  1
  O  O69  1  0.38250657  0.00042050  0.40868768  1
  O  O70  1  0.59149690  0.88175701  0.50251758  1
  O  O71  1  0.01453194  0.39597830  0.40302161  1
  O  O72  1  0.89322381  0.79131061  0.09235577  1
  O  O73  1  0.90905853  0.39275185  0.70878367  1
  O  O74  1  0.50148380  0.09271064  0.61651995  1
  O  O75  1  0.59376697  0.51351795  0.10492233  1
  O  O76  1  0.51950052  0.62436700  0.57973284  1
  O  O77  1  0.42890189  0.02898934  0.87364916  1
  O  O78  1  0.12513056  0.92830889  0.47446926  1
  O  O79  1  0.97192538  0.39687812  0.89915616  1
  O  O80  1  0.08087826  0.20731539  0.40867851  1
  O  O81  1  0.37594749  0.90095489  0.19640142  1
  O  O82  1  0.79691326  0.87094526  0.59983703  1
  O  O83  1  0.11214815  0.48033832  0.09416203  1
  O  O84  1  0.58953956  0.58030331  0.29375576  1
  O  O85  1  0.70789771  0.08974674  0.91984217  1
  O  O86  1  0.40395539  0.30556611  0.62354525  1
  O  O87  1  0.89580026  0.60102241  0.02821565  1
  O  O88  1  0.30595507  0.53039459  0.88108489  1
  O  O89  1  0.11498315  0.79634879  0.96913575  1
  O  O90  1  0.02848762  0.61509290  0.70548090  1
  O  O91  1  0.21337879  0.33805528  0.75622031  1
  O  O92  1  0.37433037  0.40851135  0.32641694  1
  O  O93  1  0.46576398  0.75638194  0.41006052  1
  O  O94  1  0.59290574  0.96781037  0.74286133  1
  O  O95  1  0.24333815  0.71322581  0.16334152  1
  O  O96  1  0.67408325  0.87383351  0.09307525  1
  O  O97  1  0.90902020  0.17541792  0.62421198  1
  O  O98  1  0.25799290  0.09483840  0.53220833  1
  O  O99  1  0.82170082  0.73632285  0.79360007  1
  O  O100  1  0.40331802  0.34649453  0.81935644  1
  O  O101  1  0.17195108  0.89622746  0.16962150  1
  O  O102  1  0.82974679  0.66985592  0.60395446  1
  O  O103  1  0.10769546  0.27683820  0.06332103  1
  O  O104  1  0.31933793  0.16738425  0.27937313  1
  O  O105  1  0.66649826  0.06198674  0.15484023  1
  O  O106  1  0.84800356  0.16741894  0.43486468  1
  O  O107  1  0.93300525  0.60353926  0.22514830  1
  O  O108  1  0.71627133  0.81046309  0.33915985  1
  O  O109  1  0.66893486  0.22116030  0.68044679  1
  O  O110  1  0.56367356  0.34743194  0.33309643  1
  O  O111  1  0.77314017  0.43116813  0.89650652  1
