# generated using pymatgen
data_VAg3HgO4
_symmetry_space_group_name_H-M   'P 1'
_cell_length_a   4.76294923
_cell_length_b   5.99714721
_cell_length_c   6.06585614
_cell_angle_alpha   99.29289115
_cell_angle_beta   113.67365554
_cell_angle_gamma   67.10495709
_symmetry_Int_Tables_number   1
_chemical_formula_structural   VAg3HgO4
_chemical_formula_sum   'V1 Ag3 Hg1 O4'
_cell_volume   146.18078505
_cell_formula_units_Z   1
loop_
 _symmetry_equiv_pos_site_id
 _symmetry_equiv_pos_as_xyz
  1  'x, y, z'
loop_
 _atom_site_type_symbol
 _atom_site_label
 _atom_site_symmetry_multiplicity
 _atom_site_fract_x
 _atom_site_fract_y
 _atom_site_fract_z
 _atom_site_occupancy
  V  V0  1  0.99440629  0.99899037  0.99426805  1
  Ag  Ag1  1  0.60634751  0.59631146  0.73939745  1
  Ag  Ag2  1  0.80336568  0.74081849  0.40996896  1
  Ag  Ag3  1  0.13600705  0.26123286  0.59730360  1
  Hg  Hg4  1  0.48025973  0.40740261  0.27724028  1
  O  O5  1  0.62007428  0.24745960  0.91603218  1
  O  O6  1  0.94856681  0.74898697  0.07291277  1
  O  O7  1  0.29003142  0.07908813  0.24447452  1
  O  O8  1  0.12094124  0.91970951  0.74840219  1
