# generated using pymatgen
data_TlSbWO6
_symmetry_space_group_name_H-M   'P 1'
_cell_length_a   7.38258908
_cell_length_b   7.31220900
_cell_length_c   7.41808595
_cell_angle_alpha   90.00000000
_cell_angle_beta   59.84081849
_cell_angle_gamma   119.68514049
_symmetry_Int_Tables_number   1
_chemical_formula_structural   TlSbWO6
_chemical_formula_sum   'Tl2 Sb2 W2 O12'
_cell_volume   283.82160584
_cell_formula_units_Z   2
loop_
 _symmetry_equiv_pos_site_id
 _symmetry_equiv_pos_as_xyz
  1  'x, y, z'
loop_
 _atom_site_type_symbol
 _atom_site_label
 _atom_site_symmetry_multiplicity
 _atom_site_fract_x
 _atom_site_fract_y
 _atom_site_fract_z
 _atom_site_occupancy
  Tl  Tl0  1  0.80430193  0.40215096  0.29129006  1
  Tl  Tl1  1  0.19569807  0.59784904  0.59559199  1
  Sb  Sb2  1  0.50000000  0.50000000  0.99904741  1
  Sb  Sb3  1  0.50000000  -0.00000000  0.99904741  1
  W  W4  1  0.99627626  0.99813813  0.49850570  1
  W  W5  1  0.00372374  0.00186187  0.99478196  1
  O  O6  1  0.88381436  0.94190718  0.30763208  1
  O  O7  1  0.65025240  0.32512620  0.92755901  1
  O  O8  1  0.24384525  0.93276755  0.93652664  1
  O  O9  1  0.24618490  0.31193166  0.31977993  1
  O  O10  1  0.24384525  0.31107770  0.93652664  1
  O  O11  1  0.24618490  0.93425324  0.31977993  1
  O  O12  1  0.11618564  0.05809282  0.69144644  1
  O  O13  1  0.34974760  0.67487380  0.07781141  1
  O  O14  1  0.75381510  0.06574676  0.06596482  1
  O  O15  1  0.75615475  0.68892230  0.68037189  1
  O  O16  1  0.75381510  0.68806834  0.06596482  1
  O  O17  1  0.75615475  0.06723245  0.68037189  1
