# generated using pymatgen
data_TmGaAu
_symmetry_space_group_name_H-M   'P 1'
_cell_length_a   4.49809223
_cell_length_b   5.73303177
_cell_length_c   5.66669126
_cell_angle_alpha   93.96648237
_cell_angle_beta   113.38381892
_cell_angle_gamma   66.90255869
_symmetry_Int_Tables_number   1
_chemical_formula_structural   TmGaAu
_chemical_formula_sum   'Tm2 Ga2 Au2'
_cell_volume   122.72725839
_cell_formula_units_Z   2
loop_
 _symmetry_equiv_pos_site_id
 _symmetry_equiv_pos_as_xyz
  1  'x, y, z'
loop_
 _atom_site_type_symbol
 _atom_site_label
 _atom_site_symmetry_multiplicity
 _atom_site_fract_x
 _atom_site_fract_y
 _atom_site_fract_z
 _atom_site_occupancy
  Tm  Tm0  1  0.75956244  0.70418009  0.22330498  1
  Tm  Tm1  1  0.24043756  0.29581991  0.77669502  1
  Ga  Ga2  1  0.04944337  0.10853978  0.20742652  1
  Ga  Ga3  1  0.95055663  0.89146022  0.79257348  1
  Au  Au4  1  0.53747622  0.28447057  0.35942301  1
  Au  Au5  1  0.46252378  0.71552943  0.64057699  1
