# generated using pymatgen
data_Ti10CrSb5
_symmetry_space_group_name_H-M   'P 1'
_cell_length_a   5.25428971
_cell_length_b   7.88862978
_cell_length_c   7.88862978
_cell_angle_alpha   96.36768799
_cell_angle_beta   109.45274184
_cell_angle_gamma   70.54725816
_symmetry_Int_Tables_number   1
_chemical_formula_structural   Ti10CrSb5
_chemical_formula_sum   'Ti10 Cr1 Sb5'
_cell_volume   290.71245137
_cell_formula_units_Z   1
loop_
 _symmetry_equiv_pos_site_id
 _symmetry_equiv_pos_as_xyz
  1  'x, y, z'
loop_
 _atom_site_type_symbol
 _atom_site_label
 _atom_site_symmetry_multiplicity
 _atom_site_fract_x
 _atom_site_fract_y
 _atom_site_fract_z
 _atom_site_occupancy
  Ti  Ti0  1  0.25000000  0.50000000  0.50000000  1
  Ti  Ti1  1  0.75000000  0.50000000  0.50000000  1
  Ti  Ti2  1  0.43979575  0.85870314  0.70919846  1
  Ti  Ti3  1  0.58930043  0.14129686  0.29080154  1
  Ti  Ti4  1  0.91069957  0.29080154  0.14129686  1
  Ti  Ti5  1  0.06020425  0.70919846  0.85870314  1
  Ti  Ti6  1  0.73059729  0.70919846  0.14129686  1
  Ti  Ti7  1  0.29849890  0.29080154  0.85870314  1
  Ti  Ti8  1  0.76940271  0.14129686  0.70919846  1
  Ti  Ti9  1  0.20150110  0.85870314  0.29080154  1
  Cr  Cr10  1  0.75000000  -0.00000000  -0.00000000  1
  Sb  Sb11  1  0.33652953  0.50000000  0.17305907  1
  Sb  Sb12  1  0.66347047  0.50000000  0.82694093  1
  Sb  Sb13  1  0.83652953  0.82694093  0.50000000  1
  Sb  Sb14  1  0.16347047  0.17305907  0.50000000  1
  Sb  Sb15  1  0.25000000  -0.00000000  0.00000000  1
