# generated using pymatgen
data_Ta12MoO33
_symmetry_space_group_name_H-M   'P 1'
_cell_length_a   3.86036976
_cell_length_b   11.45759715
_cell_length_c   15.18211433
_cell_angle_alpha   86.03016638
_cell_angle_beta   82.69590812
_cell_angle_gamma   99.69848537
_symmetry_Int_Tables_number   1
_chemical_formula_structural   Ta12MoO33
_chemical_formula_sum   'Ta12 Mo1 O33'
_cell_volume   653.71693236
_cell_formula_units_Z   1
loop_
 _symmetry_equiv_pos_site_id
 _symmetry_equiv_pos_as_xyz
  1  'x, y, z'
loop_
 _atom_site_type_symbol
 _atom_site_label
 _atom_site_symmetry_multiplicity
 _atom_site_fract_x
 _atom_site_fract_y
 _atom_site_fract_z
 _atom_site_occupancy
  Ta  Ta0  1  0.10448614  0.47158754  0.26768174  1
  Ta  Ta1  1  0.90058034  0.52841246  0.73231826  1
  Ta  Ta2  1  0.67637406  0.81245865  0.45472180  1
  Ta  Ta3  1  0.31863721  0.18754135  0.54527820  1
  Ta  Ta4  1  0.03645538  0.95321671  0.88030889  1
  Ta  Ta5  1  0.96354755  0.04678329  0.11969111  1
  Ta  Ta6  1  0.24880981  0.28400780  0.78606897  1
  Ta  Ta7  1  0.75087098  0.71599220  0.21393103  1
  Ta  Ta8  1  0.11018800  0.85655619  0.63673378  1
  Ta  Ta9  1  0.89036559  0.14344381  0.36326622  1
  Ta  Ta10  1  0.82479462  0.62305079  0.97350915  1
  Ta  Ta11  1  0.17525298  0.37694921  0.02649085  1
  Mo  Mo12  1  0.74895913  0.50000000  0.50000000  1
  O  O13  1  0.62194784  0.84455534  0.60112490  1
  O  O14  1  0.37851740  0.15544466  0.39887510  1
  O  O15  1  0.00338608  0.68176547  0.67450851  1
  O  O16  1  0.99612913  0.31823453  0.32549149  1
  O  O17  1  0.78030108  0.33042949  0.76970142  1
  O  O18  1  0.21957301  0.66957051  0.23029858  1
  O  O19  1  0.78019147  0.97575108  0.41710435  1
  O  O20  1  0.22154475  0.02424892  0.58289565  1
  O  O21  1  0.14052700  0.43340166  0.15079924  1
  O  O22  1  0.85792458  0.56659834  0.84920076  1
  O  O23  1  0.45941063  0.04987692  0.13107273  1
  O  O24  1  0.54060644  0.95012308  0.86892727  1
  O  O25  1  0.70269695  0.42447487  0.01885470  1
  O  O26  1  0.29707678  0.57552513  0.98114530  1
  O  O27  1  0.06769828  0.53182038  0.40087788  1
  O  O28  1  0.93675578  0.46817962  0.59912212  1
  O  O29  1  0.92693582  0.10328645  0.24957354  1
  O  O30  1  0.07322290  0.89671355  0.75042646  1
  O  O31  1  0.14994944  0.12444488  0.82438874  1
  O  O32  1  0.84989330  0.87555512  0.17561126  1
  O  O33  1  0.70452886  0.75301516  0.34431814  1
  O  O34  1  0.29583184  0.24698484  0.65568186  1
  O  O35  1  0.37559109  0.48152837  0.73106790  1
  O  O36  1  0.62513062  0.51847163  0.26893210  1
  O  O37  1  0.43942140  0.36900355  0.48592145  1
  O  O38  1  0.55633930  0.63099645  0.51407855  1
  O  O39  1  0.07322696  0.22023241  0.07387054  1
  O  O40  1  0.92686509  0.77976759  0.92612946  1
  O  O41  1  0.15886839  0.80760205  0.48944992  1
  O  O42  1  0.84071626  0.19239795  0.51055008  1
  O  O43  1  0.78136685  0.65980607  0.09693591  1
  O  O44  1  0.21849669  0.34019393  0.90306409  1
  O  O45  1  0.00000619  0.00000000  0.00000000  1
