# generated using pymatgen
data_MnAu4
_symmetry_space_group_name_H-M   'P 1'
_cell_length_a   2.99892977
_cell_length_b   2.99892977
_cell_length_c   11.52099847
_cell_angle_alpha   90.00000000
_cell_angle_beta   97.47829515
_cell_angle_gamma   120.00000000
_symmetry_Int_Tables_number   1
_chemical_formula_structural   MnAu4
_chemical_formula_sum   'Mn1 Au4'
_cell_volume   88.71411321
_cell_formula_units_Z   1
loop_
 _symmetry_equiv_pos_site_id
 _symmetry_equiv_pos_as_xyz
  1  'x, y, z'
loop_
 _atom_site_type_symbol
 _atom_site_label
 _atom_site_symmetry_multiplicity
 _atom_site_fract_x
 _atom_site_fract_y
 _atom_site_fract_z
 _atom_site_occupancy
  Mn  Mn0  1  0.00000000  0.00000000  -0.00000000  1
  Au  Au1  1  0.78908661  0.39454331  0.18362992  1
  Au  Au2  1  0.59657571  0.79828785  0.39486356  1
  Au  Au3  1  0.40342429  0.20171215  0.60513644  1
  Au  Au4  1  0.21091339  0.60545669  0.81637008  1
