# generated using pymatgen
data_Th2PNO
_symmetry_space_group_name_H-M   'P 1'
_cell_length_a   4.03715382
_cell_length_b   4.03718945
_cell_length_c   6.86415889
_cell_angle_alpha   90.00000001
_cell_angle_beta   90.00002349
_cell_angle_gamma   120.00027372
_symmetry_Int_Tables_number   1
_chemical_formula_structural   Th2PNO
_chemical_formula_sum   'Th2 P1 N1 O1'
_cell_volume   96.88826696
_cell_formula_units_Z   1
loop_
 _symmetry_equiv_pos_site_id
 _symmetry_equiv_pos_as_xyz
  1  'x, y, z'
loop_
 _atom_site_type_symbol
 _atom_site_label
 _atom_site_symmetry_multiplicity
 _atom_site_fract_x
 _atom_site_fract_y
 _atom_site_fract_z
 _atom_site_occupancy
  Th  Th0  1  0.33333848  0.66666924  0.27701372  1
  Th  Th1  1  0.66666481  0.33333240  0.72423463  1
  P  P2  1  0.00000206  0.00000103  0.00858569  1
  N  N3  1  0.33333796  0.66666898  0.62176700  1
  O  O4  1  0.66665670  0.33332835  0.36839895  1
