# generated using pymatgen
data_Ta2V3Ge
_symmetry_space_group_name_H-M   'P 1'
_cell_length_a   4.99377411
_cell_length_b   4.99377411
_cell_length_c   8.40286131
_cell_angle_alpha   90.00000000
_cell_angle_beta   90.00000000
_cell_angle_gamma   119.99802191
_symmetry_Int_Tables_number   1
_chemical_formula_structural   Ta2V3Ge
_chemical_formula_sum   'Ta4 V6 Ge2'
_cell_volume   181.47811967
_cell_formula_units_Z   2
loop_
 _symmetry_equiv_pos_site_id
 _symmetry_equiv_pos_as_xyz
  1  'x, y, z'
loop_
 _atom_site_type_symbol
 _atom_site_label
 _atom_site_symmetry_multiplicity
 _atom_site_fract_x
 _atom_site_fract_y
 _atom_site_fract_z
 _atom_site_occupancy
  Ta  Ta0  1  0.66667396  0.33332604  0.56217954  1
  Ta  Ta1  1  0.33332604  0.66667396  0.43782046  1
  Ta  Ta2  1  0.33332604  0.66667396  0.06217954  1
  Ta  Ta3  1  0.66667396  0.33332604  0.93782046  1
  V  V4  1  0.17292170  0.34580930  0.75000000  1
  V  V5  1  0.17291026  0.82708974  0.75000000  1
  V  V6  1  0.65419070  0.82707830  0.75000000  1
  V  V7  1  0.82707830  0.65419070  0.25000000  1
  V  V8  1  0.82708974  0.17291026  0.25000000  1
  V  V9  1  0.34580930  0.17292170  0.25000000  1
  Ge  Ge10  1  0.00000000  0.00000000  0.50000000  1
  Ge  Ge11  1  0.00000000  0.00000000  -0.00000000  1
