# generated using pymatgen
data_TeAsIr
_symmetry_space_group_name_H-M   'P 1'
_cell_length_a   6.24657290
_cell_length_b   6.24657290
_cell_length_c   6.24657290
_cell_angle_alpha   90.00000000
_cell_angle_beta   90.00000000
_cell_angle_gamma   90.00000000
_symmetry_Int_Tables_number   1
_chemical_formula_structural   TeAsIr
_chemical_formula_sum   'Te4 As4 Ir4'
_cell_volume   243.73923190
_cell_formula_units_Z   4
loop_
 _symmetry_equiv_pos_site_id
 _symmetry_equiv_pos_as_xyz
  1  'x, y, z'
loop_
 _atom_site_type_symbol
 _atom_site_label
 _atom_site_symmetry_multiplicity
 _atom_site_fract_x
 _atom_site_fract_y
 _atom_site_fract_z
 _atom_site_occupancy
  Te  Te0  1  0.12139137  0.62139137  0.87860863  1
  Te  Te1  1  0.62139137  0.87860863  0.12139137  1
  Te  Te2  1  0.87860863  0.12139137  0.62139137  1
  Te  Te3  1  0.37860863  0.37860863  0.37860863  1
  As  As4  1  0.87659083  0.37659083  0.12340917  1
  As  As5  1  0.37659083  0.12340917  0.87659083  1
  As  As6  1  0.12340917  0.87659083  0.37659083  1
  As  As7  1  0.62340917  0.62340917  0.62340917  1
  Ir  Ir8  1  0.48891090  0.98891090  0.51108910  1
  Ir  Ir9  1  0.98891090  0.51108910  0.48891090  1
  Ir  Ir10  1  0.51108910  0.48891090  0.98891090  1
  Ir  Ir11  1  0.01108910  0.01108910  0.01108910  1
