# generated using pymatgen
data_SrPrMgRuO6
_symmetry_space_group_name_H-M   'P 1'
_cell_length_a   5.67837437
_cell_length_b   5.60188344
_cell_length_c   7.92493453
_cell_angle_alpha   90.16872196
_cell_angle_beta   90.00000000
_cell_angle_gamma   90.00000000
_symmetry_Int_Tables_number   1
_chemical_formula_structural   SrPrMgRuO6
_chemical_formula_sum   'Sr2 Pr2 Mg2 Ru2 O12'
_cell_volume   252.08783551
_cell_formula_units_Z   2
loop_
 _symmetry_equiv_pos_site_id
 _symmetry_equiv_pos_as_xyz
  1  'x, y, z'
loop_
 _atom_site_type_symbol
 _atom_site_label
 _atom_site_symmetry_multiplicity
 _atom_site_fract_x
 _atom_site_fract_y
 _atom_site_fract_z
 _atom_site_occupancy
  Sr  Sr0  1  0.02978538  0.49554779  0.25075035  1
  Sr  Sr1  1  0.47021462  0.99554779  0.75075035  1
  Pr  Pr2  1  0.95093440  0.51253335  0.75107074  1
  Pr  Pr3  1  0.54906560  0.01253335  0.25107074  1
  Mg  Mg4  1  0.49360864  0.50075729  0.00104274  1
  Mg  Mg5  1  0.00639136  0.00075729  0.50104274  1
  Ru  Ru6  1  0.49760151  0.49980097  0.49974298  1
  Ru  Ru7  1  0.00239849  0.99980097  0.99974298  1
  O  O8  1  0.48675133  0.58747827  0.25631242  1
  O  O9  1  0.01324867  0.08747827  0.75631242  1
  O  O10  1  0.52267818  0.43700774  0.74373817  1
  O  O11  1  0.97732182  0.93700774  0.24373817  1
  O  O12  1  0.29892705  0.21459093  0.45644160  1
  O  O13  1  0.20107295  0.71459093  0.95644160  1
  O  O14  1  0.71703162  0.77106336  0.53637537  1
  O  O15  1  0.78296838  0.27106336  0.03637537  1
  O  O16  1  0.21347623  0.69716819  0.54347630  1
  O  O17  1  0.28652377  0.19716819  0.04347630  1
  O  O18  1  0.77172360  0.28405211  0.46104933  1
  O  O19  1  0.72827640  0.78405211  0.96104933  1
