# generated using pymatgen
data_SrPrFeRuO6
_symmetry_space_group_name_H-M   'P 1'
_cell_length_a   5.64361513
_cell_length_b   5.59754114
_cell_length_c   7.92603739
_cell_angle_alpha   90.02446173
_cell_angle_beta   90.00000000
_cell_angle_gamma   90.00000000
_symmetry_Int_Tables_number   1
_chemical_formula_structural   SrPrFeRuO6
_chemical_formula_sum   'Sr2 Pr2 Fe2 Ru2 O12'
_cell_volume   250.38641377
_cell_formula_units_Z   2
loop_
 _symmetry_equiv_pos_site_id
 _symmetry_equiv_pos_as_xyz
  1  'x, y, z'
loop_
 _atom_site_type_symbol
 _atom_site_label
 _atom_site_symmetry_multiplicity
 _atom_site_fract_x
 _atom_site_fract_y
 _atom_site_fract_z
 _atom_site_occupancy
  Sr  Sr0  1  0.52791468  0.50395657  0.75009394  1
  Sr  Sr1  1  0.97208532  0.00395657  0.25009394  1
  Pr  Pr2  1  0.04282507  0.98776363  0.74951349  1
  Pr  Pr3  1  0.45717493  0.48776363  0.24951349  1
  Fe  Fe4  1  0.99608710  0.49934398  0.99983339  1
  Fe  Fe5  1  0.50391290  0.99934398  0.49983339  1
  Ru  Ru6  1  0.99786650  0.50004870  0.50048265  1
  Ru  Ru7  1  0.50213350  0.00004870  0.00048265  1
  O  O8  1  0.99008193  0.41639620  0.74953710  1
  O  O9  1  0.48024184  0.06282066  0.75056966  1
  O  O10  1  0.01975816  0.56282066  0.25056966  1
  O  O11  1  0.50991807  0.91639620  0.24953710  1
  O  O12  1  0.22481469  0.22587736  0.46324175  1
  O  O13  1  0.71075110  0.28873314  0.04141390  1
  O  O14  1  0.78768429  0.79109931  0.95812512  1
  O  O15  1  0.27424391  0.72396045  0.53718901  1
  O  O16  1  0.78924890  0.78873314  0.54141390  1
  O  O17  1  0.27518531  0.72587736  0.96324175  1
  O  O18  1  0.22575609  0.22396045  0.03718901  1
  O  O19  1  0.71231571  0.29109931  0.45812512  1
