# generated using pymatgen
data_Sr2Fe3Sb(PO4)6
_symmetry_space_group_name_H-M   'P 1'
_cell_length_a   8.60665233
_cell_length_b   8.60665186
_cell_length_c   9.12999426
_cell_angle_alpha   61.87872557
_cell_angle_beta   118.12127292
_cell_angle_gamma   119.99999818
_symmetry_Int_Tables_number   1
_chemical_formula_structural   Sr2Fe3Sb(PO4)6
_chemical_formula_sum   'Sr2 Fe3 Sb1 P6 O24'
_cell_volume   491.34871317
_cell_formula_units_Z   1
loop_
 _symmetry_equiv_pos_site_id
 _symmetry_equiv_pos_as_xyz
  1  'x, y, z'
loop_
 _atom_site_type_symbol
 _atom_site_label
 _atom_site_symmetry_multiplicity
 _atom_site_fract_x
 _atom_site_fract_y
 _atom_site_fract_z
 _atom_site_occupancy
  Sr  Sr0  1  0.50441622  0.49558378  0.51324867  1
  Sr  Sr1  1  0.00003570  -0.00003570  0.00010711  1
  Fe  Fe2  1  0.85001942  0.14998058  0.55005826  1
  Fe  Fe3  1  0.65038936  0.34961064  0.95116809  1
  Fe  Fe4  1  0.14917140  0.85082860  0.44751421  1
  Sb  Sb5  1  0.35021927  0.64978073  0.05065780  1
  P  P6  1  0.24897463  0.04181515  0.74528685  1
  P  P7  1  0.53812738  0.75102537  0.74528685  1
  P  P8  1  0.95818485  0.46187262  0.74528685  1
  P  P9  1  0.46214154  0.24745584  0.24875615  1
  P  P10  1  0.03407045  0.53785846  0.24875615  1
  P  P11  1  0.75254416  0.96592955  0.24875615  1
  O  O12  1  0.26276681  0.86541641  0.91816928  1
  O  O13  1  0.52081887  0.73723319  0.91816928  1
  O  O14  1  0.13458359  0.47918113  0.91816928  1
  O  O15  1  0.63250686  0.23806441  0.41351838  1
  O  O16  1  0.01907594  0.36749314  0.41351838  1
  O  O17  1  0.76193559  0.98092406  0.41351838  1
  O  O18  1  0.73010716  0.13077129  0.08287547  1
  O  O19  1  0.48353959  0.26989284  0.08287547  1
  O  O20  1  0.86922871  0.51646041  0.08287547  1
  O  O21  1  0.36543433  0.76610984  0.58648396  1
  O  O22  1  0.98715947  0.63456567  0.58648396  1
  O  O23  1  0.23389016  0.01284053  0.58648396  1
  O  O24  1  0.56922230  0.77875542  0.22516417  1
  O  O25  1  0.43469728  0.43077770  0.22516417  1
  O  O26  1  0.22124458  0.56530272  0.22516417  1
  O  O27  1  0.71767452  0.92598897  0.72871506  1
  O  O28  1  0.93702952  0.28232548  0.72871506  1
  O  O29  1  0.07401103  0.06297048  0.72871506  1
  O  O30  1  0.42623806  0.21616936  0.77497344  1
  O  O31  1  0.56490474  0.57376194  0.77497344  1
  O  O32  1  0.78383064  0.43509526  0.77497344  1
  O  O33  1  0.28023862  0.07849076  0.27180585  1
  O  O34  1  0.07005798  0.71976138  0.27180585  1
  O  O35  1  0.92150924  0.92994202  0.27180585  1
