# generated using pymatgen
data_Sm2Fe4Co13
_symmetry_space_group_name_H-M   'P 1'
_cell_length_a   6.34600584
_cell_length_b   6.34600584
_cell_length_c   6.34600611
_cell_angle_alpha   82.63032133
_cell_angle_beta   82.63032133
_cell_angle_gamma   82.63032677
_symmetry_Int_Tables_number   1
_chemical_formula_structural   Sm2Fe4Co13
_chemical_formula_sum   'Sm2 Fe4 Co13'
_cell_volume   249.73042566
_cell_formula_units_Z   1
loop_
 _symmetry_equiv_pos_site_id
 _symmetry_equiv_pos_as_xyz
  1  'x, y, z'
loop_
 _atom_site_type_symbol
 _atom_site_label
 _atom_site_symmetry_multiplicity
 _atom_site_fract_x
 _atom_site_fract_y
 _atom_site_fract_z
 _atom_site_occupancy
  Sm  Sm0  1  0.65695268  0.65695268  0.65695268  1
  Sm  Sm1  1  0.34317959  0.34317959  0.34317959  1
  Fe  Fe2  1  0.99748995  0.99748995  0.50423424  1
  Fe  Fe3  1  0.99748995  0.50423424  0.99748995  1
  Fe  Fe4  1  0.50423424  0.99748995  0.99748995  1
  Fe  Fe5  1  0.09376053  0.09376053  0.09376053  1
  Co  Co6  1  0.28714669  0.71305441  0.00017841  1
  Co  Co7  1  0.71305441  0.00017841  0.28714669  1
  Co  Co8  1  0.00017841  0.28714669  0.71305441  1
  Co  Co9  1  0.28714669  0.00017841  0.71305441  1
  Co  Co10  1  0.00017841  0.71305441  0.28714669  1
  Co  Co11  1  0.71305441  0.28714669  0.00017841  1
  Co  Co12  1  0.34319965  0.34319965  0.84736714  1
  Co  Co13  1  0.34319965  0.84736714  0.34319965  1
  Co  Co14  1  0.84736714  0.34319965  0.34319965  1
  Co  Co15  1  0.65585939  0.65585939  0.15771502  1
  Co  Co16  1  0.65585939  0.15771502  0.65585939  1
  Co  Co17  1  0.15771502  0.65585939  0.65585939  1
  Co  Co18  1  0.90293379  0.90293379  0.90293379  1
