# generated using pymatgen
data_Mn4B
_symmetry_space_group_name_H-M   'P 1'
_cell_length_a   4.04489020
_cell_length_b   4.06868597
_cell_length_c   7.25062028
_cell_angle_alpha   97.96981068
_cell_angle_beta   73.80340595
_cell_angle_gamma   119.80671335
_symmetry_Int_Tables_number   1
_chemical_formula_structural   Mn4B
_chemical_formula_sum   'Mn8 B2'
_cell_volume   99.43078131
_cell_formula_units_Z   2
loop_
 _symmetry_equiv_pos_site_id
 _symmetry_equiv_pos_as_xyz
  1  'x, y, z'
loop_
 _atom_site_type_symbol
 _atom_site_label
 _atom_site_symmetry_multiplicity
 _atom_site_fract_x
 _atom_site_fract_y
 _atom_site_fract_z
 _atom_site_occupancy
  Mn  Mn0  1  0.83229528  0.50000000  0.33540944  1
  Mn  Mn1  1  0.66770472  0.50000000  0.66459056  1
  Mn  Mn2  1  0.91882247  0.00000000  0.16235507  1
  Mn  Mn3  1  0.08117753  -0.00000000  0.83764493  1
  Mn  Mn4  1  0.07827228  0.15654456  0.50000000  1
  Mn  Mn5  1  0.65647233  0.31294465  -0.00000000  1
  Mn  Mn6  1  0.42172772  0.84345544  0.50000000  1
  Mn  Mn7  1  0.34352767  0.68705535  0.00000000  1
  B  B8  1  0.12516338  0.50000000  0.74967324  1
  B  B9  1  0.37483662  0.50000000  0.25032676  1
