# generated using pymatgen
data_Sm2SbO2
_symmetry_space_group_name_H-M   'P 1'
_cell_length_a   3.95578305
_cell_length_b   3.94458268
_cell_length_c   7.37420645
_cell_angle_alpha   74.48693010
_cell_angle_beta   74.44176802
_cell_angle_gamma   90.00000000
_symmetry_Int_Tables_number   1
_chemical_formula_structural   Sm2SbO2
_chemical_formula_sum   'Sm2 Sb1 O2'
_cell_volume   106.49248261
_cell_formula_units_Z   1
loop_
 _symmetry_equiv_pos_site_id
 _symmetry_equiv_pos_as_xyz
  1  'x, y, z'
loop_
 _atom_site_type_symbol
 _atom_site_label
 _atom_site_symmetry_multiplicity
 _atom_site_fract_x
 _atom_site_fract_y
 _atom_site_fract_z
 _atom_site_occupancy
  Sm  Sm0  1  0.33580039  0.35214582  0.32839922  1
  Sm  Sm1  1  0.66419961  0.68054504  0.67160078  1
  Sb  Sb2  1  1.00000000  0.02189348  0.00000000  1
  O  O3  1  0.75002080  0.26577863  0.49995841  1
  O  O4  1  0.24997920  0.76573703  0.50004159  1
