# generated using pymatgen
data_SrNdAl3O7
_symmetry_space_group_name_H-M   'P 1'
_cell_length_a   5.24102451
_cell_length_b   7.91829903
_cell_length_c   7.91829903
_cell_angle_alpha   90.23992931
_cell_angle_beta   90.00000000
_cell_angle_gamma   90.00000000
_symmetry_Int_Tables_number   1
_chemical_formula_structural   SrNdAl3O7
_chemical_formula_sum   'Sr2 Nd2 Al6 O14'
_cell_volume   328.60652268
_cell_formula_units_Z   2
loop_
 _symmetry_equiv_pos_site_id
 _symmetry_equiv_pos_as_xyz
  1  'x, y, z'
loop_
 _atom_site_type_symbol
 _atom_site_label
 _atom_site_symmetry_multiplicity
 _atom_site_fract_x
 _atom_site_fract_y
 _atom_site_fract_z
 _atom_site_occupancy
  Sr  Sr0  1  0.51031915  0.33829365  0.16170635  1
  Sr  Sr1  1  0.51031915  0.66170635  0.83829365  1
  Nd  Nd2  1  0.48710170  0.16237162  0.66237162  1
  Nd  Nd3  1  0.48710170  0.83762838  0.33762838  1
  Al  Al4  1  0.96016651  0.14089564  0.35910436  1
  Al  Al5  1  0.03899790  0.35498587  0.85498587  1
  Al  Al6  1  0.96016651  0.85910436  0.64089564  1
  Al  Al7  1  0.03899790  0.64501413  0.14501413  1
  Al  Al8  1  0.00222257  0.50000000  0.50000000  1
  Al  Al9  1  0.00222257  0.00000000  0.00000000  1
  O  O10  1  0.29389851  0.12987647  0.37012353  1
  O  O11  1  0.70726500  0.34695495  0.84695495  1
  O  O12  1  0.29389851  0.87012353  0.62987647  1
  O  O13  1  0.70726500  0.65304505  0.15304505  1
  O  O14  1  0.16429075  0.50000000  0.00000000  1
  O  O15  1  0.80508914  0.00000000  0.50000000  1
  O  O16  1  0.81179948  0.33363863  0.41882498  1
  O  O17  1  0.19586987  0.16033024  0.90715058  1
  O  O18  1  0.81179948  0.66636137  0.58117502  1
  O  O19  1  0.19586987  0.83966976  0.09284942  1
  O  O20  1  0.19586987  0.59284942  0.33966976  1
  O  O21  1  0.81179948  0.91882498  0.83363863  1
  O  O22  1  0.19586987  0.40715058  0.66033024  1
  O  O23  1  0.81179948  0.08117502  0.16636137  1
