# generated using pymatgen
data_SrBiNO5
_symmetry_space_group_name_H-M   'P 1'
_cell_length_a   5.83214472
_cell_length_b   5.99050427
_cell_length_c   7.90475140
_cell_angle_alpha   89.85900123
_cell_angle_beta   68.35213592
_cell_angle_gamma   89.61778459
_symmetry_Int_Tables_number   1
_chemical_formula_structural   SrBiNO5
_chemical_formula_sum   'Sr2 Bi2 N2 O10'
_cell_volume   256.68764552
_cell_formula_units_Z   2
loop_
 _symmetry_equiv_pos_site_id
 _symmetry_equiv_pos_as_xyz
  1  'x, y, z'
loop_
 _atom_site_type_symbol
 _atom_site_label
 _atom_site_symmetry_multiplicity
 _atom_site_fract_x
 _atom_site_fract_y
 _atom_site_fract_z
 _atom_site_occupancy
  Sr  Sr0  1  0.15859743  0.99925707  0.68286055  1
  Sr  Sr1  1  0.84145798  0.99925707  0.31713945  1
  Bi  Bi2  1  0.31292819  0.50189057  0.36845844  1
  Bi  Bi3  1  0.68138663  0.50189057  0.63154156  1
  N  N4  1  0.01159069  0.48411725  1.00000000  1
  N  N5  1  0.51760839  0.98742827  1.00000000  1
  O  O6  1  0.99575464  0.73195986  0.50377154  1
  O  O7  1  0.49986725  0.27097392  0.49859337  1
  O  O8  1  0.99846062  0.27097392  0.50140663  1
  O  O9  1  0.49952617  0.73195986  0.49622846  1
  O  O10  1  0.73358391  0.96564045  0.00000000  1
  O  O11  1  0.48813207  0.99788610  0.84923075  1
  O  O12  1  0.33736282  0.99788610  0.15076925  1
  O  O13  1  0.03189753  0.27252017  1.00000000  1
  O  O14  1  0.92669326  0.58617941  0.15045917  1
  O  O15  1  0.07715243  0.58617941  0.84954083  1
