# generated using pymatgen
data_SnTePt
_symmetry_space_group_name_H-M   'P 1'
_cell_length_a   6.59824343
_cell_length_b   6.59824343
_cell_length_c   6.59824343
_cell_angle_alpha   90.00000000
_cell_angle_beta   90.00000000
_cell_angle_gamma   90.00000000
_symmetry_Int_Tables_number   1
_chemical_formula_structural   SnTePt
_chemical_formula_sum   'Sn4 Te4 Pt4'
_cell_volume   287.26651252
_cell_formula_units_Z   4
loop_
 _symmetry_equiv_pos_site_id
 _symmetry_equiv_pos_as_xyz
  1  'x, y, z'
loop_
 _atom_site_type_symbol
 _atom_site_label
 _atom_site_symmetry_multiplicity
 _atom_site_fract_x
 _atom_site_fract_y
 _atom_site_fract_z
 _atom_site_occupancy
  Sn  Sn0  1  0.12645187  0.62645187  0.87354813  1
  Sn  Sn1  1  0.62645187  0.87354813  0.12645187  1
  Sn  Sn2  1  0.87354813  0.12645187  0.62645187  1
  Sn  Sn3  1  0.37354813  0.37354813  0.37354813  1
  Te  Te4  1  0.87367556  0.37367556  0.12632444  1
  Te  Te5  1  0.37367556  0.12632444  0.87367556  1
  Te  Te6  1  0.12632444  0.87367556  0.37367556  1
  Te  Te7  1  0.62632444  0.62632444  0.62632444  1
  Pt  Pt8  1  0.50185888  0.00185888  0.49814112  1
  Pt  Pt9  1  0.00185888  0.49814112  0.50185888  1
  Pt  Pt10  1  0.49814112  0.50185888  0.00185888  1
  Pt  Pt11  1  0.99814112  0.99814112  0.99814112  1
