# generated using pymatgen
data_Sr2FeSbO6
_symmetry_space_group_name_H-M   'P 1'
_cell_length_a   5.67706409
_cell_length_b   5.67706409
_cell_length_c   5.67426903
_cell_angle_alpha   60.39515601
_cell_angle_beta   89.74186440
_cell_angle_gamma   120.11417543
_symmetry_Int_Tables_number   1
_chemical_formula_structural   Sr2FeSbO6
_chemical_formula_sum   'Sr2 Fe1 Sb1 O6'
_cell_volume   129.56726029
_cell_formula_units_Z   1
loop_
 _symmetry_equiv_pos_site_id
 _symmetry_equiv_pos_as_xyz
  1  'x, y, z'
loop_
 _atom_site_type_symbol
 _atom_site_label
 _atom_site_symmetry_multiplicity
 _atom_site_fract_x
 _atom_site_fract_y
 _atom_site_fract_z
 _atom_site_occupancy
  Sr  Sr0  1  0.25046897  0.99742137  0.75210967  1
  Sr  Sr1  1  0.74953103  0.00257863  0.24789033  1
  Fe  Fe2  1  0.50000000  0.50000000  0.00000000  1
  Sb  Sb3  1  -0.00000000  0.50000000  0.50000000  1
  O  O4  1  0.77894446  0.50126179  0.22536276  1
  O  O5  1  0.27337545  0.99569278  0.22536276  1
  O  O6  1  0.22105554  0.49873821  0.77463724  1
  O  O7  1  0.72662455  0.00430722  0.77463724  1
  O  O8  1  0.75256860  0.55075971  0.69667169  1
  O  O9  1  0.24743140  0.44924029  0.30332831  1
