# generated using pymatgen
data_SmGdS3
_symmetry_space_group_name_H-M   'P 1'
_cell_length_a   3.98247761
_cell_length_b   7.41457066
_cell_length_c   15.35940587
_cell_angle_alpha   90.00000000
_cell_angle_beta   90.00000000
_cell_angle_gamma   90.00000000
_symmetry_Int_Tables_number   1
_chemical_formula_structural   SmGdS3
_chemical_formula_sum   'Sm4 Gd4 S12'
_cell_volume   453.53809112
_cell_formula_units_Z   4
loop_
 _symmetry_equiv_pos_site_id
 _symmetry_equiv_pos_as_xyz
  1  'x, y, z'
loop_
 _atom_site_type_symbol
 _atom_site_label
 _atom_site_symmetry_multiplicity
 _atom_site_fract_x
 _atom_site_fract_y
 _atom_site_fract_z
 _atom_site_occupancy
  Sm  Sm0  1  0.75000000  0.35753242  0.70382950  1
  Sm  Sm1  1  0.75000000  0.85753242  0.79617050  1
  Sm  Sm2  1  0.25000000  0.64246758  0.29617050  1
  Sm  Sm3  1  0.25000000  0.14246758  0.20382950  1
  Gd  Gd4  1  0.75000000  0.73215422  0.04327970  1
  Gd  Gd5  1  0.75000000  0.23215422  0.45672030  1
  Gd  Gd6  1  0.25000000  0.26784578  0.95672030  1
  Gd  Gd7  1  0.25000000  0.76784578  0.54327970  1
  S  S8  1  0.75000000  0.35158079  0.28255928  1
  S  S9  1  0.75000000  0.85158079  0.21744072  1
  S  S10  1  0.25000000  0.64841921  0.71744072  1
  S  S11  1  0.25000000  0.14841921  0.78255928  1
  S  S12  1  0.75000000  0.48907680  0.89283300  1
  S  S13  1  0.75000000  0.98907680  0.60716700  1
  S  S14  1  0.25000000  0.51092320  0.10716700  1
  S  S15  1  0.25000000  0.01092320  0.39283300  1
  S  S16  1  0.75000000  0.12525748  0.06564297  1
  S  S17  1  0.75000000  0.62525748  0.43435703  1
  S  S18  1  0.25000000  0.87474252  0.93435703  1
  S  S19  1  0.25000000  0.37474252  0.56564297  1
