# generated using pymatgen
data_Rb2W(OF2)2
_symmetry_space_group_name_H-M   'P 1'
_cell_length_a   4.97973500
_cell_length_b   6.13953449
_cell_length_c   6.15494971
_cell_angle_alpha   119.91616287
_cell_angle_beta   88.28268532
_cell_angle_gamma   89.99851713
_symmetry_Int_Tables_number   1
_chemical_formula_structural   Rb2W(OF2)2
_chemical_formula_sum   'Rb2 W1 O2 F4'
_cell_volume   163.00582352
_cell_formula_units_Z   1
loop_
 _symmetry_equiv_pos_site_id
 _symmetry_equiv_pos_as_xyz
  1  'x, y, z'
loop_
 _atom_site_type_symbol
 _atom_site_label
 _atom_site_symmetry_multiplicity
 _atom_site_fract_x
 _atom_site_fract_y
 _atom_site_fract_z
 _atom_site_occupancy
  Rb  Rb0  1  0.68609290  0.67100274  0.34205646  1
  Rb  Rb1  1  0.31390710  0.32899726  0.65794354  1
  W  W2  1  -0.00000000  -0.00000000  -0.00000000  1
  O  O3  1  0.21316005  0.85492875  0.70995566  1
  O  O4  1  0.78683995  0.14507125  0.29004434  1
  F  F5  1  0.22099435  0.30399691  0.14645837  1
  F  F6  1  0.22099289  0.84255320  0.14656073  1
  F  F7  1  0.77900565  0.69600309  0.85354163  1
  F  F8  1  0.77900711  0.15744680  0.85343927  1
