# generated using pymatgen
data_RbCoCuF6
_symmetry_space_group_name_H-M   'P 1'
_cell_length_a   7.30577256
_cell_length_b   7.23890953
_cell_length_c   7.35983943
_cell_angle_alpha   90.00000000
_cell_angle_beta   59.75488770
_cell_angle_gamma   119.69771052
_symmetry_Int_Tables_number   1
_chemical_formula_structural   RbCoCuF6
_chemical_formula_sum   'Rb2 Co2 Cu2 F12'
_cell_volume   275.45941924
_cell_formula_units_Z   2
loop_
 _symmetry_equiv_pos_site_id
 _symmetry_equiv_pos_as_xyz
  1  'x, y, z'
loop_
 _atom_site_type_symbol
 _atom_site_label
 _atom_site_symmetry_multiplicity
 _atom_site_fract_x
 _atom_site_fract_y
 _atom_site_fract_z
 _atom_site_occupancy
  Rb  Rb0  1  0.75443526  0.37721763  0.37278237  1
  Rb  Rb1  1  0.24556474  0.62278237  0.62721763  1
  Co  Co2  1  -0.00000000  0.00000000  0.50000000  1
  Co  Co3  1  -0.00000000  0.00000000  0.00000000  1
  Cu  Cu4  1  0.50000000  0.50000000  0.00000000  1
  Cu  Cu5  1  0.50000000  0.00000000  0.00000000  1
  F  F6  1  0.85786880  0.92893440  0.32106560  1
  F  F7  1  0.64616084  0.32308042  0.92691958  1
  F  F8  1  0.24508721  0.92627288  0.92449026  1
  F  F9  1  0.24508721  0.31881433  0.33042253  1
  F  F10  1  0.24508721  0.31881433  0.92449026  1
  F  F11  1  0.24508721  0.92627288  0.33042253  1
  F  F12  1  0.14213120  0.07106560  0.67893440  1
  F  F13  1  0.35383916  0.67691958  0.07308042  1
  F  F14  1  0.75491279  0.07372712  0.07550974  1
  F  F15  1  0.75491279  0.68118567  0.66957747  1
  F  F16  1  0.75491279  0.68118567  0.07550974  1
  F  F17  1  0.75491279  0.07372712  0.66957747  1
