# generated using pymatgen
data_Rb2Cd3SnAs4
_symmetry_space_group_name_H-M   'P 1'
_cell_length_a   4.51981085
_cell_length_b   9.77510465
_cell_length_c   7.86006934
_cell_angle_alpha   66.11894411
_cell_angle_beta   89.99278744
_cell_angle_gamma   76.59724672
_symmetry_Int_Tables_number   1
_chemical_formula_structural   Rb2Cd3SnAs4
_chemical_formula_sum   'Rb2 Cd3 Sn1 As4'
_cell_volume   307.17260213
_cell_formula_units_Z   1
loop_
 _symmetry_equiv_pos_site_id
 _symmetry_equiv_pos_as_xyz
  1  'x, y, z'
loop_
 _atom_site_type_symbol
 _atom_site_label
 _atom_site_symmetry_multiplicity
 _atom_site_fract_x
 _atom_site_fract_y
 _atom_site_fract_z
 _atom_site_occupancy
  Rb  Rb0  1  0.49452651  0.01094025  0.49622302  1
  Rb  Rb1  1  0.99621044  0.00738758  0.99443516  1
  Cd  Cd2  1  0.19721761  0.60558694  0.87579725  1
  Cd  Cd3  1  0.31987298  0.36060026  0.66774657  1
  Cd  Cd4  1  0.81513018  0.36965094  0.13488780  1
  Sn  Sn5  1  0.69027251  0.61963728  0.34560996  1
  As  As6  1  0.36269401  0.27448452  0.03304234  1
  As  As7  1  0.84543082  0.30880578  0.50829008  1
  As  As8  1  0.63737355  0.72514158  0.97049683  1
  As  As9  1  0.14127138  0.71776488  0.47347100  1
