# generated using pymatgen
data_SeS7
_symmetry_space_group_name_H-M   'P 1'
_cell_length_a   5.08882227
_cell_length_b   9.60727063
_cell_length_c   15.56123302
_cell_angle_alpha   89.78383541
_cell_angle_beta   90.14777117
_cell_angle_gamma   89.86271215
_symmetry_Int_Tables_number   1
_chemical_formula_structural   SeS7
_chemical_formula_sum   'Se3 S21'
_cell_volume   760.77375451
_cell_formula_units_Z   3
loop_
 _symmetry_equiv_pos_site_id
 _symmetry_equiv_pos_as_xyz
  1  'x, y, z'
loop_
 _atom_site_type_symbol
 _atom_site_label
 _atom_site_symmetry_multiplicity
 _atom_site_fract_x
 _atom_site_fract_y
 _atom_site_fract_z
 _atom_site_occupancy
  Se  Se0  1  0.51115953  0.18038091  0.61300539  1
  Se  Se1  1  0.48902656  0.81952997  0.61292453  1
  Se  Se2  1  0.01048538  0.31921560  0.88651938  1
  S  S3  1  0.27911193  0.22767106  0.49400468  1
  S  S4  1  0.72055263  0.77215321  0.49436691  1
  S  S5  1  0.77903872  0.27319511  0.00529494  1
  S  S6  1  0.21193334  0.73004926  0.00065809  1
  S  S7  1  0.72983534  0.37585914  0.64372836  1
  S  S8  1  0.26928451  0.62436454  0.64409824  1
  S  S9  1  0.22958982  0.12298648  0.85700104  1
  S  S10  1  0.77858263  0.86945714  0.85998729  1
  S  S11  1  0.27960323  0.63018590  0.35934949  1
  S  S12  1  0.72055325  0.36974405  0.35966271  1
  S  S13  1  0.77956565  0.87031132  0.13964253  1
  S  S14  1  0.22073171  0.12936635  0.14055577  1
  S  S15  1  0.98899046  0.69145530  0.89127071  1
  S  S16  1  0.49299543  0.80861113  0.38659541  1
  S  S17  1  0.50650428  0.19138234  0.38672401  1
  S  S18  1  0.99018412  0.69189667  0.10984204  1
  S  S19  1  0.00628489  0.30835289  0.11311852  1
  S  S20  1  0.50050130  0.49957428  0.72201224  1
  S  S21  1  0.00360208  0.99542425  0.78007207  1
  S  S22  1  0.49982501  0.50040430  0.28110824  1
  S  S23  1  0.00205820  0.99842880  0.21845741  1
