# generated using pymatgen
data_Sb3Cl9OF4
_symmetry_space_group_name_H-M   'P 1'
_cell_length_a   7.21814495
_cell_length_b   10.16149572
_cell_length_c   13.76195522
_cell_angle_alpha   91.02805246
_cell_angle_beta   93.06930040
_cell_angle_gamma   105.41554451
_symmetry_Int_Tables_number   1
_chemical_formula_structural   Sb3Cl9OF4
_chemical_formula_sum   'Sb6 Cl18 O2 F8'
_cell_volume   971.14652379
_cell_formula_units_Z   2
loop_
 _symmetry_equiv_pos_site_id
 _symmetry_equiv_pos_as_xyz
  1  'x, y, z'
loop_
 _atom_site_type_symbol
 _atom_site_label
 _atom_site_symmetry_multiplicity
 _atom_site_fract_x
 _atom_site_fract_y
 _atom_site_fract_z
 _atom_site_occupancy
  Sb  Sb0  1  0.19924995  0.94277602  0.71356349  1
  Sb  Sb1  1  0.80075005  0.05722398  0.28643651  1
  Sb  Sb2  1  0.18804922  0.26696593  0.89365748  1
  Sb  Sb3  1  0.81195078  0.73303407  0.10634252  1
  Sb  Sb4  1  0.40025190  0.35869992  0.69217505  1
  Sb  Sb5  1  0.59974810  0.64130008  0.30782495  1
  Cl  Cl6  1  0.49655678  0.59136845  0.73038514  1
  Cl  Cl7  1  0.50344322  0.40863155  0.26961486  1
  Cl  Cl8  1  0.29557513  0.85283114  0.57410044  1
  Cl  Cl9  1  0.70442487  0.14716886  0.42589956  1
  Cl  Cl10  1  0.06603022  0.74450254  0.79491734  1
  Cl  Cl11  1  0.93396978  0.25549746  0.20508266  1
  Cl  Cl12  1  0.32219843  0.17762234  0.02565026  1
  Cl  Cl13  1  0.67780157  0.82237766  0.97434974  1
  Cl  Cl14  1  0.25941726  0.36382462  0.53704618  1
  Cl  Cl15  1  0.74058274  0.63617538  0.46295382  1
  Cl  Cl16  1  0.70395595  0.34169685  0.65598156  1
  Cl  Cl17  1  0.29604405  0.65830315  0.34401844  1
  Cl  Cl18  1  0.86165702  0.19017195  0.91594530  1
  Cl  Cl19  1  0.13834298  0.80982805  0.08405470  1
  Cl  Cl20  1  0.90790192  0.96761458  0.64557600  1
  Cl  Cl21  1  0.09209808  0.03238542  0.35442400  1
  Cl  Cl22  1  0.24213554  0.48586275  0.96162998  1
  Cl  Cl23  1  0.75786446  0.51413725  0.03837002  1
  O  O24  1  0.15515335  0.31547068  0.75702965  1
  O  O25  1  0.84484665  0.68452932  0.24297035  1
  F  F26  1  0.32670943  0.13842209  0.66632060  1
  F  F27  1  0.67329057  0.86157791  0.33367940  1
  F  F28  1  0.15814344  0.06213204  0.83107283  1
  F  F29  1  0.84185656  0.93786796  0.16892717  1
  F  F30  1  0.44582268  0.96583383  0.77972857  1
  F  F31  1  0.55417732  0.03416617  0.22027143  1
  F  F32  1  0.47139387  0.30679636  0.83799355  1
  F  F33  1  0.52860613  0.69320364  0.16200645  1
