# generated using pymatgen
data_PrAlZn
_symmetry_space_group_name_H-M   'P 1'
_cell_length_a   4.63805961
_cell_length_b   5.82745355
_cell_length_c   5.94297282
_cell_angle_alpha   97.88922537
_cell_angle_beta   112.96779534
_cell_angle_gamma   66.54997741
_symmetry_Int_Tables_number   1
_chemical_formula_structural   PrAlZn
_chemical_formula_sum   'Pr2 Al2 Zn2'
_cell_volume   135.64753000
_cell_formula_units_Z   2
loop_
 _symmetry_equiv_pos_site_id
 _symmetry_equiv_pos_as_xyz
  1  'x, y, z'
loop_
 _atom_site_type_symbol
 _atom_site_label
 _atom_site_symmetry_multiplicity
 _atom_site_fract_x
 _atom_site_fract_y
 _atom_site_fract_z
 _atom_site_occupancy
  Pr  Pr0  1  0.74673653  0.71782990  0.21130297  1
  Pr  Pr1  1  0.25326347  0.28217010  0.78869703  1
  Al  Al2  1  0.55392381  0.28337609  0.39122371  1
  Al  Al3  1  0.44607619  0.71662391  0.60877629  1
  Zn  Zn4  1  0.05486297  0.10899280  0.21871874  1
  Zn  Zn5  1  0.94513703  0.89100720  0.78128126  1
