# generated using pymatgen
data_DyMn2O4
_symmetry_space_group_name_H-M   'P 1'
_cell_length_a   6.39687075
_cell_length_b   6.39687068
_cell_length_c   6.39687015
_cell_angle_alpha   59.99999818
_cell_angle_beta   59.99999848
_cell_angle_gamma   59.99999603
_symmetry_Int_Tables_number   1
_chemical_formula_structural   DyMn2O4
_chemical_formula_sum   'Dy2 Mn4 O8'
_cell_volume   185.09200520
_cell_formula_units_Z   2
loop_
 _symmetry_equiv_pos_site_id
 _symmetry_equiv_pos_as_xyz
  1  'x, y, z'
loop_
 _atom_site_type_symbol
 _atom_site_label
 _atom_site_symmetry_multiplicity
 _atom_site_fract_x
 _atom_site_fract_y
 _atom_site_fract_z
 _atom_site_occupancy
  Dy  Dy0  1  0.12499900  0.12500100  0.12500000  1
  Dy  Dy1  1  0.87500100  0.87500100  0.87499900  1
  Mn  Mn2  1  0.50000000  0.00000000  0.50000000  1
  Mn  Mn3  1  0.99999900  0.50000000  0.50000100  1
  Mn  Mn4  1  0.49999900  0.50000000  0.00000100  1
  Mn  Mn5  1  0.49999900  0.50000000  0.50000000  1
  O  O6  1  0.73706740  0.73706840  0.73706640  1
  O  O7  1  0.26293160  0.26293360  0.71120120  1
  O  O8  1  0.26293260  0.71120320  0.26293260  1
  O  O9  1  0.71120220  0.26293360  0.26293260  1
  O  O10  1  0.73706740  0.28879880  0.73706640  1
  O  O11  1  0.28879780  0.73706840  0.73706640  1
  O  O12  1  0.26293160  0.26293360  0.26293160  1
  O  O13  1  0.73706740  0.73706840  0.28879780  1
