# generated using pymatgen
data_Yb3CoO6
_symmetry_space_group_name_H-M   'P 1'
_cell_length_a   8.76942347
_cell_length_b   8.76942347
_cell_length_c   8.76942347
_cell_angle_alpha   109.47122063
_cell_angle_beta   109.47122063
_cell_angle_gamma   109.47122063
_symmetry_Int_Tables_number   1
_chemical_formula_structural   Yb3CoO6
_chemical_formula_sum   'Yb12 Co4 O24'
_cell_volume   519.14806086
_cell_formula_units_Z   4
loop_
 _symmetry_equiv_pos_site_id
 _symmetry_equiv_pos_as_xyz
  1  'x, y, z'
loop_
 _atom_site_type_symbol
 _atom_site_label
 _atom_site_symmetry_multiplicity
 _atom_site_fract_x
 _atom_site_fract_y
 _atom_site_fract_z
 _atom_site_occupancy
  Yb  Yb0  1  0.70802594  0.45802594  0.75000000  1
  Yb  Yb1  1  0.29197406  0.54197406  0.25000000  1
  Yb  Yb2  1  0.79197406  0.04197406  0.25000000  1
  Yb  Yb3  1  0.45802594  0.75000000  0.70802594  1
  Yb  Yb4  1  0.20802594  0.95802594  0.75000000  1
  Yb  Yb5  1  0.54197406  0.25000000  0.29197406  1
  Yb  Yb6  1  0.04197406  0.25000000  0.79197406  1
  Yb  Yb7  1  0.95802594  0.75000000  0.20802594  1
  Yb  Yb8  1  0.75000000  0.70802594  0.45802594  1
  Yb  Yb9  1  0.25000000  0.29197406  0.54197406  1
  Yb  Yb10  1  0.25000000  0.79197406  0.04197406  1
  Yb  Yb11  1  0.75000000  0.20802594  0.95802594  1
  Co  Co12  1  0.00000000  0.00000000  0.00000000  1
  Co  Co13  1  0.50000000  0.00000000  0.50000000  1
  Co  Co14  1  0.50000000  0.50000000  0.00000000  1
  Co  Co15  1  0.00000000  0.50000000  0.50000000  1
  O  O16  1  0.55322599  0.80825732  0.50624605  1
  O  O17  1  0.44677401  0.19174268  0.49375395  1
  O  O18  1  0.94677401  0.95302006  0.75503133  1
  O  O19  1  0.19798874  0.69174268  0.74496867  1
  O  O20  1  0.80825732  0.50624605  0.55322599  1
  O  O21  1  0.05322599  0.04697994  0.24496867  1
  O  O22  1  0.80201126  0.30825732  0.25503133  1
  O  O23  1  0.19174268  0.49375395  0.44677401  1
  O  O24  1  0.30201126  0.54697994  0.99375395  1
  O  O25  1  0.95302006  0.75503133  0.94677401  1
  O  O26  1  0.69798874  0.45302006  0.00624605  1
  O  O27  1  0.04697994  0.24496867  0.05322599  1
  O  O28  1  0.69174268  0.74496867  0.19798874  1
  O  O29  1  0.30825732  0.25503133  0.80201126  1
  O  O30  1  0.54697994  0.99375395  0.30201126  1
  O  O31  1  0.45302006  0.00624605  0.69798874  1
  O  O32  1  0.50624605  0.55322599  0.80825732  1
  O  O33  1  0.49375395  0.44677401  0.19174268  1
  O  O34  1  0.74496867  0.19798874  0.69174268  1
  O  O35  1  0.25503133  0.80201126  0.30825732  1
  O  O36  1  0.99375395  0.30201126  0.54697994  1
  O  O37  1  0.00624605  0.69798874  0.45302006  1
  O  O38  1  0.75503133  0.94677401  0.95302006  1
  O  O39  1  0.24496867  0.05322599  0.04697994  1
