# generated using pymatgen
data_Rb2TaF7
_symmetry_space_group_name_H-M   'P 1'
_cell_length_a   6.08291333
_cell_length_b   5.91075737
_cell_length_c   10.70500957
_cell_angle_alpha   90.00000000
_cell_angle_beta   90.00000000
_cell_angle_gamma   90.21041749
_symmetry_Int_Tables_number   1
_chemical_formula_structural   Rb2TaF7
_chemical_formula_sum   'Rb4 Ta2 F14'
_cell_volume   384.89200716
_cell_formula_units_Z   2
loop_
 _symmetry_equiv_pos_site_id
 _symmetry_equiv_pos_as_xyz
  1  'x, y, z'
loop_
 _atom_site_type_symbol
 _atom_site_label
 _atom_site_symmetry_multiplicity
 _atom_site_fract_x
 _atom_site_fract_y
 _atom_site_fract_z
 _atom_site_occupancy
  Rb  Rb0  1  0.75000000  0.25000000  0.63646512  1
  Rb  Rb1  1  0.25000000  0.75000000  0.36353488  1
  Rb  Rb2  1  0.75000000  0.75000000  0.99998359  1
  Rb  Rb3  1  0.25000000  0.25000000  0.00001641  1
  Ta  Ta4  1  0.75000000  0.25000000  0.24387679  1
  Ta  Ta5  1  0.25000000  0.75000000  0.75612321  1
  F  F6  1  0.98700821  0.03394156  0.20396940  1
  F  F7  1  0.01299179  0.96605844  0.79603060  1
  F  F8  1  0.48700821  0.53394156  0.79603060  1
  F  F9  1  0.51299179  0.46605844  0.20396940  1
  F  F10  1  0.51231280  0.03308728  0.20238634  1
  F  F11  1  0.01231280  0.53308728  0.79761366  1
  F  F12  1  0.48768720  0.96691272  0.79761366  1
  F  F13  1  0.98768720  0.46691272  0.20238634  1
  F  F14  1  0.75000000  0.25000000  0.05412158  1
  F  F15  1  0.25000000  0.75000000  0.94587842  1
  F  F16  1  0.74602120  0.04596200  0.38992565  1
  F  F17  1  0.75397880  0.45403800  0.38992565  1
  F  F18  1  0.25397880  0.95403800  0.61007435  1
  F  F19  1  0.24602120  0.54596200  0.61007435  1
