# generated using pymatgen
data_Pr3MgNi14
_symmetry_space_group_name_H-M   'P 1'
_cell_length_a   5.00409462
_cell_length_b   5.00409462
_cell_length_c   12.32297386
_cell_angle_alpha   89.99999986
_cell_angle_beta   101.71474240
_cell_angle_gamma   60.00000056
_symmetry_Int_Tables_number   1
_chemical_formula_structural   Pr3MgNi14
_chemical_formula_sum   'Pr3 Mg1 Ni14'
_cell_volume   259.78900723
_cell_formula_units_Z   1
loop_
 _symmetry_equiv_pos_site_id
 _symmetry_equiv_pos_as_xyz
  1  'x, y, z'
loop_
 _atom_site_type_symbol
 _atom_site_label
 _atom_site_symmetry_multiplicity
 _atom_site_fract_x
 _atom_site_fract_y
 _atom_site_fract_z
 _atom_site_occupancy
  Pr  Pr0  1  0.89674181  0.05162909  0.84511272  1
  Pr  Pr1  1  0.11108095  0.94445953  0.16662142  1
  Pr  Pr2  1  0.69746860  0.15126570  0.54620290  1
  Mg  Mg3  1  0.29577315  0.85211343  0.44365972  1
  Ni  Ni4  1  0.77822934  0.61088533  0.66941808  1
  Ni  Ni5  1  0.28030341  0.61088533  0.66941808  1
  Ni  Ni6  1  0.28030341  0.10881126  0.66941808  1
  Ni  Ni7  1  0.21958608  0.39020696  0.33164562  1
  Ni  Ni8  1  0.72185258  0.39020696  0.33164562  1
  Ni  Ni9  1  0.72185258  0.88794046  0.33164562  1
  Ni  Ni10  1  0.22253002  0.38873499  0.83379504  1
  Ni  Ni11  1  0.77570387  0.61214806  0.16355581  1
  Ni  Ni12  1  0.44383679  0.27808160  0.16575519  1
  Ni  Ni13  1  0.55589101  0.72205450  0.83383651  1
  Ni  Ni14  1  0.99819599  0.50090200  0.49729399  1
  Ni  Ni15  1  0.49993427  0.49960907  0.00032520  1
  Ni  Ni16  1  0.49993427  0.00045666  0.00032520  1
  Ni  Ni17  1  0.00078186  0.49960907  0.00032520  1
