# generated using pymatgen
data_Pr6S3(OF4)2
_symmetry_space_group_name_H-M   'P 1'
_cell_length_a   3.91881590
_cell_length_b   13.71663440
_cell_length_c   13.81659341
_cell_angle_alpha   60.28748257
_cell_angle_beta   90.00000000
_cell_angle_gamma   90.00000000
_symmetry_Int_Tables_number   1
_chemical_formula_structural   Pr6S3(OF4)2
_chemical_formula_sum   'Pr12 S6 O4 F16'
_cell_volume   645.03733333
_cell_formula_units_Z   2
loop_
 _symmetry_equiv_pos_site_id
 _symmetry_equiv_pos_as_xyz
  1  'x, y, z'
loop_
 _atom_site_type_symbol
 _atom_site_label
 _atom_site_symmetry_multiplicity
 _atom_site_fract_x
 _atom_site_fract_y
 _atom_site_fract_z
 _atom_site_occupancy
  Pr  Pr0  1  0.75000000  0.61157117  0.86156164  1
  Pr  Pr1  1  0.75000000  0.52657241  0.60357144  1
  Pr  Pr2  1  0.75000000  0.86216754  0.52365390  1
  Pr  Pr3  1  0.25000000  0.39802318  0.13968003  1
  Pr  Pr4  1  0.25000000  0.47517477  0.39816213  1
  Pr  Pr5  1  0.25000000  0.14245042  0.46360444  1
  Pr  Pr6  1  0.75000000  0.94493804  0.77299519  1
  Pr  Pr7  1  0.75000000  0.28192916  0.94408856  1
  Pr  Pr8  1  0.75000000  0.76348820  0.28756052  1
  Pr  Pr9  1  0.25000000  0.05279685  0.23781409  1
  Pr  Pr10  1  0.25000000  0.70840841  0.05367232  1
  Pr  Pr11  1  0.25000000  0.23647501  0.70708358  1
  S  S12  1  0.75000000  0.27148712  0.52946105  1
  S  S13  1  0.75000000  0.19756438  0.27797222  1
  S  S14  1  0.75000000  0.52753074  0.18990045  1
  S  S15  1  0.25000000  0.72417425  0.46874369  1
  S  S16  1  0.25000000  0.81340134  0.71933706  1
  S  S17  1  0.25000000  0.46566382  0.81688829  1
  O  O18  1  0.75000000  0.56689318  0.41274676  1
  O  O19  1  0.25000000  0.98307636  0.43502495  1
  O  O20  1  0.25000000  0.58369956  0.97866149  1
  O  O21  1  0.25000000  0.43186476  0.58859985  1
  F  F22  1  0.75000000  0.10640224  0.79686358  1
  F  F23  1  0.75000000  0.09789929  0.10828588  1
  F  F24  1  0.75000000  0.79371645  0.09638440  1
  F  F25  1  0.25000000  0.89343356  0.20451817  1
  F  F26  1  0.25000000  0.90377673  0.89560370  1
  F  F27  1  0.25000000  0.20014815  0.90267647  1
  F  F28  1  0.75000000  0.75341836  0.92766180  1
  F  F29  1  0.75000000  0.31715788  0.75269269  1
  F  F30  1  0.75000000  0.93002564  0.31847878  1
  F  F31  1  0.25000000  0.25236216  0.07143809  1
  F  F32  1  0.25000000  0.67942632  0.24595125  1
  F  F33  1  0.25000000  0.06749557  0.67776042  1
  F  F34  1  0.75000000  0.66598062  0.66661049  1
  F  F35  1  0.25000000  0.33786292  0.33359475  1
  F  F36  1  0.75000000  0.02205141  0.56665208  1
  F  F37  1  0.75000000  0.40949204  0.02404379  1
