# generated using pymatgen
data_Rb3(Cr5Se8)4
_symmetry_space_group_name_H-M   'P 1'
_cell_length_a   10.96516378
_cell_length_b   11.73158615
_cell_length_c   11.57618108
_cell_angle_alpha   111.15082209
_cell_angle_beta   62.69945423
_cell_angle_gamma   98.42466371
_symmetry_Int_Tables_number   1
_chemical_formula_structural   Rb3(Cr5Se8)4
_chemical_formula_sum   'Rb3 Cr20 Se32'
_cell_volume   1233.80617817
_cell_formula_units_Z   1
loop_
 _symmetry_equiv_pos_site_id
 _symmetry_equiv_pos_as_xyz
  1  'x, y, z'
loop_
 _atom_site_type_symbol
 _atom_site_label
 _atom_site_symmetry_multiplicity
 _atom_site_fract_x
 _atom_site_fract_y
 _atom_site_fract_z
 _atom_site_occupancy
  Rb  Rb0  1  0.14323003  0.35687243  0.85664939  1
  Rb  Rb1  1  0.87499118  0.62499195  0.12501964  1
  Rb  Rb2  1  0.60680954  0.89314635  0.39329737  1
  Cr  Cr3  1  0.58127492  0.75428782  0.73430138  1
  Cr  Cr4  1  0.33213475  0.00364264  0.98385466  1
  Cr  Cr5  1  0.08291677  0.25224130  0.23229305  1
  Cr  Cr6  1  0.83186804  0.50315089  0.48342440  1
  Cr  Cr7  1  0.41756027  0.24620710  0.26623223  1
  Cr  Cr8  1  0.16871445  0.49566891  0.51572081  1
  Cr  Cr9  1  0.91847291  0.74703398  0.76678433  1
  Cr  Cr10  1  0.66709956  -0.00229830  0.01748364  1
  Cr  Cr11  1  0.00077834  0.00079786  0.99950800  1
  Cr  Cr12  1  0.74946798  0.24877848  0.25029776  1
  Cr  Cr13  1  0.49945285  0.49926510  0.50028410  1
  Cr  Cr14  1  0.25051075  0.75116659  0.74980284  1
  Cr  Cr15  1  0.96247145  0.11122435  0.44735617  1
  Cr  Cr16  1  0.71251382  0.36065822  0.69610790  1
  Cr  Cr17  1  0.46382761  0.61016209  0.94563918  1
  Cr  Cr18  1  0.21327556  0.86080185  0.19598679  1
  Cr  Cr19  1  0.03738005  0.88936222  0.55395476  1
  Cr  Cr20  1  0.78758185  0.13869095  0.80272067  1
  Cr  Cr21  1  0.53685172  0.38927453  0.05385374  1
  Cr  Cr22  1  0.28603908  0.63979585  0.30453051  1
  Se  Se23  1  0.03116383  0.11672362  0.62543620  1
  Se  Se24  1  0.78121678  0.36682457  0.87582268  1
  Se  Se25  1  0.53075616  0.61733489  0.12649533  1
  Se  Se26  1  0.28052637  0.86702520  0.37555843  1
  Se  Se27  1  0.96882504  0.88316544  0.37416860  1
  Se  Se28  1  0.71885445  0.13337853  0.62456434  1
  Se  Se29  1  0.46954070  0.38292955  0.87434897  1
  Se  Se30  1  0.21910507  0.63267242  0.12345417  1
  Se  Se31  1  0.30664564  0.34838004  0.51781055  1
  Se  Se32  1  0.05639097  0.59860777  0.76926255  1
  Se  Se33  1  0.80492931  0.84987660  0.02063365  1
  Se  Se34  1  0.55454143  0.10042702  0.26992021  1
  Se  Se35  1  0.69363889  0.65126443  0.48065804  1
  Se  Se36  1  0.44348927  0.90158675  0.73213336  1
  Se  Se37  1  0.19540970  0.14964400  0.98003859  1
  Se  Se38  1  0.94496466  0.40026762  0.22950220  1
  Se  Se39  1  0.10948872  0.89682737  0.74111331  1
  Se  Se40  1  0.85952465  0.14687861  0.99134590  1
  Se  Se41  1  0.60944234  0.39676553  0.24122429  1
  Se  Se42  1  0.35913791  0.64658731  0.49128397  1
  Se  Se43  1  0.89023098  0.10327511  0.25884603  1
  Se  Se44  1  0.64068370  0.35325826  0.50885528  1
  Se  Se45  1  0.39084623  0.60342932  0.75874257  1
  Se  Se46  1  0.14045704  0.85302042  0.00868019  1
  Se  Se47  1  0.77969743  0.89882682  0.74310705  1
  Se  Se48  1  0.52954148  0.14880401  0.99251010  1
  Se  Se49  1  0.27943248  0.39859083  0.24254493  1
  Se  Se50  1  0.02932461  0.64910792  0.49326272  1
  Se  Se51  1  0.22038824  0.10122937  0.25738541  1
  Se  Se52  1  0.97039353  0.35106310  0.50695590  1
  Se  Se53  1  0.72061208  0.60100944  0.75673641  1
  Se  Se54  1  0.47057284  0.85128497  0.00750675  1
