# generated using pymatgen
data_Pr6Ge3Se14
_symmetry_space_group_name_H-M   'P 1'
_cell_length_a   6.12894388
_cell_length_b   10.77670921
_cell_length_c   10.77648048
_cell_angle_alpha   119.99779648
_cell_angle_beta   90.00054948
_cell_angle_gamma   89.99928712
_symmetry_Int_Tables_number   1
_chemical_formula_structural   Pr6Ge3Se14
_chemical_formula_sum   'Pr6 Ge3 Se14'
_cell_volume   616.43747087
_cell_formula_units_Z   1
loop_
 _symmetry_equiv_pos_site_id
 _symmetry_equiv_pos_as_xyz
  1  'x, y, z'
loop_
 _atom_site_type_symbol
 _atom_site_label
 _atom_site_symmetry_multiplicity
 _atom_site_fract_x
 _atom_site_fract_y
 _atom_site_fract_z
 _atom_site_occupancy
  Pr  Pr0  1  0.24728176  0.22681197  0.35750779  1
  Pr  Pr1  1  0.24727238  0.64251364  0.86932093  1
  Pr  Pr2  1  0.24728903  0.13069773  0.77318503  1
  Pr  Pr3  1  0.74866818  0.77291016  0.64222603  1
  Pr  Pr4  1  0.74866031  0.35774734  0.13066726  1
  Pr  Pr5  1  0.74866930  0.86931263  0.22709060  1
  Ge  Ge6  1  0.82908861  0.33334829  0.66667519  1
  Ge  Ge7  1  0.33101041  0.66665633  0.33332677  1
  Ge  Ge8  1  0.48380223  0.99999918  0.00000004  1
  Se  Se9  1  0.44568851  0.33337393  0.66669110  1
  Se  Se10  1  0.94737909  0.66666030  0.33332925  1
  Se  Se11  1  0.98829159  0.10062247  0.51796699  1
  Se  Se12  1  0.98831156  0.48204910  0.58264977  1
  Se  Se13  1  0.98831238  0.41734617  0.89939563  1
  Se  Se14  1  0.49040044  0.89892310  0.48173328  1
  Se  Se15  1  0.49041323  0.51824428  0.41719344  1
  Se  Se16  1  0.49040701  0.58280258  0.10105332  1
  Se  Se17  1  0.72435527  0.16048886  0.25519455  1
  Se  Se18  1  0.72434744  0.74480326  0.90530718  1
  Se  Se19  1  0.72435333  0.09468784  0.83948570  1
  Se  Se20  1  0.23399660  0.83699976  0.74447953  1
  Se  Se21  1  0.23399615  0.25550976  0.09250958  1
  Se  Se22  1  0.23400518  0.90749135  0.16301106  1
