# generated using pymatgen
data_Pr6Mn(SiS7)2
_symmetry_space_group_name_H-M   'P 1'
_cell_length_a   5.73609526
_cell_length_b   10.29354442
_cell_length_c   10.29487743
_cell_angle_alpha   59.99915470
_cell_angle_beta   90.00009141
_cell_angle_gamma   90.00064756
_symmetry_Int_Tables_number   1
_chemical_formula_structural   Pr6Mn(SiS7)2
_chemical_formula_sum   'Pr6 Mn1 Si2 S14'
_cell_volume   526.41640007
_cell_formula_units_Z   1
loop_
 _symmetry_equiv_pos_site_id
 _symmetry_equiv_pos_as_xyz
  1  'x, y, z'
loop_
 _atom_site_type_symbol
 _atom_site_label
 _atom_site_symmetry_multiplicity
 _atom_site_fract_x
 _atom_site_fract_y
 _atom_site_fract_z
 _atom_site_occupancy
  Pr  Pr0  1  0.24969427  0.23445231  0.12258513  1
  Pr  Pr1  1  0.24967909  0.64298726  0.23445997  1
  Pr  Pr2  1  0.24968727  0.12256615  0.64295603  1
  Pr  Pr3  1  0.75244635  0.76609785  0.87748382  1
  Pr  Pr4  1  0.75245503  0.35640462  0.76609022  1
  Pr  Pr5  1  0.75244603  0.87749695  0.35642705  1
  Mn  Mn6  1  0.48877355  0.00001018  0.99998863  1
  Si  Si7  1  0.83426495  0.33327143  0.33336256  1
  Si  Si8  1  0.33703206  0.66672212  0.66664706  1
  S  S9  1  0.46785960  0.33336043  0.33332318  1
  S  S10  1  0.97010149  0.66663868  0.66667738  1
  S  S11  1  0.72854148  0.16037458  0.08377146  1
  S  S12  1  0.72854348  0.75585217  0.16037821  1
  S  S13  1  0.72853166  0.08377209  0.75584585  1
  S  S14  1  0.25010236  0.83785540  0.91831504  1
  S  S15  1  0.25009866  0.24382723  0.83785441  1
  S  S16  1  0.25010898  0.91831993  0.24382848  1
  S  S17  1  0.97817027  0.11423523  0.40837399  1
  S  S18  1  0.97823823  0.47745324  0.11414100  1
  S  S19  1  0.97822501  0.40841187  0.47744074  1
  S  S20  1  0.48029103  0.88583014  0.59093460  1
  S  S21  1  0.48036091  0.52315784  0.88593982  1
  S  S22  1  0.48034826  0.59090229  0.52317537  1
