# generated using pymatgen
data_P2Pb4SO12
_symmetry_space_group_name_H-M   'P 1'
_cell_length_a   9.24493975
_cell_length_b   9.24493975
_cell_length_c   9.24493975
_cell_angle_alpha   70.33786780
_cell_angle_beta   70.90993148
_cell_angle_gamma   109.66213220
_symmetry_Int_Tables_number   1
_chemical_formula_structural   P2Pb4SO12
_chemical_formula_sum   'P4 Pb8 S2 O24'
_cell_volume   608.24137797
_cell_formula_units_Z   2
loop_
 _symmetry_equiv_pos_site_id
 _symmetry_equiv_pos_as_xyz
  1  'x, y, z'
loop_
 _atom_site_type_symbol
 _atom_site_label
 _atom_site_symmetry_multiplicity
 _atom_site_fract_x
 _atom_site_fract_y
 _atom_site_fract_z
 _atom_site_occupancy
  P  P0  1  0.87440851  0.62440851  0.75000000  1
  P  P1  1  0.62559149  0.87559149  0.25000000  1
  P  P2  1  0.75000000  0.12440851  0.62559149  1
  P  P3  1  0.25000000  0.37559149  0.87440851  1
  Pb  Pb4  1  0.85619123  0.34293994  0.14341807  1
  Pb  Pb5  1  0.51364199  0.15706006  0.98674870  1
  Pb  Pb6  1  0.64380877  0.50039069  0.51325130  1
  Pb  Pb7  1  0.98635801  0.99960931  0.35658193  1
  Pb  Pb8  1  0.51325130  0.65706006  0.98635801  1
  Pb  Pb9  1  0.35658193  0.84293994  0.64380877  1
  Pb  Pb10  1  0.14341807  0.49960931  0.51364199  1
  Pb  Pb11  1  0.98674870  0.00039069  0.85619123  1
  S  S12  1  0.37500000  0.25000000  0.37500000  1
  S  S13  1  0.12500000  0.75000000  0.12500000  1
  O  O14  1  0.80596516  0.15368539  0.43482338  1
  O  O15  1  0.41149123  0.34631461  0.84772023  1
  O  O16  1  0.69403484  0.25921147  0.65227977  1
  O  O17  1  0.08850877  0.24078853  0.06517662  1
  O  O18  1  0.65227977  0.84631461  0.08850877  1
  O  O19  1  0.06517662  0.65368539  0.69403484  1
  O  O20  1  0.43482338  0.74078853  0.41149123  1
  O  O21  1  0.84772023  0.75921147  0.80596516  1
  O  O22  1  0.35069689  0.19754641  0.24455265  1
  O  O23  1  0.94209906  0.59524954  0.25544735  1
  O  O24  1  0.55790094  0.30245359  0.34684952  1
  O  O25  1  0.14930311  0.90475046  0.15315048  1
  O  O26  1  0.19267164  0.34856599  0.74005371  1
  O  O27  1  0.58861971  0.93272535  0.75994629  1
  O  O28  1  0.30732836  0.56727465  0.84410564  1
  O  O29  1  0.91138029  0.15143401  0.65589436  1
  O  O30  1  0.84410564  0.65143401  0.58861971  1
  O  O31  1  0.65589436  0.06727465  0.19267164  1
  O  O32  1  0.74005371  0.43272535  0.91138029  1
  O  O33  1  0.75994629  0.84856599  0.30732836  1
  O  O34  1  0.15315048  0.80245359  0.94209906  1
  O  O35  1  0.34684952  0.40475046  0.35069689  1
  O  O36  1  0.25544735  0.69754641  0.14930311  1
  O  O37  1  0.24455265  0.09524954  0.55790094  1
