# generated using pymatgen
data_Mn2CuSb2Pt
_symmetry_space_group_name_H-M   'P 1'
_cell_length_a   4.38354416
_cell_length_b   4.38354416
_cell_length_c   7.58346967
_cell_angle_alpha   73.20072440
_cell_angle_beta   90.00000000
_cell_angle_gamma   120.00000000
_symmetry_Int_Tables_number   1
_chemical_formula_structural   Mn2CuSb2Pt
_chemical_formula_sum   'Mn2 Cu1 Sb2 Pt1'
_cell_volume   118.96199864
_cell_formula_units_Z   1
loop_
 _symmetry_equiv_pos_site_id
 _symmetry_equiv_pos_as_xyz
  1  'x, y, z'
loop_
 _atom_site_type_symbol
 _atom_site_label
 _atom_site_symmetry_multiplicity
 _atom_site_fract_x
 _atom_site_fract_y
 _atom_site_fract_z
 _atom_site_occupancy
  Mn  Mn0  1  0.24953173  0.49906345  0.25140482  1
  Mn  Mn1  1  0.75062738  0.50125475  0.74811787  1
  Cu  Cu2  1  0.87538745  0.75077490  0.37383765  1
  Sb  Sb3  1  0.99776279  0.99552557  0.00671164  1
  Sb  Sb4  1  0.50202867  0.00405734  0.49391399  1
  Pt  Pt5  1  0.37466199  0.74932398  0.87601402  1
