# generated using pymatgen
data_Pr2Si2PbS8
_symmetry_space_group_name_H-M   'P 1'
_cell_length_a   9.12200915
_cell_length_b   9.08159730
_cell_length_c   10.48764353
_cell_angle_alpha   62.91094278
_cell_angle_beta   64.22150657
_cell_angle_gamma   59.85268860
_symmetry_Int_Tables_number   1
_chemical_formula_structural   Pr2Si2PbS8
_chemical_formula_sum   'Pr4 Si4 Pb2 S16'
_cell_volume   644.44813710
_cell_formula_units_Z   2
loop_
 _symmetry_equiv_pos_site_id
 _symmetry_equiv_pos_as_xyz
  1  'x, y, z'
loop_
 _atom_site_type_symbol
 _atom_site_label
 _atom_site_symmetry_multiplicity
 _atom_site_fract_x
 _atom_site_fract_y
 _atom_site_fract_z
 _atom_site_occupancy
  Pr  Pr0  1  0.06124285  0.43862582  0.74817784  1
  Pr  Pr1  1  0.44004580  0.74969899  0.75323111  1
  Pr  Pr2  1  0.25195348  0.93862582  0.24817784  1
  Pr  Pr3  1  0.55702409  0.24969899  0.25323111  1
  Si  Si4  1  0.65241887  0.65685382  0.02122058  1
  Si  Si5  1  0.16950673  0.15685382  0.52122058  1
  Si  Si6  1  0.33291157  0.34307335  0.97801730  1
  Si  Si7  1  0.84599778  0.84307335  0.47801730  1
  Pb  Pb8  1  0.74991319  0.07126912  0.74951955  1
  Pb  Pb9  1  0.92929815  0.57126912  0.24951955  1
  S  S10  1  0.88492216  0.71228791  0.92683273  1
  S  S11  1  0.71284642  0.44344998  0.94626967  1
  S  S12  1  0.43854260  0.88828045  0.94749441  1
  S  S13  1  0.39743394  0.94344998  0.44626967  1
  S  S14  1  0.97595720  0.21228791  0.42683273  1
  S  S15  1  0.22568254  0.38828045  0.44749441  1
  S  S16  1  0.11109918  0.27638002  0.04574734  1
  S  S17  1  0.28102776  0.54082665  0.06482836  1
  S  S18  1  0.53385693  0.10690769  0.06891579  1
  S  S19  1  0.61331723  0.04082665  0.56482836  1
  S  S20  1  0.06677346  0.77638002  0.54574734  1
  S  S21  1  0.79031959  0.60690769  0.56891579  1
  S  S22  1  0.56772981  0.57642509  0.25815028  1
  S  S23  1  0.09769482  0.07642509  0.75815028  1
  S  S24  1  0.40052750  0.44592112  0.74159503  1
  S  S25  1  0.91195635  0.94592112  0.24159503  1
