# generated using pymatgen
data_Pr6Cd(GeS7)2
_symmetry_space_group_name_H-M   'P 1'
_cell_length_a   5.84286292
_cell_length_b   10.33311120
_cell_length_c   10.33282812
_cell_angle_alpha   119.99832214
_cell_angle_beta   89.99993035
_cell_angle_gamma   90.00011789
_symmetry_Int_Tables_number   1
_chemical_formula_structural   Pr6Cd(GeS7)2
_chemical_formula_sum   'Pr6 Cd1 Ge2 S14'
_cell_volume   540.27388987
_cell_formula_units_Z   1
loop_
 _symmetry_equiv_pos_site_id
 _symmetry_equiv_pos_as_xyz
  1  'x, y, z'
loop_
 _atom_site_type_symbol
 _atom_site_label
 _atom_site_symmetry_multiplicity
 _atom_site_fract_x
 _atom_site_fract_y
 _atom_site_fract_z
 _atom_site_occupancy
  Pr  Pr0  1  0.24515773  0.23009116  0.35775635  1
  Pr  Pr1  1  0.24514560  0.64226263  0.87234932  1
  Pr  Pr2  1  0.24515765  0.12766578  0.76990452  1
  Pr  Pr3  1  0.75023709  0.76970285  0.64186889  1
  Pr  Pr4  1  0.75022506  0.35811443  0.12783010  1
  Pr  Pr5  1  0.75023900  0.87215660  0.23029365  1
  Cd  Cd6  1  0.48583671  0.99999801  0.99999833  1
  Ge  Ge7  1  0.83014578  0.33334781  0.66667205  1
  Ge  Ge8  1  0.33558628  0.66665744  0.33332925  1
  S  S9  1  0.71785183  0.16283436  0.25732034  1
  S  S10  1  0.71785615  0.74268177  0.90552543  1
  S  S11  1  0.71785653  0.09447460  0.83714818  1
  S  S12  1  0.23132786  0.83626788  0.74475369  1
  S  S13  1  0.23132914  0.25524121  0.09150246  1
  S  S14  1  0.23132857  0.90849590  0.16374577  1
  S  S15  1  0.45420393  0.33334305  0.66667097  1
  S  S16  1  0.95871773  0.66665501  0.33332719  1
  S  S17  1  0.98574814  0.10653436  0.52018578  1
  S  S18  1  0.98577518  0.47983311  0.58634250  1
  S  S19  1  0.98576799  0.41366260  0.89348522  1
  S  S20  1  0.48915573  0.89350076  0.47982245  1
  S  S21  1  0.48917652  0.52016405  0.41368269  1
  S  S22  1  0.48917381  0.58631461  0.10648489  1
