# generated using pymatgen
data_Pr9Al5S21
_symmetry_space_group_name_H-M   'P 1'
_cell_length_a   11.77392961
_cell_length_b   11.77401642
_cell_length_c   11.77398239
_cell_angle_alpha   96.06906231
_cell_angle_beta   83.93185236
_cell_angle_gamma   83.93146822
_symmetry_Int_Tables_number   1
_chemical_formula_structural   Pr9Al5S21
_chemical_formula_sum   'Pr18 Al10 S42'
_cell_volume   1602.62599339
_cell_formula_units_Z   2
loop_
 _symmetry_equiv_pos_site_id
 _symmetry_equiv_pos_as_xyz
  1  'x, y, z'
loop_
 _atom_site_type_symbol
 _atom_site_label
 _atom_site_symmetry_multiplicity
 _atom_site_fract_x
 _atom_site_fract_y
 _atom_site_fract_z
 _atom_site_occupancy
  Pr  Pr0  1  0.25605616  0.11648683  0.88360074  1
  Pr  Pr1  1  0.92219477  0.45512000  0.22090677  1
  Pr  Pr2  1  0.59323498  0.77885663  0.54913967  1
  Pr  Pr3  1  0.45085940  0.40677688  0.77885072  1
  Pr  Pr4  1  0.11639424  0.74395454  0.11648664  1
  Pr  Pr5  1  0.77909192  0.07781585  0.45511503  1
  Pr  Pr6  1  0.54488049  0.22090674  0.07780154  1
  Pr  Pr7  1  0.22114497  0.54913922  0.40675956  1
  Pr  Pr8  1  0.88351126  0.88360258  0.74394280  1
  Pr  Pr9  1  0.41449223  0.21279559  0.44446276  1
  Pr  Pr10  1  0.07500018  0.54729573  0.78168467  1
  Pr  Pr11  1  0.75053806  0.87793790  0.10834618  1
  Pr  Pr12  1  0.21831054  0.92499836  0.54730158  1
  Pr  Pr13  1  0.89165112  0.24945904  0.87794599  1
  Pr  Pr14  1  0.55553202  0.58550098  0.21280586  1
  Pr  Pr15  1  0.12206340  0.10834570  0.24946191  1
  Pr  Pr16  1  0.78720529  0.44446153  0.58550972  1
  Pr  Pr17  1  0.45270566  0.78168597  0.92500418  1
  Al  Al18  1  0.94560221  0.72143883  0.38832897  1
  Al  Al19  1  0.61166466  0.05440437  0.72142470  1
  Al  Al20  1  0.27856888  0.38834194  0.05438868  1
  Al  Al21  1  0.44557480  0.88766281  0.22210108  1
  Al  Al22  1  0.11232936  0.22208458  0.55443289  1
  Al  Al23  1  0.77790815  0.55441972  0.88767798  1
  Al  Al24  1  0.14872047  0.85127963  0.85127896  1
  Al  Al25  1  0.83419237  0.16580753  0.16580756  1
  Al  Al26  1  0.33426010  0.66573993  0.66573956  1
  Al  Al27  1  0.64873243  0.35126722  0.35126796  1
  S  S28  1  0.82294962  0.84255724  0.51260322  1
  S  S29  1  0.48739125  0.17705532  0.84254512  1
  S  S30  1  0.15744902  0.51261340  0.17704490  1
  S  S31  1  0.65724076  0.67667837  0.01280366  1
  S  S32  1  0.32331355  0.01278935  0.34276196  1
  S  S33  1  0.98720374  0.34275267  0.67669141  1
  S  S34  1  0.97774684  0.54581780  0.44759747  1
  S  S35  1  0.63987560  0.87898602  0.77971687  1
  S  S36  1  0.30293038  0.21085136  0.11081345  1
  S  S37  1  0.88918404  0.69706540  0.21083631  1
  S  S38  1  0.55240405  0.02225366  0.54579903  1
  S  S39  1  0.22028248  0.36012198  0.87896861  1
  S  S40  1  0.12102704  0.77972022  0.36012029  1
  S  S41  1  0.78915908  0.11081827  0.69706237  1
  S  S42  1  0.45419631  0.44759797  0.02225059  1
  S  S43  1  0.51837819  0.96716127  0.06879100  1
  S  S44  1  0.18160874  0.29972307  0.39826109  1
  S  S45  1  0.84419318  0.63311986  0.73054985  1
  S  S46  1  0.60175151  0.81837968  0.29973009  1
  S  S47  1  0.26946200  0.15579719  0.63312377  1
  S  S48  1  0.93122832  0.48161476  0.96716563  1
  S  S49  1  0.36687638  0.73053833  0.15580306  1
  S  S50  1  0.03283619  0.06877191  0.48161899  1
  S  S51  1  0.70027304  0.39825005  0.81838743  1
  S  S52  1  0.69004273  0.54707888  0.39870512  1
  S  S53  1  0.33794741  0.88240354  0.74695439  1
  S  S54  1  0.00503490  0.22915982  0.08707613  1
  S  S55  1  0.91292965  0.99496636  0.22915855  1
  S  S56  1  0.60129706  0.30995985  0.54708179  1
  S  S57  1  0.25304994  0.66205403  0.88240559  1
  S  S58  1  0.11759214  0.74694970  0.66205359  1
  S  S59  1  0.77083730  0.08706707  0.99496602  1
  S  S60  1  0.45291335  0.39869948  0.30995887  1
  S  S61  1  0.63471890  0.14517162  0.28092379  1
  S  S62  1  0.28734800  0.47814251  0.62028460  1
  S  S63  1  0.97279325  0.79016041  0.93854090  1
  S  S64  1  0.37971087  0.71264850  0.47813983  1
  S  S65  1  0.06145553  0.02720327  0.79015793  1
  S  S66  1  0.71907232  0.36527800  0.14516970  1
  S  S67  1  0.20984682  0.93854692  0.02720539  1
  S  S68  1  0.85483263  0.28093013  0.36528050  1
  S  S69  1  0.52186175  0.62029214  0.71265048  1
