# generated using pymatgen
data_MgAg3
_symmetry_space_group_name_H-M   'P 1'
_cell_length_a   3.03929111
_cell_length_b   3.03929112
_cell_length_c   9.45774359
_cell_angle_alpha   90.00000000
_cell_angle_beta   80.75378764
_cell_angle_gamma   120.00000008
_symmetry_Int_Tables_number   1
_chemical_formula_structural   MgAg3
_chemical_formula_sum   'Mg1 Ag3'
_cell_volume   74.34576574
_cell_formula_units_Z   1
loop_
 _symmetry_equiv_pos_site_id
 _symmetry_equiv_pos_as_xyz
  1  'x, y, z'
loop_
 _atom_site_type_symbol
 _atom_site_label
 _atom_site_symmetry_multiplicity
 _atom_site_fract_x
 _atom_site_fract_y
 _atom_site_fract_z
 _atom_site_occupancy
  Mg  Mg0  1  0.00000000  -0.00000000  0.00000000  1
  Ag  Ag1  1  0.50139594  0.25069797  0.24790609  1
  Ag  Ag2  1  0.00000000  0.50000000  0.50000000  1
  Ag  Ag3  1  0.49860406  0.74930203  0.75209391  1
