# generated using pymatgen
data_NbAlCu
_symmetry_space_group_name_H-M   'P 1'
_cell_length_a   4.98937887
_cell_length_b   5.07847765
_cell_length_c   8.10199240
_cell_angle_alpha   90.00000000
_cell_angle_beta   90.00000000
_cell_angle_gamma   120.59158133
_symmetry_Int_Tables_number   1
_chemical_formula_structural   NbAlCu
_chemical_formula_sum   'Nb4 Al4 Cu4'
_cell_volume   176.71873803
_cell_formula_units_Z   4
loop_
 _symmetry_equiv_pos_site_id
 _symmetry_equiv_pos_as_xyz
  1  'x, y, z'
loop_
 _atom_site_type_symbol
 _atom_site_label
 _atom_site_symmetry_multiplicity
 _atom_site_fract_x
 _atom_site_fract_y
 _atom_site_fract_z
 _atom_site_occupancy
  Nb  Nb0  1  0.66991806  0.33496152  0.56233895  1
  Nb  Nb1  1  0.32621934  0.66311111  0.43323979  1
  Nb  Nb2  1  0.32621934  0.66311111  0.06676021  1
  Nb  Nb3  1  0.66991806  0.33496152  0.93766105  1
  Al  Al4  1  0.98968571  0.99483852  0.48648663  1
  Al  Al5  1  0.98968571  0.99483852  0.01351337  1
  Al  Al6  1  0.18090438  0.34780712  0.75000000  1
  Al  Al7  1  0.18089043  0.83308373  0.75000000  1
  Cu  Cu8  1  0.67159252  0.83579943  0.75000000  1
  Cu  Cu9  1  0.82517751  0.65200032  0.25000000  1
  Cu  Cu10  1  0.82519503  0.17319124  0.25000000  1
  Cu  Cu11  1  0.34459391  0.17229585  0.25000000  1
