# generated using pymatgen
data_NaLa(MoO4)2
_symmetry_space_group_name_H-M   'P 1'
_cell_length_a   5.38779339
_cell_length_b   5.38779339
_cell_length_c   7.09791499
_cell_angle_alpha   67.69521287
_cell_angle_beta   67.69521287
_cell_angle_gamma   90.00000000
_symmetry_Int_Tables_number   1
_chemical_formula_structural   NaLa(MoO4)2
_chemical_formula_sum   'Na1 La1 Mo2 O8'
_cell_volume   173.84604371
_cell_formula_units_Z   1
loop_
 _symmetry_equiv_pos_site_id
 _symmetry_equiv_pos_as_xyz
  1  'x, y, z'
loop_
 _atom_site_type_symbol
 _atom_site_label
 _atom_site_symmetry_multiplicity
 _atom_site_fract_x
 _atom_site_fract_y
 _atom_site_fract_z
 _atom_site_occupancy
  Na  Na0  1  0.25000000  0.75000000  0.50000000  1
  La  La1  1  0.50000000  0.50000000  -0.00000000  1
  Mo  Mo2  1  0.75000000  0.25000000  0.50000000  1
  Mo  Mo3  1  0.00000000  -0.00000000  -0.00000000  1
  O  O4  1  0.80333316  0.92489299  0.66815162  1
  O  O5  1  0.52851521  0.40695538  0.66815162  1
  O  O6  1  0.22743575  0.83463914  0.84364252  1
  O  O7  1  0.92892172  0.32171834  0.84364252  1
  O  O8  1  0.59304462  0.19666684  0.33184838  1
  O  O9  1  0.07510701  0.47148479  0.33184838  1
  O  O10  1  0.67828166  0.77256425  0.15635748  1
  O  O11  1  0.16536086  0.07107828  0.15635748  1
