# generated using pymatgen
data_Nd4Zn3Au5
_symmetry_space_group_name_H-M   'P 1'
_cell_length_a   4.64907381
_cell_length_b   7.20214881
_cell_length_c   8.08896241
_cell_angle_alpha   89.73515625
_cell_angle_beta   90.00000000
_cell_angle_gamma   90.00000000
_symmetry_Int_Tables_number   1
_chemical_formula_structural   Nd4Zn3Au5
_chemical_formula_sum   'Nd4 Zn3 Au5'
_cell_volume   270.84243473
_cell_formula_units_Z   1
loop_
 _symmetry_equiv_pos_site_id
 _symmetry_equiv_pos_as_xyz
  1  'x, y, z'
loop_
 _atom_site_type_symbol
 _atom_site_label
 _atom_site_symmetry_multiplicity
 _atom_site_fract_x
 _atom_site_fract_y
 _atom_site_fract_z
 _atom_site_occupancy
  Nd  Nd0  1  0.75000000  0.49617393  0.21028470  1
  Nd  Nd1  1  0.75000000  0.99686047  0.28370576  1
  Nd  Nd2  1  0.25000000  0.51186466  0.78946324  1
  Nd  Nd3  1  0.25000000  0.00575073  0.71734743  1
  Zn  Zn4  1  0.75000000  0.30292412  0.58014846  1
  Zn  Zn5  1  0.25000000  0.20194652  0.08105494  1
  Zn  Zn6  1  0.25000000  0.69167462  0.42421690  1
  Au  Au7  1  0.75000000  0.22730950  0.91088834  1
  Au  Au8  1  0.75000000  0.71198743  0.57238087  1
  Au  Au9  1  0.25000000  0.78271329  0.10660338  1
  Au  Au10  1  0.25000000  0.28023838  0.41238456  1
  Au  Au11  1  0.75000000  0.79055634  0.91152141  1
