# generated using pymatgen
data_Nb6TlS8
_symmetry_space_group_name_H-M   'P 1'
_cell_length_a   3.39564355
_cell_length_b   9.75062746
_cell_length_c   9.74924331
_cell_angle_alpha   120.00413753
_cell_angle_beta   90.00000000
_cell_angle_gamma   90.00000000
_symmetry_Int_Tables_number   1
_chemical_formula_structural   Nb6TlS8
_chemical_formula_sum   'Nb6 Tl1 S8'
_cell_volume   279.53622185
_cell_formula_units_Z   1
loop_
 _symmetry_equiv_pos_site_id
 _symmetry_equiv_pos_as_xyz
  1  'x, y, z'
loop_
 _atom_site_type_symbol
 _atom_site_label
 _atom_site_symmetry_multiplicity
 _atom_site_fract_x
 _atom_site_fract_y
 _atom_site_fract_z
 _atom_site_occupancy
  Nb  Nb0  1  0.75000000  0.11150371  0.62701065  1
  Nb  Nb1  1  0.75000000  0.37303907  0.48456102  1
  Nb  Nb2  1  0.75000000  0.51549744  0.88853365  1
  Nb  Nb3  1  0.25000000  0.88859631  0.37609926  1
  Nb  Nb4  1  0.25000000  0.62387607  0.51242694  1
  Nb  Nb5  1  0.25000000  0.48750228  0.11133805  1
  Tl  Tl6  1  0.75000000  0.99998397  0.00006190  1
  S  S7  1  0.75000000  0.05847591  0.34836120  1
  S  S8  1  0.75000000  0.65174354  0.71013846  1
  S  S9  1  0.75000000  0.28982922  0.94148969  1
  S  S10  1  0.25000000  0.94133321  0.65562445  1
  S  S11  1  0.25000000  0.34428449  0.28568105  1
  S  S12  1  0.25000000  0.71433299  0.05869447  1
  S  S13  1  0.75000000  0.66663917  0.33326948  1
  S  S14  1  0.25000000  0.33336260  0.66670973  1
