# generated using pymatgen
data_Nb10Ge6C
_symmetry_space_group_name_H-M   'P 1'
_cell_length_a   5.35548200
_cell_length_b   7.72301738
_cell_length_c   7.72196177
_cell_angle_alpha   120.00451933
_cell_angle_beta   90.00085180
_cell_angle_gamma   89.99829658
_symmetry_Int_Tables_number   1
_chemical_formula_structural   Nb10Ge6C
_chemical_formula_sum   'Nb10 Ge6 C1'
_cell_volume   276.58210374
_cell_formula_units_Z   1
loop_
 _symmetry_equiv_pos_site_id
 _symmetry_equiv_pos_as_xyz
  1  'x, y, z'
loop_
 _atom_site_type_symbol
 _atom_site_label
 _atom_site_symmetry_multiplicity
 _atom_site_fract_x
 _atom_site_fract_y
 _atom_site_fract_z
 _atom_site_occupancy
  Nb  Nb0  1  0.74365468  0.23770201  0.00000000  1
  Nb  Nb1  1  0.74366919  0.76230336  0.76235213  1
  Nb  Nb2  1  0.74366919  -0.00004877  0.23764787  1
  Nb  Nb3  1  0.25634648  0.76229666  1.00000000  1
  Nb  Nb4  1  0.25633581  0.23769465  0.23764718  1
  Nb  Nb5  1  0.25633581  0.00004747  0.76235282  1
  Nb  Nb6  1  0.00000287  0.33333304  0.66667157  1
  Nb  Nb7  1  0.00000287  0.66666147  0.33332843  1
  Nb  Nb8  1  0.49999959  0.66666000  0.33331096  1
  Nb  Nb9  1  0.49999959  0.33334904  0.66668904  1
  Ge  Ge10  1  0.75503012  0.60183980  0.00000000  1
  Ge  Ge11  1  0.75502607  0.39815871  0.39814351  1
  Ge  Ge12  1  0.75502607  0.00001521  0.60185649  1
  Ge  Ge13  1  0.24498867  0.39816498  1.00000000  1
  Ge  Ge14  1  0.24495501  0.60184293  0.60185851  1
  Ge  Ge15  1  0.24495501  -0.00001558  0.39814149  1
  C  C16  1  0.50000295  0.99999505  0.00000000  1
