# generated using pymatgen
data_Nd4Cu3Ni
_symmetry_space_group_name_H-M   'P 1'
_cell_length_a   4.46154033
_cell_length_b   5.63370058
_cell_length_c   7.35725251
_cell_angle_alpha   89.91035285
_cell_angle_beta   90.00000000
_cell_angle_gamma   90.00000000
_symmetry_Int_Tables_number   1
_chemical_formula_structural   Nd4Cu3Ni
_chemical_formula_sum   'Nd4 Cu3 Ni1'
_cell_volume   184.92418558
_cell_formula_units_Z   1
loop_
 _symmetry_equiv_pos_site_id
 _symmetry_equiv_pos_as_xyz
  1  'x, y, z'
loop_
 _atom_site_type_symbol
 _atom_site_label
 _atom_site_symmetry_multiplicity
 _atom_site_fract_x
 _atom_site_fract_y
 _atom_site_fract_z
 _atom_site_occupancy
  Nd  Nd0  1  0.25000000  0.37201697  0.67473225  1
  Nd  Nd1  1  0.25000000  0.12418137  0.18436307  1
  Nd  Nd2  1  0.75000000  0.63276966  0.32630807  1
  Nd  Nd3  1  0.75000000  0.87179867  0.81339160  1
  Cu  Cu4  1  0.25000000  0.61532079  0.03442587  1
  Cu  Cu5  1  0.75000000  0.11865301  0.46552788  1
  Cu  Cu6  1  0.75000000  0.38290946  0.96684749  1
  Ni  Ni7  1  0.25000000  0.88235007  0.53440376  1
