# generated using pymatgen
data_NaLa9(Ge3O13)2
_symmetry_space_group_name_H-M   'P 1'
_cell_length_a   7.31829806
_cell_length_b   9.98093971
_cell_length_c   9.98091042
_cell_angle_alpha   120.00027427
_cell_angle_beta   89.99951052
_cell_angle_gamma   90.00047079
_symmetry_Int_Tables_number   1
_chemical_formula_structural   NaLa9(Ge3O13)2
_chemical_formula_sum   'Na1 La9 Ge6 O26'
_cell_volume   631.36588984
_cell_formula_units_Z   1
loop_
 _symmetry_equiv_pos_site_id
 _symmetry_equiv_pos_as_xyz
  1  'x, y, z'
loop_
 _atom_site_type_symbol
 _atom_site_label
 _atom_site_symmetry_multiplicity
 _atom_site_fract_x
 _atom_site_fract_y
 _atom_site_fract_z
 _atom_site_occupancy
  Na  Na0  1  0.49413309  0.66663095  0.33331454  1
  La  La1  1  0.99859338  0.33334835  0.66667533  1
  La  La2  1  0.50058940  0.33333562  0.66668186  1
  La  La3  1  0.00150230  0.66667190  0.33332837  1
  La  La4  1  0.74885671  0.23140521  0.99494517  1
  La  La5  1  0.74884453  0.00504094  0.23645370  1
  La  La6  1  0.74884931  0.76354988  0.76859491  1
  La  La7  1  0.25074789  0.76802459  0.00833008  1
  La  La8  1  0.25074997  0.99166597  0.75969872  1
  La  La9  1  0.25076165  0.24030007  0.23197142  1
  Ge  Ge10  1  0.74729030  0.96990761  0.59702568  1
  Ge  Ge11  1  0.74728807  0.40297114  0.37287425  1
  Ge  Ge12  1  0.74728663  0.62712592  0.03009829  1
  Ge  Ge13  1  0.24881459  0.02499670  0.39789907  1
  Ge  Ge14  1  0.24881730  0.60210429  0.62710546  1
  Ge  Ge15  1  0.24881278  0.37288813  0.97499408  1
  O  O16  1  0.74894674  0.17526698  0.68203285  1
  O  O17  1  0.74893869  0.31796922  0.49323191  1
  O  O18  1  0.74894688  0.50677604  0.82474076  1
  O  O19  1  0.24250509  0.82467046  0.30963019  1
  O  O20  1  0.24250720  0.69037797  0.51504180  1
  O  O21  1  0.24250991  0.48495408  0.17532865  1
  O  O22  1  0.25022709  0.13255477  0.60495794  1
  O  O23  1  0.25023050  0.39504690  0.52759481  1
  O  O24  1  0.25022571  0.47240450  0.86745180  1
  O  O25  1  0.75984221  0.87433947  0.39434441  1
  O  O26  1  0.75983677  0.60566072  0.47999841  1
  O  O27  1  0.75983311  0.52000297  0.12565940  1
  O  O28  1  0.94067801  0.90744188  0.66022215  1
  O  O29  1  0.94068899  0.33979291  0.24722070  1
  O  O30  1  0.94068005  0.75278245  0.09256749  1
  O  O31  1  0.44123512  0.09736326  0.34472953  1
  O  O32  1  0.44123986  0.65525961  0.75263480  1
  O  O33  1  0.44123546  0.24736604  0.90262303  1
  O  O34  1  0.05822757  0.10041494  0.34471314  1
  O  O35  1  0.05823778  0.65527755  0.75569562  1
  O  O36  1  0.05822835  0.24429556  0.89958394  1
  O  O37  1  0.56295584  0.91707049  0.67563716  1
  O  O38  1  0.56295910  0.32437755  0.24143419  1
  O  O39  1  0.56295451  0.75857259  0.08293987  1
  O  O40  1  0.75364926  -0.00000051  0.00000079  1
  O  O41  1  0.25054232  0.99999433  0.99999375  1
