# generated using pymatgen
data_NaSr11(PtO6)3
_symmetry_space_group_name_H-M   'P 1'
_cell_length_a   9.82689463
_cell_length_b   11.94513540
_cell_length_c   9.82689455
_cell_angle_alpha   90.00000000
_cell_angle_beta   59.99999727
_cell_angle_gamma   90.00000000
_symmetry_Int_Tables_number   1
_chemical_formula_structural   NaSr11(PtO6)3
_chemical_formula_sum   'Na2 Sr22 Pt6 O36'
_cell_volume   998.97424573
_cell_formula_units_Z   2
loop_
 _symmetry_equiv_pos_site_id
 _symmetry_equiv_pos_as_xyz
  1  'x, y, z'
loop_
 _atom_site_type_symbol
 _atom_site_label
 _atom_site_symmetry_multiplicity
 _atom_site_fract_x
 _atom_site_fract_y
 _atom_site_fract_z
 _atom_site_occupancy
  Na  Na0  1  0.00000000  0.25028798  -0.00000000  1
  Na  Na1  1  0.66666700  0.58304502  0.66666700  1
  Sr  Sr2  1  0.33333300  0.91666700  0.96751146  1
  Sr  Sr3  1  0.66692962  0.58279958  0.30971072  1
  Sr  Sr4  1  0.99973738  0.25053342  0.64330634  1
  Sr  Sr5  1  0.69915454  0.91666700  0.33333300  1
  Sr  Sr6  1  0.02336066  0.58279958  0.66692962  1
  Sr  Sr7  1  0.35695628  0.25053342  0.99973738  1
  Sr  Sr8  1  0.96751146  0.91666700  0.69915454  1
  Sr  Sr9  1  0.30971072  0.58279958  0.02336066  1
  Sr  Sr10  1  0.64330634  0.25053342  0.35695628  1
  Sr  Sr11  1  0.63504707  0.74642850  0.99541190  1
  Sr  Sr12  1  0.96548231  0.41666700  0.33333300  1
  Sr  Sr13  1  0.29712596  0.08690450  0.67125510  1
  Sr  Sr14  1  0.36954104  0.74642850  0.63504707  1
  Sr  Sr15  1  0.70118369  0.41666700  0.96548231  1
  Sr  Sr16  1  0.03161993  0.08690450  0.29712596  1
  Sr  Sr17  1  0.99541190  0.74642850  0.36954104  1
  Sr  Sr18  1  0.33333300  0.41666700  0.70118369  1
  Sr  Sr19  1  0.67125510  0.08690450  0.03161993  1
  Sr  Sr20  1  0.33333300  0.91666700  0.33333300  1
  Sr  Sr21  1  0.00000000  0.74996636  -0.00000000  1
  Sr  Sr22  1  0.66666700  0.08336664  0.66666700  1
  Sr  Sr23  1  0.33333300  0.41666700  0.33333300  1
  Pt  Pt24  1  0.00000000  0.49746844  -0.00000000  1
  Pt  Pt25  1  0.66666700  0.83098207  0.66666700  1
  Pt  Pt26  1  0.33333300  0.16682179  0.33333300  1
  Pt  Pt27  1  0.00000000  0.00235093  -0.00000000  1
  Pt  Pt28  1  0.66666700  0.33586456  0.66666700  1
  Pt  Pt29  1  0.33333300  0.66651221  0.33333300  1
  O  O30  1  0.69216845  0.73195333  0.48408114  1
  O  O31  1  0.02539217  0.39928190  0.81760884  1
  O  O32  1  0.35919147  0.06681917  0.14799732  1
  O  O33  1  0.82375141  0.73195333  0.69216845  1
  O  O34  1  0.15699900  0.39928190  0.02539217  1
  O  O35  1  0.49281021  0.06681917  0.35919147  1
  O  O36  1  0.48408114  0.73195333  0.82375141  1
  O  O37  1  0.81760884  0.39928190  0.15699900  1
  O  O38  1  0.14799732  0.06681917  0.49281021  1
  O  O39  1  0.81504451  0.90043211  0.02609512  1
  O  O40  1  0.14886209  0.56641353  0.35901868  1
  O  O41  1  0.48252104  0.23392003  0.69264759  1
  O  O42  1  0.15886038  0.90043211  0.81504451  1
  O  O43  1  0.49211823  0.56641353  0.14886209  1
  O  O44  1  0.82483236  0.23392003  0.48252104  1
  O  O45  1  0.02609512  0.90043211  0.15886038  1
  O  O46  1  0.35901868  0.56641353  0.49211823  1
  O  O47  1  0.69264759  0.23392003  0.82483236  1
  O  O48  1  0.64057188  0.93290089  0.85162249  1
  O  O49  1  0.97401941  0.59941297  0.18414596  1
  O  O50  1  0.30764732  0.26692047  0.51780391  1
  O  O51  1  0.50780662  0.93290089  0.64057188  1
  O  O52  1  0.84183464  0.59941297  0.97401941  1
  O  O53  1  0.17454777  0.26692047  0.30764732  1
  O  O54  1  0.85162249  0.93290089  0.50780662  1
  O  O55  1  0.18414596  0.59941297  0.84183464  1
  O  O56  1  0.51780391  0.26692047  0.17454777  1
  O  O57  1  0.51866868  0.76651483  0.30747453  1
  O  O58  1  0.84905816  0.43405110  0.64127483  1
  O  O59  1  0.18258586  0.10137967  0.97449855  1
  O  O60  1  0.17385579  0.76651483  0.51866868  1
  O  O61  1  0.50966800  0.43405110  0.84905816  1
  O  O62  1  0.84291559  0.10137967  0.18258586  1
  O  O63  1  0.30747453  0.76651483  0.17385579  1
  O  O64  1  0.64127483  0.43405110  0.50966800  1
  O  O65  1  0.97449855  0.10137967  0.84291559  1
