# generated using pymatgen
data_Na7Cr4P9O32
_symmetry_space_group_name_H-M   'P 1'
_cell_length_a   6.41045610
_cell_length_b   14.29660717
_cell_length_c   14.29664268
_cell_angle_alpha   90.00011570
_cell_angle_beta   90.08163121
_cell_angle_gamma   90.00001441
_symmetry_Int_Tables_number   1
_chemical_formula_structural   Na7Cr4P9O32
_chemical_formula_sum   'Na14 Cr8 P18 O64'
_cell_volume   1310.25412805
_cell_formula_units_Z   2
loop_
 _symmetry_equiv_pos_site_id
 _symmetry_equiv_pos_as_xyz
  1  'x, y, z'
loop_
 _atom_site_type_symbol
 _atom_site_label
 _atom_site_symmetry_multiplicity
 _atom_site_fract_x
 _atom_site_fract_y
 _atom_site_fract_z
 _atom_site_occupancy
  Na  Na0  1  0.89569370  0.09268913  0.25688012  1
  Na  Na1  1  0.60430891  0.59268867  0.24312179  1
  Na  Na2  1  0.89613322  0.90729593  0.74316628  1
  Na  Na3  1  0.60386392  0.40729572  0.75683290  1
  Na  Na4  1  0.10386312  0.25677429  0.90721784  1
  Na  Na5  1  0.39569216  0.24305951  0.40739237  1
  Na  Na6  1  0.10431161  0.74305948  0.09260778  1
  Na  Na7  1  0.39613570  0.75677276  0.59278249  1
  Na  Na8  1  0.99999755  0.00004832  0.99996740  1
  Na  Na9  1  0.49999984  0.50004896  0.50003287  1
  Na  Na10  1  0.32464344  0.48587678  0.01388916  1
  Na  Na11  1  0.17535893  0.98587536  0.48611031  1
  Na  Na12  1  0.67537692  0.01388522  0.51413600  1
  Na  Na13  1  0.82462423  0.51388453  0.98586448  1
  Cr  Cr14  1  0.62634871  0.88027087  0.19012638  1
  Cr  Cr15  1  0.87368773  0.38027117  0.30987828  1
  Cr  Cr16  1  0.62621415  0.11967289  0.81000499  1
  Cr  Cr17  1  0.87373244  0.61966502  0.68999399  1
  Cr  Cr18  1  0.37379108  0.18999689  0.11962931  1
  Cr  Cr19  1  0.12636415  0.30987494  0.61978562  1
  Cr  Cr20  1  0.37364391  0.80987781  0.88020847  1
  Cr  Cr21  1  0.12620757  0.68999654  0.38037602  1
  P  P22  1  0.60146508  0.70038149  0.05417045  1
  P  P23  1  0.89853423  0.20038281  0.44582917  1
  P  P24  1  0.60323470  0.29970095  0.94597187  1
  P  P25  1  0.89676373  0.79970043  0.55402837  1
  P  P26  1  0.39863150  0.05419418  0.29962699  1
  P  P27  1  0.10333998  0.44599458  0.79968967  1
  P  P28  1  0.39666157  0.94599557  0.70030933  1
  P  P29  1  0.10136837  0.55419390  0.20037070  1
  P  P30  1  0.14159649  0.88488952  0.24846797  1
  P  P31  1  0.35840926  0.38489169  0.25153115  1
  P  P32  1  0.14152534  0.11510156  0.75131454  1
  P  P33  1  0.35846710  0.61510249  0.74868525  1
  P  P34  1  0.85848202  0.24868199  0.11512005  1
  P  P35  1  0.64160617  0.25152606  0.61509332  1
  P  P36  1  0.85839390  0.75152552  0.88490815  1
  P  P37  1  0.64152051  0.74868139  0.38488153  1
  P  P38  1  0.49999905  -0.00002430  0.99998993  1
  P  P39  1  0.00000294  0.49997722  0.50001172  1
  O  O40  1  0.61974066  0.83376604  0.32258560  1
  O  O41  1  0.88026971  0.33376512  0.17741528  1
  O  O42  1  0.62011114  0.16582837  0.67691433  1
  O  O43  1  0.87988704  0.66582789  0.82308819  1
  O  O44  1  0.37984155  0.32307011  0.16583656  1
  O  O45  1  0.11969235  0.17739465  0.66622902  1
  O  O46  1  0.38030575  0.67739705  0.83377326  1
  O  O47  1  0.12016151  0.82307272  0.33416302  1
  O  O48  1  0.64830920  0.93997853  0.06239357  1
  O  O49  1  0.85169788  0.43997750  0.43760616  1
  O  O50  1  0.64826152  0.05999437  0.93767243  1
  O  O51  1  0.85174025  0.55999485  0.56232636  1
  O  O52  1  0.35174236  0.06234762  0.05997986  1
  O  O53  1  0.14831318  0.43762602  0.56003684  1
  O  O54  1  0.35168422  0.93762646  0.93996314  1
  O  O55  1  0.14825185  0.56234855  0.44001797  1
  O  O56  1  0.31714398  0.85944588  0.18051443  1
  O  O57  1  0.18285956  0.35944941  0.31948532  1
  O  O58  1  0.31742328  0.14056059  0.81949704  1
  O  O59  1  0.18257294  0.64056246  0.68050483  1
  O  O60  1  0.68271222  0.18054001  0.14055520  1
  O  O61  1  0.81729235  0.31951879  0.64055839  1
  O  O62  1  0.68270988  0.81952109  0.85944634  1
  O  O63  1  0.81728304  0.68054040  0.35944155  1
  O  O64  1  0.58028915  0.00680082  0.24939973  1
  O  O65  1  0.91971027  0.50680259  0.25060018  1
  O  O66  1  0.58029511  0.99320459  0.75005308  1
  O  O67  1  0.91970376  0.49320344  0.74994958  1
  O  O68  1  0.41980719  0.24999333  0.99318776  1
  O  O69  1  0.08039891  0.25064468  0.49321320  1
  O  O70  1  0.41959744  0.75064178  0.00678317  1
  O  O71  1  0.08019667  0.74999443  0.50681108  1
  O  O72  1  0.67183669  0.74777043  0.14581126  1
  O  O73  1  0.82816403  0.24777142  0.35418883  1
  O  O74  1  0.67182238  0.25222921  0.85414682  1
  O  O75  1  0.82817406  0.75222948  0.64585174  1
  O  O76  1  0.32827634  0.14584135  0.25221184  1
  O  O77  1  0.17194267  0.35417766  0.75224625  1
  O  O78  1  0.32805717  0.85417835  0.74775344  1
  O  O79  1  0.17172525  0.64584004  0.24778774  1
  O  O80  1  0.94178149  0.89865679  0.19113767  1
  O  O81  1  0.55822184  0.39865563  0.30886091  1
  O  O82  1  0.94180663  0.10129009  0.80876709  1
  O  O83  1  0.55818971  0.60129096  0.69123460  1
  O  O84  1  0.05825533  0.19119589  0.10132616  1
  O  O85  1  0.44185391  0.30882244  0.60131042  1
  O  O86  1  0.05814732  0.80882590  0.89868859  1
  O  O87  1  0.44174289  0.69119772  0.39867454  1
  O  O88  1  0.18962739  0.98809617  0.29098337  1
  O  O89  1  0.31036984  0.48809437  0.20901450  1
  O  O90  1  0.18918519  0.01183493  0.70963908  1
  O  O91  1  0.31082199  0.51183233  0.79036009  1
  O  O92  1  0.81081473  0.29035028  0.01183935  1
  O  O93  1  0.68962589  0.20900150  0.51189940  1
  O  O94  1  0.81037494  0.70900012  0.98810026  1
  O  O95  1  0.68918002  0.79034753  0.48816250  1
  O  O96  1  0.56939894  0.59646690  0.06930718  1
  O  O97  1  0.93060161  0.09646506  0.43069362  1
  O  O98  1  0.57062943  0.40356880  0.93055536  1
  O  O99  1  0.92937215  0.90357217  0.56944347  1
  O  O100  1  0.43066916  0.06932204  0.40353945  1
  O  O101  1  0.07070047  0.43056817  0.90355711  1
  O  O102  1  0.42929938  0.93056921  0.59644233  1
  O  O103  1  0.06933029  0.56931907  0.09645756  1
