# generated using pymatgen
data_NaHfScO4
_symmetry_space_group_name_H-M   'P 1'
_cell_length_a   3.18673845
_cell_length_b   9.59571408
_cell_length_c   11.30929486
_cell_angle_alpha   90.00000000
_cell_angle_beta   90.00000000
_cell_angle_gamma   90.00000000
_symmetry_Int_Tables_number   1
_chemical_formula_structural   NaHfScO4
_chemical_formula_sum   'Na4 Hf4 Sc4 O16'
_cell_volume   345.82727827
_cell_formula_units_Z   4
loop_
 _symmetry_equiv_pos_site_id
 _symmetry_equiv_pos_as_xyz
  1  'x, y, z'
loop_
 _atom_site_type_symbol
 _atom_site_label
 _atom_site_symmetry_multiplicity
 _atom_site_fract_x
 _atom_site_fract_y
 _atom_site_fract_z
 _atom_site_occupancy
  Na  Na0  1  0.75000000  0.25560770  0.84994341  1
  Na  Na1  1  0.75000000  0.75560770  0.65005659  1
  Na  Na2  1  0.25000000  0.74339546  0.15075195  1
  Na  Na3  1  0.25000000  0.24339546  0.34924805  1
  Hf  Hf4  1  0.25000000  0.56671888  0.38862865  1
  Hf  Hf5  1  0.25000000  0.06671888  0.11137135  1
  Hf  Hf6  1  0.25000000  0.57982833  0.89465117  1
  Hf  Hf7  1  0.25000000  0.07982833  0.60534883  1
  Sc  Sc8  1  0.75000000  0.43149613  0.61224186  1
  Sc  Sc9  1  0.75000000  0.93149613  0.88775814  1
  Sc  Sc10  1  0.75000000  0.42078136  0.10686470  1
  Sc  Sc11  1  0.75000000  0.92078136  0.39313530  1
  O  O12  1  0.75000000  0.20344001  0.15271894  1
  O  O13  1  0.75000000  0.70344001  0.34728106  1
  O  O14  1  0.25000000  0.79016501  0.84715827  1
  O  O15  1  0.25000000  0.29016501  0.65284173  1
  O  O16  1  0.75000000  0.11772362  0.48518216  1
  O  O17  1  0.75000000  0.61772362  0.01481784  1
  O  O18  1  0.25000000  0.88745735  0.51754083  1
  O  O19  1  0.25000000  0.38745735  0.98245917  1
  O  O20  1  0.75000000  0.42728538  0.42378708  1
  O  O21  1  0.75000000  0.92728538  0.07621292  1
  O  O22  1  0.25000000  0.57362334  0.57144578  1
  O  O23  1  0.25000000  0.07362334  0.92855422  1
  O  O24  1  0.75000000  0.02160594  0.71443951  1
  O  O25  1  0.75000000  0.52160594  0.78556049  1
  O  O26  1  0.25000000  0.98087148  0.28114034  1
  O  O27  1  0.25000000  0.48087148  0.21885966  1
