# generated using pymatgen
data_Na4Sr2SiAs4
_symmetry_space_group_name_H-M   'P 1'
_cell_length_a   7.49374185
_cell_length_b   9.60766199
_cell_length_c   9.63684305
_cell_angle_alpha   59.89916096
_cell_angle_beta   90.80864261
_cell_angle_gamma   90.40532551
_symmetry_Int_Tables_number   1
_chemical_formula_structural   Na4Sr2SiAs4
_chemical_formula_sum   'Na8 Sr4 Si2 As8'
_cell_volume   600.20058365
_cell_formula_units_Z   2
loop_
 _symmetry_equiv_pos_site_id
 _symmetry_equiv_pos_as_xyz
  1  'x, y, z'
loop_
 _atom_site_type_symbol
 _atom_site_label
 _atom_site_symmetry_multiplicity
 _atom_site_fract_x
 _atom_site_fract_y
 _atom_site_fract_z
 _atom_site_occupancy
  Na  Na0  1  0.38275691  0.52636605  0.52540804  1
  Na  Na1  1  0.88274382  0.47365909  0.05177558  1
  Na  Na2  1  0.18678289  0.14495458  0.13845708  1
  Na  Na3  1  0.21271138  0.15507454  0.70884832  1
  Na  Na4  1  0.20336450  0.70620877  0.15305266  1
  Na  Na5  1  0.71268663  0.84492109  0.86393644  1
  Na  Na6  1  0.68677535  0.85502598  0.28340394  1
  Na  Na7  1  0.70336170  0.29376984  0.85928129  1
  Sr  Sr8  1  0.37966048  0.52095917  0.95121456  1
  Sr  Sr9  1  0.37949010  0.94876586  0.52033709  1
  Sr  Sr10  1  0.87965960  0.47905119  0.47218714  1
  Sr  Sr11  1  0.87948086  0.05122743  0.46910740  1
  Si  Si12  1  0.49689724  0.33493329  0.33758020  1
  Si  Si13  1  0.99689593  0.66507003  0.67251633  1
  As  As14  1  0.17199558  0.32669515  0.33500615  1
  As  As15  1  0.67199942  0.67330446  0.66171383  1
  As  As16  1  0.10229703  0.80915302  0.80480395  1
  As  As17  1  0.08876594  0.80408973  0.38963899  1
  As  As18  1  0.09428843  0.38978376  0.80213682  1
  As  As19  1  0.58880585  0.19592683  0.19371843  1
  As  As20  1  0.60229890  0.19084621  0.61395935  1
  As  As21  1  0.59428149  0.61021394  0.19191640  1
