# generated using pymatgen
data_NaEr(MoO4)2
_symmetry_space_group_name_H-M   'P 1'
_cell_length_a   5.22796868
_cell_length_b   5.22796868
_cell_length_c   6.77338697
_cell_angle_alpha   67.29914834
_cell_angle_beta   67.29914834
_cell_angle_gamma   90.00000000
_symmetry_Int_Tables_number   1
_chemical_formula_structural   NaEr(MoO4)2
_chemical_formula_sum   'Na1 Er1 Mo2 O8'
_cell_volume   155.12478404
_cell_formula_units_Z   1
loop_
 _symmetry_equiv_pos_site_id
 _symmetry_equiv_pos_as_xyz
  1  'x, y, z'
loop_
 _atom_site_type_symbol
 _atom_site_label
 _atom_site_symmetry_multiplicity
 _atom_site_fract_x
 _atom_site_fract_y
 _atom_site_fract_z
 _atom_site_occupancy
  Na  Na0  1  0.87500000  0.12500000  0.25000000  1
  Er  Er1  1  0.12500000  0.87500000  0.75000000  1
  Mo  Mo2  1  0.37500000  0.62500000  0.25000000  1
  Mo  Mo3  1  0.62500000  0.37500000  0.75000000  1
  O  O4  1  0.43101691  0.28944513  0.42999907  1
  O  O5  1  0.13898401  0.78055580  0.42999907  1
  O  O6  1  0.29612154  0.12954043  0.91328675  1
  O  O7  1  0.79059171  0.45717282  0.91328675  1
  O  O8  1  0.54282718  0.70387846  0.58671325  1
  O  O9  1  0.87045957  0.20940829  0.58671325  1
  O  O10  1  0.71055487  0.86101599  0.07000093  1
  O  O11  1  0.21944420  0.56898309  0.07000093  1
