# generated using pymatgen
data_NaGdF4
_symmetry_space_group_name_H-M   'P 1'
_cell_length_a   6.11586043
_cell_length_b   7.08945508
_cell_length_c   7.09087041
_cell_angle_alpha   62.02064178
_cell_angle_beta   115.81150101
_cell_angle_gamma   115.71554451
_symmetry_Int_Tables_number   1
_chemical_formula_structural   NaGdF4
_chemical_formula_sum   'Na3 Gd3 F12'
_cell_volume   234.00530196
_cell_formula_units_Z   3
loop_
 _symmetry_equiv_pos_site_id
 _symmetry_equiv_pos_as_xyz
  1  'x, y, z'
loop_
 _atom_site_type_symbol
 _atom_site_label
 _atom_site_symmetry_multiplicity
 _atom_site_fract_x
 _atom_site_fract_y
 _atom_site_fract_z
 _atom_site_occupancy
  Na  Na0  1  0.69011589  0.86207399  0.48804340  1
  Na  Na1  1  0.64796760  0.34446181  0.96974596  1
  Na  Na2  1  0.33534453  0.08743954  0.57780839  1
  Gd  Gd3  1  -0.00042071  0.00176214  -0.00017218  1
  Gd  Gd4  1  -0.00004056  0.49832099  0.49986511  1
  Gd  Gd5  1  0.33340415  0.59041919  0.07981990  1
  F  F6  1  0.59664098  0.50670706  0.45359025  1
  F  F7  1  0.59729762  0.96441837  0.99929489  1
  F  F8  1  0.03835973  0.34705712  0.28761048  1
  F  F9  1  0.03842429  0.79812869  0.83843284  1
  F  F10  1  0.36155217  0.23358387  0.17147369  1
  F  F11  1  0.36269158  0.67800461  0.72541656  1
  F  F12  1  0.99859013  0.87368793  0.37270093  1
  F  F13  1  0.97141777  0.37472040  0.86898897  1
  F  F14  1  0.75373194  0.12139335  0.61984031  1
  F  F15  1  0.75248308  0.62039664  0.11479901  1
  F  F16  1  0.27572673  0.76761977  0.26264590  1
  F  F17  1  0.24671307  0.25080451  0.74909557  1
