# generated using pymatgen
data_MgMnGeO4
_symmetry_space_group_name_H-M   'P 1'
_cell_length_a   5.01230064
_cell_length_b   6.23672246
_cell_length_c   10.83272390
_cell_angle_alpha   90.00000000
_cell_angle_beta   90.00000000
_cell_angle_gamma   90.00000000
_symmetry_Int_Tables_number   1
_chemical_formula_structural   MgMnGeO4
_chemical_formula_sum   'Mg4 Mn4 Ge4 O16'
_cell_volume   338.63450201
_cell_formula_units_Z   4
loop_
 _symmetry_equiv_pos_site_id
 _symmetry_equiv_pos_as_xyz
  1  'x, y, z'
loop_
 _atom_site_type_symbol
 _atom_site_label
 _atom_site_symmetry_multiplicity
 _atom_site_fract_x
 _atom_site_fract_y
 _atom_site_fract_z
 _atom_site_occupancy
  Mg  Mg0  1  0.50000000  -0.00000000  0.50000000  1
  Mg  Mg1  1  -0.00000000  0.50000000  0.00000000  1
  Mg  Mg2  1  0.50000000  0.50000000  0.50000000  1
  Mg  Mg3  1  -0.00000000  0.00000000  0.00000000  1
  Mn  Mn4  1  0.49964775  0.75000000  0.22216679  1
  Mn  Mn5  1  0.00035225  0.75000000  0.72216679  1
  Mn  Mn6  1  0.50035225  0.25000000  0.77783321  1
  Mn  Mn7  1  -0.00035225  0.25000000  0.27783321  1
  Ge  Ge8  1  0.93365002  0.75000000  0.40938279  1
  Ge  Ge9  1  0.56634998  0.75000000  0.90938279  1
  Ge  Ge10  1  0.06634998  0.25000000  0.59061721  1
  Ge  Ge11  1  0.43365002  0.25000000  0.09061721  1
  O  O12  1  0.74137216  0.75000000  0.05603184  1
  O  O13  1  0.75862784  0.75000000  0.55603184  1
  O  O14  1  0.25862784  0.25000000  0.94396816  1
  O  O15  1  0.24137216  0.25000000  0.44396816  1
  O  O16  1  0.28377496  0.75000000  0.41398658  1
  O  O17  1  0.21622504  0.75000000  0.91398658  1
  O  O18  1  0.71622504  0.25000000  0.58601342  1
  O  O19  1  0.78377496  0.25000000  0.08601342  1
  O  O20  1  0.77032426  0.97544396  0.34116062  1
  O  O21  1  0.72967574  0.52455604  0.84116062  1
  O  O22  1  0.22967574  0.47544396  0.65883938  1
  O  O23  1  0.27032426  0.02455604  0.15883938  1
  O  O24  1  0.22967574  0.02455604  0.65883938  1
  O  O25  1  0.27032426  0.47544396  0.15883938  1
  O  O26  1  0.77032426  0.52455604  0.34116062  1
  O  O27  1  0.72967574  0.97544396  0.84116062  1
