# generated using pymatgen
data_Na10Sn4Au13
_symmetry_space_group_name_H-M   'P 1'
_cell_length_a   13.26811340
_cell_length_b   13.26811340
_cell_length_c   13.26811340
_cell_angle_alpha   70.58739792
_cell_angle_beta   71.51969432
_cell_angle_gamma   110.52724520
_symmetry_Int_Tables_number   1
_chemical_formula_structural   Na10Sn4Au13
_chemical_formula_sum   'Na30 Sn12 Au39'
_cell_volume   1797.49024358
_cell_formula_units_Z   3
loop_
 _symmetry_equiv_pos_site_id
 _symmetry_equiv_pos_as_xyz
  1  'x, y, z'
loop_
 _atom_site_type_symbol
 _atom_site_label
 _atom_site_symmetry_multiplicity
 _atom_site_fract_x
 _atom_site_fract_y
 _atom_site_fract_z
 _atom_site_occupancy
  Na  Na0  1  0.99947956  0.62178542  0.00021640  1
  Na  Na1  1  0.37799818  0.37821458  0.62230586  1
  Na  Na2  1  0.62200182  0.99969596  0.99978360  1
  Na  Na3  1  0.00052044  0.00030404  0.37769414  1
  Na  Na4  1  0.00052044  0.37821458  0.99978360  1
  Na  Na5  1  0.62200182  0.62178542  0.37769414  1
  Na  Na6  1  0.37799818  0.00030404  0.00021640  1
  Na  Na7  1  0.99947956  0.99969596  0.62230586  1
  Na  Na8  1  0.69452380  0.57488708  0.11963672  1
  Na  Na9  1  0.30547620  0.42511292  0.88036328  1
  Na  Na10  1  0.69452380  0.81416053  0.88036328  1
  Na  Na11  1  0.30547620  0.18583947  0.11963672  1
  Na  Na12  1  0.87510162  0.29840538  0.82649300  1
  Na  Na13  1  0.12489838  0.70159462  0.17350700  1
  Na  Na14  1  0.12489838  0.29840538  0.57669624  1
  Na  Na15  1  0.87510162  0.70159462  0.42330376  1
  Na  Na16  1  0.42373300  0.12495350  0.70122050  1
  Na  Na17  1  0.57626700  0.87504650  0.29877950  1
  Na  Na18  1  0.17382600  0.87504650  0.70122050  1
  Na  Na19  1  0.82617400  0.12495350  0.29877950  1
  Na  Na20  1  0.20652416  0.50000000  0.29347584  1
  Na  Na21  1  0.79347584  0.50000000  0.70652416  1
  Na  Na22  1  0.30067094  0.80067094  0.50000000  1
  Na  Na23  1  0.69932906  0.19932906  0.50000000  1
  Na  Na24  1  0.50000000  0.68623240  0.81376760  1
  Na  Na25  1  0.50000000  0.31376760  0.18623240  1
  Na  Na26  1  0.10314191  0.60314191  0.50000000  1
  Na  Na27  1  0.89685809  0.39685809  0.50000000  1
  Na  Na28  1  0.50000000  0.89511849  0.60488151  1
  Na  Na29  1  0.50000000  0.10488151  0.39511849  1
  Sn  Sn30  1  0.80922220  0.50044883  0.30877337  1
  Sn  Sn31  1  0.19077780  0.49955117  0.69122663  1
  Sn  Sn32  1  0.80922220  0.11799558  0.69122663  1
  Sn  Sn33  1  0.19077780  0.88200442  0.30877337  1
  Sn  Sn34  1  0.69037163  0.18394416  0.12568422  1
  Sn  Sn35  1  0.30962837  0.81605584  0.87431578  1
  Sn  Sn36  1  0.30962837  0.18394416  0.50642747  1
  Sn  Sn37  1  0.69037163  0.81605584  0.49357253  1
  Sn  Sn38  1  0.50235400  0.31975216  0.81739816  1
  Sn  Sn39  1  0.49764600  0.68024784  0.18260184  1
  Sn  Sn40  1  0.86284969  0.68024784  0.81739816  1
  Sn  Sn41  1  0.13715031  0.31975216  0.18260184  1
  Au  Au42  1  0.97306591  0.41541358  0.24720905  1
  Au  Au43  1  0.33737737  0.58458642  0.44234767  1
  Au  Au44  1  0.66262263  0.22027496  0.75279095  1
  Au  Au45  1  0.02693409  0.77972504  0.55765233  1
  Au  Au46  1  0.44465042  0.02962247  0.21753351  1
  Au  Au47  1  0.24715597  0.66218393  0.78246649  1
  Au  Au48  1  0.55534958  0.33781607  0.41502796  1
  Au  Au49  1  0.75284403  0.97037753  0.58497204  1
  Au  Au50  1  0.59478374  0.56138576  0.65112344  1
  Au  Au51  1  0.40521626  0.75409281  0.03339798  1
  Au  Au52  1  0.78749079  0.43861424  0.96660202  1
  Au  Au53  1  0.21250921  0.24590719  0.34887656  1
  Au  Au54  1  0.02693409  0.58458642  0.75279095  1
  Au  Au55  1  0.66262263  0.41541358  0.55765233  1
  Au  Au56  1  0.33737737  0.77972504  0.24720905  1
  Au  Au57  1  0.97306591  0.22027496  0.44234767  1
  Au  Au58  1  0.55534958  0.97037753  0.78246649  1
  Au  Au59  1  0.75284403  0.33781607  0.21753351  1
  Au  Au60  1  0.44465042  0.66218393  0.58497204  1
  Au  Au61  1  0.24715597  0.02962247  0.41502796  1
  Au  Au62  1  0.40521626  0.43861424  0.34887656  1
  Au  Au63  1  0.59478374  0.24590719  0.96660202  1
  Au  Au64  1  0.21250921  0.56138576  0.03339798  1
  Au  Au65  1  0.78749079  0.75409281  0.65112344  1
  Au  Au66  1  -0.00000000  0.00000000  0.00000000  1
  Au  Au67  1  0.90286730  0.74376214  0.15910516  1
  Au  Au68  1  0.09713270  0.25623786  0.84089484  1
  Au  Au69  1  0.90286730  0.06197246  0.84089484  1
  Au  Au70  1  0.09713270  0.93802754  0.15910516  1
  Au  Au71  1  0.84088131  0.09614590  0.06297278  1
  Au  Au72  1  0.15911869  0.90385410  0.93702722  1
  Au  Au73  1  0.15911869  0.09614590  0.74473541  1
  Au  Au74  1  0.84088131  0.90385410  0.25526459  1
  Au  Au75  1  0.25954814  0.16218839  0.90264025  1
  Au  Au76  1  0.74045186  0.83781161  0.09735975  1
  Au  Au77  1  0.93517136  0.83781161  0.90264025  1
  Au  Au78  1  0.06482864  0.16218839  0.09735975  1
  Au  Au79  1  0.41084302  0.50000000  0.08915698  1
  Au  Au80  1  0.58915698  0.50000000  0.91084302  1
