# generated using pymatgen
data_MnH6(NCl)2
_symmetry_space_group_name_H-M   'P 1'
_cell_length_a   3.87284133
_cell_length_b   6.10423495
_cell_length_c   6.10423495
_cell_angle_alpha   88.39992611
_cell_angle_beta   87.65202872
_cell_angle_gamma   92.34797128
_symmetry_Int_Tables_number   1
_chemical_formula_structural   MnH6(NCl)2
_chemical_formula_sum   'Mn1 H6 N2 Cl2'
_cell_volume   144.00303791
_cell_formula_units_Z   1
loop_
 _symmetry_equiv_pos_site_id
 _symmetry_equiv_pos_as_xyz
  1  'x, y, z'
loop_
 _atom_site_type_symbol
 _atom_site_label
 _atom_site_symmetry_multiplicity
 _atom_site_fract_x
 _atom_site_fract_y
 _atom_site_fract_z
 _atom_site_occupancy
  Mn  Mn0  1  0.00000000  0.00051836  0.00051836  1
  H  H1  1  0.80337827  0.79714893  0.39456382  1
  H  H2  1  0.19662173  0.39456382  0.79714893  1
  H  H3  1  0.19472827  0.72262899  0.33590004  1
  H  H4  1  0.13280862  0.22053733  0.59901954  1
  H  H5  1  0.80527173  0.33590004  0.72262899  1
  H  H6  1  0.86719138  0.59901954  0.22053733  1
  N  N7  1  0.03698953  0.26814596  0.74887192  1
  N  N8  1  0.96301047  0.74887192  0.26814596  1
  Cl  Cl9  1  0.50000000  0.80092974  0.80092974  1
  Cl  Cl10  1  0.50000000  0.20173534  0.20173534  1
