# generated using pymatgen
data_Na2As4H36N13
_symmetry_space_group_name_H-M   'P 1'
_cell_length_a   11.74258500
_cell_length_b   11.74258500
_cell_length_c   13.05018926
_cell_angle_alpha   64.75221381
_cell_angle_beta   64.75221381
_cell_angle_gamma   67.83780494
_symmetry_Int_Tables_number   1
_chemical_formula_structural   Na2As4H36N13
_chemical_formula_sum   'Na4 As8 H72 N26'
_cell_volume   1429.52470212
_cell_formula_units_Z   2
loop_
 _symmetry_equiv_pos_site_id
 _symmetry_equiv_pos_as_xyz
  1  'x, y, z'
loop_
 _atom_site_type_symbol
 _atom_site_label
 _atom_site_symmetry_multiplicity
 _atom_site_fract_x
 _atom_site_fract_y
 _atom_site_fract_z
 _atom_site_occupancy
  Na  Na0  1  0.18183789  0.26137774  0.24280586  1
  Na  Na1  1  0.73601765  0.82001677  0.25806623  1
  Na  Na2  1  0.82001677  0.73601765  0.75806623  1
  Na  Na3  1  0.26137774  0.18183789  0.74280586  1
  As  As4  1  0.80573308  0.30847514  0.59794239  1
  As  As5  1  0.68748179  0.19791066  0.90183597  1
  As  As6  1  0.19791066  0.68748179  0.40183597  1
  As  As7  1  0.30847514  0.80573308  0.09794239  1
  As  As8  1  0.61530784  0.38306001  0.75230090  1
  As  As9  1  0.38306001  0.61530784  0.25230090  1
  As  As10  1  0.87779966  0.12365782  0.74748242  1
  As  As11  1  0.12365782  0.87779966  0.24748242  1
  H  H12  1  0.40454435  0.36406407  0.22034453  1
  H  H13  1  0.63542837  0.59667979  0.28020644  1
  H  H14  1  0.59667979  0.63542837  0.78020644  1
  H  H15  1  0.36406407  0.40454435  0.72034453  1
  H  H16  1  0.23183828  0.25505624  0.99442768  1
  H  H17  1  0.74626590  0.76646855  0.50720251  1
  H  H18  1  0.76646855  0.74626590  0.00720251  1
  H  H19  1  0.25505624  0.23183828  0.49442768  1
  H  H20  1  0.49033593  0.64601147  0.58518030  1
  H  H21  1  0.35581506  0.51064113  0.91414529  1
  H  H22  1  0.51064113  0.35581506  0.41414529  1
  H  H23  1  0.64601147  0.49033593  0.08518030  1
  H  H24  1  0.01907532  0.47605712  0.35643166  1
  H  H25  1  0.52226167  0.98214241  0.14385270  1
  H  H26  1  0.98214241  0.52226167  0.64385270  1
  H  H27  1  0.47605712  0.01907532  0.85643166  1
  H  H28  1  0.43634622  0.80498226  0.54027488  1
  H  H29  1  0.19728859  0.56006873  0.95824205  1
  H  H30  1  0.56006873  0.19728859  0.45824205  1
  H  H31  1  0.80498226  0.43634622  0.04027488  1
  H  H32  1  0.37887136  0.21966931  0.99843404  1
  H  H33  1  0.78058970  0.62093474  0.50100164  1
  H  H34  1  0.62093474  0.78058970  0.00100164  1
  H  H35  1  0.21966931  0.37887136  0.49843404  1
  H  H36  1  0.47673349  0.26235357  0.14416604  1
  H  H37  1  0.73717926  0.52385697  0.35629666  1
  H  H38  1  0.52385697  0.73717926  0.85629666  1
  H  H39  1  0.26235357  0.47673349  0.64416604  1
  H  H40  1  0.09605409  0.08123069  0.50288165  1
  H  H41  1  0.91814486  0.90472488  0.99776525  1
  H  H42  1  0.90472488  0.91814486  0.49776525  1
  H  H43  1  0.08123069  0.09605409  0.00288165  1
  H  H44  1  0.14287101  0.53471307  0.25534427  1
  H  H45  1  0.46463949  0.85757630  0.24489739  1
  H  H46  1  0.85757630  0.46463949  0.74489739  1
  H  H47  1  0.53471307  0.14287101  0.75534427  1
  H  H48  1  0.25427808  0.02622196  0.46433321  1
  H  H49  1  0.97634995  0.74807976  0.03321364  1
  H  H50  1  0.74807976  0.97634995  0.53321364  1
  H  H51  1  0.02622196  0.25427808  0.96433321  1
  H  H52  1  0.29533160  0.10842253  0.06842952  1
  H  H53  1  0.89176298  0.70433247  0.43107256  1
  H  H54  1  0.70433247  0.89176298  0.93107256  1
  H  H55  1  0.10842253  0.29533160  0.56842952  1
  H  H56  1  0.92666305  0.30652419  0.19560479  1
  H  H57  1  0.69194606  0.07407906  0.30310151  1
  H  H58  1  0.07407906  0.69194606  0.80310151  1
  H  H59  1  0.30652419  0.92666305  0.69560479  1
  H  H60  1  0.97189827  0.15367501  0.26747044  1
  H  H61  1  0.84599792  0.02973394  0.23296889  1
  H  H62  1  0.02973394  0.84599792  0.73296889  1
  H  H63  1  0.15367501  0.97189827  0.76747044  1
  H  H64  1  0.44368080  0.20870400  0.28883732  1
  H  H65  1  0.78978446  0.55293667  0.21267069  1
  H  H66  1  0.55293667  0.78978446  0.71267069  1
  H  H67  1  0.20870400  0.44368080  0.78883732  1
  H  H68  1  0.41187648  0.71524634  0.48679763  1
  H  H69  1  0.28314385  0.58776546  0.01356707  1
  H  H70  1  0.58776546  0.28314385  0.51356707  1
  H  H71  1  0.71524634  0.41187648  0.98679763  1
  H  H72  1  0.02282735  0.54315874  0.21738445  1
  H  H73  1  0.45981366  0.97527230  0.28416893  1
  H  H74  1  0.97527230  0.45981366  0.78416893  1
  H  H75  1  0.54315874  0.02282735  0.71738445  1
  H  H76  1  0.16858398  0.99199704  0.41385806  1
  H  H77  1  0.00710513  0.83210498  0.08702145  1
  H  H78  1  0.83210498  0.00710513  0.58702145  1
  H  H79  1  0.99199704  0.16858398  0.91385806  1
  H  H80  1  0.88688292  0.25790291  0.34069575  1
  H  H81  1  0.74286354  0.11218951  0.15846395  1
  H  H82  1  0.11218951  0.74286354  0.65846395  1
  H  H83  1  0.25790291  0.88688292  0.84069575  1
  N  N84  1  0.07948339  0.48393898  0.27071811  1
  N  N85  1  0.51653533  0.92029485  0.22875270  1
  N  N86  1  0.92029485  0.51653533  0.72875270  1
  N  N87  1  0.48393898  0.07948339  0.77071811  1
  N  N88  1  0.17676795  0.06448093  0.43270005  1
  N  N89  1  0.93535458  0.82341410  0.06737639  1
  N  N90  1  0.82341410  0.93535458  0.56737639  1
  N  N91  1  0.06448093  0.17676795  0.93270005  1
  N  N92  1  0.28786029  0.20475276  0.04949263  1
  N  N93  1  0.79521096  0.71217175  0.45062861  1
  N  N94  1  0.71217175  0.79521096  0.95062861  1
  N  N95  1  0.20475276  0.28786029  0.54949263  1
  N  N96  1  0.96161192  0.24532935  0.26525075  1
  N  N97  1  0.75519317  0.03823186  0.23443615  1
  N  N98  1  0.03823186  0.75519317  0.73443615  1
  N  N99  1  0.24532935  0.96161192  0.76525075  1
  N  N100  1  0.40670795  0.27500761  0.22183591  1
  N  N101  1  0.72535321  0.59305502  0.27801626  1
  N  N102  1  0.59305502  0.72535321  0.77801626  1
  N  N103  1  0.27500761  0.40670795  0.72183591  1
  N  N104  1  0.41441111  0.71903870  0.56273454  1
  N  N105  1  0.28102757  0.58543041  0.93695637  1
  N  N106  1  0.58543041  0.28102757  0.43695637  1
  N  N107  1  0.71903870  0.41441111  0.06273454  1
  N  N108  1  0.46902372  0.00978529  0.48231291  1
  N  N109  1  0.00978529  0.46902372  0.98231291  1
