# generated using pymatgen
data_Na4Eu2SiP4
_symmetry_space_group_name_H-M   'P 1'
_cell_length_a   7.11688254
_cell_length_b   9.27350225
_cell_length_c   9.35398973
_cell_angle_alpha   120.25368587
_cell_angle_beta   91.25656816
_cell_angle_gamma   89.35872337
_symmetry_Int_Tables_number   1
_chemical_formula_structural   Na4Eu2SiP4
_chemical_formula_sum   'Na8 Eu4 Si2 P8'
_cell_volume   533.13938505
_cell_formula_units_Z   2
loop_
 _symmetry_equiv_pos_site_id
 _symmetry_equiv_pos_as_xyz
  1  'x, y, z'
loop_
 _atom_site_type_symbol
 _atom_site_label
 _atom_site_symmetry_multiplicity
 _atom_site_fract_x
 _atom_site_fract_y
 _atom_site_fract_z
 _atom_site_occupancy
  Na  Na0  1  0.38722433  0.52846959  0.05509820  1
  Na  Na1  1  0.88720961  0.47155853  0.52668391  1
  Na  Na2  1  0.19333835  0.14065405  0.27529541  1
  Na  Na3  1  0.21447881  0.15027524  0.86858572  1
  Na  Na4  1  0.20731490  0.71593398  0.86473380  1
  Na  Na5  1  0.71453473  0.84977146  0.71831815  1
  Na  Na6  1  0.69340129  0.85932830  0.13461939  1
  Na  Na7  1  0.70731900  0.28409675  0.14876999  1
  Eu  Eu8  1  0.38424818  0.52142295  0.47030917  1
  Eu  Eu9  1  0.38459602  0.94723164  0.46721313  1
  Eu  Eu10  1  0.88428545  0.47854235  0.94888182  1
  Eu  Eu11  1  0.88458394  0.05270525  0.51998330  1
  Si  Si12  1  0.50157361  0.33490045  0.67158683  1
  Si  Si13  1  0.00155215  0.66512011  0.33678195  1
  P  P14  1  0.11217158  0.80823084  0.60672787  1
  P  P15  1  0.09212887  0.80351871  0.19817095  1
  P  P16  1  0.10056934  0.39382630  0.19302474  1
  P  P17  1  0.59214986  0.19642074  0.39456739  1
  P  P18  1  0.61209522  0.19179294  0.79845438  1
  P  P19  1  0.60061589  0.60619565  0.79920536  1
  P  P20  1  0.17531919  0.32271973  0.66283867  1
  P  P21  1  0.67528969  0.67728445  0.34014986  1
