# generated using pymatgen
data_MnAl24Cr
_symmetry_space_group_name_H-M   'P 1'
_cell_length_a   6.47872176
_cell_length_b   6.47872176
_cell_length_c   10.60906014
_cell_angle_alpha   90.12439035
_cell_angle_beta   89.87560965
_cell_angle_gamma   109.18772703
_symmetry_Int_Tables_number   1
_chemical_formula_structural   MnAl24Cr
_chemical_formula_sum   'Mn1 Al24 Cr1'
_cell_volume   420.56344848
_cell_formula_units_Z   1
loop_
 _symmetry_equiv_pos_site_id
 _symmetry_equiv_pos_as_xyz
  1  'x, y, z'
loop_
 _atom_site_type_symbol
 _atom_site_label
 _atom_site_symmetry_multiplicity
 _atom_site_fract_x
 _atom_site_fract_y
 _atom_site_fract_z
 _atom_site_occupancy
  Mn  Mn0  1  0.50000000  0.50000000  0.50000000  1
  Al  Al1  1  0.89723205  0.71208675  0.40763985  1
  Al  Al2  1  0.39783537  0.21198959  0.90735086  1
  Al  Al3  1  0.60216463  0.78801041  0.09264914  1
  Al  Al4  1  0.10276795  0.28791325  0.59236015  1
  Al  Al5  1  0.28791325  0.10276795  0.40763985  1
  Al  Al6  1  0.78801041  0.60216463  0.90735086  1
  Al  Al7  1  0.21198959  0.39783537  0.09264914  1
  Al  Al8  1  0.71208675  0.89723205  0.59236015  1
  Al  Al9  1  0.96674603  0.66212609  0.15227067  1
  Al  Al10  1  0.46696830  0.16215297  0.65181836  1
  Al  Al11  1  0.53303170  0.83784703  0.34818164  1
  Al  Al12  1  0.03325397  0.33787391  0.84772933  1
  Al  Al13  1  0.16215297  0.46696830  0.34818164  1
  Al  Al14  1  0.66212609  0.96674603  0.84772933  1
  Al  Al15  1  0.33787391  0.03325397  0.15227067  1
  Al  Al16  1  0.83784703  0.53303170  0.65181836  1
  Al  Al17  1  0.75484872  0.24515128  0.06001480  1
  Al  Al18  1  0.25455423  0.74544577  0.55986604  1
  Al  Al19  1  0.74544577  0.25455423  0.44013396  1
  Al  Al20  1  0.24515128  0.75484872  0.93998520  1
  Al  Al21  1  0.56017852  0.43982148  0.25550682  1
  Al  Al22  1  0.05934119  0.94065881  0.75442072  1
  Al  Al23  1  0.94065881  0.05934119  0.24557928  1
  Al  Al24  1  0.43982148  0.56017852  0.74449318  1
  Cr  Cr25  1  -0.00000000  0.00000000  -0.00000000  1
