# generated using pymatgen
data_Na2(TaSe2)3
_symmetry_space_group_name_H-M   'P 1'
_cell_length_a   6.08034293
_cell_length_b   6.08112900
_cell_length_c   15.73808389
_cell_angle_alpha   78.88408450
_cell_angle_beta   89.99999992
_cell_angle_gamma   119.99571806
_symmetry_Int_Tables_number   1
_chemical_formula_structural   Na2(TaSe2)3
_chemical_formula_sum   'Na4 Ta6 Se12'
_cell_volume   491.33412189
_cell_formula_units_Z   2
loop_
 _symmetry_equiv_pos_site_id
 _symmetry_equiv_pos_as_xyz
  1  'x, y, z'
loop_
 _atom_site_type_symbol
 _atom_site_label
 _atom_site_symmetry_multiplicity
 _atom_site_fract_x
 _atom_site_fract_y
 _atom_site_fract_z
 _atom_site_occupancy
  Na  Na0  1  0.58335515  0.50010248  0.24986546  1
  Na  Na1  1  0.25002070  0.83344507  0.24986342  1
  Na  Na2  1  0.08324162  0.49988793  0.75013658  1
  Na  Na3  1  0.74991967  0.83323052  0.75013454  1
  Ta  Ta4  1  0.99993973  0.33315853  0.00024159  1
  Ta  Ta5  1  0.33344720  0.00017447  0.99975841  1
  Ta  Ta6  1  0.66665002  0.66666700  1.00000000  1
  Ta  Ta7  1  0.83292086  0.33294529  0.50000799  1
  Ta  Ta8  1  0.50041230  0.66666700  0.50000000  1
  Ta  Ta9  1  0.16664157  0.00038771  0.49999201  1
  Se  Se10  1  0.29547022  0.59272178  0.10841557  1
  Se  Se11  1  0.63197763  0.26081413  0.10841489  1
  Se  Se12  1  0.96388716  0.92924376  0.10839741  1
  Se  Se13  1  0.03782951  0.07251887  0.89158511  1
  Se  Se14  1  0.36941545  0.74061222  0.89158443  1
  Se  Se15  1  0.70131041  0.40408924  0.89160259  1
  Se  Se16  1  0.20173182  0.40458791  0.39163963  1
  Se  Se17  1  0.53728649  0.07230920  0.39162876  1
  Se  Se18  1  0.86955110  0.74014693  0.39162905  1
  Se  Se19  1  0.13164430  0.26102380  0.60837124  1
  Se  Se20  1  0.46380992  0.92874509  0.60836037  1
  Se  Se21  1  0.79607118  0.59318707  0.60837095  1
