# generated using pymatgen
data_Mg4Sn6Pt5
_symmetry_space_group_name_H-M   'P 1'
_cell_length_a   4.51698843
_cell_length_b   4.51698843
_cell_length_c   18.72187815
_cell_angle_alpha   83.07130649
_cell_angle_beta   90.00000000
_cell_angle_gamma   120.00000000
_symmetry_Int_Tables_number   1
_chemical_formula_structural   Mg4Sn6Pt5
_chemical_formula_sum   'Mg4 Sn6 Pt5'
_cell_volume   327.58438425
_cell_formula_units_Z   1
loop_
 _symmetry_equiv_pos_site_id
 _symmetry_equiv_pos_as_xyz
  1  'x, y, z'
loop_
 _atom_site_type_symbol
 _atom_site_label
 _atom_site_symmetry_multiplicity
 _atom_site_fract_x
 _atom_site_fract_y
 _atom_site_fract_z
 _atom_site_occupancy
  Mg  Mg0  1  0.29967274  0.59934547  0.10098179  1
  Mg  Mg1  1  0.90005890  0.80011780  0.29982331  1
  Mg  Mg2  1  0.49989475  0.99978949  0.50031576  1
  Mg  Mg3  1  0.10081580  0.20163160  0.69755260  1
  Sn  Sn4  1  0.40195621  0.80391242  0.79413136  1
  Sn  Sn5  1  0.19992293  0.39984587  0.40023120  1
  Sn  Sn6  1  0.79966622  0.59933244  0.60100133  1
  Sn  Sn7  1  0.99808738  0.99617475  0.00573787  1
  Sn  Sn8  1  0.59957388  0.19914777  0.20127835  1
  Sn  Sn9  1  0.70021911  0.40043822  0.89934267  1
  Pt  Pt10  1  0.94945688  0.89891376  0.15162935  1
  Pt  Pt11  1  0.54990092  0.09980183  0.35029725  1
  Pt  Pt12  1  0.15014564  0.30029129  0.54956307  1
  Pt  Pt13  1  0.75021077  0.50042153  0.74936770  1
  Pt  Pt14  1  0.35041787  0.70083575  0.94874638  1
