# generated using pymatgen
data_Lu5Co19P12
_symmetry_space_group_name_H-M   'P 1'
_cell_length_a   3.64045422
_cell_length_b   11.93267873
_cell_length_c   11.93267925
_cell_angle_alpha   59.99502499
_cell_angle_beta   89.99993469
_cell_angle_gamma   90.00006545
_symmetry_Int_Tables_number   1
_chemical_formula_structural   Lu5Co19P12
_chemical_formula_sum   'Lu5 Co19 P12'
_cell_volume   448.89042998
_cell_formula_units_Z   1
loop_
 _symmetry_equiv_pos_site_id
 _symmetry_equiv_pos_as_xyz
  1  'x, y, z'
loop_
 _atom_site_type_symbol
 _atom_site_label
 _atom_site_symmetry_multiplicity
 _atom_site_fract_x
 _atom_site_fract_y
 _atom_site_fract_z
 _atom_site_occupancy
  Lu  Lu0  1  0.00038223  0.33334459  0.33333872  1
  Lu  Lu1  1  0.00038223  0.66666128  0.66665541  1
  Lu  Lu2  1  0.50253435  0.81395228  0.18604772  1
  Lu  Lu3  1  0.50256729  0.18604276  0.00002280  1
  Lu  Lu4  1  0.50256729  0.99997720  0.81395724  1
  Co  Co5  1  0.00112347  0.17845435  0.19857757  1
  Co  Co6  1  0.00114000  0.19855957  0.62297607  1
  Co  Co7  1  0.00112606  0.62295483  0.17842902  1
  Co  Co8  1  0.00112347  0.80142243  0.82154565  1
  Co  Co9  1  0.00114000  0.37702393  0.80144043  1
  Co  Co10  1  0.00112606  0.82157098  0.37704517  1
  Co  Co11  1  0.00084790  0.44817344  0.55182656  1
  Co  Co12  1  0.00084897  0.55195040  0.99992911  1
  Co  Co13  1  0.00084897  0.00007089  0.44804960  1
  Co  Co14  1  0.50070332  0.35756704  0.12624397  1
  Co  Co15  1  0.50070003  0.12618912  0.51619671  1
  Co  Co16  1  0.50069648  0.51621683  0.35757919  1
  Co  Co17  1  0.50070332  0.87375603  0.64243296  1
  Co  Co18  1  0.50070003  0.48380329  0.87381088  1
  Co  Co19  1  0.50069648  0.64242081  0.48378317  1
  Co  Co20  1  0.50191730  0.28470917  0.71529083  1
  Co  Co21  1  0.50190448  0.71523925  0.00002370  1
  Co  Co22  1  0.50190448  -0.00002370  0.28476075  1
  Co  Co23  1  0.00355919  0.99997039  0.00002961  1
  P  P24  1  0.00110338  0.63388953  0.36611047  1
  P  P25  1  0.00110769  0.36610438  0.00003677  1
  P  P26  1  0.00110769  0.99996323  0.63389562  1
  P  P27  1  0.50075417  0.16625671  0.31531724  1
  P  P28  1  0.50074647  0.31534817  0.51842254  1
  P  P29  1  0.50074250  0.51839961  0.16624492  1
  P  P30  1  0.50075417  0.68468276  0.83374329  1
  P  P31  1  0.50074647  0.48157746  0.68465183  1
  P  P32  1  0.50074250  0.83375508  0.48160039  1
  P  P33  1  0.00267294  0.17907692  0.82092308  1
  P  P34  1  0.00263930  0.82085770  0.00001869  1
  P  P35  1  0.00263930  0.99998131  0.17914230  1
