# generated using pymatgen
data_Lu(Fe5Si)2
_symmetry_space_group_name_H-M   'P 1'
_cell_length_a   4.74856678
_cell_length_b   6.31386057
_cell_length_c   6.31386057
_cell_angle_alpha   98.51842344
_cell_angle_beta   112.08879440
_cell_angle_gamma   67.91120560
_symmetry_Int_Tables_number   1
_chemical_formula_structural   Lu(Fe5Si)2
_chemical_formula_sum   'Lu1 Fe10 Si2'
_cell_volume   162.52713261
_cell_formula_units_Z   1
loop_
 _symmetry_equiv_pos_site_id
 _symmetry_equiv_pos_as_xyz
  1  'x, y, z'
loop_
 _atom_site_type_symbol
 _atom_site_label
 _atom_site_symmetry_multiplicity
 _atom_site_fract_x
 _atom_site_fract_y
 _atom_site_fract_z
 _atom_site_occupancy
  Lu  Lu0  1  0.00000000  -0.00000000  0.00000000  1
  Fe  Fe1  1  0.63956278  0.36043722  0.63956278  1
  Fe  Fe2  1  0.36043722  0.63956278  0.36043722  1
  Fe  Fe3  1  0.00000000  0.35384731  0.35384731  1
  Fe  Fe4  1  0.00000000  0.64615269  0.64615269  1
  Fe  Fe5  1  0.50000000  0.79315630  0.79315630  1
  Fe  Fe6  1  0.50000000  0.20684370  0.20684370  1
  Fe  Fe7  1  0.50000000  -0.00000000  0.50000000  1
  Fe  Fe8  1  0.00000000  -0.00000000  0.50000000  1
  Fe  Fe9  1  0.50000000  0.50000000  0.00000000  1
  Fe  Fe10  1  0.00000000  0.50000000  0.00000000  1
  Si  Si11  1  0.73174568  0.76825432  0.23174568  1
  Si  Si12  1  0.26825432  0.23174568  0.76825432  1
