# generated using pymatgen
data_Li5TlIn
_symmetry_space_group_name_H-M   'P 1'
_cell_length_a   4.69390293
_cell_length_b   4.69390287
_cell_length_c   7.36103506
_cell_angle_alpha   71.40754902
_cell_angle_beta   108.59245163
_cell_angle_gamma   119.99999968
_symmetry_Int_Tables_number   1
_chemical_formula_structural   Li5TlIn
_chemical_formula_sum   'Li5 Tl1 In1'
_cell_volume   130.59003529
_cell_formula_units_Z   1
loop_
 _symmetry_equiv_pos_site_id
 _symmetry_equiv_pos_as_xyz
  1  'x, y, z'
loop_
 _atom_site_type_symbol
 _atom_site_label
 _atom_site_symmetry_multiplicity
 _atom_site_fract_x
 _atom_site_fract_y
 _atom_site_fract_z
 _atom_site_occupancy
  Li  Li0  1  0.64435787  0.35564213  0.93307361  1
  Li  Li1  1  0.35058439  0.64941561  0.05175318  1
  Li  Li2  1  0.50246117  0.49753883  0.50738351  1
  Li  Li3  1  0.78728621  0.21271379  0.36185862  1
  Li  Li4  1  0.21226325  0.78773675  0.63678976  1
  Tl  Tl5  1  0.07564614  0.92435386  0.22693843  1
  In  In6  1  0.92740096  0.07259904  0.78220289  1
