# generated using pymatgen
data_Li3PrGa8
_symmetry_space_group_name_H-M   'P 1'
_cell_length_a   3.63787302
_cell_length_b   4.38788171
_cell_length_c   15.05338318
_cell_angle_alpha   90.00000365
_cell_angle_beta   90.00000000
_cell_angle_gamma   90.00000000
_symmetry_Int_Tables_number   1
_chemical_formula_structural   Li3PrGa8
_chemical_formula_sum   'Li3 Pr1 Ga8'
_cell_volume   240.29047925
_cell_formula_units_Z   1
loop_
 _symmetry_equiv_pos_site_id
 _symmetry_equiv_pos_as_xyz
  1  'x, y, z'
loop_
 _atom_site_type_symbol
 _atom_site_label
 _atom_site_symmetry_multiplicity
 _atom_site_fract_x
 _atom_site_fract_y
 _atom_site_fract_z
 _atom_site_occupancy
  Li  Li0  1  0.00000000  0.49998213  0.24496170  1
  Li  Li1  1  0.00000000  0.99997792  0.50000000  1
  Li  Li2  1  -0.00000000  0.49998213  0.75503830  1
  Pr  Pr3  1  0.00000000  0.99993717  1.00000000  1
  Ga  Ga4  1  0.50000000  0.99997502  0.17471504  1
  Ga  Ga5  1  0.50000000  0.49996748  0.41804667  1
  Ga  Ga6  1  0.50000000  0.99996117  0.66266613  1
  Ga  Ga7  1  0.50000000  0.49995666  0.91105572  1
  Ga  Ga8  1  0.50000000  0.49995666  0.08894428  1
  Ga  Ga9  1  0.50000000  0.99996117  0.33733387  1
  Ga  Ga10  1  0.50000000  0.49996748  0.58195333  1
  Ga  Ga11  1  0.50000000  0.99997502  0.82528496  1
