# generated using pymatgen
data_LuThFe6
_symmetry_space_group_name_H-M   'P 1'
_cell_length_a   5.10193819
_cell_length_b   5.10193819
_cell_length_c   16.70229779
_cell_angle_alpha   98.78526297
_cell_angle_beta   98.78526297
_cell_angle_gamma   59.99999518
_symmetry_Int_Tables_number   1
_chemical_formula_structural   LuThFe6
_chemical_formula_sum   'Lu3 Th3 Fe18'
_cell_volume   370.60912880
_cell_formula_units_Z   3
loop_
 _symmetry_equiv_pos_site_id
 _symmetry_equiv_pos_as_xyz
  1  'x, y, z'
loop_
 _atom_site_type_symbol
 _atom_site_label
 _atom_site_symmetry_multiplicity
 _atom_site_fract_x
 _atom_site_fract_y
 _atom_site_fract_z
 _atom_site_occupancy
  Lu  Lu0  1  0.42844448  0.42844448  0.28533344  1
  Lu  Lu1  1  0.92963918  0.92963918  0.78891753  1
  Lu  Lu2  1  0.07146859  0.07146859  0.21440578  1
  Th  Th3  1  0.57102462  0.57102462  0.71307385  1
  Th  Th4  1  0.00019670  0.00019670  0.00059010  1
  Th  Th5  1  0.49878457  0.49878457  0.49635372  1
  Fe  Fe6  1  0.45753693  0.95838619  0.37430932  1
  Fe  Fe7  1  0.95847326  0.45891270  0.87629866  1
  Fe  Fe8  1  0.95838619  0.95838619  0.37430932  1
  Fe  Fe9  1  0.45891270  0.45891270  0.87629866  1
  Fe  Fe10  1  0.95838619  0.45753693  0.37430932  1
  Fe  Fe11  1  0.45891270  0.95847326  0.87629866  1
  Fe  Fe12  1  0.04223449  0.54166070  0.12555589  1
  Fe  Fe13  1  0.54227647  0.04079360  0.62386367  1
  Fe  Fe14  1  0.54166070  0.54166070  0.12555589  1
  Fe  Fe15  1  0.04079360  0.04079360  0.62386367  1
  Fe  Fe16  1  0.54166070  0.04223449  0.12555589  1
  Fe  Fe17  1  0.04079360  0.54227647  0.62386367  1
  Fe  Fe18  1  0.33353220  0.33353220  0.00059661  1
  Fe  Fe19  1  0.83353105  0.83353105  0.50059316  1
  Fe  Fe20  1  0.16631418  0.16631418  0.49894253  1
  Fe  Fe21  1  0.66649261  0.66649261  0.99947783  1
  Fe  Fe22  1  0.75001520  0.75001520  0.25004559  1
  Fe  Fe23  1  0.25052908  0.25052908  0.75158723  1
