# generated using pymatgen
data_LiZr6MnCl14
_symmetry_space_group_name_H-M   'P 1'
_cell_length_a   9.94898107
_cell_length_b   9.89663113
_cell_length_c   12.01954069
_cell_angle_alpha   90.00000000
_cell_angle_beta   90.00000000
_cell_angle_gamma   96.55541573
_symmetry_Int_Tables_number   1
_chemical_formula_structural   LiZr6MnCl14
_chemical_formula_sum   'Li2 Zr12 Mn2 Cl28'
_cell_volume   1175.72317091
_cell_formula_units_Z   2
loop_
 _symmetry_equiv_pos_site_id
 _symmetry_equiv_pos_as_xyz
  1  'x, y, z'
loop_
 _atom_site_type_symbol
 _atom_site_label
 _atom_site_symmetry_multiplicity
 _atom_site_fract_x
 _atom_site_fract_y
 _atom_site_fract_z
 _atom_site_occupancy
  Li  Li0  1  0.57129485  0.07188152  0.65304834  1
  Li  Li1  1  0.92870515  0.42811848  0.15304834  1
  Zr  Zr2  1  0.04540919  0.81152476  0.38254467  1
  Zr  Zr3  1  0.18643811  0.95292612  0.61768407  1
  Zr  Zr4  1  0.69096212  0.45474954  0.88148070  1
  Zr  Zr5  1  0.54276614  0.30662279  0.11699053  1
  Zr  Zr6  1  0.95723386  0.19337721  0.61699053  1
  Zr  Zr7  1  0.80903788  0.04525046  0.38148070  1
  Zr  Zr8  1  0.31356189  0.54707388  0.11768407  1
  Zr  Zr9  1  0.45459081  0.68847524  0.88254467  1
  Zr  Zr10  1  0.15177715  0.15090390  0.38962622  1
  Zr  Zr11  1  0.85203654  0.84682708  0.60995343  1
  Zr  Zr12  1  0.34822285  0.34909610  0.88962622  1
  Zr  Zr13  1  0.64796346  0.65317292  0.10995343  1
  Mn  Mn14  1  0.50001813  0.49970468  0.99944650  1
  Mn  Mn15  1  0.99998187  0.00029532  0.49944650  1
  Cl  Cl16  1  0.11808288  0.36144841  0.50573085  1
  Cl  Cl17  1  0.63682682  0.88591208  0.49736649  1
  Cl  Cl18  1  0.13700679  0.38286197  0.00914192  1
  Cl  Cl19  1  0.61794063  0.86069663  0.99215350  1
  Cl  Cl20  1  0.88205937  0.63930337  0.49215350  1
  Cl  Cl21  1  0.36299321  0.11713803  0.50914192  1
  Cl  Cl22  1  0.86317318  0.61408792  0.99736649  1
  Cl  Cl23  1  0.38191712  0.13855159  0.00573085  1
  Cl  Cl24  1  0.29461457  0.53599421  0.75519783  1
  Cl  Cl25  1  0.46415245  0.70555421  0.24598898  1
  Cl  Cl26  1  0.96393205  0.20897983  0.25276580  1
  Cl  Cl27  1  0.78813642  0.03676895  0.74451878  1
  Cl  Cl28  1  0.71186358  0.46323105  0.24451878  1
  Cl  Cl29  1  0.53606795  0.29102017  0.75276580  1
  Cl  Cl30  1  0.03584755  0.79444579  0.74598898  1
  Cl  Cl31  1  0.20538543  0.96400579  0.25519783  1
  Cl  Cl32  1  0.34467847  0.34399374  0.25555959  1
  Cl  Cl33  1  0.65657642  0.65597783  0.74478588  1
  Cl  Cl34  1  0.15532153  0.15600626  0.75555959  1
  Cl  Cl35  1  0.84342358  0.84402217  0.24478588  1
  Cl  Cl36  1  0.90043258  0.40085365  0.75038336  1
  Cl  Cl37  1  0.59956742  0.09914635  0.25038336  1
  Cl  Cl38  1  0.09139474  0.58948857  0.24638226  1
  Cl  Cl39  1  0.40860526  0.91051143  0.74638226  1
  Cl  Cl40  1  0.24486133  0.75434012  0.49945663  1
  Cl  Cl41  1  0.75006505  0.25607529  0.00279369  1
  Cl  Cl42  1  0.74993495  0.24392471  0.50279369  1
  Cl  Cl43  1  0.25513867  0.74565988  0.99945663  1
