# generated using pymatgen
data_LaCu2Ni3
_symmetry_space_group_name_H-M   'P 1'
_cell_length_a   3.95973464
_cell_length_b   5.08785675
_cell_length_c   5.08785693
_cell_angle_alpha   60.00429374
_cell_angle_beta   90.00000000
_cell_angle_gamma   90.00000000
_symmetry_Int_Tables_number   1
_chemical_formula_structural   LaCu2Ni3
_chemical_formula_sum   'La1 Cu2 Ni3'
_cell_volume   88.77389387
_cell_formula_units_Z   1
loop_
 _symmetry_equiv_pos_site_id
 _symmetry_equiv_pos_as_xyz
  1  'x, y, z'
loop_
 _atom_site_type_symbol
 _atom_site_label
 _atom_site_symmetry_multiplicity
 _atom_site_fract_x
 _atom_site_fract_y
 _atom_site_fract_z
 _atom_site_occupancy
  La  La0  1  0.00000000  0.99998480  0.00001520  1
  Cu  Cu1  1  0.00000000  0.33331647  0.33339262  1
  Cu  Cu2  1  0.00000000  0.66660738  0.66668353  1
  Ni  Ni3  1  0.50000000  0.50000035  0.49999965  1
  Ni  Ni4  1  0.50000000  0.49999732  0.00000632  1
  Ni  Ni5  1  0.50000000  0.99999368  0.50000268  1
