# generated using pymatgen
data_KY(NbCl3)6
_symmetry_space_group_name_H-M   'P 1'
_cell_length_a   9.42675591
_cell_length_b   9.42680127
_cell_length_c   10.18489632
_cell_angle_alpha   90.00169050
_cell_angle_beta   117.56641525
_cell_angle_gamma   60.00098805
_symmetry_Int_Tables_number   1
_chemical_formula_structural   KY(NbCl3)6
_chemical_formula_sum   'K1 Y1 Nb6 Cl18'
_cell_volume   662.53912702
_cell_formula_units_Z   1
loop_
 _symmetry_equiv_pos_site_id
 _symmetry_equiv_pos_as_xyz
  1  'x, y, z'
loop_
 _atom_site_type_symbol
 _atom_site_label
 _atom_site_symmetry_multiplicity
 _atom_site_fract_x
 _atom_site_fract_y
 _atom_site_fract_z
 _atom_site_occupancy
  K  K0  1  0.44411455  0.77794726  0.66610486  1
  Y  Y1  1  0.99714824  0.50142242  0.49573176  1
  Nb  Nb2  1  0.71185694  0.20131777  0.86174064  1
  Nb  Nb3  1  0.06305267  0.08684475  0.86175438  1
  Nb  Nb4  1  0.94857739  0.85013330  0.86175662  1
  Nb  Nb5  1  0.28817210  0.79776777  0.13871541  1
  Nb  Nb6  1  0.93649856  0.91406271  0.13873172  1
  Nb  Nb7  1  0.05276579  0.14943834  0.13872257  1
  Cl  Cl8  1  0.58625122  0.13906432  0.00248652  1
  Cl  Cl9  1  0.14153640  0.27467782  0.00250582  1
  Cl  Cl10  1  0.27715173  0.58377310  0.00247185  1
  Cl  Cl11  1  0.41459916  0.86087092  0.99780876  1
  Cl  Cl12  1  0.85870834  0.72452634  0.99779646  1
  Cl  Cl13  1  0.72237587  0.41675990  0.99783798  1
  Cl  Cl14  1  0.33513460  0.47253998  0.67868517  1
  Cl  Cl15  1  0.15119382  0.19233465  0.67865557  1
  Cl  Cl16  1  0.87098940  0.65646471  0.67867985  1
  Cl  Cl17  1  0.66422031  0.53062168  0.32162439  1
  Cl  Cl18  1  0.85224885  0.80514402  0.32162988  1
  Cl  Cl19  1  0.12676757  0.34261431  0.32162054  1
  Cl  Cl20  1  0.73381971  0.34009094  0.67216517  1
  Cl  Cl21  1  0.01223158  0.92606310  0.67214364  1
  Cl  Cl22  1  0.59824096  0.06166390  0.67216266  1
  Cl  Cl23  1  0.26597971  0.65940258  0.32846092  1
  Cl  Cl24  1  0.98787443  0.07465124  0.32845666  1
  Cl  Cl25  1  0.40309010  0.93750218  0.32846321  1
