# generated using pymatgen
data_La7CoI12
_symmetry_space_group_name_H-M   'P 1'
_cell_length_a   10.09590884
_cell_length_b   10.09590903
_cell_length_c   10.09590883
_cell_angle_alpha   107.42806370
_cell_angle_beta   107.42806173
_cell_angle_gamma   107.42806364
_symmetry_Int_Tables_number   1
_chemical_formula_structural   La7CoI12
_chemical_formula_sum   'La7 Co1 I12'
_cell_volume   846.79570513
_cell_formula_units_Z   1
loop_
 _symmetry_equiv_pos_site_id
 _symmetry_equiv_pos_as_xyz
  1  'x, y, z'
loop_
 _atom_site_type_symbol
 _atom_site_label
 _atom_site_symmetry_multiplicity
 _atom_site_fract_x
 _atom_site_fract_y
 _atom_site_fract_z
 _atom_site_occupancy
  La  La0  1  0.53424938  0.80456520  0.60411444  1
  La  La1  1  0.80456520  0.60411444  0.53424938  1
  La  La2  1  0.60411444  0.53424938  0.80456520  1
  La  La3  1  0.46666689  0.19388109  0.39616943  1
  La  La4  1  0.19388109  0.39616943  0.46666689  1
  La  La5  1  0.39616943  0.46666689  0.19388109  1
  La  La6  1  0.98687319  0.98687319  0.98687319  1
  Co  Co7  1  0.49774192  0.49774192  0.49774192  1
  I  I8  1  0.27092832  0.42485603  0.81602277  1
  I  I9  1  0.42485603  0.81602277  0.27092832  1
  I  I10  1  0.81602277  0.27092832  0.42485603  1
  I  I11  1  0.72888528  0.57526667  0.18369849  1
  I  I12  1  0.57526667  0.18369849  0.72888528  1
  I  I13  1  0.18369849  0.72888528  0.57526667  1
  I  I14  1  0.02483554  0.34062827  0.10582860  1
  I  I15  1  0.34062827  0.10582860  0.02483554  1
  I  I16  1  0.10582860  0.02483554  0.34062827  1
  I  I17  1  0.97672868  0.65051293  0.89291688  1
  I  I18  1  0.65051293  0.89291688  0.97672868  1
  I  I19  1  0.89291688  0.97672868  0.65051293  1
