# generated using pymatgen
data_LaTh4OF19
_symmetry_space_group_name_H-M   'P 1'
_cell_length_a   7.36027672
_cell_length_b   8.26858657
_cell_length_c   12.25651780
_cell_angle_alpha   90.00000000
_cell_angle_beta   72.63167612
_cell_angle_gamma   90.00000000
_symmetry_Int_Tables_number   1
_chemical_formula_structural   LaTh4OF19
_chemical_formula_sum   'La2 Th8 O2 F38'
_cell_volume   711.91059674
_cell_formula_units_Z   2
loop_
 _symmetry_equiv_pos_site_id
 _symmetry_equiv_pos_as_xyz
  1  'x, y, z'
loop_
 _atom_site_type_symbol
 _atom_site_label
 _atom_site_symmetry_multiplicity
 _atom_site_fract_x
 _atom_site_fract_y
 _atom_site_fract_z
 _atom_site_occupancy
  La  La0  1  0.29530071  0.25000000  0.38380891  1
  La  La1  1  0.70469929  0.75000000  0.61619109  1
  Th  Th2  1  0.65317900  0.75000000  0.99874046  1
  Th  Th3  1  0.34682100  0.25000000  0.00125954  1
  Th  Th4  1  0.86319706  0.00042506  0.27385344  1
  Th  Th5  1  0.86319706  0.49957494  0.27385344  1
  Th  Th6  1  0.13680294  0.99957494  0.72614656  1
  Th  Th7  1  0.13680294  0.50042506  0.72614656  1
  Th  Th8  1  0.31932406  0.75000000  0.38530540  1
  Th  Th9  1  0.68067594  0.25000000  0.61469460  1
  O  O10  1  0.71814688  0.25000000  0.99996295  1
  O  O11  1  0.28185312  0.75000000  0.00003705  1
  F  F12  1  0.97439035  0.25000000  0.33873262  1
  F  F13  1  0.68469132  0.75000000  0.34030738  1
  F  F14  1  0.02560965  0.75000000  0.66126738  1
  F  F15  1  0.31530868  0.25000000  0.65969262  1
  F  F16  1  0.56260440  0.25000000  0.46050981  1
  F  F17  1  0.99398445  0.75000000  0.45586758  1
  F  F18  1  0.43739560  0.75000000  0.53949019  1
  F  F19  1  0.00601555  0.25000000  0.54413242  1
  F  F20  1  0.75590017  0.25000000  0.21911938  1
  F  F21  1  0.02147110  0.75000000  0.21872744  1
  F  F22  1  0.24409983  0.75000000  0.78088062  1
  F  F23  1  0.97852890  0.25000000  0.78127256  1
  F  F24  1  0.77480367  0.91641543  0.11726717  1
  F  F25  1  0.10634573  0.08310660  0.11723189  1
  F  F26  1  0.77480367  0.58358457  0.11726717  1
  F  F27  1  0.10634573  0.41689340  0.11723189  1
  F  F28  1  0.22519633  0.08358457  0.88273283  1
  F  F29  1  0.89365427  0.91689340  0.88276811  1
  F  F30  1  0.22519633  0.41641543  0.88273283  1
  F  F31  1  0.89365427  0.58310660  0.88276811  1
  F  F32  1  0.23617773  0.99652405  0.52353260  1
  F  F33  1  0.23617773  0.50347595  0.52353260  1
  F  F34  1  0.76382227  0.00347595  0.47646740  1
  F  F35  1  0.76382227  0.49652405  0.47646740  1
  F  F36  1  0.50000000  0.00000000  -0.00000000  1
  F  F37  1  0.50000000  0.50000000  -0.00000000  1
  F  F38  1  0.61807059  0.75000000  0.81743518  1
  F  F39  1  0.56841743  0.25000000  0.80985817  1
  F  F40  1  0.38192941  0.25000000  0.18256482  1
  F  F41  1  0.43158257  0.75000000  0.19014183  1
  F  F42  1  0.51303838  0.00524124  0.32802370  1
  F  F43  1  0.16146512  0.98370007  0.32585221  1
  F  F44  1  0.51303838  0.49475876  0.32802370  1
  F  F45  1  0.16146512  0.51629993  0.32585221  1
  F  F46  1  0.48696162  0.99475876  0.67197630  1
  F  F47  1  0.83853488  0.01629993  0.67414779  1
  F  F48  1  0.48696162  0.50524124  0.67197630  1
  F  F49  1  0.83853488  0.48370007  0.67414779  1
