# generated using pymatgen
data_LaHoSi2O7
_symmetry_space_group_name_H-M   'P 1'
_cell_length_a   5.44292258
_cell_length_b   8.65292053
_cell_length_c   12.97691036
_cell_angle_alpha   90.00000000
_cell_angle_beta   90.51997043
_cell_angle_gamma   90.00000000
_symmetry_Int_Tables_number   1
_chemical_formula_structural   LaHoSi2O7
_chemical_formula_sum   'La4 Ho4 Si8 O28'
_cell_volume   611.15067048
_cell_formula_units_Z   4
loop_
 _symmetry_equiv_pos_site_id
 _symmetry_equiv_pos_as_xyz
  1  'x, y, z'
loop_
 _atom_site_type_symbol
 _atom_site_label
 _atom_site_symmetry_multiplicity
 _atom_site_fract_x
 _atom_site_fract_y
 _atom_site_fract_z
 _atom_site_occupancy
  La  La0  1  0.75544598  0.30533306  0.27135987  1
  La  La1  1  0.74455402  0.80533306  0.22864013  1
  La  La2  1  0.24455402  0.69466694  0.72864013  1
  La  La3  1  0.25544598  0.19466694  0.77135987  1
  Ho  Ho4  1  0.27262683  0.10768907  0.09017560  1
  Ho  Ho5  1  0.22737317  0.60768907  0.40982440  1
  Ho  Ho6  1  0.72737317  0.89231093  0.90982440  1
  Ho  Ho7  1  0.77262683  0.39231093  0.59017560  1
  Si  Si8  1  0.77253035  0.74475701  0.52120235  1
  Si  Si9  1  0.72746965  0.24475701  0.97879765  1
  Si  Si10  1  0.22746965  0.25524299  0.47879765  1
  Si  Si11  1  0.27253035  0.75524299  0.02120235  1
  Si  Si12  1  0.72787897  0.00182635  0.68202053  1
  Si  Si13  1  0.77212103  0.50182635  0.81797947  1
  Si  Si14  1  0.27212103  0.99817365  0.31797947  1
  Si  Si15  1  0.22787897  0.49817365  0.18202053  1
  O  O16  1  0.77836955  0.91876568  0.57073971  1
  O  O17  1  0.72163045  0.41876568  0.92926029  1
  O  O18  1  0.22163045  0.08123432  0.42926029  1
  O  O19  1  0.27836955  0.58123432  0.07073971  1
  O  O20  1  0.86641321  0.75189943  0.40281744  1
  O  O21  1  0.63358679  0.25189943  0.09718256  1
  O  O22  1  0.13358679  0.24810057  0.59718256  1
  O  O23  1  0.36641321  0.74810057  0.90281744  1
  O  O24  1  0.51087371  0.65644244  0.54005525  1
  O  O25  1  0.98912629  0.15644244  0.95994475  1
  O  O26  1  0.48912629  0.34355756  0.45994475  1
  O  O27  1  0.01087371  0.84355756  0.04005525  1
  O  O28  1  0.98793606  0.63077525  0.57432985  1
  O  O29  1  0.51206394  0.13077525  0.92567015  1
  O  O30  1  0.01206394  0.36922475  0.42567015  1
  O  O31  1  0.48793606  0.86922475  0.07432985  1
  O  O32  1  0.49878068  0.92265361  0.74413691  1
  O  O33  1  0.00121932  0.42265361  0.75586309  1
  O  O34  1  0.50121932  0.07734639  0.25586309  1
  O  O35  1  0.99878068  0.57734639  0.24413691  1
  O  O36  1  0.96758543  0.98057581  0.75971137  1
  O  O37  1  0.53241457  0.48057581  0.74028863  1
  O  O38  1  0.03241457  0.01942419  0.24028863  1
  O  O39  1  0.46758543  0.51942419  0.25971137  1
  O  O40  1  0.64460401  0.18119730  0.66825564  1
  O  O41  1  0.85539599  0.68119730  0.83174436  1
  O  O42  1  0.35539599  0.81880270  0.33174436  1
  O  O43  1  0.14460401  0.31880270  0.16825564  1
