# generated using pymatgen
data_La4Mn3NiO12
_symmetry_space_group_name_H-M   'P 1'
_cell_length_a   5.60577612
_cell_length_b   5.58591950
_cell_length_c   7.87874689
_cell_angle_alpha   89.64362699
_cell_angle_beta   90.17606690
_cell_angle_gamma   90.54315171
_symmetry_Int_Tables_number   1
_chemical_formula_structural   La4Mn3NiO12
_chemical_formula_sum   'La4 Mn3 Ni1 O12'
_cell_volume   246.69348614
_cell_formula_units_Z   1
loop_
 _symmetry_equiv_pos_site_id
 _symmetry_equiv_pos_as_xyz
  1  'x, y, z'
loop_
 _atom_site_type_symbol
 _atom_site_label
 _atom_site_symmetry_multiplicity
 _atom_site_fract_x
 _atom_site_fract_y
 _atom_site_fract_z
 _atom_site_occupancy
  La  La0  1  0.47018406  0.49598091  0.75238880  1
  La  La1  1  0.96612065  0.01386970  0.75389857  1
  La  La2  1  0.52981594  0.50401909  0.24761120  1
  La  La3  1  0.03387935  0.98613030  0.24610143  1
  Mn  Mn4  1  0.00000000  0.50000000  0.50000000  1
  Mn  Mn5  1  0.50000000  0.00000000  0.50000000  1
  Mn  Mn6  1  0.00000000  0.50000000  0.00000000  1
  Ni  Ni7  1  0.50000000  0.00000000  0.00000000  1
  O  O8  1  0.01407405  0.58455762  0.75846692  1
  O  O9  1  0.51429181  0.92271630  0.74304473  1
  O  O10  1  0.98592595  0.41544238  0.24153308  1
  O  O11  1  0.48570819  0.07728370  0.25695527  1
  O  O12  1  0.21443674  0.23162743  0.95773199  1
  O  O13  1  0.71635608  0.27959588  0.54465549  1
  O  O14  1  0.79068750  0.76778958  0.45401641  1
  O  O15  1  0.27233219  0.71249778  0.04473520  1
  O  O16  1  0.78556326  0.76837257  0.04226801  1
  O  O17  1  0.28364392  0.72040412  0.45534451  1
  O  O18  1  0.20931250  0.23221042  0.54598359  1
  O  O19  1  0.72766781  0.28750222  0.95526480  1
