# generated using pymatgen
data_KSbWO6
_symmetry_space_group_name_H-M   'P 1'
_cell_length_a   7.36586343
_cell_length_b   7.40225858
_cell_length_c   7.28286028
_cell_angle_alpha   90.00000000
_cell_angle_beta   60.37206831
_cell_angle_gamma   120.16358390
_symmetry_Int_Tables_number   1
_chemical_formula_structural   KSbWO6
_chemical_formula_sum   'K2 Sb2 W2 O12'
_cell_volume   281.66199143
_cell_formula_units_Z   2
loop_
 _symmetry_equiv_pos_site_id
 _symmetry_equiv_pos_as_xyz
  1  'x, y, z'
loop_
 _atom_site_type_symbol
 _atom_site_label
 _atom_site_symmetry_multiplicity
 _atom_site_fract_x
 _atom_site_fract_y
 _atom_site_fract_z
 _atom_site_occupancy
  K  K0  1  0.69402349  0.28884561  0.40298825  1
  K  K1  1  0.30597651  0.59482212  0.59701175  1
  Sb  Sb2  1  -0.00000000  0.99877601  0.50000000  1
  Sb  Sb3  1  -0.00000000  0.99877601  0.00000000  1
  W  W4  1  0.50260145  0.49823547  0.99869927  1
  W  W5  1  0.49739855  0.99563402  0.00130073  1
  O  O6  1  0.84882460  0.92734086  0.32558770  1
  O  O7  1  0.61793974  0.30852793  0.94103013  1
  O  O8  1  0.25613173  0.93563640  0.93151898  1
  O  O9  1  0.25338088  0.32010429  0.31306621  1
  O  O10  1  0.25338088  0.32010429  0.93355291  1
  O  O11  1  0.25613173  0.93563640  0.31234928  1
  O  O12  1  0.15117540  0.07851626  0.67441230  1
  O  O13  1  0.38206026  0.69058819  0.05896987  1
  O  O14  1  0.74661912  0.06672341  0.06644709  1
  O  O15  1  0.74386827  0.67950467  0.68765072  1
  O  O16  1  0.74386827  0.67950467  0.06848102  1
  O  O17  1  0.74661912  0.06672341  0.68693379  1
