# generated using pymatgen
data_KAlSi3Ni3(HO6)2
_symmetry_space_group_name_H-M   'P 1'
_cell_length_a   5.33936712
_cell_length_b   5.33073602
_cell_length_c   10.53341533
_cell_angle_alpha   94.77637093
_cell_angle_beta   94.90284834
_cell_angle_gamma   119.98497475
_symmetry_Int_Tables_number   1
_chemical_formula_structural   KAlSi3Ni3(HO6)2
_chemical_formula_sum   'K1 Al1 Si3 Ni3 H2 O12'
_cell_volume   255.96050653
_cell_formula_units_Z   1
loop_
 _symmetry_equiv_pos_site_id
 _symmetry_equiv_pos_as_xyz
  1  'x, y, z'
loop_
 _atom_site_type_symbol
 _atom_site_label
 _atom_site_symmetry_multiplicity
 _atom_site_fract_x
 _atom_site_fract_y
 _atom_site_fract_z
 _atom_site_occupancy
  K  K0  1  0.00808765  0.00828001  0.02433824  1
  Al  Al1  1  0.40986695  0.74368536  0.23119629  1
  Si  Si2  1  0.74217895  0.40833210  0.22596254  1
  Si  Si3  1  0.58824844  0.25605400  0.76524251  1
  Si  Si4  1  0.25301157  0.58713906  0.76515657  1
  Ni  Ni5  1  0.16507744  0.82824430  0.49614933  1
  Ni  Ni6  1  0.82737147  0.16362197  0.49595662  1
  Ni  Ni7  1  0.50325609  0.50400818  0.49603387  1
  H  H8  1  0.10772921  0.10757366  0.31068872  1
  H  H9  1  0.89927523  0.89371361  0.69343174  1
  O  O10  1  0.13625889  0.13685339  0.40439814  1
  O  O11  1  0.86956261  0.86625140  0.59971985  1
  O  O12  1  0.46443655  0.80026202  0.40035146  1
  O  O13  1  0.79536236  0.46077296  0.38666987  1
  O  O14  1  0.53882025  0.20789365  0.60981765  1
  O  O15  1  0.19926954  0.53338300  0.60975785  1
  O  O16  1  0.63989838  0.06922349  0.17063688  1
  O  O17  1  0.04398831  0.62696333  0.17076939  1
  O  O18  1  0.41467267  0.94085017  0.82297270  1
  O  O19  1  0.94061710  0.41560345  0.82496618  1
  O  O20  1  0.48702550  0.47426346  0.17138379  1
  O  O21  1  0.46598482  0.46702742  0.82439980  1
