# generated using pymatgen
data_K2CaMg5Si8(HO12)2
_symmetry_space_group_name_H-M   'P 1'
_cell_length_a   5.33945414
_cell_length_b   10.30823646
_cell_length_c   10.51258344
_cell_angle_alpha   64.85450324
_cell_angle_beta   82.63839073
_cell_angle_gamma   104.87035196
_symmetry_Int_Tables_number   1
_chemical_formula_structural   K2CaMg5Si8(HO12)2
_chemical_formula_sum   'K2 Ca1 Mg5 Si8 H2 O24'
_cell_volume   487.28344971
_cell_formula_units_Z   1
loop_
 _symmetry_equiv_pos_site_id
 _symmetry_equiv_pos_as_xyz
  1  'x, y, z'
loop_
 _atom_site_type_symbol
 _atom_site_label
 _atom_site_symmetry_multiplicity
 _atom_site_fract_x
 _atom_site_fract_y
 _atom_site_fract_z
 _atom_site_occupancy
  K  K0  1  0.51285740  0.49007849  0.00274382  1
  K  K1  1  0.78516138  0.28503362  0.43021421  1
  Ca  Ca2  1  0.22240634  0.72233478  0.55605199  1
  Mg  Mg3  1  0.58923724  0.08903061  0.82120468  1
  Mg  Mg4  1  0.41159501  0.91128949  0.17665996  1
  Mg  Mg5  1  0.18183488  0.18184346  0.63625450  1
  Mg  Mg6  1  0.82126305  0.82116427  0.35744029  1
  Mg  Mg7  1  0.00044262  0.00048721  0.99821315  1
  Si  Si8  1  0.69953255  0.88697762  0.65916544  1
  Si  Si9  1  0.36277764  0.55055778  0.34216223  1
  Si  Si10  1  0.29487697  0.10687117  0.34242432  1
  Si  Si11  1  0.64138485  0.45364277  0.65884009  1
  Si  Si12  1  0.11931648  0.81455928  0.82941332  1
  Si  Si13  1  0.95367411  0.64795436  0.16787631  1
  Si  Si14  1  0.87870183  0.18405997  0.16780525  1
  Si  Si15  1  0.05147013  0.35586477  0.82942731  1
  H  H16  1  0.55391891  0.79941444  0.00098626  1
  H  H17  1  0.44564405  0.19883454  0.00093967  1
  O  O18  1  0.97900089  0.67453726  0.99909362  1
  O  O19  1  0.02129265  0.32678307  0.99912475  1
  O  O20  1  0.19874212  0.97780016  0.82639028  1
  O  O21  1  0.02521455  0.80668701  0.17423030  1
  O  O22  1  0.80034546  0.01905470  0.17412197  1
  O  O23  1  0.97462422  0.19561656  0.82652277  1
  O  O24  1  0.89642109  0.78706729  0.73849981  1
  O  O25  1  0.63734992  0.53896153  0.25398089  1
  O  O26  1  0.10906970  0.20678832  0.25382535  1
  O  O27  1  0.36530831  0.47392958  0.73873909  1
  O  O28  1  0.77955709  0.04378498  0.66914931  1
  O  O29  1  0.43807856  0.71339382  0.34599646  1
  O  O30  1  0.21626333  0.94044754  0.34599648  1
  O  O31  1  0.55162177  0.28678245  0.66912698  1
  O  O32  1  0.37841711  0.77714686  0.76888859  1
  O  O33  1  0.16441455  0.55889786  0.22614103  1
  O  O34  1  0.60933794  0.21505165  0.22576363  1
  O  O35  1  0.85183938  0.45341652  0.76945948  1
  O  O36  1  0.61107304  0.89619907  0.00187567  1
  O  O37  1  0.38622001  0.10115374  0.00193912  1
  O  O38  1  0.67560022  0.87689062  0.51200959  1
  O  O39  1  0.21931986  0.40008434  0.49460944  1
  O  O40  1  0.28685309  0.10548226  0.49450563  1
  O  O41  1  0.81293971  0.61104419  0.51218697  1
