# generated using pymatgen
data_K(Ti3Se4)4
_symmetry_space_group_name_H-M   'P 1'
_cell_length_a   7.16844359
_cell_length_b   10.57766600
_cell_length_c   9.96427355
_cell_angle_alpha   61.83924762
_cell_angle_beta   89.96576131
_cell_angle_gamma   70.20391096
_symmetry_Int_Tables_number   1
_chemical_formula_structural   K(Ti3Se4)4
_chemical_formula_sum   'K1 Ti12 Se16'
_cell_volume   615.08832147
_cell_formula_units_Z   1
loop_
 _symmetry_equiv_pos_site_id
 _symmetry_equiv_pos_as_xyz
  1  'x, y, z'
loop_
 _atom_site_type_symbol
 _atom_site_label
 _atom_site_symmetry_multiplicity
 _atom_site_fract_x
 _atom_site_fract_y
 _atom_site_fract_z
 _atom_site_occupancy
  K  K0  1  0.75000000  0.00000000  -0.00000000  1
  Ti  Ti1  1  0.19145391  0.86829040  0.49142952  1
  Ti  Ti2  1  0.68964883  0.86874085  0.49150148  1
  Ti  Ti3  1  0.37891905  0.49122786  0.63996014  1
  Ti  Ti4  1  0.88111799  0.49090618  0.64123751  1
  Ti  Ti5  1  0.30550294  0.64122391  0.86792364  1
  Ti  Ti6  1  0.80421286  0.64003149  0.86870210  1
  Ti  Ti7  1  0.81035117  0.13125915  0.50849852  1
  Ti  Ti8  1  0.30854609  0.13170960  0.50857048  1
  Ti  Ti9  1  0.61888201  0.50909382  0.35876249  1
  Ti  Ti10  1  0.12108095  0.50877214  0.36003986  1
  Ti  Ti11  1  0.69578714  0.35996851  0.13129790  1
  Ti  Ti12  1  0.19449706  0.35877609  0.13207636  1
  Se  Se13  1  0.77539577  0.69745538  0.35308560  1
  Se  Se14  1  0.27593016  0.69854912  0.35168350  1
  Se  Se15  1  0.94915142  0.35154571  0.94990513  1
  Se  Se16  1  0.44721914  0.35303462  0.94950794  1
  Se  Se17  1  0.64917348  0.94956227  0.69780127  1
  Se  Se18  1  0.15017119  0.94972833  0.69855727  1
  Se  Se19  1  0.22406984  0.30145088  0.64831650  1
  Se  Se20  1  0.72460423  0.30254462  0.64691440  1
  Se  Se21  1  0.05278086  0.64696538  0.05049206  1
  Se  Se22  1  0.55084858  0.64845429  0.05009487  1
  Se  Se23  1  0.34982881  0.05027167  0.30144273  1
  Se  Se24  1  0.85082652  0.05043773  0.30219873  1
  Se  Se25  1  0.95798734  0.33363378  0.33342708  1
  Se  Se26  1  0.45824744  0.33311703  0.33333058  1
  Se  Se27  1  0.04175256  0.66688297  0.66666942  1
  Se  Se28  1  0.54201266  0.66636622  0.66657292  1
