# generated using pymatgen
data_La2Ti3VO10
_symmetry_space_group_name_H-M   'P 1'
_cell_length_a   3.90213681
_cell_length_b   3.90213681
_cell_length_c   13.32276775
_cell_angle_alpha   81.57896456
_cell_angle_beta   81.57896456
_cell_angle_gamma   90.00000000
_symmetry_Int_Tables_number   1
_chemical_formula_structural   La2Ti3VO10
_chemical_formula_sum   'La2 Ti3 V1 O10'
_cell_volume   198.46306285
_cell_formula_units_Z   1
loop_
 _symmetry_equiv_pos_site_id
 _symmetry_equiv_pos_as_xyz
  1  'x, y, z'
loop_
 _atom_site_type_symbol
 _atom_site_label
 _atom_site_symmetry_multiplicity
 _atom_site_fract_x
 _atom_site_fract_y
 _atom_site_fract_z
 _atom_site_occupancy
  La  La0  1  0.41825463  0.41825463  0.16349074  1
  La  La1  1  0.58174537  0.58174537  0.83650926  1
  Ti  Ti2  1  0.15801679  0.15801679  0.68396641  1
  Ti  Ti3  1  0.84198321  0.84198321  0.31603359  1
  Ti  Ti4  1  -0.00000000  -0.00000000  0.00000000  1
  V  V5  1  0.75000000  0.25000000  0.50000000  1
  O  O6  1  0.22947621  0.22947621  0.54104759  1
  O  O7  1  0.77052379  0.77052379  0.45895241  1
  O  O8  1  0.07422860  0.07422860  0.85154281  1
  O  O9  1  0.92577140  0.92577140  0.14845719  1
  O  O10  1  0.64495564  0.14495564  0.71008872  1
  O  O11  1  0.14297119  0.64297119  0.71405762  1
  O  O12  1  0.35702881  0.85702881  0.28594238  1
  O  O13  1  0.85504436  0.35504436  0.28991128  1
  O  O14  1  0.50025711  0.00025711  0.99948578  1
  O  O15  1  0.99974289  0.49974289  0.00051422  1
