# generated using pymatgen
data_InSb3Pb4O13
_symmetry_space_group_name_H-M   'P 1'
_cell_length_a   7.62491327
_cell_length_b   7.58615098
_cell_length_c   7.62491327
_cell_angle_alpha   90.00000000
_cell_angle_beta   60.00000000
_cell_angle_gamma   120.16916898
_symmetry_Int_Tables_number   1
_chemical_formula_structural   InSb3Pb4O13
_chemical_formula_sum   'In1 Sb3 Pb4 O13'
_cell_volume   311.07210578
_cell_formula_units_Z   1
loop_
 _symmetry_equiv_pos_site_id
 _symmetry_equiv_pos_as_xyz
  1  'x, y, z'
loop_
 _atom_site_type_symbol
 _atom_site_label
 _atom_site_symmetry_multiplicity
 _atom_site_fract_x
 _atom_site_fract_y
 _atom_site_fract_z
 _atom_site_occupancy
  In  In0  1  0.50018358  0.00027537  0.49990821  1
  Sb  Sb1  1  0.50025349  0.49932706  0.49987326  1
  Sb  Sb2  1  0.99920032  0.49932706  0.00092642  1
  Sb  Sb3  1  0.99920032  0.49932706  0.49987326  1
  Pb  Pb4  1  0.50261125  0.50391688  0.99869437  1
  Pb  Pb5  1  0.49867667  0.99792141  0.00066166  1
  Pb  Pb6  1  0.99858307  0.99792141  0.50075527  1
  Pb  Pb7  1  0.99858307  0.99792141  0.00066166  1
  O  O8  1  0.66278137  0.81638979  0.41860932  1
  O  O9  1  0.86383367  0.44175841  0.81808317  1
  O  O10  1  0.23499911  0.81638979  0.84639158  1
  O  O11  1  0.25984157  0.44175841  0.42207526  1
  O  O12  1  0.25984157  0.44175841  0.81808317  1
  O  O13  1  0.23499911  0.81638979  0.41860932  1
  O  O14  1  0.34133505  0.18468289  0.57933248  1
  O  O15  1  0.13308816  0.55596461  0.18345592  1
  O  O16  1  0.76401537  0.18468289  0.15665215  1
  O  O17  1  0.73942053  0.55596461  0.57712355  1
  O  O18  1  0.73942053  0.55596461  0.18345592  1
  O  O19  1  0.76401537  0.18468289  0.57933248  1
  O  O20  1  0.25511683  0.13267524  0.12244159  1
