# generated using pymatgen
data_La12Mn3(AlSe7)4
_symmetry_space_group_name_H-M   'P 1'
_cell_length_a   10.68703687
_cell_length_b   12.58277428
_cell_length_c   12.41782421
_cell_angle_alpha   59.52262763
_cell_angle_beta   115.54023883
_cell_angle_gamma   90.00436095
_symmetry_Int_Tables_number   1
_chemical_formula_structural   La12Mn3(AlSe7)4
_chemical_formula_sum   'La12 Mn3 Al4 Se28'
_cell_volume   1246.14007935
_cell_formula_units_Z   1
loop_
 _symmetry_equiv_pos_site_id
 _symmetry_equiv_pos_as_xyz
  1  'x, y, z'
loop_
 _atom_site_type_symbol
 _atom_site_label
 _atom_site_symmetry_multiplicity
 _atom_site_fract_x
 _atom_site_fract_y
 _atom_site_fract_z
 _atom_site_occupancy
  La  La0  1  0.76439279  0.79470833  0.13932080  1
  La  La1  1  0.76671634  0.30057537  0.13506255  1
  La  La2  1  0.86657262  0.55271221  0.63193082  1
  La  La3  1  0.86001615  0.05167165  0.62496492  1
  La  La4  1  0.37416046  0.74678506  0.23541459  1
  La  La5  1  0.36839838  0.25132590  0.23403558  1
  La  La6  1  0.23527875  0.19034378  0.86149419  1
  La  La7  1  0.23132264  0.68348731  0.86378636  1
  La  La8  1  0.13638107  0.43042810  0.36720314  1
  La  La9  1  0.13804722  0.93447966  0.37464028  1
  La  La10  1  0.62622807  0.24033928  0.76276009  1
  La  La11  1  0.63260470  0.72991303  0.76970458  1
  Mn  Mn12  1  0.99988860  0.74020481  0.99980686  1
  Mn  Mn13  1  0.00002691  0.26123189  0.00022770  1
  Mn  Mn14  1  0.99974103  0.00141190  0.00001743  1
  Al  Al15  1  0.33500338  0.99158519  0.66695700  1
  Al  Al16  1  0.33180328  0.49190201  0.66628962  1
  Al  Al17  1  0.66662612  0.90785771  0.33424201  1
  Al  Al18  1  0.66632563  0.40832043  0.33228841  1
  Se  Se19  1  0.33390458  0.67864090  0.66801520  1
  Se  Se20  1  0.33299168  0.18010571  0.66568943  1
  Se  Se21  1  0.66363634  0.09851213  0.32856941  1
  Se  Se22  1  0.66974879  0.59308587  0.33835248  1
  Se  Se23  1  0.42450388  0.99121759  0.51920975  1
  Se  Se24  1  0.41336840  0.49545132  0.51247133  1
  Se  Se25  1  0.48352695  0.79925205  0.90255899  1
  Se  Se26  1  0.48535549  0.30027564  0.90339721  1
  Se  Se27  1  0.09911424  0.95880721  0.58581454  1
  Se  Se28  1  0.09477250  0.46253112  0.57652025  1
  Se  Se29  1  0.58238067  0.75780987  0.48609134  1
  Se  Se30  1  0.58173335  0.25946005  0.48475716  1
  Se  Se31  1  0.51419742  0.95287047  0.09741561  1
  Se  Se32  1  0.51426892  0.45337002  0.09594188  1
  Se  Se33  1  0.90324353  0.79341670  0.41757082  1
  Se  Se34  1  0.90279326  0.29191296  0.41703757  1
  Se  Se35  1  0.08659900  0.24566401  0.24008884  1
  Se  Se36  1  0.08637648  0.76634553  0.23175398  1
  Se  Se37  1  0.76826054  0.95364008  0.85499254  1
  Se  Se38  1  0.76292450  0.44131378  0.84722496  1
  Se  Se39  1  0.14520334  0.92398531  0.91379295  1
  Se  Se40  1  0.15304562  0.40783161  0.91459281  1
  Se  Se41  1  0.90836114  0.75661632  0.75919984  1
  Se  Se42  1  0.91419852  0.24299736  0.76782147  1
  Se  Se43  1  0.23025760  0.05605678  0.14511005  1
  Se  Se44  1  0.24027925  0.56226983  0.14872786  1
  Se  Se45  1  0.85417858  0.08552459  0.08565172  1
  Se  Se46  1  0.85124131  0.59101153  0.09148308  1
