# generated using pymatgen
data_KBiPb
_symmetry_space_group_name_H-M   'P 1'
_cell_length_a   6.99734090
_cell_length_b   6.99734090
_cell_length_c   6.99734090
_cell_angle_alpha   92.78582115
_cell_angle_beta   56.27642536
_cell_angle_gamma   119.56534739
_symmetry_Int_Tables_number   1
_chemical_formula_structural   KBiPb
_chemical_formula_sum   'K2 Bi2 Pb2'
_cell_volume   235.52348666
_cell_formula_units_Z   2
loop_
 _symmetry_equiv_pos_site_id
 _symmetry_equiv_pos_as_xyz
  1  'x, y, z'
loop_
 _atom_site_type_symbol
 _atom_site_label
 _atom_site_symmetry_multiplicity
 _atom_site_fract_x
 _atom_site_fract_y
 _atom_site_fract_z
 _atom_site_occupancy
  K  K0  1  -0.00000000  0.00031384  0.99968616  1
  K  K1  1  0.50000000  0.74822741  0.75177259  1
  Bi  Bi2  1  0.26839975  0.90863936  0.35976039  1
  Bi  Bi3  1  0.73160025  0.37183986  0.35976039  1
  Pb  Pb4  1  0.74218093  0.36048976  0.89732930  1
  Pb  Pb5  1  0.25781907  0.36048976  0.38169117  1
