# generated using pymatgen
data_GdAlZnGe2
_symmetry_space_group_name_H-M   'P 1'
_cell_length_a   4.21654090
_cell_length_b   4.21654144
_cell_length_c   6.86570066
_cell_angle_alpha   89.98031883
_cell_angle_beta   89.98031883
_cell_angle_gamma   59.99197579
_symmetry_Int_Tables_number   1
_chemical_formula_structural   GdAlZnGe2
_chemical_formula_sum   'Gd1 Al1 Zn1 Ge2'
_cell_volume   105.70439147
_cell_formula_units_Z   1
loop_
 _symmetry_equiv_pos_site_id
 _symmetry_equiv_pos_as_xyz
  1  'x, y, z'
loop_
 _atom_site_type_symbol
 _atom_site_label
 _atom_site_symmetry_multiplicity
 _atom_site_fract_x
 _atom_site_fract_y
 _atom_site_fract_z
 _atom_site_occupancy
  Gd  Gd0  1  0.99993469  0.99993469  0.98972123  1
  Al  Al1  1  0.33313270  0.33313270  0.37113572  1
  Zn  Zn2  1  0.66686254  0.66686254  0.64553251  1
  Ge  Ge3  1  0.66651515  0.66651515  0.24846112  1
  Ge  Ge4  1  0.33355492  0.33355492  0.74514942  1
