# generated using pymatgen
data_K3W2(O2F3)2
_symmetry_space_group_name_H-M   'P 1'
_cell_length_a   8.42483019
_cell_length_b   8.42483019
_cell_length_c   8.64943281
_cell_angle_alpha   108.54946854
_cell_angle_beta   108.54946854
_cell_angle_gamma   90.83620007
_symmetry_Int_Tables_number   1
_chemical_formula_structural   K3W2(O2F3)2
_chemical_formula_sum   'K6 W4 O8 F12'
_cell_volume   547.18890388
_cell_formula_units_Z   2
loop_
 _symmetry_equiv_pos_site_id
 _symmetry_equiv_pos_as_xyz
  1  'x, y, z'
loop_
 _atom_site_type_symbol
 _atom_site_label
 _atom_site_symmetry_multiplicity
 _atom_site_fract_x
 _atom_site_fract_y
 _atom_site_fract_z
 _atom_site_occupancy
  K  K0  1  0.95242515  0.74173330  0.00093415  1
  K  K1  1  0.25826670  0.04757485  0.49906585  1
  K  K2  1  0.04757485  0.25826670  0.99906585  1
  K  K3  1  0.74173330  0.95242515  0.50093415  1
  K  K4  1  0.50000000  0.50000000  0.00000000  1
  K  K5  1  0.50000000  0.50000000  0.50000000  1
  W  W6  1  0.02227396  0.43066393  0.63316865  1
  W  W7  1  0.56933607  0.97772604  0.86683135  1
  W  W8  1  0.97772604  0.56933607  0.36683135  1
  W  W9  1  0.43066393  0.02227396  0.13316865  1
  O  O10  1  0.93539630  0.34315500  0.37722002  1
  O  O11  1  0.65684500  0.06460370  0.12277998  1
  O  O12  1  0.06460370  0.65684500  0.62277998  1
  O  O13  1  0.34315500  0.93539630  0.87722002  1
  O  O14  1  0.83349610  0.45396862  0.68224046  1
  O  O15  1  0.54603138  0.16650390  0.81775954  1
  O  O16  1  0.16650390  0.54603138  0.31775954  1
  O  O17  1  0.45396862  0.83349610  0.18224046  1
  F  F18  1  0.15771799  0.50234267  0.88986452  1
  F  F19  1  0.49765733  0.84228201  0.61013548  1
  F  F20  1  0.84228201  0.49765733  0.11013548  1
  F  F21  1  0.50234267  0.15771799  0.38986452  1
  F  F22  1  0.02660416  0.19389174  0.64615081  1
  F  F23  1  0.80610826  0.97339584  0.85384919  1
  F  F24  1  0.97339584  0.80610826  0.35384919  1
  F  F25  1  0.19389174  0.02660416  0.14615081  1
  F  F26  1  0.73910230  0.61304308  0.37451981  1
  F  F27  1  0.38695692  0.26089770  0.12548019  1
  F  F28  1  0.26089770  0.38695692  0.62548019  1
  F  F29  1  0.61304308  0.73910230  0.87451981  1
