# generated using pymatgen
data_La4SmMn5O15
_symmetry_space_group_name_H-M   'P 1'
_cell_length_a   3.93228666
_cell_length_b   5.56487984
_cell_length_c   14.19784636
_cell_angle_alpha   78.55237104
_cell_angle_beta   89.99814380
_cell_angle_gamma   89.99975571
_symmetry_Int_Tables_number   1
_chemical_formula_structural   La4SmMn5O15
_chemical_formula_sum   'La4 Sm1 Mn5 O15'
_cell_volume   304.50660357
_cell_formula_units_Z   1
loop_
 _symmetry_equiv_pos_site_id
 _symmetry_equiv_pos_as_xyz
  1  'x, y, z'
loop_
 _atom_site_type_symbol
 _atom_site_label
 _atom_site_symmetry_multiplicity
 _atom_site_fract_x
 _atom_site_fract_y
 _atom_site_fract_z
 _atom_site_occupancy
  La  La0  1  0.49999946  0.90021348  0.19970218  1
  La  La1  1  0.49999892  0.30015799  0.39954838  1
  La  La2  1  0.50000108  0.69984201  0.60045162  1
  La  La3  1  0.50000054  0.09978652  0.80029782  1
  Sm  Sm4  1  0.50000000  0.50000000  -0.00000000  1
  Mn  Mn5  1  0.00000029  0.20015826  0.59964847  1
  Mn  Mn6  1  0.00000231  0.59918041  0.80161233  1
  Mn  Mn7  1  -0.00000000  -0.00000000  -0.00000000  1
  Mn  Mn8  1  -0.00000231  0.40081959  0.19838767  1
  Mn  Mn9  1  -0.00000029  0.79984174  0.40035153  1
  O  O10  1  -0.00000000  0.50000000  0.50000000  1
  O  O11  1  0.00002156  0.90070823  0.70019889  1
  O  O12  1  0.99998341  0.30051028  0.90256691  1
  O  O13  1  0.00001659  0.69948972  0.09743309  1
  O  O14  1  0.99997844  0.09929177  0.29980111  1
  O  O15  1  -0.00000000  -0.00000000  0.50000000  1
  O  O16  1  0.99998553  0.39870215  0.69997802  1
  O  O17  1  0.00000797  0.79744919  0.90288557  1
  O  O18  1  0.99999203  0.20255081  0.09711443  1
  O  O19  1  0.00001447  0.60129785  0.30002198  1
  O  O20  1  0.49999990  0.79930621  0.40124430  1
  O  O21  1  0.50000010  0.20069379  0.59875570  1
  O  O22  1  0.50000108  0.59818133  0.80356988  1
  O  O23  1  0.50000000  -0.00000000  -0.00000000  1
  O  O24  1  0.49999892  0.40181867  0.19643012  1
