# generated using pymatgen
data_Li12Cu11As12
_symmetry_space_group_name_H-M   'P 1'
_cell_length_a   4.12339275
_cell_length_b   4.12339248
_cell_length_c   35.99792482
_cell_angle_alpha   89.99734107
_cell_angle_beta   89.99732685
_cell_angle_gamma   59.99101441
_symmetry_Int_Tables_number   1
_chemical_formula_structural   Li12Cu11As12
_chemical_formula_sum   'Li12 Cu11 As12'
_cell_volume   530.00277466
_cell_formula_units_Z   1
loop_
 _symmetry_equiv_pos_site_id
 _symmetry_equiv_pos_as_xyz
  1  'x, y, z'
loop_
 _atom_site_type_symbol
 _atom_site_label
 _atom_site_symmetry_multiplicity
 _atom_site_fract_x
 _atom_site_fract_y
 _atom_site_fract_z
 _atom_site_occupancy
  Li  Li0  1  0.99987754  0.99987644  0.13119985  1
  Li  Li1  1  0.99997387  0.99997381  0.38353654  1
  Li  Li2  1  -0.00000303  -0.00000354  0.63559341  1
  Li  Li3  1  0.99990630  0.99990664  0.88568891  1
  Li  Li4  1  0.00000956  0.00000901  0.04554381  1
  Li  Li5  1  0.00021574  0.00021539  0.29753496  1
  Li  Li6  1  0.00009947  0.00009878  0.55147016  1
  Li  Li7  1  0.00002049  0.00001998  0.80065052  1
  Li  Li8  1  0.00007208  0.00007136  0.21279592  1
  Li  Li9  1  0.99988283  0.99988258  0.46654102  1
  Li  Li10  1  0.99996576  0.99996509  0.71702933  1
  Li  Li11  1  0.00011368  0.00011308  0.97001227  1
  Cu  Cu12  1  0.66656275  0.66656124  0.09736376  1
  Cu  Cu13  1  0.66669379  0.66669035  0.35067172  1
  Cu  Cu14  1  0.66666005  0.66665994  0.60375628  1
  Cu  Cu15  1  0.66656813  0.66657305  0.85402136  1
  Cu  Cu16  1  0.33339973  0.33340081  0.17491388  1
  Cu  Cu17  1  0.33327750  0.33328626  0.42724379  1
  Cu  Cu18  1  0.33347375  0.33347198  0.67733745  1
  Cu  Cu19  1  0.33346170  0.33346056  0.93604716  1
  Cu  Cu20  1  0.66676932  0.66676889  0.24518936  1
  Cu  Cu21  1  0.66655896  0.66655631  0.49911493  1
  Cu  Cu22  1  0.66662737  0.66663186  0.74887311  1
  As  As23  1  0.33345915  0.33345827  0.26154469  1
  As  As24  1  0.33329484  0.33329310  0.51519623  1
  As  As25  1  0.33331615  0.33331592  0.76500544  1
  As  As26  1  0.33327804  0.33327704  0.00943045  1
  As  As27  1  0.66658900  0.66658910  0.17018055  1
  As  As28  1  0.66648371  0.66648698  0.42439533  1
  As  As29  1  0.66662334  0.66662295  0.67590556  1
  As  As30  1  0.66665709  0.66665765  0.92350830  1
  As  As31  1  0.33329200  0.33329161  0.07837039  1
  As  As32  1  0.33344082  0.33343924  0.33410071  1
  As  As33  1  0.33338073  0.33337971  0.58712644  1
  As  As34  1  0.33329782  0.33329857  0.83635642  1
