# generated using pymatgen
data_HoP2(HO2)5
_symmetry_space_group_name_H-M   'P 1'
_cell_length_a   6.42287735
_cell_length_b   6.91194838
_cell_length_c   10.28833277
_cell_angle_alpha   80.55871599
_cell_angle_beta   80.20682518
_cell_angle_gamma   89.16754260
_symmetry_Int_Tables_number   1
_chemical_formula_structural   HoP2(HO2)5
_chemical_formula_sum   'Ho2 P4 H10 O20'
_cell_volume   443.95190739
_cell_formula_units_Z   2
loop_
 _symmetry_equiv_pos_site_id
 _symmetry_equiv_pos_as_xyz
  1  'x, y, z'
loop_
 _atom_site_type_symbol
 _atom_site_label
 _atom_site_symmetry_multiplicity
 _atom_site_fract_x
 _atom_site_fract_y
 _atom_site_fract_z
 _atom_site_occupancy
  Ho  Ho0  1  0.37028331  0.25665867  0.46269277  1
  Ho  Ho1  1  0.62971669  0.74334133  0.53730723  1
  P  P2  1  0.04923045  0.13248370  0.78729376  1
  P  P3  1  0.95076955  0.86751630  0.21270624  1
  P  P4  1  0.80096863  0.23322841  0.56957460  1
  P  P5  1  0.19903137  0.76677159  0.43042540  1
  H  H6  1  0.76359213  0.45205025  0.29179997  1
  H  H7  1  0.23640787  0.54794975  0.70820003  1
  H  H8  1  0.16335872  0.22284752  0.21587903  1
  H  H9  1  0.83664128  0.77715248  0.78412097  1
  H  H10  1  0.00016148  0.18365042  0.99956196  1
  H  H11  1  0.99983852  0.81634958  0.00043804  1
  H  H12  1  0.32766132  0.40188150  0.17770261  1
  H  H13  1  0.67233868  0.59811850  0.82229739  1
  H  H14  1  0.77161542  0.24595865  0.24310403  1
  H  H15  1  0.22838458  0.75404135  0.75689597  1
  O  O16  1  0.28366347  0.28517863  0.24273433  1
  O  O17  1  0.71633653  0.71482137  0.75726567  1
  O  O18  1  0.65936113  0.41436281  0.55757494  1
  O  O19  1  0.34063887  0.58563719  0.44242506  1
  O  O20  1  0.01256657  0.25414416  0.47907378  1
  O  O21  1  0.98743343  0.74585584  0.52092622  1
  O  O22  1  0.02394942  0.25599629  0.90445042  1
  O  O23  1  0.97605058  0.74400371  0.09554958  1
  O  O24  1  0.67650490  0.34034255  0.28596663  1
  O  O25  1  0.32349510  0.65965745  0.71403337  1
  O  O26  1  0.24061564  0.20843660  0.68546970  1
  O  O27  1  0.75938436  0.79156340  0.31453030  1
  O  O28  1  0.65977489  0.06547364  0.54960129  1
  O  O29  1  0.34022511  0.93452636  0.45039871  1
  O  O30  1  0.83728865  0.19103404  0.72397605  1
  O  O31  1  0.16271135  0.80896596  0.27602395  1
  O  O32  1  0.03791788  0.91185004  0.83894385  1
  O  O33  1  0.96208212  0.08814996  0.16105615  1
  O  O34  1  0.52246642  0.91284752  0.01286921  1
  O  O35  1  0.47753358  0.08715248  0.98713079  1
