# generated using pymatgen
data_La5Se6N
_symmetry_space_group_name_H-M   'P 1'
_cell_length_a   7.92429582
_cell_length_b   12.79745411
_cell_length_c   26.83024431
_cell_angle_alpha   76.20260330
_cell_angle_beta   90.66213286
_cell_angle_gamma   90.00000000
_symmetry_Int_Tables_number   1
_chemical_formula_structural   La5Se6N
_chemical_formula_sum   'La40 Se48 N8'
_cell_volume   2642.17919819
_cell_formula_units_Z   8
loop_
 _symmetry_equiv_pos_site_id
 _symmetry_equiv_pos_as_xyz
  1  'x, y, z'
loop_
 _atom_site_type_symbol
 _atom_site_label
 _atom_site_symmetry_multiplicity
 _atom_site_fract_x
 _atom_site_fract_y
 _atom_site_fract_z
 _atom_site_occupancy
  La  La0  1  0.68589786  0.75231603  0.89130855  1
  La  La1  1  0.82450333  0.63622041  0.10968590  1
  La  La2  1  0.32450333  0.25409369  0.10968590  1
  La  La3  1  0.18589786  0.35637542  0.89130855  1
  La  La4  1  0.78422270  0.85470218  0.44855988  1
  La  La5  1  0.71594771  0.30281355  0.55209160  1
  La  La6  1  0.21594771  0.14509485  0.55209160  1
  La  La7  1  0.28422270  0.69673794  0.44855988  1
  La  La8  1  0.62863251  0.95986599  0.58933848  1
  La  La9  1  0.87171848  0.54885766  0.41163953  1
  La  La10  1  0.37171848  0.03950280  0.41163953  1
  La  La11  1  0.12863251  0.45079553  0.58933848  1
  La  La12  1  0.65516791  0.98252918  0.15007457  1
  La  La13  1  0.84137113  0.12896204  0.85259302  1
  La  La14  1  0.34137113  0.01844494  0.85259302  1
  La  La15  1  0.15516791  0.86739625  0.15007457  1
  La  La16  1  0.53026017  0.72197873  0.71032589  1
  La  La17  1  0.97023524  0.43145976  0.29025143  1
  La  La18  1  0.47023524  0.27828881  0.29025143  1
  La  La19  1  0.03026017  0.56769538  0.71032589  1
  La  La20  1  0.83020395  0.15609249  0.41090391  1
  La  La21  1  0.66940113  0.56623451  0.58982465  1
  La  La22  1  0.16940113  0.84394085  0.58982465  1
  La  La23  1  0.33020395  0.43300360  0.41090391  1
  La  La24  1  0.63541167  0.98773746  0.31164327  1
  La  La25  1  0.86558517  0.29851562  0.68933188  1
  La  La26  1  0.36558517  0.01215250  0.68933188  1
  La  La27  1  0.13541167  0.70061927  0.31164327  1
  La  La28  1  0.82218565  0.28853815  0.16526820  1
  La  La29  1  0.67767267  0.45160438  0.83475787  1
  La  La30  1  0.17767267  0.71363774  0.83475787  1
  La  La31  1  0.32218565  0.54619364  0.16526820  1
  La  La32  1  0.82789920  0.94105471  0.73153845  1
  La  La33  1  0.67426714  0.67112534  0.26922029  1
  La  La34  1  0.17426714  0.05965436  0.26922029  1
  La  La35  1  0.32789920  0.32740684  0.73153845  1
  La  La36  1  0.74651635  0.43232421  0.99891356  1
  La  La37  1  0.24651635  0.56876223  0.99891356  1
  La  La38  1  0.99197875  0.12541144  0.02134480  1
  La  La39  1  0.49197875  0.85324376  0.02134480  1
  Se  Se40  1  0.89657191  0.11305521  0.62429947  1
  Se  Se41  1  0.60367297  0.73763312  0.37508114  1
  Se  Se42  1  0.10367297  0.88728574  0.37508114  1
  Se  Se43  1  0.39657191  0.26264532  0.62429947  1
  Se  Se44  1  0.82449265  0.74165901  0.62849562  1
  Se  Se45  1  0.67570239  0.37070824  0.37087391  1
  Se  Se46  1  0.17570239  0.25841785  0.37087391  1
  Se  Se47  1  0.32449265  0.62984537  0.62849562  1
  Se  Se48  1  0.97117402  0.90040768  0.84510349  1
  Se  Se49  1  0.53188899  0.74884178  0.15088160  1
  Se  Se50  1  0.03188899  0.10027662  0.15088160  1
  Se  Se51  1  0.47117402  0.25448883  0.84510349  1
  Se  Se52  1  0.53022911  0.16448523  0.48847028  1
  Se  Se53  1  0.96925533  0.65318004  0.51053658  1
  Se  Se54  1  0.46925533  0.83628338  0.51053658  1
  Se  Se55  1  0.03022911  0.34704449  0.48847028  1
  Se  Se56  1  0.97945541  0.55607137  0.91443711  1
  Se  Se57  1  0.52004350  0.46662856  0.08721880  1
  Se  Se58  1  0.02004350  0.44615264  0.08721880  1
  Se  Se59  1  0.47945541  0.52949151  0.91443711  1
  Se  Se60  1  0.73859183  0.67934451  0.00212232  1
  Se  Se61  1  0.23859183  0.31853317  0.00212232  1
  Se  Se62  1  0.64229272  0.97325257  0.92582917  1
  Se  Se63  1  0.85062776  0.90234590  0.07271275  1
  Se  Se64  1  0.35062776  0.02494134  0.07271275  1
  Se  Se65  1  0.14229272  0.10091826  0.92582917  1
  Se  Se66  1  0.69193957  0.21305673  0.07094195  1
  Se  Se67  1  0.81628663  0.28260454  0.93129176  1
  Se  Se68  1  0.31628663  0.78610369  0.93129176  1
  Se  Se69  1  0.19193957  0.71600132  0.07094195  1
  Se  Se70  1  0.82035305  0.67615197  0.78750150  1
  Se  Se71  1  0.67974542  0.46510931  0.21260181  1
  Se  Se72  1  0.17974542  0.32228888  0.21260181  1
  Se  Se73  1  0.32035305  0.53634653  0.78750150  1
  Se  Se74  1  0.88221806  0.88040603  0.24340720  1
  Se  Se75  1  0.61848538  0.12344970  0.75576382  1
  Se  Se76  1  0.11848538  0.12078648  0.75576382  1
  Se  Se77  1  0.38221806  0.87618677  0.24340720  1
  Se  Se78  1  0.00046006  0.00001877  0.49960134  1
  Se  Se79  1  0.50046006  0.50037989  0.49960134  1
  Se  Se80  1  0.84236036  0.18899061  0.28991782  1
  Se  Se81  1  0.65763896  0.47915421  0.70960455  1
  Se  Se82  1  0.15763896  0.81124124  0.70960455  1
  Se  Se83  1  0.34236036  0.52109157  0.28991782  1
  Se  Se84  1  0.52266611  0.14880148  0.20224802  1
  Se  Se85  1  0.97766407  0.35030897  0.79858017  1
  Se  Se86  1  0.47766407  0.85111087  0.79858017  1
  Se  Se87  1  0.02266611  0.64895050  0.20224802  1
  N  N88  1  0.66918770  0.01065356  0.39981373  1
  N  N89  1  0.83031401  0.41054966  0.59983936  1
  N  N90  1  0.33031401  0.98961098  0.59983936  1
  N  N91  1  0.16918770  0.58953271  0.39981373  1
  N  N92  1  0.60445410  0.90868095  0.67934695  1
  N  N93  1  0.89484922  0.58864958  0.32036201  1
  N  N94  1  0.39484922  0.09098841  0.32036201  1
  N  N95  1  0.10445410  0.41197210  0.67934695  1
