# generated using pymatgen
data_La(ErSe2)2
_symmetry_space_group_name_H-M   'P 1'
_cell_length_a   7.60664489
_cell_length_b   7.60664489
_cell_length_c   7.60664489
_cell_angle_alpha   70.74383238
_cell_angle_beta   70.09781187
_cell_angle_gamma   109.25616762
_symmetry_Int_Tables_number   1
_chemical_formula_structural   La(ErSe2)2
_chemical_formula_sum   'La2 Er4 Se8'
_cell_volume   338.79663687
_cell_formula_units_Z   2
loop_
 _symmetry_equiv_pos_site_id
 _symmetry_equiv_pos_as_xyz
  1  'x, y, z'
loop_
 _atom_site_type_symbol
 _atom_site_label
 _atom_site_symmetry_multiplicity
 _atom_site_fract_x
 _atom_site_fract_y
 _atom_site_fract_z
 _atom_site_occupancy
  La  La0  1  0.37500000  0.25000000  0.37500000  1
  La  La1  1  0.12500000  0.75000000  0.12500000  1
  Er  Er2  1  0.86867683  0.61867683  0.75000000  1
  Er  Er3  1  0.63132317  0.88132317  0.25000000  1
  Er  Er4  1  0.75000000  0.11867683  0.63132317  1
  Er  Er5  1  0.25000000  0.38132317  0.86867683  1
  Se  Se6  1  0.85686374  0.34770822  0.14062995  1
  Se  Se7  1  0.51166183  0.15229178  0.99084448  1
  Se  Se8  1  0.64313626  0.50250631  0.50915552  1
  Se  Se9  1  0.98833817  0.99749369  0.35937005  1
  Se  Se10  1  0.50915552  0.65229178  0.98833817  1
  Se  Se11  1  0.35937005  0.84770822  0.64313626  1
  Se  Se12  1  0.14062995  0.49749369  0.51166183  1
  Se  Se13  1  0.99084448  0.00250631  0.85686374  1
