# generated using pymatgen
data_K2Na3Al15H30(SO7)10
_symmetry_space_group_name_H-M   'P 1'
_cell_length_a   7.03444424
_cell_length_b   7.03444451
_cell_length_c   29.70597824
_cell_angle_alpha   96.79983781
_cell_angle_beta   90.00000005
_cell_angle_gamma   120.00000075
_symmetry_Int_Tables_number   1
_chemical_formula_structural   K2Na3Al15H30(SO7)10
_chemical_formula_sum   'K2 Na3 Al15 H30 S10 O70'
_cell_volume   1261.06306262
_cell_formula_units_Z   1
loop_
 _symmetry_equiv_pos_site_id
 _symmetry_equiv_pos_as_xyz
  1  'x, y, z'
loop_
 _atom_site_type_symbol
 _atom_site_label
 _atom_site_symmetry_multiplicity
 _atom_site_fract_x
 _atom_site_fract_y
 _atom_site_fract_z
 _atom_site_occupancy
  K  K0  1  0.19997267  0.39994535  0.59991802  1
  K  K1  1  0.60002733  0.20005465  0.80008198  1
  Na  Na2  1  0.00002334  0.00004668  0.00007002  1
  Na  Na3  1  0.40000000  0.80000000  0.20000000  1
  Na  Na4  1  0.79997666  0.59995332  0.39992998  1
  Al  Al5  1  0.59999918  0.69999425  0.29999343  1
  Al  Al6  1  0.99968082  0.49986255  0.49954338  1
  Al  Al7  1  0.40000000  0.30000000  0.70000000  1
  Al  Al8  1  0.80031918  0.10013745  0.90045662  1
  Al  Al9  1  0.20000082  0.90000575  0.10000657  1
  Al  Al10  1  0.70000494  0.90000575  0.10000657  1
  Al  Al11  1  0.09999506  0.69999425  0.29999343  1
  Al  Al12  1  0.50018173  0.49986255  0.49954338  1
  Al  Al13  1  0.90000000  0.30000000  0.70000000  1
  Al  Al14  1  0.29981827  0.10013745  0.90045662  1
  Al  Al15  1  0.59999918  0.19999837  0.29999343  1
  Al  Al16  1  0.99968082  0.99936165  0.49954338  1
  Al  Al17  1  0.40000000  0.80000000  0.70000000  1
  Al  Al18  1  0.80031918  0.60063835  0.90045662  1
  Al  Al19  1  0.20000082  0.40000163  0.10000657  1
  H  H20  1  0.38699058  0.36036817  0.33374576  1
  H  H21  1  0.78701221  0.16021437  0.53341652  1
  H  H22  1  0.18672598  0.96007844  0.73343090  1
  H  H23  1  0.58667954  0.76021869  0.93375784  1
  H  H24  1  0.98696805  0.56036000  0.13375194  1
  H  H25  1  0.97337759  0.94675518  0.33374576  1
  H  H26  1  0.37320216  0.74640431  0.53341652  1
  H  H27  1  0.77335246  0.54670492  0.73343090  1
  H  H28  1  0.17353915  0.34707830  0.93375784  1
  H  H29  1  0.57339194  0.14678388  0.13375194  1
  H  H30  1  0.97337759  0.36036817  0.33374576  1
  H  H31  1  0.37320216  0.16021437  0.53341652  1
  H  H32  1  0.77335246  0.96007844  0.73343090  1
  H  H33  1  0.17353915  0.76021869  0.93375784  1
  H  H34  1  0.57339194  0.56036000  0.13375194  1
  H  H35  1  0.81303195  0.03964000  0.26624806  1
  H  H36  1  0.21332046  0.83978131  0.46624216  1
  H  H37  1  0.61327402  0.63992156  0.66656910  1
  H  H38  1  0.01298779  0.43978563  0.86658348  1
  H  H39  1  0.41300942  0.23963183  0.06625424  1
  H  H40  1  0.22660806  0.45321612  0.26624806  1
  H  H41  1  0.62646085  0.25292170  0.46624216  1
  H  H42  1  0.02664754  0.05329508  0.66656910  1
  H  H43  1  0.42679784  0.85359569  0.86658348  1
  H  H44  1  0.82662241  0.65324482  0.06625424  1
  H  H45  1  0.22660806  0.03964000  0.26624806  1
  H  H46  1  0.62646085  0.83978131  0.46624216  1
  H  H47  1  0.02664754  0.63992156  0.66656910  1
  H  H48  1  0.42679784  0.43978563  0.86658348  1
  H  H49  1  0.82662241  0.23963183  0.06625424  1
  S  S50  1  0.13967977  0.27935954  0.41903931  1
  S  S51  1  0.53980159  0.07960318  0.61940477  1
  S  S52  1  0.93986886  0.87973773  0.81960659  1
  S  S53  1  0.33976349  0.67952699  0.01929048  1
  S  S54  1  0.73975037  0.47950073  0.21925110  1
  S  S55  1  0.06024963  0.12049927  0.18074890  1
  S  S56  1  0.46023651  0.92047301  0.38070952  1
  S  S57  1  0.86013114  0.72026227  0.58039341  1
  S  S58  1  0.26019841  0.52039682  0.78059523  1
  S  S59  1  0.66032023  0.32064046  0.98096069  1
  O  O60  1  0.51912004  0.41786133  0.31660261  1
  O  O61  1  0.91724191  0.21646319  0.51568447  1
  O  O62  1  0.31764765  0.01678015  0.71591265  1
  O  O63  1  0.71955564  0.81819632  0.91683699  1
  O  O64  1  0.11915128  0.61787723  0.11660318  1
  O  O65  1  0.89874129  0.79748257  0.31660261  1
  O  O66  1  0.29922128  0.59844256  0.51568447  1
  O  O67  1  0.69913250  0.39826500  0.71591265  1
  O  O68  1  0.09864067  0.19728135  0.91683699  1
  O  O69  1  0.49872595  0.99745190  0.11660318  1
  O  O70  1  0.89874129  0.41786133  0.31660261  1
  O  O71  1  0.29922128  0.21646319  0.51568447  1
  O  O72  1  0.69913250  0.01678015  0.71591265  1
  O  O73  1  0.09864067  0.81819632  0.91683699  1
  O  O74  1  0.49872595  0.61787723  0.11660318  1
  O  O75  1  0.68084872  0.98212277  0.28339682  1
  O  O76  1  0.08044436  0.78180368  0.48316301  1
  O  O77  1  0.48235235  0.58321985  0.68408735  1
  O  O78  1  0.88275809  0.38353681  0.88431553  1
  O  O79  1  0.28087996  0.18213867  0.08339739  1
  O  O80  1  0.30127405  0.60254810  0.28339682  1
  O  O81  1  0.70135933  0.40271865  0.48316301  1
  O  O82  1  0.10086750  0.20173500  0.68408735  1
  O  O83  1  0.50077872  0.00155744  0.88431553  1
  O  O84  1  0.90125871  0.80251743  0.08339739  1
  O  O85  1  0.30127405  0.98212277  0.28339682  1
  O  O86  1  0.70135933  0.78180368  0.48316301  1
  O  O87  1  0.10086750  0.58321985  0.68408735  1
  O  O88  1  0.50077872  0.38353681  0.88431553  1
  O  O89  1  0.90125871  0.18213867  0.08339739  1
  O  O90  1  0.82347333  0.99340671  0.16334009  1
  O  O91  1  0.22351180  0.79342163  0.36333147  1
  O  O92  1  0.62378371  0.59334707  0.56291043  1
  O  O93  1  0.02384926  0.39350562  0.76316199  1
  O  O94  1  0.42353840  0.19356379  0.96358918  1
  O  O95  1  0.16993338  0.33986675  0.16334009  1
  O  O96  1  0.56990984  0.13981967  0.36333147  1
  O  O97  1  0.96956336  0.93912672  0.56291043  1
  O  O98  1  0.36965636  0.73931272  0.76316199  1
  O  O99  1  0.77002539  0.54005079  0.96358918  1
  O  O100  1  0.16993338  0.99340671  0.16334009  1
  O  O101  1  0.56990984  0.79342163  0.36333147  1
  O  O102  1  0.96956336  0.59334707  0.56291043  1
  O  O103  1  0.36965636  0.39350562  0.76316199  1
  O  O104  1  0.77002539  0.19356379  0.96358918  1
  O  O105  1  0.37646160  0.40643621  0.43641082  1
  O  O106  1  0.77615074  0.20649438  0.63683801  1
  O  O107  1  0.17621629  0.00665293  0.83708957  1
  O  O108  1  0.57648820  0.80657837  0.03666853  1
  O  O109  1  0.97652667  0.60659329  0.23665991  1
  O  O110  1  0.02997461  0.05994921  0.43641082  1
  O  O111  1  0.43034364  0.86068728  0.63683801  1
  O  O112  1  0.83043664  0.66087328  0.83708957  1
  O  O113  1  0.23009016  0.46018033  0.03666853  1
  O  O114  1  0.63006662  0.26013325  0.23665991  1
  O  O115  1  0.02997461  0.40643621  0.43641082  1
  O  O116  1  0.43034364  0.20649438  0.63683801  1
  O  O117  1  0.83043664  0.00665293  0.83708957  1
  O  O118  1  0.23009016  0.80657837  0.03666853  1
  O  O119  1  0.63006662  0.60659329  0.23665991  1
  O  O120  1  0.12311178  0.24622356  0.36933533  1
  O  O121  1  0.52322449  0.04644898  0.56967347  1
  O  O122  1  0.92328809  0.84657619  0.76986428  1
  O  O123  1  0.32317068  0.64634135  0.96951203  1
  O  O124  1  0.72317033  0.44634066  0.16951100  1
  O  O125  1  0.07682967  0.15365934  0.23048900  1
  O  O126  1  0.47682932  0.95365865  0.43048797  1
  O  O127  1  0.87671191  0.75342381  0.63013572  1
  O  O128  1  0.27677551  0.55355102  0.83032653  1
  O  O129  1  0.67688822  0.35377644  0.03066467  1
