# generated using pymatgen
data_DyUTe4
_symmetry_space_group_name_H-M   'P 1'
_cell_length_a   4.19989212
_cell_length_b   6.12669592
_cell_length_c   7.97758787
_cell_angle_alpha   67.41868720
_cell_angle_beta   74.73815268
_cell_angle_gamma   90.00000000
_symmetry_Int_Tables_number   1
_chemical_formula_structural   DyUTe4
_chemical_formula_sum   'Dy1 U1 Te4'
_cell_volume   181.67220737
_cell_formula_units_Z   1
loop_
 _symmetry_equiv_pos_site_id
 _symmetry_equiv_pos_as_xyz
  1  'x, y, z'
loop_
 _atom_site_type_symbol
 _atom_site_label
 _atom_site_symmetry_multiplicity
 _atom_site_fract_x
 _atom_site_fract_y
 _atom_site_fract_z
 _atom_site_occupancy
  Dy  Dy0  1  0.86156888  0.86156888  0.27686223  1
  U  U1  1  0.13688194  0.13688194  0.72623613  1
  Te  Te2  1  0.79458071  0.29458071  0.41083858  1
  Te  Te3  1  0.20313250  0.70313250  0.59373500  1
  Te  Te4  1  0.50191799  0.75370547  0.99616403  1
  Te  Te5  1  0.50191799  0.25013051  0.99616403  1
