# generated using pymatgen
data_Er5Ga2As
_symmetry_space_group_name_H-M   'P 1'
_cell_length_a   6.42868756
_cell_length_b   8.44207778
_cell_length_c   8.45181247
_cell_angle_alpha   120.03838470
_cell_angle_beta   89.99731787
_cell_angle_gamma   89.99990117
_symmetry_Int_Tables_number   1
_chemical_formula_structural   Er5Ga2As
_chemical_formula_sum   'Er10 Ga4 As2'
_cell_volume   397.08551137
_cell_formula_units_Z   2
loop_
 _symmetry_equiv_pos_site_id
 _symmetry_equiv_pos_as_xyz
  1  'x, y, z'
loop_
 _atom_site_type_symbol
 _atom_site_label
 _atom_site_symmetry_multiplicity
 _atom_site_fract_x
 _atom_site_fract_y
 _atom_site_fract_z
 _atom_site_occupancy
  Er  Er0  1  0.49601429  0.33407489  0.66841721  1
  Er  Er1  1  0.49600344  0.66589241  0.33428108  1
  Er  Er2  1  0.00399373  0.66593244  0.33432597  1
  Er  Er3  1  0.00399927  0.33410781  0.66839955  1
  Er  Er4  1  0.75000893  0.24080203  0.99649039  1
  Er  Er5  1  0.75002117  0.75918737  0.75567313  1
  Er  Er6  1  0.75001068  0.99999111  0.24381112  1
  Er  Er7  1  0.24999555  0.75979458  0.00048788  1
  Er  Er8  1  0.24998785  0.24021240  0.24070497  1
  Er  Er9  1  0.24999355  -0.00001330  0.75911500  1
  Ga  Ga10  1  0.75000592  0.00002160  0.60122237  1
  Ga  Ga11  1  0.24997626  0.39817145  0.00210325  1
  Ga  Ga12  1  0.25000158  0.60182276  0.60392646  1
  Ga  Ga13  1  0.24999101  0.99999836  0.39888958  1
  As  As14  1  0.74999339  0.60803767  0.00009633  1
  As  As15  1  0.75000336  0.39196641  0.39205573  1
