# generated using pymatgen
data_Er2As7Rh12
_symmetry_space_group_name_H-M   'P 1'
_cell_length_a   3.91424876
_cell_length_b   9.99754450
_cell_length_c   9.99677011
_cell_angle_alpha   120.01479436
_cell_angle_beta   89.99209613
_cell_angle_gamma   90.00529672
_symmetry_Int_Tables_number   1
_chemical_formula_structural   Er2As7Rh12
_chemical_formula_sum   'Er2 As7 Rh12'
_cell_volume   338.74066664
_cell_formula_units_Z   1
loop_
 _symmetry_equiv_pos_site_id
 _symmetry_equiv_pos_as_xyz
  1  'x, y, z'
loop_
 _atom_site_type_symbol
 _atom_site_label
 _atom_site_symmetry_multiplicity
 _atom_site_fract_x
 _atom_site_fract_y
 _atom_site_fract_z
 _atom_site_occupancy
  Er  Er0  1  0.74929868  0.33342819  0.66671280  1
  Er  Er1  1  0.24999770  0.66663623  0.33331671  1
  As  As2  1  0.58939865  0.00000345  0.00000144  1
  As  As3  1  0.75116558  0.88048874  0.59344391  1
  As  As4  1  0.75115175  0.40651213  0.28698356  1
  As  As5  1  0.75116356  0.71296807  0.11947669  1
  As  As6  1  0.24910170  0.11665387  0.40500514  1
  As  As7  1  0.24920349  0.59502264  0.71169305  1
  As  As8  1  0.24916409  0.28829922  0.88331233  1
  Rh  Rh9  1  0.75173928  0.61851746  0.55065872  1
  Rh  Rh10  1  0.75182324  0.44936836  0.06797309  1
  Rh  Rh11  1  0.75175491  0.93206800  0.38140230  1
  Rh  Rh12  1  0.25050648  0.38126712  0.44974214  1
  Rh  Rh13  1  0.25057375  0.55011406  0.93141838  1
  Rh  Rh14  1  0.25047774  0.06846332  0.61868563  1
  Rh  Rh15  1  0.75202947  0.11643867  0.84699848  1
  Rh  Rh16  1  0.75195926  0.15311553  0.26950772  1
  Rh  Rh17  1  0.75211395  0.73060171  0.88362885  1
  Rh  Rh18  1  0.25043411  0.88563849  0.14597849  1
  Rh  Rh19  1  0.25045261  0.85408251  0.73961072  1
  Rh  Rh20  1  0.25049000  0.26031224  0.11444984  1
