# generated using pymatgen
data_Cu9Sb(AsS6)2
_symmetry_space_group_name_H-M   'P 1'
_cell_length_a   5.34580353
_cell_length_b   5.34580353
_cell_length_c   16.46345273
_cell_angle_alpha   99.34353739
_cell_angle_beta   99.34353739
_cell_angle_gamma   90.00000000
_symmetry_Int_Tables_number   1
_chemical_formula_structural   Cu9Sb(AsS6)2
_chemical_formula_sum   'Cu9 Sb1 As2 S12'
_cell_volume   457.91691196
_cell_formula_units_Z   1
loop_
 _symmetry_equiv_pos_site_id
 _symmetry_equiv_pos_as_xyz
  1  'x, y, z'
loop_
 _atom_site_type_symbol
 _atom_site_label
 _atom_site_symmetry_multiplicity
 _atom_site_fract_x
 _atom_site_fract_y
 _atom_site_fract_z
 _atom_site_occupancy
  Cu  Cu0  1  0.58333300  0.08333300  0.16666700  1
  Cu  Cu1  1  0.24780138  0.74780138  0.49560277  1
  Cu  Cu2  1  0.91886562  0.41886562  0.83773023  1
  Cu  Cu3  1  0.08333300  0.58333300  0.16666700  1
  Cu  Cu4  1  0.74780138  0.24780138  0.49560277  1
  Cu  Cu5  1  0.41886562  0.91886562  0.83773023  1
  Cu  Cu6  1  0.50066707  0.50066707  0.00133413  1
  Cu  Cu7  1  0.16599993  0.16599993  0.33199887  1
  Cu  Cu8  1  0.83333300  0.83333300  0.66666700  1
  Sb  Sb9  1  0.33333300  0.33333300  0.66666700  1
  As  As10  1  0.00063809  0.00063809  0.00127617  1
  As  As11  1  0.66602891  0.66602891  0.33205683  1
  S  S12  1  0.79381165  0.79381165  0.08507957  1
  S  S13  1  0.45666264  0.45666264  0.41526446  1
  S  S14  1  0.11570926  0.11570926  0.75694186  1
  S  S15  1  0.29126792  0.29126792  0.08507957  1
  S  S16  1  0.95860282  0.95860282  0.41526446  1
  S  S17  1  0.64123160  0.64123160  0.75694186  1
  S  S18  1  0.87285535  0.37539908  0.24825343  1
  S  S19  1  0.55095674  0.02543440  0.57639214  1
  S  S20  1  0.21000436  0.70806418  0.91806854  1
  S  S21  1  0.37539908  0.87285535  0.24825343  1
  S  S22  1  0.02543440  0.55095674  0.57639214  1
  S  S23  1  0.70806418  0.21000436  0.91806854  1
