# generated using pymatgen
data_Cs3V2O2F7
_symmetry_space_group_name_H-M   'P 1'
_cell_length_a   6.44820738
_cell_length_b   6.44822413
_cell_length_c   15.24242572
_cell_angle_alpha   89.50096133
_cell_angle_beta   90.49774524
_cell_angle_gamma   60.11780495
_symmetry_Int_Tables_number   1
_chemical_formula_structural   Cs3V2O2F7
_chemical_formula_sum   'Cs6 V4 O4 F14'
_cell_volume   549.43037118
_cell_formula_units_Z   2
loop_
 _symmetry_equiv_pos_site_id
 _symmetry_equiv_pos_as_xyz
  1  'x, y, z'
loop_
 _atom_site_type_symbol
 _atom_site_label
 _atom_site_symmetry_multiplicity
 _atom_site_fract_x
 _atom_site_fract_y
 _atom_site_fract_z
 _atom_site_occupancy
  Cs  Cs0  1  0.33200517  0.33197381  0.24999547  1
  Cs  Cs1  1  0.66799483  0.66802619  0.75000453  1
  Cs  Cs2  1  0.33522608  0.33243892  0.56709857  1
  Cs  Cs3  1  0.66477392  0.66756108  0.43290143  1
  Cs  Cs4  1  0.66752091  0.66481302  0.06709168  1
  Cs  Cs5  1  0.33247909  0.33518698  0.93290832  1
  V  V6  1  0.96983512  0.01794288  0.34965330  1
  V  V7  1  0.03016488  0.98205712  0.65034670  1
  V  V8  1  0.98206902  0.03013983  0.84962604  1
  V  V9  1  0.01793098  0.96986017  0.15037396  1
  O  O10  1  0.14295706  0.71541636  0.09659466  1
  O  O11  1  0.85704294  0.28458364  0.90340534  1
  O  O12  1  0.28457299  0.85705442  0.59658785  1
  O  O13  1  0.71542701  0.14294558  0.40341215  1
  F  F14  1  0.12794657  0.73782398  0.74777820  1
  F  F15  1  0.73780072  0.12796153  0.75221040  1
  F  F16  1  0.13280831  0.13283794  0.74999774  1
  F  F17  1  0.87205343  0.26217602  0.25222180  1
  F  F18  1  0.26219928  0.87203847  0.24778960  1
  F  F19  1  0.86719169  0.86716206  0.25000226  1
  F  F20  1  0.70751592  0.15327861  0.09671473  1
  F  F21  1  0.14083729  0.15331369  0.09554247  1
  F  F22  1  0.29248408  0.84672139  0.90328527  1
  F  F23  1  0.85916271  0.84668631  0.90445753  1
  F  F24  1  0.84672340  0.29248927  0.59671354  1
  F  F25  1  0.84667906  0.85916942  0.59553873  1
  F  F26  1  0.15327660  0.70751073  0.40328646  1
  F  F27  1  0.15332094  0.14083058  0.40446127  1
