# generated using pymatgen
data_Cs2W(OF2)2
_symmetry_space_group_name_H-M   'P 1'
_cell_length_a   5.15238936
_cell_length_b   6.40038301
_cell_length_c   6.44043707
_cell_angle_alpha   120.20722210
_cell_angle_beta   90.00000036
_cell_angle_gamma   91.72316662
_symmetry_Int_Tables_number   1
_chemical_formula_structural   Cs2W(OF2)2
_chemical_formula_sum   'Cs2 W1 O2 F4'
_cell_volume   183.43698555
_cell_formula_units_Z   1
loop_
 _symmetry_equiv_pos_site_id
 _symmetry_equiv_pos_as_xyz
  1  'x, y, z'
loop_
 _atom_site_type_symbol
 _atom_site_label
 _atom_site_symmetry_multiplicity
 _atom_site_fract_x
 _atom_site_fract_y
 _atom_site_fract_z
 _atom_site_occupancy
  Cs  Cs0  1  0.68905367  0.66040488  0.33020244  1
  Cs  Cs1  1  0.31094633  0.33959512  0.66979756  1
  W  W2  1  -0.00000000  0.00000000  0.00000000  1
  O  O3  1  0.20558349  0.27870136  0.13935068  1
  O  O4  1  0.79441651  0.72129864  0.86064932  1
  F  F5  1  0.21431216  0.85800811  0.14893387  1
  F  F6  1  0.21431216  0.85800811  0.70907424  1
  F  F7  1  0.78568784  0.14199189  0.85106613  1
  F  F8  1  0.78568784  0.14199189  0.29092576  1
