# generated using pymatgen
data_CsNbWO6
_symmetry_space_group_name_H-M   'P 1'
_cell_length_a   7.47338716
_cell_length_b   7.49785552
_cell_length_c   7.43179469
_cell_angle_alpha   90.00000000
_cell_angle_beta   60.18393217
_cell_angle_gamma   120.10836445
_symmetry_Int_Tables_number   1
_chemical_formula_structural   CsNbWO6
_chemical_formula_sum   'Cs2 Nb2 W2 O12'
_cell_volume   294.79881104
_cell_formula_units_Z   2
loop_
 _symmetry_equiv_pos_site_id
 _symmetry_equiv_pos_as_xyz
  1  'x, y, z'
loop_
 _atom_site_type_symbol
 _atom_site_label
 _atom_site_symmetry_multiplicity
 _atom_site_fract_x
 _atom_site_fract_y
 _atom_site_fract_z
 _atom_site_occupancy
  Cs  Cs0  1  0.75199809  0.37599904  0.37400096  1
  Cs  Cs1  1  0.24800191  0.62400096  0.62599904  1
  Nb  Nb2  1  0.50000000  0.50000000  -0.00000000  1
  Nb  Nb3  1  0.50000000  0.00000000  -0.00000000  1
  W  W4  1  0.00000000  0.00000000  0.50000000  1
  W  W5  1  -0.00000000  0.00000000  -0.00000000  1
  O  O6  1  0.88092556  0.94046278  0.30953722  1
  O  O7  1  0.62336080  0.31168040  0.93831960  1
  O  O8  1  0.24465088  0.94042548  0.93828632  1
  O  O9  1  0.24465088  0.30422540  0.31706280  1
  O  O10  1  0.24465088  0.30422540  0.93828632  1
  O  O11  1  0.24465088  0.94042548  0.31706280  1
  O  O12  1  0.11907444  0.05953722  0.69046278  1
  O  O13  1  0.37663920  0.68831960  0.06168040  1
  O  O14  1  0.75534912  0.05957452  0.06171368  1
  O  O15  1  0.75534912  0.69577460  0.68293720  1
  O  O16  1  0.75534912  0.69577460  0.06171368  1
  O  O17  1  0.75534912  0.05957452  0.68293720  1
