# generated using pymatgen
data_La2Fe4Sb5
_symmetry_space_group_name_H-M   'P 1'
_cell_length_a   4.50751232
_cell_length_b   4.32593298
_cell_length_c   13.31157204
_cell_angle_alpha   80.51446970
_cell_angle_beta   80.25241193
_cell_angle_gamma   90.00000000
_symmetry_Int_Tables_number   1
_chemical_formula_structural   La2Fe4Sb5
_chemical_formula_sum   'La2 Fe4 Sb5'
_cell_volume   252.21597470
_cell_formula_units_Z   1
loop_
 _symmetry_equiv_pos_site_id
 _symmetry_equiv_pos_as_xyz
  1  'x, y, z'
loop_
 _atom_site_type_symbol
 _atom_site_label
 _atom_site_symmetry_multiplicity
 _atom_site_fract_x
 _atom_site_fract_y
 _atom_site_fract_z
 _atom_site_occupancy
  La  La0  1  0.34913332  0.34340781  0.30173337  1
  La  La1  1  0.64806607  0.64602981  0.70386785  1
  Fe  Fe2  1  -0.00052685  -0.00094558  0.00105369  1
  Fe  Fe3  1  0.95270651  0.45296686  0.09458698  1
  Fe  Fe4  1  0.44891632  0.92133489  0.10216737  1
  Fe  Fe5  1  0.05068869  0.54945626  0.89862262  1
  Sb  Sb6  1  0.74910015  0.24791095  0.50179970  1
  Sb  Sb7  1  0.24763018  0.74288164  0.50473964  1
  Sb  Sb8  1  0.10464765  0.10361647  0.79070470  1
  Sb  Sb9  1  0.89254533  0.88675159  0.21490934  1
  Sb  Sb10  1  0.50748263  0.47817930  0.98503473  1
