# generated using pymatgen
data_Cu2Ag5Se4NO15
_symmetry_space_group_name_H-M   'P 1'
_cell_length_a   5.20286289
_cell_length_b   7.34934595
_cell_length_c   10.63579130
_cell_angle_alpha   72.22502621
_cell_angle_beta   88.33143553
_cell_angle_gamma   86.90953456
_symmetry_Int_Tables_number   1
_chemical_formula_structural   Cu2Ag5Se4NO15
_chemical_formula_sum   'Cu2 Ag5 Se4 N1 O15'
_cell_volume   386.67593510
_cell_formula_units_Z   1
loop_
 _symmetry_equiv_pos_site_id
 _symmetry_equiv_pos_as_xyz
  1  'x, y, z'
loop_
 _atom_site_type_symbol
 _atom_site_label
 _atom_site_symmetry_multiplicity
 _atom_site_fract_x
 _atom_site_fract_y
 _atom_site_fract_z
 _atom_site_occupancy
  Cu  Cu0  1  0.49854379  0.99869823  0.50022557  1
  Cu  Cu1  1  0.99926572  -0.00018708  0.00027884  1
  Ag  Ag2  1  0.04736377  0.57120286  0.68316530  1
  Ag  Ag3  1  0.95369464  0.41584923  0.31045736  1
  Ag  Ag4  1  0.99986106  0.49971633  -0.00002764  1
  Ag  Ag5  1  0.49394498  0.70130301  0.86374566  1
  Ag  Ag6  1  0.50605961  0.30096896  0.13506917  1
  Se  Se7  1  0.98883860  0.03061030  0.67379205  1
  Se  Se8  1  0.00724155  0.96952024  0.32523679  1
  Se  Se9  1  0.52667208  0.25369032  0.83398752  1
  Se  Se10  1  0.47672420  0.74612292  0.16612505  1
  N  N11  1  0.51269581  0.51052355  0.50261396  1
  O  O12  1  0.80664219  0.89008936  0.60774667  1
  O  O13  1  0.19031716  0.10894802  0.39194598  1
  O  O14  1  0.29267471  0.92230198  0.66571504  1
  O  O15  1  0.70575495  0.08180505  0.33562648  1
  O  O16  1  0.21673678  0.30476431  0.87965579  1
  O  O17  1  0.78524288  0.69880924  0.11723066  1
  O  O18  1  0.64320768  0.48065793  0.77372805  1
  O  O19  1  0.36662636  0.51789183  0.22956898  1
  O  O20  1  0.67860760  0.16760051  0.98856624  1
  O  O21  1  0.31907616  0.83074942  0.01314725  1
  O  O22  1  0.91673294  0.92168852  0.83970849  1
  O  O23  1  0.08037910  0.08064514  0.15976195  1
  O  O24  1  0.46093792  0.33707254  0.54790099  1
  O  O25  1  0.73388379  0.56112428  0.45413019  1
  O  O26  1  0.34497395  0.64213301  0.50639761  1
