# generated using pymatgen
data_Cs2Zr(WO4)3
_symmetry_space_group_name_H-M   'P 1'
_cell_length_a   7.45407493
_cell_length_b   7.45219926
_cell_length_c   7.57659664
_cell_angle_alpha   90.00000000
_cell_angle_beta   60.57748239
_cell_angle_gamma   119.99167647
_symmetry_Int_Tables_number   1
_chemical_formula_structural   Cs2Zr(WO4)3
_chemical_formula_sum   'Cs2 Zr1 W3 O12'
_cell_volume   300.21143972
_cell_formula_units_Z   1
loop_
 _symmetry_equiv_pos_site_id
 _symmetry_equiv_pos_as_xyz
  1  'x, y, z'
loop_
 _atom_site_type_symbol
 _atom_site_label
 _atom_site_symmetry_multiplicity
 _atom_site_fract_x
 _atom_site_fract_y
 _atom_site_fract_z
 _atom_site_occupancy
  Cs  Cs0  1  0.27323495  0.16223940  0.11197850  1
  Cs  Cs1  1  0.72676505  0.88900445  0.88802150  1
  Zr  Zr2  1  -0.00000000  0.50244851  -0.00000000  1
  W  W3  1  0.50015556  0.00235420  0.50018122  1
  W  W4  1  0.49984444  0.50219864  0.49981878  1
  W  W5  1  -0.00000000  0.50181624  0.50000000  1
  O  O6  1  0.61469535  0.80782871  0.44738241  1
  O  O7  1  0.87264898  0.43482880  0.79798004  1
  O  O8  1  0.26797704  0.83028369  0.79778500  1
  O  O9  1  0.24474679  0.43805726  0.44789935  1
  O  O10  1  0.26549718  0.43706634  0.79790522  1
  O  O11  1  0.24598490  0.80767960  0.44663742  1
  O  O12  1  0.38530465  0.19313336  0.55261759  1
  O  O13  1  0.12735102  0.56217983  0.20201996  1
  O  O14  1  0.73450282  0.17156916  0.20209478  1
  O  O15  1  0.75401510  0.56169469  0.55336258  1
  O  O16  1  0.73202296  0.56230664  0.20221500  1
  O  O17  1  0.75525321  0.19331047  0.55210065  1
