# generated using pymatgen
data_CsMgInF6
_symmetry_space_group_name_H-M   'P 1'
_cell_length_a   7.65087393
_cell_length_b   7.65087393
_cell_length_c   7.65087393
_cell_angle_alpha   61.63083376
_cell_angle_beta   58.84646276
_cell_angle_gamma   90.43064160
_symmetry_Int_Tables_number   1
_chemical_formula_structural   CsMgInF6
_chemical_formula_sum   'Cs2 Mg2 In2 F12'
_cell_volume   317.57834667
_cell_formula_units_Z   2
loop_
 _symmetry_equiv_pos_site_id
 _symmetry_equiv_pos_as_xyz
  1  'x, y, z'
loop_
 _atom_site_type_symbol
 _atom_site_label
 _atom_site_symmetry_multiplicity
 _atom_site_fract_x
 _atom_site_fract_y
 _atom_site_fract_z
 _atom_site_occupancy
  Cs  Cs0  1  0.10671810  0.85671810  0.75000000  1
  Cs  Cs1  1  0.89328190  0.14328190  0.25000000  1
  Mg  Mg2  1  0.00000000  0.50000000  0.50000000  1
  Mg  Mg3  1  0.50000000  0.50000000  -0.00000000  1
  In  In4  1  0.50000000  0.00000000  -0.00000000  1
  In  In5  1  0.50000000  0.50000000  0.50000000  1
  F  F6  1  0.41775783  0.18622301  0.13975958  1
  F  F7  1  0.58224217  0.44248259  0.23153481  1
  F  F8  1  0.17401741  0.81377699  0.26846519  1
  F  F9  1  0.82598259  0.55751741  0.36024042  1
  F  F10  1  0.58224217  0.81377699  0.86024042  1
  F  F11  1  0.41775783  0.55751741  0.76846519  1
  F  F12  1  0.82598259  0.18622301  0.73153481  1
  F  F13  1  0.17401741  0.44248259  0.63975958  1
  F  F14  1  0.58266139  0.83266139  0.25000000  1
  F  F15  1  0.41733861  0.16733861  0.75000000  1
  F  F16  1  0.80118652  0.55118652  0.75000000  1
  F  F17  1  0.19881348  0.44881348  0.25000000  1
