# generated using pymatgen
data_Cs2CaP2O7
_symmetry_space_group_name_H-M   'P 1'
_cell_length_a   6.00838351
_cell_length_b   6.00838351
_cell_length_c   7.49294697
_cell_angle_alpha   66.39874978
_cell_angle_beta   89.93575973
_cell_angle_gamma   119.95427818
_symmetry_Int_Tables_number   1
_chemical_formula_structural   Cs2CaP2O7
_chemical_formula_sum   'Cs2 Ca1 P2 O7'
_cell_volume   207.76578796
_cell_formula_units_Z   1
loop_
 _symmetry_equiv_pos_site_id
 _symmetry_equiv_pos_as_xyz
  1  'x, y, z'
loop_
 _atom_site_type_symbol
 _atom_site_label
 _atom_site_symmetry_multiplicity
 _atom_site_fract_x
 _atom_site_fract_y
 _atom_site_fract_z
 _atom_site_occupancy
  Cs  Cs0  1  0.21998424  0.44470685  0.33530891  1
  Cs  Cs1  1  0.77851555  0.55717299  0.66431146  1
  Ca  Ca2  1  0.99823266  0.00200507  0.99976227  1
  P  P3  1  0.57613275  0.16775965  0.25610760  1
  P  P4  1  0.41516415  0.84130829  0.74352756  1
  O  O5  1  0.31686582  0.06717485  0.18935041  1
  O  O6  1  0.74347475  0.49378377  0.18935041  1
  O  O7  1  0.68778323  0.94994483  0.79100060  1
  O  O8  1  0.25905456  0.52121616  0.79100060  1
  O  O9  1  0.73517213  0.04944965  0.21537822  1
  O  O10  1  0.25041911  0.92717241  0.82240847  1
  O  O11  1  0.47470104  0.02540546  0.49989350  1
