# generated using pymatgen
data_Co7NiP4
_symmetry_space_group_name_H-M   'P 1'
_cell_length_a   3.50622401
_cell_length_b   5.56257826
_cell_length_c   6.58546248
_cell_angle_alpha   89.73823778
_cell_angle_beta   90.00000000
_cell_angle_gamma   90.00000000
_symmetry_Int_Tables_number   1
_chemical_formula_structural   Co7NiP4
_chemical_formula_sum   'Co7 Ni1 P4'
_cell_volume   128.43918483
_cell_formula_units_Z   1
loop_
 _symmetry_equiv_pos_site_id
 _symmetry_equiv_pos_as_xyz
  1  'x, y, z'
loop_
 _atom_site_type_symbol
 _atom_site_label
 _atom_site_symmetry_multiplicity
 _atom_site_fract_x
 _atom_site_fract_y
 _atom_site_fract_z
 _atom_site_occupancy
  Co  Co0  1  0.75000000  0.35557078  0.93480584  1
  Co  Co1  1  0.75000000  0.85748265  0.56482986  1
  Co  Co2  1  0.25000000  0.64123358  0.06727341  1
  Co  Co3  1  0.25000000  0.14713719  0.43498933  1
  Co  Co4  1  0.75000000  0.96584197  0.16363329  1
  Co  Co5  1  0.25000000  0.53595865  0.66592087  1
  Co  Co6  1  0.25000000  0.02864828  0.83301555  1
  Ni  Ni7  1  0.75000000  0.46957981  0.33635659  1
  P  P8  1  0.75000000  0.74493863  0.87754084  1
  P  P9  1  0.75000000  0.24543351  0.62492885  1
  P  P10  1  0.25000000  0.24894763  0.11958446  1
  P  P11  1  0.25000000  0.75922731  0.37712110  1
