# generated using pymatgen
data_CsVZn(PO3)6
_symmetry_space_group_name_H-M   'P 1'
_cell_length_a   6.43797275
_cell_length_b   8.57189500
_cell_length_c   8.53935512
_cell_angle_alpha   104.37827879
_cell_angle_beta   103.88608300
_cell_angle_gamma   103.85709089
_symmetry_Int_Tables_number   1
_chemical_formula_structural   CsVZn(PO3)6
_chemical_formula_sum   'Cs1 V1 Zn1 P6 O18'
_cell_volume   420.13498875
_cell_formula_units_Z   1
loop_
 _symmetry_equiv_pos_site_id
 _symmetry_equiv_pos_as_xyz
  1  'x, y, z'
loop_
 _atom_site_type_symbol
 _atom_site_label
 _atom_site_symmetry_multiplicity
 _atom_site_fract_x
 _atom_site_fract_y
 _atom_site_fract_z
 _atom_site_occupancy
  Cs  Cs0  1  0.53623912  0.94443637  0.94843405  1
  V  V1  1  0.00170867  0.22396847  0.77863018  1
  Zn  Zn2  1  0.00225598  0.77731484  0.22367430  1
  P  P3  1  0.10154542  0.41009024  0.18564710  1
  P  P4  1  0.10082556  0.18509984  0.40741862  1
  P  P5  1  0.89893590  0.59222203  0.81471695  1
  P  P6  1  0.89866668  0.81434786  0.59025217  1
  P  P7  1  0.49921708  0.71621924  0.28304696  1
  P  P8  1  0.49981430  0.28525329  0.71455508  1
  O  O9  1  0.09604297  0.34875719  0.34949409  1
  O  O10  1  0.90435212  0.65017493  0.65057865  1
  O  O11  1  0.95022447  0.51647907  0.17544613  1
  O  O12  1  0.96089454  0.18026021  0.52716121  1
  O  O13  1  0.04297854  0.47636195  0.81987804  1
  O  O14  1  0.05118490  0.82436988  0.48417314  1
  O  O15  1  0.65773476  0.72965563  0.18093572  1
  O  O16  1  0.66157342  0.18458367  0.73254194  1
  O  O17  1  0.33898267  0.26632033  0.81558051  1
  O  O18  1  0.34215131  0.81853113  0.26923558  1
  O  O19  1  0.04634740  0.25637175  0.02974074  1
  O  O20  1  0.04381045  0.03507777  0.25464158  1
  O  O21  1  0.95159485  0.74511607  0.96398123  1
  O  O22  1  0.94855971  0.96752446  0.74416585  1
  O  O23  1  0.36469609  0.51541378  0.23795765  1
  O  O24  1  0.36510284  0.23721806  0.51676655  1
  O  O25  1  0.63458589  0.48271991  0.76241369  1
  O  O26  1  0.63497437  0.76151202  0.48433230  1
