# generated using pymatgen
data_Gd(CuS)3
_symmetry_space_group_name_H-M   'P 1'
_cell_length_a   6.76983873
_cell_length_b   7.53919725
_cell_length_c   6.77044896
_cell_angle_alpha   63.31635244
_cell_angle_beta   60.00275329
_cell_angle_gamma   89.99857765
_symmetry_Int_Tables_number   1
_chemical_formula_structural   Gd(CuS)3
_chemical_formula_sum   'Gd2 Cu6 S6'
_cell_volume   255.89827271
_cell_formula_units_Z   2
loop_
 _symmetry_equiv_pos_site_id
 _symmetry_equiv_pos_as_xyz
  1  'x, y, z'
loop_
 _atom_site_type_symbol
 _atom_site_label
 _atom_site_symmetry_multiplicity
 _atom_site_fract_x
 _atom_site_fract_y
 _atom_site_fract_z
 _atom_site_occupancy
  Gd  Gd0  1  0.00002167  0.00012137  -0.00006733  1
  Gd  Gd1  1  0.33331133  0.99987863  0.33340033  1
  Cu  Cu2  1  0.87721205  0.62873029  0.91421515  1
  Cu  Cu3  1  0.20854307  0.62873074  0.24849535  1
  Cu  Cu4  1  0.54293124  0.62873076  0.57981898  1
  Cu  Cu5  1  0.79040176  0.37126924  0.75351402  1
  Cu  Cu6  1  0.12478993  0.37126926  0.08483765  1
  Cu  Cu7  1  0.45612195  0.37126971  0.41911885  1
  S  S8  1  0.41855258  0.25255951  0.83092017  1
  S  S9  1  0.08344819  0.25254439  0.49796665  1
  S  S10  1  0.75048824  0.25255714  0.16600885  1
  S  S11  1  0.58284476  0.74744286  0.16732415  1
  S  S12  1  0.24988581  0.74745561  0.83536735  1
  S  S13  1  0.91478042  0.74744049  0.50241283  1
