# generated using pymatgen
data_Cs3MnZn3(PO3)12
_symmetry_space_group_name_H-M   'P 1'
_cell_length_a   9.61584511
_cell_length_b   9.61584511
_cell_length_c   11.16745261
_cell_angle_alpha   73.47382506
_cell_angle_beta   79.31972503
_cell_angle_gamma   117.02727637
_symmetry_Int_Tables_number   1
_chemical_formula_structural   Cs3MnZn3(PO3)12
_chemical_formula_sum   'Cs3 Mn1 Zn3 P12 O36'
_cell_volume   819.81359562
_cell_formula_units_Z   1
loop_
 _symmetry_equiv_pos_site_id
 _symmetry_equiv_pos_as_xyz
  1  'x, y, z'
loop_
 _atom_site_type_symbol
 _atom_site_label
 _atom_site_symmetry_multiplicity
 _atom_site_fract_x
 _atom_site_fract_y
 _atom_site_fract_z
 _atom_site_occupancy
  Cs  Cs0  1  0.00203669  0.49794833  0.50001498  1
  Cs  Cs1  1  0.78764427  0.78739806  0.99892828  1
  Cs  Cs2  1  0.21367366  0.21342745  0.99892828  1
  Mn  Mn3  1  0.79106156  0.79477630  0.41416214  1
  Zn  Zn4  1  0.24842910  0.67938546  0.07218543  1
  Zn  Zn5  1  0.75424862  0.31934837  0.92640301  1
  Zn  Zn6  1  0.20843534  0.20341747  0.58814718  1
  P  P7  1  0.80432806  0.97800268  0.62953035  1
  P  P8  1  0.39246697  0.56614159  0.62953035  1
  P  P9  1  0.19556906  0.02477532  0.37089842  1
  P  P10  1  0.60432626  0.43353253  0.37089842  1
  P  P11  1  0.58057111  0.03261582  0.80400416  1
  P  P12  1  0.16338002  0.61542473  0.80400416  1
  P  P13  1  0.41830644  0.96710591  0.19572566  1
  P  P14  1  0.83716843  0.38596791  0.19572566  1
  P  P15  1  0.23637555  0.93727804  0.82634640  1
  P  P16  1  0.76054275  0.06029142  0.17916583  1
  P  P17  1  0.66960740  0.60412642  0.72626619  1
  P  P18  1  0.32828788  0.40035347  0.27135865  1
  O  O19  1  0.77234980  0.64250255  0.58514765  1
  O  O20  1  0.22553201  0.36853360  0.40593439  1
  O  O21  1  0.65242409  0.00387456  0.67400438  1
  O  O22  1  0.32212106  0.67357153  0.67400438  1
  O  O23  1  0.34511985  0.99515286  0.32445515  1
  O  O24  1  0.68039198  0.33042500  0.32445515  1
  O  O25  1  0.17308472  0.05065834  0.77625693  1
  O  O26  1  0.82082705  0.94280505  0.23636790  1
  O  O27  1  0.50602632  0.87226777  0.92976853  1
  O  O28  1  0.19796369  0.56420515  0.92976853  1
  O  O29  1  0.49772363  0.12857506  0.06942971  1
  O  O30  1  0.80199523  0.43284665  0.06942971  1
  O  O31  1  0.17608184  0.84719515  0.97672301  1
  O  O32  1  0.82710875  0.14433940  0.02855185  1
  O  O33  1  0.67045489  0.48505013  0.84449498  1
  O  O34  1  0.33740935  0.51777222  0.14481843  1
  O  O35  1  0.82242477  0.97581966  0.49341020  1
  O  O36  1  0.53077014  0.68416503  0.49341020  1
  O  O37  1  0.17432278  0.01881402  0.50798042  1
  O  O38  1  0.47320556  0.31769680  0.50798042  1
  O  O39  1  0.94822975  0.09772617  0.65587037  1
  O  O40  1  0.24640346  0.39589988  0.65587037  1
  O  O41  1  0.04969482  0.90375915  0.34340962  1
  O  O42  1  0.75283124  0.60689557  0.34340962  1
  O  O43  1  0.72986691  0.78224563  0.74035308  1
  O  O44  1  0.47740129  0.52978001  0.74035308  1
  O  O45  1  0.26996875  0.21819907  0.25952645  1
  O  O46  1  0.52227447  0.47050479  0.25952645  1
  O  O47  1  0.43786551  0.05445554  0.76099447  1
  O  O48  1  0.18454999  0.80114002  0.76099447  1
  O  O49  1  0.56096955  0.94393134  0.24102259  1
  O  O50  1  0.81504607  0.19800786  0.24102259  1
  O  O51  1  0.71062213  0.20437524  0.79302672  1
  O  O52  1  0.00259804  0.49635115  0.79302672  1
  O  O53  1  0.28996478  0.79559450  0.20648896  1
  O  O54  1  0.99791653  0.50354625  0.20648896  1
