# generated using pymatgen
data_Cs3K5Mo8(P2O11)4
_symmetry_space_group_name_H-M   'P 1'
_cell_length_a   10.02900786
_cell_length_b   10.29508623
_cell_length_c   10.36214125
_cell_angle_alpha   89.97943165
_cell_angle_beta   89.91856046
_cell_angle_gamma   100.08550425
_symmetry_Int_Tables_number   1
_chemical_formula_structural   Cs3K5Mo8(P2O11)4
_chemical_formula_sum   'Cs3 K5 Mo8 P8 O44'
_cell_volume   1053.35225031
_cell_formula_units_Z   1
loop_
 _symmetry_equiv_pos_site_id
 _symmetry_equiv_pos_as_xyz
  1  'x, y, z'
loop_
 _atom_site_type_symbol
 _atom_site_label
 _atom_site_symmetry_multiplicity
 _atom_site_fract_x
 _atom_site_fract_y
 _atom_site_fract_z
 _atom_site_occupancy
  Cs  Cs0  1  0.73714498  0.24669237  0.80800657  1
  Cs  Cs1  1  0.24206445  0.24684998  0.69437105  1
  Cs  Cs2  1  0.25783753  0.75307085  0.19458328  1
  K  K3  1  0.50025492  0.99987941  0.49977167  1
  K  K4  1  0.99973721  0.99974363  0.00008998  1
  K  K5  1  0.76321809  0.75576778  0.31390414  1
  K  K6  1  0.00119023  0.50270317  0.53869319  1
  K  K7  1  0.49876796  0.49755278  0.03899602  1
  Mo  Mo8  1  0.64289872  0.08367486  0.18170013  1
  Mo  Mo9  1  0.85726599  0.91520330  0.68113130  1
  Mo  Mo10  1  0.35744190  0.91496234  0.81897811  1
  Mo  Mo11  1  0.14195486  0.08425196  0.31894736  1
  Mo  Mo12  1  0.63642707  0.34518132  0.42507140  1
  Mo  Mo13  1  0.86341642  0.65525271  0.92617656  1
  Mo  Mo14  1  0.36583288  0.65561596  0.57397812  1
  Mo  Mo15  1  0.13452391  0.34455054  0.07454772  1
  P  P16  1  0.82299072  0.40184314  0.13860913  1
  P  P17  1  0.67734483  0.59965167  0.63689338  1
  P  P18  1  0.17679382  0.59854128  0.86156738  1
  P  P19  1  0.32310694  0.40129218  0.36147077  1
  P  P20  1  0.84895240  0.12452738  0.43596646  1
  P  P21  1  0.65080411  0.87480346  0.93634284  1
  P  P22  1  0.15127955  0.87534226  0.56416977  1
  P  P23  1  0.34881253  0.12442135  0.06435782  1
  O  O24  1  0.58334721  0.20326075  0.30479787  1
  O  O25  1  0.91664062  0.79618979  0.80493144  1
  O  O26  1  0.41737283  0.79626171  0.69498388  1
  O  O27  1  0.08257624  0.20347833  0.19518645  1
  O  O28  1  0.72574928  0.98077523  0.03140876  1
  O  O29  1  0.77415671  0.01936610  0.53204331  1
  O  O30  1  0.27440043  0.01948926  0.96813440  1
  O  O31  1  0.22572324  0.98044395  0.46784521  1
  O  O32  1  0.55274650  0.27910979  0.56348098  1
  O  O33  1  0.94467972  0.72149561  0.06569582  1
  O  O34  1  0.44858590  0.72145788  0.43484615  1
  O  O35  1  0.05293946  0.27834740  0.93533403  1
  O  O36  1  0.76261579  0.44548447  0.26598007  1
  O  O37  1  0.73756231  0.55869007  0.76509983  1
  O  O38  1  0.23409229  0.55687005  0.73193637  1
  O  O39  1  0.26584205  0.44315201  0.23187035  1
  O  O40  1  0.55252742  0.93479544  0.24007523  1
  O  O41  1  0.95010437  0.06283270  0.73882084  1
  O  O42  1  0.45035955  0.06250450  0.76066524  1
  O  O43  1  0.04767151  0.93674045  0.26187748  1
  O  O44  1  0.72707393  0.51894757  0.52336319  1
  O  O45  1  0.77313393  0.48130895  0.02426884  1
  O  O46  1  0.27392136  0.48202048  0.47502786  1
  O  O47  1  0.22615800  0.51811012  0.97511551  1
  O  O48  1  0.80773729  0.07384972  0.29802998  1
  O  O49  1  0.69233857  0.92360896  0.79776929  1
  O  O50  1  0.19255652  0.92497298  0.70232601  1
  O  O51  1  0.30704741  0.07443845  0.20252293  1
  O  O52  1  0.48129475  0.43438484  0.35149955  1
  O  O53  1  0.01858729  0.56585763  0.85232981  1
  O  O54  1  0.51957400  0.56621423  0.64609157  1
  O  O55  1  0.98082519  0.43458957  0.14670003  1
  O  O56  1  0.81248843  0.26227287  0.46727438  1
  O  O57  1  0.68687971  0.73736165  0.96898697  1
  O  O58  1  0.18845906  0.73805813  0.53292059  1
  O  O59  1  0.31209929  0.26185535  0.03313351  1
  O  O60  1  0.50440995  0.13719382  0.05010708  1
  O  O61  1  0.99574845  0.86195991  0.54926045  1
  O  O62  1  0.49540898  0.86283058  0.95103478  1
  O  O63  1  0.00431271  0.13717173  0.45094084  1
  O  O64  1  0.77372107  0.25481558  0.10643250  1
  O  O65  1  0.72677669  0.74613319  0.60136456  1
  O  O66  1  0.22607411  0.74525875  0.89464700  1
  O  O67  1  0.27361790  0.25466378  0.39451493  1
