# generated using pymatgen
data_Cd4MoW3O16
_symmetry_space_group_name_H-M   'P 1'
_cell_length_a   5.18717847
_cell_length_b   7.85905107
_cell_length_c   7.85905107
_cell_angle_alpha   81.24236860
_cell_angle_beta   91.45458319
_cell_angle_gamma   88.54541681
_symmetry_Int_Tables_number   1
_chemical_formula_structural   Cd4MoW3O16
_chemical_formula_sum   'Cd4 Mo1 W3 O16'
_cell_volume   316.40837414
_cell_formula_units_Z   1
loop_
 _symmetry_equiv_pos_site_id
 _symmetry_equiv_pos_as_xyz
  1  'x, y, z'
loop_
 _atom_site_type_symbol
 _atom_site_label
 _atom_site_symmetry_multiplicity
 _atom_site_fract_x
 _atom_site_fract_y
 _atom_site_fract_z
 _atom_site_occupancy
  Cd  Cd0  1  0.25130666  0.10034377  0.59547927  1
  Cd  Cd1  1  0.24869334  0.59547927  0.10034377  1
  Cd  Cd2  1  0.74806674  0.90401163  0.40395965  1
  Cd  Cd3  1  0.75193326  0.40395965  0.90401163  1
  Mo  Mo4  1  0.25000000  0.58914351  0.58914351  1
  W  W5  1  0.75000000  0.41339955  0.41339955  1
  W  W6  1  0.75000000  0.91351259  0.91351259  1
  W  W7  1  0.25000000  0.08571776  0.08571776  1
  O  O8  1  0.88811386  0.19324728  0.43530985  1
  O  O9  1  0.88779476  0.69376358  0.93551689  1
  O  O10  1  0.61220524  0.93551689  0.69376358  1
  O  O11  1  0.61188614  0.43530985  0.19324728  1
  O  O12  1  0.11342705  0.80465587  0.56444894  1
  O  O13  1  0.11400017  0.30590040  0.06304248  1
  O  O14  1  0.38599983  0.06304248  0.30590040  1
  O  O15  1  0.38657295  0.56444894  0.80465587  1
  O  O16  1  0.94854396  0.94682621  0.14858331  1
  O  O17  1  0.95192206  0.44718920  0.64817227  1
  O  O18  1  0.54807794  0.64817227  0.44718920  1
  O  O19  1  0.55145604  0.14858331  0.94682621  1
  O  O20  1  0.05118984  0.05243862  0.85079411  1
  O  O21  1  0.04645387  0.55415604  0.35038722  1
  O  O22  1  0.45354613  0.35038722  0.55415604  1
  O  O23  1  0.44881016  0.85079411  0.05243862  1
