# generated using pymatgen
data_CePt2Au3
_symmetry_space_group_name_H-M   'P 1'
_cell_length_a   5.47621334
_cell_length_b   5.47621334
_cell_length_c   5.47621334
_cell_angle_alpha   89.26414258
_cell_angle_beta   60.77945856
_cell_angle_gamma   119.93284664
_symmetry_Int_Tables_number   1
_chemical_formula_structural   CePt2Au3
_chemical_formula_sum   'Ce1 Pt2 Au3'
_cell_volume   116.85210269
_cell_formula_units_Z   1
loop_
 _symmetry_equiv_pos_site_id
 _symmetry_equiv_pos_as_xyz
  1  'x, y, z'
loop_
 _atom_site_type_symbol
 _atom_site_label
 _atom_site_symmetry_multiplicity
 _atom_site_fract_x
 _atom_site_fract_y
 _atom_site_fract_z
 _atom_site_occupancy
  Ce  Ce0  1  0.00000000  0.00594402  0.99405598  1
  Pt  Pt1  1  0.75077101  0.37413759  0.87509141  1
  Pt  Pt2  1  0.24922899  0.37413759  0.37663342  1
  Au  Au3  1  0.24886991  0.87224912  0.37662080  1
  Au  Au4  1  0.75113009  0.37450929  0.37662080  1
  Au  Au5  1  0.50000000  0.74902241  0.75097759  1
