# generated using pymatgen
data_CaTh(PO4)2
_symmetry_space_group_name_H-M   'P 1'
_cell_length_a   6.43606408
_cell_length_b   6.76296385
_cell_length_c   6.97490677
_cell_angle_alpha   90.97959083
_cell_angle_beta   88.99633400
_cell_angle_gamma   103.53272076
_symmetry_Int_Tables_number   1
_chemical_formula_structural   CaTh(PO4)2
_chemical_formula_sum   'Ca2 Th2 P4 O16'
_cell_volume   295.09528409
_cell_formula_units_Z   2
loop_
 _symmetry_equiv_pos_site_id
 _symmetry_equiv_pos_as_xyz
  1  'x, y, z'
loop_
 _atom_site_type_symbol
 _atom_site_label
 _atom_site_symmetry_multiplicity
 _atom_site_fract_x
 _atom_site_fract_y
 _atom_site_fract_z
 _atom_site_occupancy
  Ca  Ca0  1  0.08837465  0.28930949  0.65088846  1
  Ca  Ca1  1  0.91162535  0.71069051  0.34911154  1
  Th  Th2  1  0.61240322  0.77823132  0.83175228  1
  Th  Th3  1  0.38759678  0.22176868  0.16824772  1
  P  P4  1  0.60982275  0.30268213  0.66682313  1
  P  P5  1  0.11616618  0.80373112  0.83947648  1
  P  P6  1  0.39017725  0.69731787  0.33317687  1
  P  P7  1  0.88383382  0.19626888  0.16052352  1
  O  O8  1  0.79850456  0.48133059  0.61780077  1
  O  O9  1  0.31390722  0.97097319  0.90708513  1
  O  O10  1  0.20149544  0.51866941  0.38219923  1
  O  O11  1  0.68609278  0.02902681  0.09291487  1
  O  O12  1  0.70344671  0.11767159  0.70749345  1
  O  O13  1  0.22597587  0.63066806  0.78184054  1
  O  O14  1  0.29655329  0.88232841  0.29250655  1
  O  O15  1  0.77402413  0.36933194  0.21815946  1
  O  O16  1  0.05921457  0.25569459  0.00261274  1
  O  O17  1  0.56341852  0.74938434  0.48978885  1
  O  O18  1  0.94078543  0.74430541  0.99738726  1
  O  O19  1  0.43658148  0.25061566  0.51021115  1
  O  O20  1  0.49971972  0.37779575  0.84785677  1
  O  O21  1  0.00034638  0.88473907  0.67527598  1
  O  O22  1  0.50028028  0.62220425  0.15214323  1
  O  O23  1  0.99965362  0.11526093  0.32472402  1
