# generated using pymatgen
data_CeTiNbO6
_symmetry_space_group_name_H-M   'P 1'
_cell_length_a   5.35731677
_cell_length_b   7.55207814
_cell_length_c   11.18032998
_cell_angle_alpha   90.00000000
_cell_angle_beta   90.00000000
_cell_angle_gamma   90.00000000
_symmetry_Int_Tables_number   1
_chemical_formula_structural   CeTiNbO6
_chemical_formula_sum   'Ce4 Ti4 Nb4 O24'
_cell_volume   452.34357164
_cell_formula_units_Z   4
loop_
 _symmetry_equiv_pos_site_id
 _symmetry_equiv_pos_as_xyz
  1  'x, y, z'
loop_
 _atom_site_type_symbol
 _atom_site_label
 _atom_site_symmetry_multiplicity
 _atom_site_fract_x
 _atom_site_fract_y
 _atom_site_fract_z
 _atom_site_occupancy
  Ce  Ce0  1  0.54735424  0.74970708  0.04185310  1
  Ce  Ce1  1  0.95264576  0.74970708  0.54185310  1
  Ce  Ce2  1  0.45264576  0.24970708  0.95814690  1
  Ce  Ce3  1  0.04735424  0.24970708  0.45814690  1
  Ti  Ti4  1  0.52808887  0.99143054  0.35869871  1
  Ti  Ti5  1  0.47191113  0.49143054  0.64130129  1
  Ti  Ti6  1  0.02808887  0.49143054  0.14130129  1
  Ti  Ti7  1  0.97191113  0.99143054  0.85869871  1
  Nb  Nb8  1  0.96638053  0.50558210  0.85281956  1
  Nb  Nb9  1  0.03361947  0.00558210  0.14718044  1
  Nb  Nb10  1  0.46638053  0.00558210  0.64718044  1
  Nb  Nb11  1  0.53361947  0.50558210  0.35281956  1
  O  O12  1  0.87461439  0.43820519  0.28801770  1
  O  O13  1  0.63316200  0.06451178  0.79087018  1
  O  O14  1  0.12538561  0.93820519  0.71198230  1
  O  O15  1  0.36683800  0.56451178  0.20912982  1
  O  O16  1  0.13316200  0.56451178  0.70912982  1
  O  O17  1  0.37461439  0.93820519  0.21198230  1
  O  O18  1  0.86683800  0.06451178  0.29087018  1
  O  O19  1  0.62538561  0.43820519  0.78801770  1
  O  O20  1  0.93830265  0.74748998  0.14458792  1
  O  O21  1  0.56169735  0.74748998  0.64458792  1
  O  O22  1  0.06169735  0.24748998  0.85541208  1
  O  O23  1  0.43830265  0.24748998  0.35541208  1
  O  O24  1  0.65990186  0.75292069  0.38130310  1
  O  O25  1  0.84009814  0.75292069  0.88130310  1
  O  O26  1  0.34009814  0.25292069  0.61869690  1
  O  O27  1  0.15990186  0.25292069  0.11869690  1
  O  O28  1  0.76172871  0.46012483  0.02624431  1
  O  O29  1  0.73483251  0.04002781  0.52474340  1
  O  O30  1  0.23827129  0.96012483  0.97375569  1
  O  O31  1  0.26516749  0.54002781  0.47525660  1
  O  O32  1  0.23483251  0.54002781  0.97525660  1
  O  O33  1  0.26172871  0.96012483  0.47375569  1
  O  O34  1  0.76516749  0.04002781  0.02474340  1
  O  O35  1  0.73827129  0.46012483  0.52624431  1
