# generated using pymatgen
data_CrSb3Pb4O13
_symmetry_space_group_name_H-M   'P 1'
_cell_length_a   7.54558440
_cell_length_b   7.49232168
_cell_length_c   7.54558440
_cell_angle_alpha   90.00000000
_cell_angle_beta   60.00000000
_cell_angle_gamma   120.23544295
_symmetry_Int_Tables_number   1
_chemical_formula_structural   CrSb3Pb4O13
_chemical_formula_sum   'Cr1 Sb3 Pb4 O13'
_cell_volume   300.56087498
_cell_formula_units_Z   1
loop_
 _symmetry_equiv_pos_site_id
 _symmetry_equiv_pos_as_xyz
  1  'x, y, z'
loop_
 _atom_site_type_symbol
 _atom_site_label
 _atom_site_symmetry_multiplicity
 _atom_site_fract_x
 _atom_site_fract_y
 _atom_site_fract_z
 _atom_site_occupancy
  Cr  Cr0  1  0.50123432  0.00185148  0.49938284  1
  Sb  Sb1  1  0.50067678  0.49992491  0.49966161  1
  Sb  Sb2  1  0.99958652  0.49992491  0.00075187  1
  Sb  Sb3  1  0.99958652  0.49992491  0.49966161  1
  Pb  Pb4  1  0.50318655  0.50477983  0.99840672  1
  Pb  Pb5  1  0.50365528  0.99783132  0.99817236  1
  Pb  Pb6  1  0.99600367  0.99783132  0.50582397  1
  Pb  Pb7  1  0.99600367  0.99783132  0.99817236  1
  O  O8  1  0.64526517  0.81832984  0.42736741  1
  O  O9  1  0.85403765  0.42788437  0.82298118  1
  O  O10  1  0.24569725  0.81832984  0.82693534  1
  O  O11  1  0.25086555  0.42788437  0.42615328  1
  O  O12  1  0.25086555  0.42788437  0.82298118  1
  O  O13  1  0.24569725  0.81832984  0.42736741  1
  O  O14  1  0.35909295  0.18330293  0.57045353  1
  O  O15  1  0.14217851  0.57000240  0.17891075  1
  O  O16  1  0.75375646  0.18330293  0.17579002  1
  O  O17  1  0.74891315  0.57000240  0.57217610  1
  O  O18  1  0.74891315  0.57000240  0.17891075  1
  O  O19  1  0.75375646  0.18330293  0.57045353  1
  O  O20  1  0.25102758  0.12654137  0.12448621  1
