# generated using pymatgen
data_Cs(V3S4)2
_symmetry_space_group_name_H-M   'P 1'
_cell_length_a   3.25949353
_cell_length_b   9.35314065
_cell_length_c   9.35772866
_cell_angle_alpha   119.89995811
_cell_angle_beta   90.01134618
_cell_angle_gamma   90.00713428
_symmetry_Int_Tables_number   1
_chemical_formula_structural   Cs(V3S4)2
_chemical_formula_sum   'Cs1 V6 S8'
_cell_volume   247.31221658
_cell_formula_units_Z   1
loop_
 _symmetry_equiv_pos_site_id
 _symmetry_equiv_pos_as_xyz
  1  'x, y, z'
loop_
 _atom_site_type_symbol
 _atom_site_label
 _atom_site_symmetry_multiplicity
 _atom_site_fract_x
 _atom_site_fract_y
 _atom_site_fract_z
 _atom_site_occupancy
  Cs  Cs0  1  0.50000000  0.00000000  0.00000000  1
  V  V1  1  0.74758179  0.37471074  0.88633802  1
  V  V2  1  0.74768382  0.11330742  0.48809744  1
  V  V3  1  0.74776619  0.51142262  0.62498789  1
  V  V4  1  0.25241821  0.62528926  0.11366198  1
  V  V5  1  0.25231618  0.88669258  0.51190256  1
  V  V6  1  0.25223381  0.48857738  0.37501211  1
  S  S7  1  0.75128195  0.66676904  0.33338542  1
  S  S8  1  0.24871805  0.33323096  0.66661458  1
  S  S9  1  0.75504898  0.05518895  0.69954857  1
  S  S10  1  0.75478853  0.30038157  0.35598457  1
  S  S11  1  0.75500440  0.64423995  0.94453011  1
  S  S12  1  0.24495102  0.94481105  0.30045143  1
  S  S13  1  0.24521147  0.69961843  0.64401543  1
  S  S14  1  0.24499560  0.35576005  0.05546989  1
