# generated using pymatgen
data_InHgTe2
_symmetry_space_group_name_H-M   'P 1'
_cell_length_a   4.90459681
_cell_length_b   4.90459680
_cell_length_c   8.18482494
_cell_angle_alpha   72.56549912
_cell_angle_beta   90.00000000
_cell_angle_gamma   119.99999995
_symmetry_Int_Tables_number   1
_chemical_formula_structural   InHgTe2
_chemical_formula_sum   'In1 Hg1 Te2'
_cell_volume   159.97932386
_cell_formula_units_Z   1
loop_
 _symmetry_equiv_pos_site_id
 _symmetry_equiv_pos_as_xyz
  1  'x, y, z'
loop_
 _atom_site_type_symbol
 _atom_site_label
 _atom_site_symmetry_multiplicity
 _atom_site_fract_x
 _atom_site_fract_y
 _atom_site_fract_z
 _atom_site_occupancy
  In  In0  1  0.49966982  0.99933965  0.50099053  1
  Hg  Hg1  1  0.00449202  0.00898405  0.98652393  1
  Te  Te2  1  0.87393523  0.74787046  0.37819431  1
  Te  Te3  1  0.37190292  0.74380584  0.88429124  1
