# generated using pymatgen
data_KAlCl2O
_symmetry_space_group_name_H-M   'P 1'
_cell_length_a   6.80262179
_cell_length_b   6.38308065
_cell_length_c   5.80115728
_cell_angle_alpha   90.00000000
_cell_angle_beta   90.00000000
_cell_angle_gamma   95.37928663
_symmetry_Int_Tables_number   1
_chemical_formula_structural   KAlCl2O
_chemical_formula_sum   'K2 Al2 Cl4 O2'
_cell_volume   250.78664558
_cell_formula_units_Z   2
loop_
 _symmetry_equiv_pos_site_id
 _symmetry_equiv_pos_as_xyz
  1  'x, y, z'
loop_
 _atom_site_type_symbol
 _atom_site_label
 _atom_site_symmetry_multiplicity
 _atom_site_fract_x
 _atom_site_fract_y
 _atom_site_fract_z
 _atom_site_occupancy
  K  K0  1  0.96694196  0.60090405  0.49364445  1
  K  K1  1  0.53305804  0.39909595  0.99364445  1
  Al  Al2  1  0.37578492  0.96901570  0.50395067  1
  Al  Al3  1  0.12421508  0.03098430  0.00395067  1
  Cl  Cl4  1  0.83506350  0.84317916  0.99606868  1
  Cl  Cl5  1  0.66493650  0.15682084  0.49606868  1
  Cl  Cl6  1  0.04790297  0.36762036  0.99651074  1
  Cl  Cl7  1  0.45209703  0.63237964  0.49651074  1
  O  O8  1  0.25868882  0.99972218  0.75982546  1
  O  O9  1  0.24131118  0.00027782  0.25982546  1
