# generated using pymatgen
data_CaYP7O20
_symmetry_space_group_name_H-M   'P 1'
_cell_length_a   6.98158928
_cell_length_b   10.88053088
_cell_length_c   13.05412457
_cell_angle_alpha   106.78582419
_cell_angle_beta   74.48983542
_cell_angle_gamma   90.00000000
_symmetry_Int_Tables_number   1
_chemical_formula_structural   CaYP7O20
_chemical_formula_sum   'Ca2 Y2 P14 O40'
_cell_volume   911.59838882
_cell_formula_units_Z   2
loop_
 _symmetry_equiv_pos_site_id
 _symmetry_equiv_pos_as_xyz
  1  'x, y, z'
loop_
 _atom_site_type_symbol
 _atom_site_label
 _atom_site_symmetry_multiplicity
 _atom_site_fract_x
 _atom_site_fract_y
 _atom_site_fract_z
 _atom_site_occupancy
  Ca  Ca0  1  -0.00000000  0.50000000  -0.00000000  1
  Ca  Ca1  1  -0.00000000  -0.00000000  -0.00000000  1
  Y  Y2  1  -0.00000000  0.50000000  0.50000000  1
  Y  Y3  1  0.50000000  -0.00000000  0.50000000  1
  P  P4  1  0.39304757  0.67072817  0.35538350  1
  P  P5  1  0.74843107  0.82927183  0.64461650  1
  P  P6  1  0.60695243  0.32927183  0.64461650  1
  P  P7  1  0.25156893  0.17072817  0.35538350  1
  P  P8  1  0.64383521  0.75000000  -0.00000000  1
  P  P9  1  0.35616479  0.25000000  0.00000000  1
  P  P10  1  0.27663395  0.74129940  0.17278886  1
  P  P11  1  0.44942281  0.75870060  0.82721114  1
  P  P12  1  0.72336605  0.25870060  0.82721114  1
  P  P13  1  0.55057719  0.24129940  0.17278886  1
  P  P14  1  0.74099722  0.46346956  0.27748334  1
  P  P15  1  0.01848056  0.03653044  0.72251666  1
  P  P16  1  0.25900278  0.53653044  0.72251666  1
  P  P17  1  0.98151944  0.96346956  0.27748334  1
  O  O18  1  0.57245879  0.35753641  0.27478112  1
  O  O19  1  0.84723990  0.14246359  0.72521888  1
  O  O20  1  0.42754121  0.64246359  0.72521888  1
  O  O21  1  0.15276010  0.85753641  0.27478112  1
  O  O22  1  0.84194815  0.45260256  0.36277716  1
  O  O23  1  0.20472532  0.04739744  0.63722284  1
  O  O24  1  0.15805185  0.54739744  0.63722284  1
  O  O25  1  0.79527468  0.95260256  0.36277716  1
  O  O26  1  0.23169685  0.59260170  0.39783553  1
  O  O27  1  0.62953238  0.90739830  0.60216447  1
  O  O28  1  0.76830315  0.40739830  0.60216447  1
  O  O29  1  0.37046762  0.09260170  0.39783553  1
  O  O30  1  0.82106217  0.69302963  0.57756550  1
  O  O31  1  0.39862767  0.80697037  0.42243450  1
  O  O32  1  0.17893783  0.30697037  0.42243450  1
  O  O33  1  0.60137233  0.19302963  0.57756550  1
  O  O34  1  0.73243624  0.63811708  0.01949179  1
  O  O35  1  0.75192802  0.86188292  0.98050821  1
  O  O36  1  0.26756376  0.36188292  0.98050821  1
  O  O37  1  0.24807198  0.13811708  0.01949179  1
  O  O38  1  0.38997730  0.66788712  0.23087492  1
  O  O39  1  0.62085221  0.83211288  0.76912508  1
  O  O40  1  0.61002270  0.33211288  0.76912508  1
  O  O41  1  0.37914779  0.16788712  0.23087492  1
  O  O42  1  0.44177637  0.80969340  0.10486669  1
  O  O43  1  0.54664306  0.69030660  0.89513331  1
  O  O44  1  0.55822363  0.19030660  0.89513331  1
  O  O45  1  0.45335694  0.30969340  0.10486669  1
  O  O46  1  0.16017964  0.65705684  0.10674456  1
  O  O47  1  0.26692419  0.84294316  0.89325544  1
  O  O48  1  0.83982036  0.34294316  0.89325544  1
  O  O49  1  0.73307581  0.15705684  0.10674456  1
  O  O50  1  0.60511344  0.59844527  0.33130118  1
  O  O51  1  0.93641462  0.90155473  0.66869882  1
  O  O52  1  0.39488656  0.40155473  0.66869882  1
  O  O53  1  0.06358538  0.09844527  0.33130118  1
  O  O54  1  0.85553623  0.45210112  0.16164771  1
  O  O55  1  0.01718394  0.04789888  0.83835229  1
  O  O56  1  0.14446377  0.54789888  0.83835229  1
  O  O57  1  0.98281606  0.95210112  0.16164771  1
