# generated using pymatgen
data_BaTi(IO3)6
_symmetry_space_group_name_H-M   'P 1'
_cell_length_a   7.66858046
_cell_length_b   7.66858072
_cell_length_c   7.66857394
_cell_angle_alpha   97.77105741
_cell_angle_beta   97.77104062
_cell_angle_gamma   97.77111715
_symmetry_Int_Tables_number   1
_chemical_formula_structural   BaTi(IO3)6
_chemical_formula_sum   'Ba1 Ti1 I6 O18'
_cell_volume   437.27647714
_cell_formula_units_Z   1
loop_
 _symmetry_equiv_pos_site_id
 _symmetry_equiv_pos_as_xyz
  1  'x, y, z'
loop_
 _atom_site_type_symbol
 _atom_site_label
 _atom_site_symmetry_multiplicity
 _atom_site_fract_x
 _atom_site_fract_y
 _atom_site_fract_z
 _atom_site_occupancy
  Ba  Ba0  1  0.62115444  0.62115254  0.62115436  1
  Ti  Ti1  1  0.00929813  0.00929595  0.00929564  1
  I  I2  1  0.84199489  0.62934212  0.19956810  1
  I  I3  1  0.62934306  0.19956731  0.84199419  1
  I  I4  1  0.19956904  0.84199381  0.62934164  1
  I  I5  1  0.16106325  0.37204411  0.79287345  1
  I  I6  1  0.37204536  0.79287268  0.16106285  1
  I  I7  1  0.79287554  0.16106168  0.37204430  1
  O  O8  1  0.83474976  0.79759049  0.04424716  1
  O  O9  1  0.79759269  0.04424791  0.83474686  1
  O  O10  1  0.04424845  0.83474841  0.79759022  1
  O  O11  1  0.16516345  0.20036192  0.94786104  1
  O  O12  1  0.20036397  0.94786111  0.16515986  1
  O  O13  1  0.94786230  0.16516116  0.20036190  1
  O  O14  1  0.60090830  0.58172484  0.18907808  1
  O  O15  1  0.58172448  0.18907785  0.60090831  1
  O  O16  1  0.18907759  0.60090725  0.58172254  1
  O  O17  1  0.40419571  0.42156369  0.81432672  1
  O  O18  1  0.42156288  0.81432611  0.40419552  1
  O  O19  1  0.81432666  0.40419439  0.42156125  1
  O  O20  1  0.88611130  0.78846849  0.41066082  1
  O  O21  1  0.78846981  0.41066045  0.88611106  1
  O  O22  1  0.41066271  0.88611035  0.78846815  1
  O  O23  1  0.10652147  0.20511472  0.59356031  1
  O  O24  1  0.20511542  0.59356013  0.10652121  1
  O  O25  1  0.59356231  0.10652053  0.20511447  1
