# generated using pymatgen
data_BaSrPb6
_symmetry_space_group_name_H-M   'P 1'
_cell_length_a   7.26359704
_cell_length_b   7.26367547
_cell_length_c   17.54980370
_cell_angle_alpha   90.00000000
_cell_angle_beta   89.99998613
_cell_angle_gamma   59.99963823
_symmetry_Int_Tables_number   1
_chemical_formula_structural   BaSrPb6
_chemical_formula_sum   'Ba3 Sr3 Pb18'
_cell_volume   801.88019452
_cell_formula_units_Z   3
loop_
 _symmetry_equiv_pos_site_id
 _symmetry_equiv_pos_as_xyz
  1  'x, y, z'
loop_
 _atom_site_type_symbol
 _atom_site_label
 _atom_site_symmetry_multiplicity
 _atom_site_fract_x
 _atom_site_fract_y
 _atom_site_fract_z
 _atom_site_occupancy
  Ba  Ba0  1  0.00007350  0.99996325  0.75005970  1
  Ba  Ba1  1  0.00014219  0.99992891  0.24996853  1
  Ba  Ba2  1  0.33337072  0.33331464  0.58884278  1
  Sr  Sr3  1  0.66668997  0.66665502  0.41150144  1
  Sr  Sr4  1  0.66655365  0.66672318  0.08851055  1
  Sr  Sr5  1  0.33341666  0.33329167  0.91121171  1
  Pb  Pb6  1  0.83265161  0.33457780  0.58036111  1
  Pb  Pb7  1  0.33410286  0.83294857  0.58009418  1
  Pb  Pb8  1  0.83265161  0.83277059  0.58036111  1
  Pb  Pb9  1  0.16611946  0.66789071  0.41918637  1
  Pb  Pb10  1  0.66698125  0.16650937  0.41891967  1
  Pb  Pb11  1  0.16611946  0.16598982  0.41918637  1
  Pb  Pb12  1  0.16682160  0.66579885  0.08018835  1
  Pb  Pb13  1  0.66599082  0.16700459  0.08015369  1
  Pb  Pb14  1  0.16682160  0.16737955  0.08018835  1
  Pb  Pb15  1  0.83302234  0.33440954  0.91964378  1
  Pb  Pb16  1  0.33487266  0.83256367  0.91976830  1
  Pb  Pb17  1  0.83302234  0.83256813  0.91964378  1
  Pb  Pb18  1  0.51727852  0.96540904  0.75089243  1
  Pb  Pb19  1  0.96508515  0.51745742  0.75088770  1
  Pb  Pb20  1  0.51727852  0.51731243  0.75089243  1
  Pb  Pb21  1  0.48375503  0.03266631  0.24987739  1
  Pb  Pb22  1  0.03342345  0.48328828  0.24978286  1
  Pb  Pb23  1  0.48375503  0.48357866  0.24987739  1
