# generated using pymatgen
data_CaLa4Si3O13
_symmetry_space_group_name_H-M   'P 1'
_cell_length_a   7.18651937
_cell_length_b   9.73568288
_cell_length_c   9.73570021
_cell_angle_alpha   120.00005494
_cell_angle_beta   90.00000000
_cell_angle_gamma   90.00000000
_symmetry_Int_Tables_number   1
_chemical_formula_structural   CaLa4Si3O13
_chemical_formula_sum   'Ca2 La8 Si6 O26'
_cell_volume   589.90571438
_cell_formula_units_Z   2
loop_
 _symmetry_equiv_pos_site_id
 _symmetry_equiv_pos_as_xyz
  1  'x, y, z'
loop_
 _atom_site_type_symbol
 _atom_site_label
 _atom_site_symmetry_multiplicity
 _atom_site_fract_x
 _atom_site_fract_y
 _atom_site_fract_z
 _atom_site_occupancy
  Ca  Ca0  1  0.49922792  0.66663721  0.33333286  1
  Ca  Ca1  1  0.99922792  0.33336279  0.66666714  1
  La  La2  1  0.50030041  0.33334925  0.66668332  1
  La  La3  1  0.00030041  0.66665075  0.33331668  1
  La  La4  1  0.75047846  0.23308324  0.98940403  1
  La  La5  1  0.75047824  0.01059628  0.24369025  1
  La  La6  1  0.75047357  0.75633698  0.76690857  1
  La  La7  1  0.25047846  0.76691676  0.01059597  1
  La  La8  1  0.25047824  0.98940372  0.75630975  1
  La  La9  1  0.25047357  0.24366302  0.23309143  1
  Si  Si10  1  0.74867790  0.97003691  0.59716362  1
  Si  Si11  1  0.74867813  0.40282844  0.37286561  1
  Si  Si12  1  0.74867393  0.62712978  0.02996025  1
  Si  Si13  1  0.24867790  0.02996309  0.40283638  1
  Si  Si14  1  0.24867813  0.59717156  0.62713439  1
  Si  Si15  1  0.24867393  0.37287022  0.97003975  1
  O  O16  1  0.56820168  0.91417147  0.66141083  1
  O  O17  1  0.56819668  0.33859880  0.25276336  1
  O  O18  1  0.56819628  0.74723991  0.08583074  1
  O  O19  1  0.06820168  0.08582853  0.33858917  1
  O  O20  1  0.06819668  0.66140120  0.74723664  1
  O  O21  1  0.06819628  0.25276009  0.91416926  1
  O  O22  1  0.43246240  0.08905344  0.34358224  1
  O  O23  1  0.43246249  0.65641233  0.74547006  1
  O  O24  1  0.43246094  0.25452866  0.91094304  1
  O  O25  1  0.93246240  0.91094656  0.65641776  1
  O  O26  1  0.93246249  0.34358767  0.25452994  1
  O  O27  1  0.93246094  0.74547134  0.08905696  1
  O  O28  1  0.74952956  0.87182037  0.40246971  1
  O  O29  1  0.74952578  0.59752736  0.46935219  1
  O  O30  1  0.74952239  0.53064335  0.12817122  1
  O  O31  1  0.24952956  0.12817963  0.59753029  1
  O  O32  1  0.24952578  0.40247264  0.53064781  1
  O  O33  1  0.24952239  0.46935665  0.87182878  1
  O  O34  1  0.75073638  0.00000522  0.00000517  1
  O  O35  1  0.25073638  0.99999478  0.99999483  1
  O  O36  1  0.75056987  0.16310037  0.67231918  1
  O  O37  1  0.75057216  0.32768397  0.49078066  1
  O  O38  1  0.75057483  0.50922847  0.83690719  1
  O  O39  1  0.25056987  0.83689963  0.32768082  1
  O  O40  1  0.25057216  0.67231603  0.50921934  1
  O  O41  1  0.25057483  0.49077153  0.16309281  1
