# generated using pymatgen
data_Cs3Re6(SCl)7
_symmetry_space_group_name_H-M   'P 1'
_cell_length_a   9.46421012
_cell_length_b   11.38418167
_cell_length_c   13.28760202
_cell_angle_alpha   90.00000000
_cell_angle_beta   90.00000000
_cell_angle_gamma   106.62195057
_symmetry_Int_Tables_number   1
_chemical_formula_structural   Cs3Re6(SCl)7
_chemical_formula_sum   'Cs6 Re12 S14 Cl14'
_cell_volume   1371.81291238
_cell_formula_units_Z   2
loop_
 _symmetry_equiv_pos_site_id
 _symmetry_equiv_pos_as_xyz
  1  'x, y, z'
loop_
 _atom_site_type_symbol
 _atom_site_label
 _atom_site_symmetry_multiplicity
 _atom_site_fract_x
 _atom_site_fract_y
 _atom_site_fract_z
 _atom_site_occupancy
  Cs  Cs0  1  0.97568033  0.36426407  0.75937188  1
  Cs  Cs1  1  0.02431967  0.13573593  0.25937188  1
  Cs  Cs2  1  0.02616088  0.63688291  0.24050313  1
  Cs  Cs3  1  0.97383912  0.86311709  0.74050313  1
  Cs  Cs4  1  0.49970715  0.99968182  0.49891776  1
  Cs  Cs5  1  0.50029285  0.50031818  0.99891776  1
  Re  Re6  1  0.59932385  0.52466580  0.62240197  1
  Re  Re7  1  0.40067615  0.97533420  0.12240197  1
  Re  Re8  1  0.39803849  0.47508674  0.37990586  1
  Re  Re9  1  0.60196151  0.02491326  0.87990586  1
  Re  Re10  1  0.38496479  0.59798519  0.54313785  1
  Re  Re11  1  0.61503521  0.90201481  0.04313785  1
  Re  Re12  1  0.61400967  0.40105544  0.45991681  1
  Re  Re13  1  0.38599033  0.09894456  0.95991681  1
  Re  Re14  1  0.36253131  0.36348530  0.55305407  1
  Re  Re15  1  0.63746869  0.13651470  0.05305407  1
  Re  Re16  1  0.63670194  0.63773861  0.44986731  1
  Re  Re17  1  0.36329806  0.86226139  0.94986731  1
  S  S18  1  0.17745009  0.44241232  0.47477885  1
  S  S19  1  0.82254991  0.05758768  0.97477885  1
  S  S20  1  0.82386470  0.55802484  0.52459426  1
  S  S21  1  0.17613530  0.94197516  0.02459426  1
  S  S22  1  0.57121123  0.30724566  0.62104526  1
  S  S23  1  0.42878877  0.19275434  0.12104526  1
  S  S24  1  0.42953954  0.69334511  0.37810113  1
  S  S25  1  0.57046046  0.80665489  0.87810113  1
  S  S26  1  0.38753210  0.26124619  0.39676682  1
  S  S27  1  0.61246790  0.23875381  0.89676682  1
  S  S28  1  0.61299908  0.73859780  0.60253497  1
  S  S29  1  0.38700092  0.76140220  0.10253497  1
  S  S30  1  0.36041383  0.48775704  0.70128587  1
  S  S31  1  0.63958617  0.01224296  0.20128587  1
  Cl  Cl32  1  0.73844755  0.55973249  0.78104988  1
  Cl  Cl33  1  0.26155245  0.94026751  0.28104988  1
  Cl  Cl34  1  0.26318465  0.44096833  0.22014047  1
  Cl  Cl35  1  0.73681535  0.05903167  0.72014047  1
  Cl  Cl36  1  0.17946826  0.18105830  0.61486183  1
  Cl  Cl37  1  0.82053174  0.31894170  0.11486183  1
  Cl  Cl38  1  0.81867854  0.81640100  0.38604342  1
  Cl  Cl39  1  0.18132146  0.68359900  0.88604342  1
  Cl  Cl40  1  0.23356732  0.72775000  0.59409363  1
  Cl  Cl41  1  0.76643268  0.77225000  0.09409363  1
  Cl  Cl42  1  0.76517884  0.27438654  0.40667457  1
  Cl  Cl43  1  0.23482116  0.22561346  0.90667457  1
  Cl  Cl44  1  0.64322304  0.51244181  0.29095240  1
  Cl  Cl45  1  0.35677696  0.98755819  0.79095240  1
