# generated using pymatgen
data_Be2BH3O5
_symmetry_space_group_name_H-M   'P 1'
_cell_length_a   4.43098264
_cell_length_b   4.46280312
_cell_length_c   5.40791294
_cell_angle_alpha   92.39718275
_cell_angle_beta   90.52726809
_cell_angle_gamma   60.25258991
_symmetry_Int_Tables_number   1
_chemical_formula_structural   Be2BH3O5
_chemical_formula_sum   'Be2 B1 H3 O5'
_cell_volume   92.75752406
_cell_formula_units_Z   1
loop_
 _symmetry_equiv_pos_site_id
 _symmetry_equiv_pos_as_xyz
  1  'x, y, z'
loop_
 _atom_site_type_symbol
 _atom_site_label
 _atom_site_symmetry_multiplicity
 _atom_site_fract_x
 _atom_site_fract_y
 _atom_site_fract_z
 _atom_site_occupancy
  Be  Be0  1  0.32687942  0.34244798  0.60609251  1
  Be  Be1  1  0.66864770  0.65995021  0.40064647  1
  B  B2  1  -0.00019396  0.00015718  0.49823774  1
  H  H3  1  0.54047390  0.53783369  0.01403108  1
  H  H4  1  0.92284304  0.53311487  0.01467572  1
  H  H5  1  0.42809652  0.14022815  0.97302582  1
  O  O6  1  0.67618486  0.64743730  0.09258008  1
  O  O7  1  0.31129161  0.99865296  0.49906792  1
  O  O8  1  0.69134451  0.30867807  0.49956239  1
  O  O9  1  0.99941450  0.69169714  0.49665180  1
  O  O10  1  0.30661791  0.37120246  0.90624846  1
