# generated using pymatgen
data_CaTb2Mn3O9
_symmetry_space_group_name_H-M   'P 1'
_cell_length_a   5.38196992
_cell_length_b   16.83793941
_cell_length_c   7.58622723
_cell_angle_alpha   90.00000000
_cell_angle_beta   90.00000000
_cell_angle_gamma   90.00000000
_symmetry_Int_Tables_number   1
_chemical_formula_structural   CaTb2Mn3O9
_chemical_formula_sum   'Ca4 Tb8 Mn12 O36'
_cell_volume   687.47364789
_cell_formula_units_Z   4
loop_
 _symmetry_equiv_pos_site_id
 _symmetry_equiv_pos_as_xyz
  1  'x, y, z'
loop_
 _atom_site_type_symbol
 _atom_site_label
 _atom_site_symmetry_multiplicity
 _atom_site_fract_x
 _atom_site_fract_y
 _atom_site_fract_z
 _atom_site_occupancy
  Ca  Ca0  1  0.51346428  0.18556436  0.25000000  1
  Ca  Ca1  1  0.98653572  0.68556436  0.25000000  1
  Ca  Ca2  1  0.48653572  0.48110264  0.75000000  1
  Ca  Ca3  1  0.01346428  0.98110264  0.75000000  1
  Tb  Tb4  1  0.51722290  0.52092938  0.25000000  1
  Tb  Tb5  1  0.51469774  0.85401081  0.25000000  1
  Tb  Tb6  1  0.98277710  0.02092938  0.25000000  1
  Tb  Tb7  1  0.98530226  0.35401081  0.25000000  1
  Tb  Tb8  1  0.48277710  0.14573762  0.75000000  1
  Tb  Tb9  1  0.48530226  0.81265519  0.75000000  1
  Tb  Tb10  1  0.01469774  0.31265519  0.75000000  1
  Tb  Tb11  1  0.01722290  0.64573762  0.75000000  1
  Mn  Mn12  1  0.99860792  0.16674150  0.00127203  1
  Mn  Mn13  1  0.00139208  0.49992550  0.99872797  1
  Mn  Mn14  1  0.00000000  0.83333300  0.00000000  1
  Mn  Mn15  1  0.49860792  -0.00007450  0.50127203  1
  Mn  Mn16  1  0.50000000  0.33333300  0.50000000  1
  Mn  Mn17  1  0.50139208  0.66674150  0.49872797  1
  Mn  Mn18  1  0.99860792  0.16674150  0.49872797  1
  Mn  Mn19  1  0.00139208  0.49992550  0.50127203  1
  Mn  Mn20  1  0.00000000  0.83333300  0.50000000  1
  Mn  Mn21  1  0.49860792  -0.00007450  0.99872797  1
  Mn  Mn22  1  0.50000000  0.33333300  0.00000000  1
  Mn  Mn23  1  0.50139208  0.66674150  0.00127203  1
  O  O24  1  0.80334799  0.26886770  0.04615545  1
  O  O25  1  0.79114048  0.59771045  0.04814864  1
  O  O26  1  0.79240693  0.93257493  0.05701369  1
  O  O27  1  0.70885952  0.09771045  0.45185136  1
  O  O28  1  0.70759307  0.43257493  0.44298631  1
  O  O29  1  0.69665201  0.76886770  0.45384455  1
  O  O30  1  0.20885952  0.06895655  0.54814864  1
  O  O31  1  0.19665201  0.39779830  0.54615545  1
  O  O32  1  0.20759307  0.73409207  0.55701369  1
  O  O33  1  0.29240693  0.23409207  0.94298631  1
  O  O34  1  0.29114048  0.56895655  0.95185136  1
  O  O35  1  0.30334799  0.89779830  0.95384455  1
  O  O36  1  0.20885952  0.06895655  0.95185136  1
  O  O37  1  0.19665201  0.39779830  0.95384455  1
  O  O38  1  0.20759307  0.73409207  0.94298631  1
  O  O39  1  0.29240693  0.23409207  0.55701369  1
  O  O40  1  0.29114048  0.56895655  0.54814864  1
  O  O41  1  0.30334799  0.89779830  0.54615545  1
  O  O42  1  0.80334799  0.26886770  0.45384455  1
  O  O43  1  0.79114048  0.59771045  0.45185136  1
  O  O44  1  0.79240693  0.93257493  0.44298631  1
  O  O45  1  0.70885952  0.09771045  0.04814864  1
  O  O46  1  0.70759307  0.43257493  0.05701369  1
  O  O47  1  0.69665201  0.76886770  0.04615545  1
  O  O48  1  0.39955896  0.32419267  0.25000000  1
  O  O49  1  0.40869249  0.65509755  0.25000000  1
  O  O50  1  0.39644796  0.98869263  0.25000000  1
  O  O51  1  0.09130751  0.15509755  0.25000000  1
  O  O52  1  0.10355204  0.48869263  0.25000000  1
  O  O53  1  0.10044104  0.82419267  0.25000000  1
  O  O54  1  0.59130751  0.01156845  0.75000000  1
  O  O55  1  0.60044104  0.34247433  0.75000000  1
  O  O56  1  0.60355204  0.67797437  0.75000000  1
  O  O57  1  0.89644796  0.17797437  0.75000000  1
  O  O58  1  0.90869249  0.51156845  0.75000000  1
  O  O59  1  0.89955896  0.84247433  0.75000000  1
