# generated using pymatgen
data_BaBiNO5
_symmetry_space_group_name_H-M   'P 1'
_cell_length_a   5.92061975
_cell_length_b   6.22740472
_cell_length_c   8.41266169
_cell_angle_alpha   90.11143614
_cell_angle_beta   69.39719359
_cell_angle_gamma   90.31668260
_symmetry_Int_Tables_number   1
_chemical_formula_structural   BaBiNO5
_chemical_formula_sum   'Ba2 Bi2 N2 O10'
_cell_volume   290.33308431
_cell_formula_units_Z   2
loop_
 _symmetry_equiv_pos_site_id
 _symmetry_equiv_pos_as_xyz
  1  'x, y, z'
loop_
 _atom_site_type_symbol
 _atom_site_label
 _atom_site_symmetry_multiplicity
 _atom_site_fract_x
 _atom_site_fract_y
 _atom_site_fract_z
 _atom_site_occupancy
  Ba  Ba0  1  0.16497247  0.00426023  0.69132632  1
  Ba  Ba1  1  0.85629880  0.00426023  0.30867368  1
  Bi  Bi2  1  0.31454703  0.50399595  0.37972923  1
  Bi  Bi3  1  0.69427626  0.50399595  0.62027077  1
  N  N4  1  0.99421748  0.49290257  1.00000000  1
  N  N5  1  0.49279447  0.99307968  0.00000000  1
  O  O6  1  0.00509967  0.72433719  0.49897273  1
  O  O7  1  0.50473389  0.28206325  0.49922339  1
  O  O8  1  0.00395728  0.28206325  0.50077661  1
  O  O9  1  0.50407240  0.72433719  0.50102727  1
  O  O10  1  0.98389843  0.28908965  1.00000000  1
  O  O11  1  0.92905950  0.59186745  0.14038997  1
  O  O12  1  0.06944947  0.59186745  0.85961003  1
  O  O13  1  0.52601853  0.99885915  0.14043761  1
  O  O14  1  0.66645614  0.99885915  0.85956239  1
  O  O15  1  0.27914819  0.98116165  1.00000000  1
