# generated using pymatgen
data_Ba5LiMo2N7Cl2
_symmetry_space_group_name_H-M   'P 1'
_cell_length_a   6.14335235
_cell_length_b   11.26939453
_cell_length_c   11.38412143
_cell_angle_alpha   95.54321172
_cell_angle_beta   90.00000000
_cell_angle_gamma   90.00000000
_symmetry_Int_Tables_number   1
_chemical_formula_structural   Ba5LiMo2N7Cl2
_chemical_formula_sum   'Ba10 Li2 Mo4 N14 Cl4'
_cell_volume   784.45826412
_cell_formula_units_Z   2
loop_
 _symmetry_equiv_pos_site_id
 _symmetry_equiv_pos_as_xyz
  1  'x, y, z'
loop_
 _atom_site_type_symbol
 _atom_site_label
 _atom_site_symmetry_multiplicity
 _atom_site_fract_x
 _atom_site_fract_y
 _atom_site_fract_z
 _atom_site_occupancy
  Ba  Ba0  1  0.75000000  0.01761238  0.36857646  1
  Ba  Ba1  1  0.25000000  0.98238762  0.63142354  1
  Ba  Ba2  1  0.75000000  0.37507960  0.43901035  1
  Ba  Ba3  1  0.25000000  0.62492040  0.56098965  1
  Ba  Ba4  1  0.75000000  0.80616056  0.88418789  1
  Ba  Ba5  1  0.25000000  0.19383944  0.11581211  1
  Ba  Ba6  1  0.75000000  0.20330956  0.70228304  1
  Ba  Ba7  1  0.25000000  0.79669044  0.29771696  1
  Ba  Ba8  1  0.75000000  0.50408187  0.12147938  1
  Ba  Ba9  1  0.25000000  0.49591813  0.87852062  1
  Li  Li10  1  0.75000000  0.67046499  0.37455052  1
  Li  Li11  1  0.25000000  0.32953501  0.62544948  1
  Mo  Mo12  1  0.75000000  0.82496665  0.58545376  1
  Mo  Mo13  1  0.25000000  0.17503335  0.41454624  1
  Mo  Mo14  1  0.75000000  0.52741229  0.72573059  1
  Mo  Mo15  1  0.25000000  0.47258771  0.27426941  1
  N  N16  1  0.50449432  0.44128761  0.67416399  1
  N  N17  1  0.00449432  0.55871239  0.32583601  1
  N  N18  1  0.49550568  0.55871239  0.32583601  1
  N  N19  1  0.99550568  0.44128761  0.67416399  1
  N  N20  1  0.75000000  0.68011145  0.66275438  1
  N  N21  1  0.25000000  0.31988855  0.33724562  1
  N  N22  1  0.75000000  0.95110689  0.70443762  1
  N  N23  1  0.25000000  0.04889311  0.29556238  1
  N  N24  1  0.50743128  0.83135330  0.48901836  1
  N  N25  1  0.00743128  0.16864670  0.51098164  1
  N  N26  1  0.49256872  0.16864670  0.51098164  1
  N  N27  1  0.99256872  0.83135330  0.48901836  1
  N  N28  1  0.75000000  0.56178614  0.89014992  1
  N  N29  1  0.25000000  0.43821386  0.10985008  1
  Cl  Cl30  1  0.75000000  0.79459610  0.16694833  1
  Cl  Cl31  1  0.25000000  0.20540390  0.83305167  1
  Cl  Cl32  1  0.75000000  0.21122048  0.14219682  1
  Cl  Cl33  1  0.25000000  0.78877952  0.85780318  1
