# generated using pymatgen
data_BaCo2Sn4O11
_symmetry_space_group_name_H-M   'P 1'
_cell_length_a   6.18815629
_cell_length_b   6.18816033
_cell_length_c   14.28981291
_cell_angle_alpha   89.89669089
_cell_angle_beta   90.10334564
_cell_angle_gamma   59.58866670
_symmetry_Int_Tables_number   1
_chemical_formula_structural   BaCo2Sn4O11
_chemical_formula_sum   'Ba2 Co4 Sn8 O22'
_cell_volume   471.91315980
_cell_formula_units_Z   2
loop_
 _symmetry_equiv_pos_site_id
 _symmetry_equiv_pos_as_xyz
  1  'x, y, z'
loop_
 _atom_site_type_symbol
 _atom_site_label
 _atom_site_symmetry_multiplicity
 _atom_site_fract_x
 _atom_site_fract_y
 _atom_site_fract_z
 _atom_site_occupancy
  Ba  Ba0  1  0.33193941  0.33190014  0.74999620  1
  Ba  Ba1  1  0.66806059  0.66809986  0.25000380  1
  Co  Co2  1  0.66721854  0.66722451  0.74999108  1
  Co  Co3  1  0.33278146  0.33277549  0.25000892  1
  Co  Co4  1  0.50000000  -0.00000000  0.50000000  1
  Co  Co5  1  0.00000000  0.50000000  0.00000000  1
  Sn  Sn6  1  0.99536398  0.00927269  0.64594286  1
  Sn  Sn7  1  0.00463602  0.99072731  0.35405714  1
  Sn  Sn8  1  0.99072820  0.00463475  0.14594322  1
  Sn  Sn9  1  0.00927180  0.99536525  0.85405678  1
  Sn  Sn10  1  0.00000000  0.50000000  0.50000000  1
  Sn  Sn11  1  0.50000000  0.50000000  0.50000000  1
  Sn  Sn12  1  0.50000000  -0.00000000  0.00000000  1
  Sn  Sn13  1  0.50000000  0.50000000  0.00000000  1
  O  O14  1  0.17338394  0.65296218  0.58353923  1
  O  O15  1  0.65145907  0.17631831  0.58115573  1
  O  O16  1  0.17203136  0.17611882  0.58138103  1
  O  O17  1  0.82661606  0.34703782  0.41646077  1
  O  O18  1  0.34854093  0.82368169  0.41884427  1
  O  O19  1  0.82796864  0.82388118  0.41861897  1
  O  O20  1  0.82369062  0.34854328  0.08115442  1
  O  O21  1  0.34703675  0.82660843  0.08353995  1
  O  O22  1  0.82387950  0.82796961  0.08138014  1
  O  O23  1  0.17630938  0.65145672  0.91884558  1
  O  O24  1  0.65296325  0.17339157  0.91646005  1
  O  O25  1  0.17612050  0.17203039  0.91861986  1
  O  O26  1  0.85313096  0.85322056  0.75000085  1
  O  O27  1  0.85160017  0.29603925  0.75203706  1
  O  O28  1  0.29602816  0.85153320  0.74796382  1
  O  O29  1  0.14686904  0.14677944  0.24999915  1
  O  O30  1  0.14839983  0.70396075  0.24796294  1
  O  O31  1  0.70397184  0.14846680  0.25203618  1
  O  O32  1  0.67132372  0.65711174  0.57689506  1
  O  O33  1  0.32867628  0.34288826  0.42310494  1
  O  O34  1  0.34290230  0.32866663  0.07689731  1
  O  O35  1  0.65709770  0.67133337  0.92310269  1
