# generated using pymatgen
data_Ba6Mn2Zn(ClF2)6
_symmetry_space_group_name_H-M   'P 1'
_cell_length_a   5.93076255
_cell_length_b   10.24352842
_cell_length_c   10.24336526
_cell_angle_alpha   120.00031172
_cell_angle_beta   90.00041357
_cell_angle_gamma   89.99992411
_symmetry_Int_Tables_number   1
_chemical_formula_structural   Ba6Mn2Zn(ClF2)6
_chemical_formula_sum   'Ba6 Mn2 Zn1 Cl6 F12'
_cell_volume   538.92960350
_cell_formula_units_Z   1
loop_
 _symmetry_equiv_pos_site_id
 _symmetry_equiv_pos_as_xyz
  1  'x, y, z'
loop_
 _atom_site_type_symbol
 _atom_site_label
 _atom_site_symmetry_multiplicity
 _atom_site_fract_x
 _atom_site_fract_y
 _atom_site_fract_z
 _atom_site_occupancy
  Ba  Ba0  1  0.25005583  0.90830361  0.59727311  1
  Ba  Ba1  1  0.25006011  0.40272045  0.31103751  1
  Ba  Ba2  1  0.25005045  0.68896415  0.09168852  1
  Ba  Ba3  1  0.74994417  0.09169639  0.40272689  1
  Ba  Ba4  1  0.74993989  0.59727955  0.68896249  1
  Ba  Ba5  1  0.74994955  0.31103585  0.90831148  1
  Mn  Mn6  1  0.75077016  0.66666039  0.33331276  1
  Mn  Mn7  1  0.24922984  0.33333961  0.66668724  1
  Zn  Zn8  1  0.00000000  0.00000000  -0.00000000  1
  Cl  Cl9  1  0.76496970  0.95093227  0.77772081  1
  Cl  Cl10  1  0.76497209  0.22227320  0.17320693  1
  Cl  Cl11  1  0.76497133  0.82679135  0.04906521  1
  Cl  Cl12  1  0.23503030  0.04906773  0.22227919  1
  Cl  Cl13  1  0.23502791  0.77772680  0.82679307  1
  Cl  Cl14  1  0.23502867  0.17320865  0.95093479  1
  F  F15  1  0.98668933  0.64119212  0.48050734  1
  F  F16  1  0.98669446  0.51948102  0.16067651  1
  F  F17  1  0.98670567  0.83931796  0.35880947  1
  F  F18  1  0.48653515  0.35762937  0.51820410  1
  F  F19  1  0.48654764  0.48180813  0.83943282  1
  F  F20  1  0.48654255  0.16057434  0.64237729  1
  F  F21  1  0.01331067  0.35880788  0.51949266  1
  F  F22  1  0.01330554  0.48051898  0.83932349  1
  F  F23  1  0.01329433  0.16068204  0.64119053  1
  F  F24  1  0.51346485  0.64237063  0.48179590  1
  F  F25  1  0.51345236  0.51819187  0.16056718  1
  F  F26  1  0.51345745  0.83942566  0.35762271  1
