# generated using pymatgen
data_Ba5Mg18Ge13
_symmetry_space_group_name_H-M   'P 1'
_cell_length_a   4.54146075
_cell_length_b   14.73770181
_cell_length_c   14.73770214
_cell_angle_alpha   59.99923223
_cell_angle_beta   90.00003138
_cell_angle_gamma   89.99996856
_symmetry_Int_Tables_number   1
_chemical_formula_structural   Ba5Mg18Ge13
_chemical_formula_sum   'Ba5 Mg18 Ge13'
_cell_volume   854.24486470
_cell_formula_units_Z   1
loop_
 _symmetry_equiv_pos_site_id
 _symmetry_equiv_pos_as_xyz
  1  'x, y, z'
loop_
 _atom_site_type_symbol
 _atom_site_label
 _atom_site_symmetry_multiplicity
 _atom_site_fract_x
 _atom_site_fract_y
 _atom_site_fract_z
 _atom_site_occupancy
  Ba  Ba0  1  0.00009956  0.33331111  0.33337425  1
  Ba  Ba1  1  0.00009956  0.66662575  0.66668889  1
  Ba  Ba2  1  0.50357885  0.18233117  0.81766883  1
  Ba  Ba3  1  0.50358396  0.81767029  0.00000023  1
  Ba  Ba4  1  0.50358396  -0.00000023  0.18232971  1
  Mg  Mg5  1  0.99976515  0.55794880  0.44205120  1
  Mg  Mg6  1  0.99976375  0.44204819  0.00000488  1
  Mg  Mg7  1  0.99976375  0.99999512  0.55795181  1
  Mg  Mg8  1  0.50011701  0.36090996  0.51622265  1
  Mg  Mg9  1  0.50012044  0.51621761  0.12287277  1
  Mg  Mg10  1  0.50011298  0.12287025  0.36090907  1
  Mg  Mg11  1  0.50011701  0.48377735  0.63909004  1
  Mg  Mg12  1  0.50012044  0.87712723  0.48378239  1
  Mg  Mg13  1  0.50011298  0.63909093  0.87712975  1
  Mg  Mg14  1  0.00025181  0.37399953  0.82362257  1
  Mg  Mg15  1  0.00025427  0.82362055  0.80237189  1
  Mg  Mg16  1  0.00025108  0.80236883  0.37400853  1
  Mg  Mg17  1  0.00025181  0.17637743  0.62600047  1
  Mg  Mg18  1  0.00025427  0.19762811  0.17637945  1
  Mg  Mg19  1  0.00025108  0.62599147  0.19763117  1
  Mg  Mg20  1  0.49952074  0.71976730  0.28023270  1
  Mg  Mg21  1  0.49951810  0.28022960  0.00000089  1
  Mg  Mg22  1  0.49951810  0.99999911  0.71977040  1
  Ge  Ge23  1  0.00088209  0.36931507  0.63068493  1
  Ge  Ge24  1  0.00088104  0.63068606  0.99999905  1
  Ge  Ge25  1  0.00088104  0.00000095  0.36931394  1
  Ge  Ge26  1  0.50001138  0.16773297  0.52191017  1
  Ge  Ge27  1  0.50001479  0.52190549  0.31036018  1
  Ge  Ge28  1  0.50001324  0.31036100  0.16773526  1
  Ge  Ge29  1  0.50001138  0.47808983  0.83226703  1
  Ge  Ge30  1  0.50001479  0.68963982  0.47809451  1
  Ge  Ge31  1  0.50001324  0.83226474  0.68963900  1
  Ge  Ge32  1  0.99725732  0.82722027  0.17277973  1
  Ge  Ge33  1  0.99725742  0.17277801  0.00000031  1
  Ge  Ge34  1  0.99725742  -0.00000031  0.82722199  1
  Ge  Ge35  1  0.08819423  0.00000064  0.99999936  1
