# generated using pymatgen
data_Ba3TiFe2O9
_symmetry_space_group_name_H-M   'P 1'
_cell_length_a   5.77454135
_cell_length_b   5.77454135
_cell_length_c   14.11850434
_cell_angle_alpha   90.00000000
_cell_angle_beta   90.00000000
_cell_angle_gamma   119.99987407
_symmetry_Int_Tables_number   1
_chemical_formula_structural   Ba3TiFe2O9
_chemical_formula_sum   'Ba6 Ti2 Fe4 O18'
_cell_volume   407.71328740
_cell_formula_units_Z   2
loop_
 _symmetry_equiv_pos_site_id
 _symmetry_equiv_pos_as_xyz
  1  'x, y, z'
loop_
 _atom_site_type_symbol
 _atom_site_label
 _atom_site_symmetry_multiplicity
 _atom_site_fract_x
 _atom_site_fract_y
 _atom_site_fract_z
 _atom_site_occupancy
  Ba  Ba0  1  0.66666484  0.33333516  0.59677448  1
  Ba  Ba1  1  0.33333760  0.66666240  0.41688681  1
  Ba  Ba2  1  0.33333516  0.66666484  0.09677448  1
  Ba  Ba3  1  0.66666240  0.33333760  0.91688681  1
  Ba  Ba4  1  0.00000390  0.99999610  0.74749991  1
  Ba  Ba5  1  0.99999610  0.00000390  0.24749991  1
  Ti  Ti6  1  0.66666689  0.33333311  0.35181421  1
  Ti  Ti7  1  0.33333311  0.66666689  0.85181421  1
  Fe  Fe8  1  0.33333403  0.66666597  0.65803985  1
  Fe  Fe9  1  0.66666597  0.33333403  0.15803985  1
  Fe  Fe10  1  0.00000116  0.99999884  0.50179310  1
  Fe  Fe11  1  0.99999884  0.00000116  0.00179310  1
  O  O12  1  0.17107532  0.34213891  0.58135229  1
  O  O13  1  0.17107423  0.82892577  0.58135111  1
  O  O14  1  0.65786109  0.82892468  0.58135229  1
  O  O15  1  0.83240495  0.66481130  0.41633735  1
  O  O16  1  0.83240511  0.16759489  0.41633746  1
  O  O17  1  0.33518870  0.16759505  0.41633735  1
  O  O18  1  0.82892468  0.65786109  0.08135229  1
  O  O19  1  0.82892577  0.17107423  0.08135111  1
  O  O20  1  0.34213891  0.17107532  0.08135229  1
  O  O21  1  0.16759505  0.33518870  0.91633735  1
  O  O22  1  0.16759489  0.83240511  0.91633746  1
  O  O23  1  0.66481130  0.83240495  0.91633735  1
  O  O24  1  0.48007473  0.96014892  0.74470760  1
  O  O25  1  0.48008288  0.51991712  0.74470860  1
  O  O26  1  0.03985108  0.51992527  0.74470760  1
  O  O27  1  0.51992527  0.03985108  0.24470760  1
  O  O28  1  0.51991712  0.48008288  0.24470860  1
  O  O29  1  0.96014892  0.48007473  0.24470760  1
