# generated using pymatgen
data_Ba6Bi2(TeO6)3
_symmetry_space_group_name_H-M   'P 1'
_cell_length_a   6.06877270
_cell_length_b   8.63358758
_cell_length_c   10.54176950
_cell_angle_alpha   65.82693288
_cell_angle_beta   73.27106951
_cell_angle_gamma   90.00000000
_symmetry_Int_Tables_number   1
_chemical_formula_structural   Ba6Bi2(TeO6)3
_chemical_formula_sum   'Ba6 Bi2 Te3 O18'
_cell_volume   478.16742312
_cell_formula_units_Z   1
loop_
 _symmetry_equiv_pos_site_id
 _symmetry_equiv_pos_as_xyz
  1  'x, y, z'
loop_
 _atom_site_type_symbol
 _atom_site_label
 _atom_site_symmetry_multiplicity
 _atom_site_fract_x
 _atom_site_fract_y
 _atom_site_fract_z
 _atom_site_occupancy
  Ba  Ba0  1  0.50000000  0.22130009  0.00000000  1
  Ba  Ba1  1  0.84578485  0.61248881  0.30842930  1
  Ba  Ba2  1  0.15421515  0.92091911  0.69157070  1
  Ba  Ba3  1  0.50000000  0.77869991  0.00000000  1
  Ba  Ba4  1  0.84578485  0.07908089  0.30842930  1
  Ba  Ba5  1  0.15421515  0.38751119  0.69157070  1
  Bi  Bi6  1  0.33407674  0.33407674  0.33184552  1
  Bi  Bi7  1  0.66592326  0.66592326  0.66815448  1
  Te  Te8  1  -0.00000000  0.50000000  0.00000000  1
  Te  Te9  1  0.33123309  0.83123309  0.33753282  1
  Te  Te10  1  0.66876691  0.16876691  0.66246718  1
  O  O11  1  -0.00000000  0.27825971  0.00000000  1
  O  O12  1  0.33136010  0.60061861  0.33727879  1
  O  O13  1  0.66863990  0.93789841  0.66272121  1
  O  O14  1  0.15293614  0.42237755  0.15524591  1
  O  O15  1  0.48491896  0.75519968  0.48960064  1
  O  O16  1  0.81991080  0.09417965  0.81163970  1
  O  O17  1  0.30818105  0.57762245  0.84475409  1
  O  O18  1  0.63155150  0.90582035  0.18836030  1
  O  O19  1  0.97451960  0.24480032  0.51039936  1
  O  O20  1  -0.00000000  0.72174029  0.00000000  1
  O  O21  1  0.33136010  0.06210159  0.33727879  1
  O  O22  1  0.66863990  0.39938139  0.66272121  1
  O  O23  1  0.84706386  0.57762245  0.84475409  1
  O  O24  1  0.18008920  0.90582035  0.18836030  1
  O  O25  1  0.51508104  0.24480032  0.51039936  1
  O  O26  1  0.69181895  0.42237755  0.15524591  1
  O  O27  1  0.02548040  0.75519968  0.48960064  1
  O  O28  1  0.36844850  0.09417965  0.81163970  1
