# generated using pymatgen
data_Ba5Li2(TeO5)3
_symmetry_space_group_name_H-M   'P 1'
_cell_length_a   8.28783824
_cell_length_b   10.22861328
_cell_length_c   10.22861327
_cell_angle_alpha   80.55327626
_cell_angle_beta   113.89928348
_cell_angle_gamma   113.89928350
_symmetry_Int_Tables_number   1
_chemical_formula_structural   Ba5Li2(TeO5)3
_chemical_formula_sum   'Ba10 Li4 Te6 O30'
_cell_volume   724.79183683
_cell_formula_units_Z   2
loop_
 _symmetry_equiv_pos_site_id
 _symmetry_equiv_pos_as_xyz
  1  'x, y, z'
loop_
 _atom_site_type_symbol
 _atom_site_label
 _atom_site_symmetry_multiplicity
 _atom_site_fract_x
 _atom_site_fract_y
 _atom_site_fract_z
 _atom_site_occupancy
  Ba  Ba0  1  0.75000000  0.50000000  0.50000000  1
  Ba  Ba1  1  0.35444656  0.89756988  0.30723108  1
  Ba  Ba2  1  0.14964560  0.10243012  0.69276892  1
  Ba  Ba3  1  0.54312332  0.69276892  0.89756988  1
  Ba  Ba4  1  0.95278452  0.30723108  0.10243012  1
  Ba  Ba5  1  0.45687668  0.30723108  0.10243012  1
  Ba  Ba6  1  0.04721548  0.69276892  0.89756988  1
  Ba  Ba7  1  0.85035440  0.89756988  0.30723108  1
  Ba  Ba8  1  0.25000000  0.50000000  0.50000000  1
  Ba  Ba9  1  0.64555344  0.10243012  0.69276892  1
  Li  Li10  1  0.80116781  0.20257325  0.39976238  1
  Li  Li11  1  0.59859456  0.39976238  0.79742675  1
  Li  Li12  1  0.40140544  0.60023762  0.20257325  1
  Li  Li13  1  0.19883219  0.79742675  0.60023762  1
  Te  Te14  1  0.10167177  0.40956983  0.79377372  1
  Te  Te15  1  0.69210195  0.79377372  0.59043017  1
  Te  Te16  1  0.50000000  0.00000000  0.00000000  1
  Te  Te17  1  0.89832823  0.59043017  0.20622628  1
  Te  Te18  1  0.30789805  0.20622628  0.40956983  1
  Te  Te19  1  -0.00000000  0.00000000  0.00000000  1
  O  O20  1  0.86672520  0.39394106  0.80275766  1
  O  O21  1  0.47278414  0.80275766  0.60605894  1
  O  O22  1  0.24308928  0.00000000  0.00000000  1
  O  O23  1  0.67002648  0.60605894  0.19724234  1
  O  O24  1  0.06396753  0.19724234  0.39394106  1
  O  O25  1  0.23645448  0.48674019  0.98616877  1
  O  O26  1  0.86111935  0.90749602  0.81474267  1
  O  O27  1  0.63712028  0.09055207  0.18368849  1
  O  O28  1  0.04013027  0.69811469  0.38214584  1
  O  O29  1  0.44475200  0.29766225  0.59184176  1
  O  O30  1  0.04637668  0.18525733  0.90749602  1
  O  O31  1  0.65798443  0.61785416  0.69811469  1
  O  O32  1  0.45343179  0.81631151  0.09055207  1
  O  O33  1  0.85291024  0.40815824  0.29766225  1
  O  O34  1  0.25028571  0.01383123  0.48674019  1
  O  O35  1  0.32997352  0.39394106  0.80275766  1
  O  O36  1  0.93603247  0.80275766  0.60605894  1
  O  O37  1  0.75691072  1.00000000  1.00000000  1
  O  O38  1  0.13327480  0.60605894  0.19724234  1
  O  O39  1  0.52721586  0.19724234  0.39394106  1
  O  O40  1  0.95986973  0.30188531  0.61785416  1
  O  O41  1  0.55524800  0.70233775  0.40815824  1
  O  O42  1  0.36287972  0.90944793  0.81631151  1
  O  O43  1  0.76354552  0.51325981  0.01383123  1
  O  O44  1  0.13888065  0.09250398  0.18525733  1
  O  O45  1  0.14708976  0.59184176  0.70233775  1
  O  O46  1  0.74971429  0.98616877  0.51325981  1
  O  O47  1  0.54656821  0.18368849  0.90944793  1
  O  O48  1  0.95362332  0.81474267  0.09250398  1
  O  O49  1  0.34201557  0.38214584  0.30188531  1
