# generated using pymatgen
data_K4Sb2O5
_symmetry_space_group_name_H-M   'P 1'
_cell_length_a   3.93095387
_cell_length_b   6.47568639
_cell_length_c   9.49125460
_cell_angle_alpha   90.00000000
_cell_angle_beta   78.04854320
_cell_angle_gamma   90.00000000
_symmetry_Int_Tables_number   1
_chemical_formula_structural   K4Sb2O5
_chemical_formula_sum   'K4 Sb2 O5'
_cell_volume   236.36862058
_cell_formula_units_Z   1
loop_
 _symmetry_equiv_pos_site_id
 _symmetry_equiv_pos_as_xyz
  1  'x, y, z'
loop_
 _atom_site_type_symbol
 _atom_site_label
 _atom_site_symmetry_multiplicity
 _atom_site_fract_x
 _atom_site_fract_y
 _atom_site_fract_z
 _atom_site_occupancy
  K  K0  1  0.09797680  0.75000000  0.80404641  1
  K  K1  1  0.90279832  0.25000000  0.19440337  1
  K  K2  1  0.76265184  0.75000000  0.47469632  1
  K  K3  1  0.23630621  0.25000000  0.52738758  1
  Sb  Sb4  1  0.41282493  0.75000000  0.17435015  1
  Sb  Sb5  1  0.58311482  0.25000000  0.83377036  1
  O  O6  1  0.34732443  0.51897104  0.30535113  1
  O  O7  1  0.65207294  0.47809757  0.69585412  1
  O  O8  1  0.34732443  0.98102896  0.30535113  1
  O  O9  1  0.65207294  0.02190243  0.69585412  1
  O  O10  1  0.95133235  0.75000000  0.09733530  1
