# generated using pymatgen
data_Ba6Ti5PtO18
_symmetry_space_group_name_H-M   'P 1'
_cell_length_a   5.79134372
_cell_length_b   5.79134372
_cell_length_c   14.24697059
_cell_angle_alpha   90.00016045
_cell_angle_beta   89.99983955
_cell_angle_gamma   119.99986903
_symmetry_Int_Tables_number   1
_chemical_formula_structural   Ba6Ti5PtO18
_chemical_formula_sum   'Ba6 Ti5 Pt1 O18'
_cell_volume   413.82089405
_cell_formula_units_Z   1
loop_
 _symmetry_equiv_pos_site_id
 _symmetry_equiv_pos_as_xyz
  1  'x, y, z'
loop_
 _atom_site_type_symbol
 _atom_site_label
 _atom_site_symmetry_multiplicity
 _atom_site_fract_x
 _atom_site_fract_y
 _atom_site_fract_z
 _atom_site_occupancy
  Ba  Ba0  1  0.66665886  0.33334114  0.59392065  1
  Ba  Ba1  1  0.33333455  0.66666545  0.40307879  1
  Ba  Ba2  1  0.33333691  0.66666309  0.09060339  1
  Ba  Ba3  1  0.66667579  0.33332421  0.90151447  1
  Ba  Ba4  1  0.99999875  0.00000125  0.74755135  1
  Ba  Ba5  1  0.00000769  0.99999231  0.24751762  1
  Ti  Ti6  1  0.99999774  0.00000226  0.49460368  1
  Ti  Ti7  1  0.00000463  0.99999537  0.99168676  1
  Ti  Ti8  1  0.33332468  0.66667532  0.64804937  1
  Ti  Ti9  1  0.33333688  0.66666312  0.83805769  1
  Ti  Ti10  1  0.66666426  0.33333574  0.14538404  1
  Pt  Pt11  1  0.66666926  0.33333074  0.34232155  1
  O  O12  1  0.16718784  0.33438714  0.58495401  1
  O  O13  1  0.16719232  0.83280768  0.58495141  1
  O  O14  1  0.66561286  0.83281216  0.58495401  1
  O  O15  1  0.83777897  0.67556774  0.42551764  1
  O  O16  1  0.83778008  0.16221992  0.42551926  1
  O  O17  1  0.32443226  0.16222103  0.42551764  1
  O  O18  1  0.83259715  0.66521038  0.08185200  1
  O  O19  1  0.83260420  0.16739580  0.08185102  1
  O  O20  1  0.33478962  0.16740285  0.08185200  1
  O  O21  1  0.16377472  0.32755234  0.92211320  1
  O  O22  1  0.16377732  0.83622268  0.92211975  1
  O  O23  1  0.67244766  0.83622528  0.92211320  1
  O  O24  1  0.48256315  0.96512154  0.75388579  1
  O  O25  1  0.48257104  0.51742896  0.75388477  1
  O  O26  1  0.03487846  0.51743685  0.75388579  1
  O  O27  1  0.51543571  0.03086122  0.25024647  1
  O  O28  1  0.51542786  0.48457214  0.25024621  1
  O  O29  1  0.96913878  0.48456429  0.25024647  1
