# generated using pymatgen
data_Ba4Sr2Dy2Co4O15
_symmetry_space_group_name_H-M   'P 1'
_cell_length_a   6.86148971
_cell_length_b   11.72552050
_cell_length_c   11.70068335
_cell_angle_alpha   120.06711038
_cell_angle_beta   89.57936473
_cell_angle_gamma   90.84086026
_symmetry_Int_Tables_number   1
_chemical_formula_structural   Ba4Sr2Dy2Co4O15
_chemical_formula_sum   'Ba8 Sr4 Dy4 Co8 O30'
_cell_volume   814.61339228
_cell_formula_units_Z   2
loop_
 _symmetry_equiv_pos_site_id
 _symmetry_equiv_pos_as_xyz
  1  'x, y, z'
loop_
 _atom_site_type_symbol
 _atom_site_label
 _atom_site_symmetry_multiplicity
 _atom_site_fract_x
 _atom_site_fract_y
 _atom_site_fract_z
 _atom_site_occupancy
  Ba  Ba0  1  0.32277743  0.17369516  0.82869397  1
  Ba  Ba1  1  0.33090840  0.65385263  0.82779512  1
  Ba  Ba2  1  0.32470131  0.17694716  0.34870554  1
  Ba  Ba3  1  0.83094406  0.82609140  0.17224909  1
  Ba  Ba4  1  0.82274343  0.34503818  0.17126946  1
  Ba  Ba5  1  0.82473358  0.82830315  0.65131691  1
  Ba  Ba6  1  0.00286465  0.33523322  0.66982985  1
  Ba  Ba7  1  0.50291193  0.66550004  0.33018920  1
  Sr  Sr8  1  0.51266300  0.99890161  0.99976312  1
  Sr  Sr9  1  0.01270014  0.99912221  0.00025268  1
  Sr  Sr10  1  0.66285094  0.47559303  0.52522550  1
  Sr  Sr11  1  0.16272392  0.95034009  0.47478616  1
  Dy  Dy12  1  0.66572951  0.04668931  0.52291098  1
  Dy  Dy13  1  0.65542577  0.47850803  0.95456702  1
  Dy  Dy14  1  0.16576259  0.52383200  0.47708186  1
  Dy  Dy15  1  0.15550036  0.52389739  0.04539434  1
  Co  Co16  1  0.82832600  0.17846627  0.82693160  1
  Co  Co17  1  0.84225653  0.64759428  0.82117605  1
  Co  Co18  1  0.83524705  0.17899757  0.35247086  1
  Co  Co19  1  0.34218961  0.82641144  0.17883948  1
  Co  Co20  1  0.32837736  0.35153097  0.17310650  1
  Co  Co21  1  0.33525352  0.82642302  0.64751782  1
  Co  Co22  1  0.46273509  0.33456690  0.66919263  1
  Co  Co23  1  0.96283474  0.66531882  0.33072175  1
  O  O24  1  0.25107981  0.90448038  0.09016433  1
  O  O25  1  0.25750068  0.17840035  0.08494081  1
  O  O26  1  0.25276886  0.91336016  0.81864700  1
  O  O27  1  0.75748493  0.09349533  0.91509931  1
  O  O28  1  0.75118011  0.81435960  0.90979407  1
  O  O29  1  0.75277619  0.09463434  0.18133785  1
  O  O30  1  0.31873766  0.41831204  0.58523123  1
  O  O31  1  0.34193088  0.16960518  0.58673889  1
  O  O32  1  0.32440929  0.42119393  0.84091144  1
  O  O33  1  0.84192110  0.58297948  0.41326591  1
  O  O34  1  0.81858223  0.83314572  0.41480204  1
  O  O35  1  0.82442249  0.58029051  0.15905797  1
  O  O36  1  0.65385744  0.25493453  0.76034927  1
  O  O37  1  0.66020219  0.50116311  0.76292978  1
  O  O38  1  0.66047092  0.24099854  0.49786536  1
  O  O39  1  0.16015039  0.73815932  0.23710330  1
  O  O40  1  0.15382624  0.49450227  0.23963594  1
  O  O41  1  0.16049504  0.74311307  0.50208909  1
  O  O42  1  0.46470557  0.66130654  0.06139638  1
  O  O43  1  0.44248888  0.40147873  0.33412510  1
  O  O44  1  0.48043820  0.94072777  0.60772410  1
  O  O45  1  0.45952946  0.39823276  0.05872947  1
  O  O46  1  0.47978888  0.93502602  0.33016467  1
  O  O47  1  0.45047879  0.66715981  0.60388833  1
  O  O48  1  0.95953875  0.33950151  0.94124814  1
  O  O49  1  0.97986367  0.60488457  0.66979865  1
  O  O50  1  0.95050621  0.06330526  0.39610367  1
  O  O51  1  0.96483369  0.59997242  0.93862131  1
  O  O52  1  0.94243809  0.06736396  0.66591638  1
  O  O53  1  0.98043246  0.33305888  0.39233273  1
