# generated using pymatgen
data_Ba4Na2W2O11
_symmetry_space_group_name_H-M   'P 1'
_cell_length_a   6.00271404
_cell_length_b   6.01075796
_cell_length_c   8.70984615
_cell_angle_alpha   90.00000000
_cell_angle_beta   90.00000000
_cell_angle_gamma   91.13507655
_symmetry_Int_Tables_number   1
_chemical_formula_structural   Ba4Na2W2O11
_chemical_formula_sum   'Ba4 Na2 W2 O11'
_cell_volume   314.19708365
_cell_formula_units_Z   1
loop_
 _symmetry_equiv_pos_site_id
 _symmetry_equiv_pos_as_xyz
  1  'x, y, z'
loop_
 _atom_site_type_symbol
 _atom_site_label
 _atom_site_symmetry_multiplicity
 _atom_site_fract_x
 _atom_site_fract_y
 _atom_site_fract_z
 _atom_site_occupancy
  Ba  Ba0  1  0.47462959  0.02152502  0.72104022  1
  Ba  Ba1  1  0.47462959  0.02152502  0.27895978  1
  Ba  Ba2  1  0.97797748  0.52421095  0.72048085  1
  Ba  Ba3  1  0.97797748  0.52421095  0.27951915  1
  Na  Na4  1  0.48292670  0.51610205  0.50000000  1
  Na  Na5  1  0.02164574  0.97962809  -0.00000000  1
  W  W6  1  0.49852718  0.50179519  -0.00000000  1
  W  W7  1  0.97874630  0.02010020  0.50000000  1
  O  O8  1  0.75291056  0.24594481  0.50000000  1
  O  O9  1  0.20971209  0.78952756  0.50000000  1
  O  O10  1  0.75473379  0.78160182  0.50000000  1
  O  O11  1  0.21790386  0.24373018  0.50000000  1
  O  O12  1  0.97575527  0.02327893  0.72858304  1
  O  O13  1  0.97575527  0.02327893  0.27141696  1
  O  O14  1  0.50661315  0.49300922  0.22256068  1
  O  O15  1  0.50661315  0.49300922  0.77743932  1
  O  O16  1  0.28413658  0.71862566  0.00000000  1
  O  O17  1  0.80047195  0.59730038  -0.00000000  1
  O  O18  1  0.39943428  0.20119579  0.00000000  1
