# generated using pymatgen
data_Ba3In2WO9
_symmetry_space_group_name_H-M   'P 1'
_cell_length_a   5.97469336
_cell_length_b   8.45858737
_cell_length_c   10.36183104
_cell_angle_alpha   114.08935078
_cell_angle_beta   106.75638903
_cell_angle_gamma   90.00000000
_symmetry_Int_Tables_number   1
_chemical_formula_structural   Ba3In2WO9
_chemical_formula_sum   'Ba6 In4 W2 O18'
_cell_volume   453.58995030
_cell_formula_units_Z   2
loop_
 _symmetry_equiv_pos_site_id
 _symmetry_equiv_pos_as_xyz
  1  'x, y, z'
loop_
 _atom_site_type_symbol
 _atom_site_label
 _atom_site_symmetry_multiplicity
 _atom_site_fract_x
 _atom_site_fract_y
 _atom_site_fract_z
 _atom_site_occupancy
  Ba  Ba0  1  0.83891646  0.58019431  0.67783392  1
  Ba  Ba1  1  0.50000000  0.26572503  0.00000000  1
  Ba  Ba2  1  0.16108354  0.90236139  0.32216608  1
  Ba  Ba3  1  0.83891646  0.09763861  0.67783392  1
  Ba  Ba4  1  0.50000000  0.73427497  1.00000000  1
  Ba  Ba5  1  0.16108354  0.41980569  0.32216608  1
  In  In6  1  0.33068804  0.33068804  0.66137707  1
  In  In7  1  0.00000000  -0.00000000  0.00000000  1
  In  In8  1  0.66931196  0.66931196  0.33862293  1
  In  In9  1  0.00000000  0.50000000  0.00000000  1
  W  W10  1  0.66750632  0.16750632  0.33501164  1
  W  W11  1  0.33249368  0.83249368  0.66498836  1
  O  O12  1  0.32969127  0.59793973  0.65938354  1
  O  O13  1  1.00000000  0.24147388  1.00000000  1
  O  O14  1  0.67030873  0.93855719  0.34061646  1
  O  O15  1  0.63934076  0.90919081  0.81838063  1
  O  O16  1  0.33627301  0.58698884  0.17397867  1
  O  O17  1  0.98129239  0.24460441  0.48920882  1
  O  O18  1  0.49208357  0.75539559  0.51079118  1
  O  O19  1  0.16229534  0.41301116  0.82602133  1
  O  O20  1  0.82095913  0.09080919  0.18161937  1
  O  O21  1  0.32969127  0.06144281  0.65938354  1
  O  O22  1  0.00000000  0.75852612  0.00000000  1
  O  O23  1  0.67030873  0.40206027  0.34061646  1
  O  O24  1  0.01870761  0.75539559  0.51079118  1
  O  O25  1  0.66372699  0.41301116  0.82602133  1
  O  O26  1  0.36065924  0.09080919  0.18161937  1
  O  O27  1  0.17904087  0.90919081  0.81838063  1
  O  O28  1  0.83770466  0.58698884  0.17397867  1
  O  O29  1  0.50791643  0.24460441  0.48920882  1
