# generated using pymatgen
data_Ba3NaIrRuO9
_symmetry_space_group_name_H-M   'P 1'
_cell_length_a   5.97716731
_cell_length_b   5.97716731
_cell_length_c   14.48763674
_cell_angle_alpha   90.00000000
_cell_angle_beta   90.00000000
_cell_angle_gamma   119.99065618
_symmetry_Int_Tables_number   1
_chemical_formula_structural   Ba3NaIrRuO9
_chemical_formula_sum   'Ba6 Na2 Ir2 Ru2 O18'
_cell_volume   448.29086437
_cell_formula_units_Z   2
loop_
 _symmetry_equiv_pos_site_id
 _symmetry_equiv_pos_as_xyz
  1  'x, y, z'
loop_
 _atom_site_type_symbol
 _atom_site_label
 _atom_site_symmetry_multiplicity
 _atom_site_fract_x
 _atom_site_fract_y
 _atom_site_fract_z
 _atom_site_occupancy
  Ba  Ba0  1  0.99993164  0.00006836  0.74957453  1
  Ba  Ba1  1  0.00006836  0.99993164  0.24957453  1
  Ba  Ba2  1  0.66670458  0.33329542  0.41237172  1
  Ba  Ba3  1  0.33327092  0.66672908  0.58932371  1
  Ba  Ba4  1  0.33329542  0.66670458  0.91237172  1
  Ba  Ba5  1  0.66672908  0.33327092  0.08932371  1
  Na  Na6  1  -0.00001001  0.00001001  0.49998608  1
  Na  Na7  1  0.00001001  -0.00001001  -0.00001392  1
  Ir  Ir8  1  0.66660317  0.33339683  0.66498122  1
  Ir  Ir9  1  0.33339683  0.66660317  0.16498122  1
  Ru  Ru10  1  0.33335347  0.66664653  0.33902500  1
  Ru  Ru11  1  0.66664653  0.33335347  0.83902500  1
  O  O12  1  0.82026071  0.64048241  0.90860454  1
  O  O13  1  0.82022568  0.17977432  0.90864050  1
  O  O14  1  0.35951759  0.17973929  0.90860454  1
  O  O15  1  0.18027855  0.36045847  0.09112154  1
  O  O16  1  0.18033081  0.81966919  0.09111045  1
  O  O17  1  0.63954153  0.81972145  0.09112154  1
  O  O18  1  0.17973929  0.35951759  0.40860454  1
  O  O19  1  0.17977432  0.82022568  0.40864050  1
  O  O20  1  0.64048241  0.82026071  0.40860454  1
  O  O21  1  0.81972145  0.63954153  0.59112154  1
  O  O22  1  0.81966919  0.18033081  0.59111045  1
  O  O23  1  0.36045847  0.18027855  0.59112154  1
  O  O24  1  0.50840536  0.01627659  0.74853094  1
  O  O25  1  0.50797487  0.49202513  0.74847275  1
  O  O26  1  0.98372341  0.49159464  0.74853094  1
  O  O27  1  0.49159464  0.98372341  0.24853094  1
  O  O28  1  0.49202513  0.50797487  0.24847275  1
  O  O29  1  0.01627659  0.50840536  0.24853094  1
