# generated using pymatgen
data_B5Ir3W2
_symmetry_space_group_name_H-M   'P 1'
_cell_length_a   2.89775342
_cell_length_b   4.72452068
_cell_length_c   8.37997598
_cell_angle_alpha   73.62675572
_cell_angle_beta   80.04367254
_cell_angle_gamma   90.00000000
_symmetry_Int_Tables_number   1
_chemical_formula_structural   B5Ir3W2
_chemical_formula_sum   'B5 Ir3 W2'
_cell_volume   108.27138038
_cell_formula_units_Z   1
loop_
 _symmetry_equiv_pos_site_id
 _symmetry_equiv_pos_as_xyz
  1  'x, y, z'
loop_
 _atom_site_type_symbol
 _atom_site_label
 _atom_site_symmetry_multiplicity
 _atom_site_fract_x
 _atom_site_fract_y
 _atom_site_fract_z
 _atom_site_occupancy
  B  B0  1  0.77910768  0.07865240  0.44178465  1
  B  B1  1  0.22089232  0.52043704  0.55821535  1
  B  B2  1  0.77849980  0.47888080  0.44300041  1
  B  B3  1  0.22150020  0.92188121  0.55699959  1
  B  B4  1  0.50000000  0.65393408  -0.00000000  1
  Ir  Ir5  1  -0.00000000  0.99843992  -0.00000000  1
  Ir  Ir6  1  0.09497962  0.59469122  0.81004077  1
  Ir  Ir7  1  0.90502038  0.40473199  0.18995923  1
  W  W8  1  0.34839138  0.84806706  0.30321723  1
  W  W9  1  0.65160862  0.15128429  0.69678277  1
