# generated using pymatgen
data_Ba6Nd2Fe4O15
_symmetry_space_group_name_H-M   'P 1'
_cell_length_a   7.17301662
_cell_length_b   11.94448898
_cell_length_c   11.94447182
_cell_angle_alpha   119.52527109
_cell_angle_beta   90.16128777
_cell_angle_gamma   90.16135189
_symmetry_Int_Tables_number   1
_chemical_formula_structural   Ba6Nd2Fe4O15
_chemical_formula_sum   'Ba12 Nd4 Fe8 O30'
_cell_volume   890.46718336
_cell_formula_units_Z   2
loop_
 _symmetry_equiv_pos_site_id
 _symmetry_equiv_pos_as_xyz
  1  'x, y, z'
loop_
 _atom_site_type_symbol
 _atom_site_label
 _atom_site_symmetry_multiplicity
 _atom_site_fract_x
 _atom_site_fract_y
 _atom_site_fract_z
 _atom_site_occupancy
  Ba  Ba0  1  0.01935530  0.33284705  0.66541751  1
  Ba  Ba1  1  0.51935295  0.66540885  0.33284204  1
  Ba  Ba2  1  0.83626989  0.34785040  0.17396089  1
  Ba  Ba3  1  0.83498358  0.82798419  0.65247080  1
  Ba  Ba4  1  0.83460095  0.82814745  0.17739262  1
  Ba  Ba5  1  0.33498157  0.65247021  0.82798262  1
  Ba  Ba6  1  0.33628142  0.17395430  0.34784950  1
  Ba  Ba7  1  0.33460432  0.17739201  0.82814890  1
  Ba  Ba8  1  0.16865977  0.95462826  0.47857964  1
  Ba  Ba9  1  0.66866323  0.47857572  0.95462316  1
  Ba  Ba10  1  0.49398421  0.99883869  0.00007286  1
  Ba  Ba11  1  0.99398106  0.00007308  0.99883853  1
  Nd  Nd12  1  0.16664093  0.52207049  0.04335115  1
  Nd  Nd13  1  0.16029948  0.52113735  0.48000956  1
  Nd  Nd14  1  0.66664048  0.04334624  0.52206819  1
  Nd  Nd15  1  0.66029679  0.48001413  0.52114128  1
  Fe  Fe16  1  0.97249998  0.66624293  0.33699463  1
  Fe  Fe17  1  0.47248850  0.33699402  0.66624238  1
  Fe  Fe18  1  0.83263173  0.18158025  0.82384611  1
  Fe  Fe19  1  0.84105624  0.64140980  0.81798228  1
  Fe  Fe20  1  0.82734582  0.18367691  0.35675759  1
  Fe  Fe21  1  0.33260797  0.82386362  0.18158540  1
  Fe  Fe22  1  0.32731766  0.35673860  0.18366266  1
  Fe  Fe23  1  0.34106463  0.81798916  0.64141434  1
  O  O24  1  0.73153001  0.80391953  0.90173399  1
  O  O25  1  0.72794061  0.10336090  0.19115952  1
  O  O26  1  0.72507745  0.10450904  0.91115197  1
  O  O27  1  0.22793610  0.19114571  0.10335368  1
  O  O28  1  0.23153589  0.90173625  0.80391269  1
  O  O29  1  0.22508573  0.91114524  0.10450148  1
  O  O30  1  0.15738176  0.73980247  0.24141561  1
  O  O31  1  0.15237086  0.49750835  0.25574660  1
  O  O32  1  0.15897812  0.73778683  0.50274639  1
  O  O33  1  0.65738854  0.24141105  0.73979541  1
  O  O34  1  0.65897528  0.50274920  0.73778921  1
  O  O35  1  0.65237228  0.25575893  0.49751225  1
  O  O36  1  0.32673918  0.41910766  0.58170488  1
  O  O37  1  0.33831357  0.17465973  0.58380763  1
  O  O38  1  0.31995847  0.41601292  0.82644326  1
  O  O39  1  0.82674193  0.58170317  0.41910712  1
  O  O40  1  0.81995790  0.82644087  0.41601522  1
  O  O41  1  0.83831031  0.58381115  0.17465868  1
  O  O42  1  0.44940278  0.67158812  0.06279981  1
  O  O43  1  0.46548749  0.39807028  0.33647246  1
  O  O44  1  0.49210070  0.92997075  0.60825088  1
  O  O45  1  0.44344305  0.39560484  0.06677745  1
  O  O46  1  0.49121638  0.93400219  0.32358450  1
  O  O47  1  0.47144359  0.66463686  0.60245600  1
  O  O48  1  0.99121515  0.32358286  0.93400102  1
  O  O49  1  0.97144075  0.60245213  0.66463451  1
  O  O50  1  0.94344413  0.06677482  0.39561261  1
  O  O51  1  0.99209440  0.60825195  0.92996476  1
  O  O52  1  0.94940371  0.06279288  0.67158884  1
  O  O53  1  0.96550542  0.33646958  0.39806690  1
