# generated using pymatgen
data_Ba3(NaSb2)2
_symmetry_space_group_name_H-M   'P 1'
_cell_length_a   8.29523234
_cell_length_b   9.25518012
_cell_length_c   17.38127544
_cell_angle_alpha   89.97357704
_cell_angle_beta   90.00000000
_cell_angle_gamma   90.00000000
_symmetry_Int_Tables_number   1
_chemical_formula_structural   Ba3(NaSb2)2
_chemical_formula_sum   'Ba12 Na8 Sb16'
_cell_volume   1334.42762909
_cell_formula_units_Z   4
loop_
 _symmetry_equiv_pos_site_id
 _symmetry_equiv_pos_as_xyz
  1  'x, y, z'
loop_
 _atom_site_type_symbol
 _atom_site_label
 _atom_site_symmetry_multiplicity
 _atom_site_fract_x
 _atom_site_fract_y
 _atom_site_fract_z
 _atom_site_occupancy
  Ba  Ba0  1  0.01059708  0.80889609  0.59640441  1
  Ba  Ba1  1  0.51059708  0.69110391  0.90359559  1
  Ba  Ba2  1  0.98851838  0.18659438  0.09725884  1
  Ba  Ba3  1  0.48851838  0.31340562  0.40274116  1
  Ba  Ba4  1  0.98940292  0.19110391  0.40359559  1
  Ba  Ba5  1  0.48940292  0.30889609  0.09640441  1
  Ba  Ba6  1  0.01148162  0.81340562  0.90274116  1
  Ba  Ba7  1  0.51148162  0.68659438  0.59725884  1
  Ba  Ba8  1  0.82728003  0.68123099  0.13026626  1
  Ba  Ba9  1  0.32728003  0.81876901  0.36973374  1
  Ba  Ba10  1  0.17271997  0.31876901  0.86973374  1
  Ba  Ba11  1  0.67271997  0.18123099  0.63026626  1
  Na  Na12  1  0.34917582  0.98287564  0.75095777  1
  Na  Na13  1  0.84917582  0.51712436  0.74904223  1
  Na  Na14  1  0.65082418  0.01712436  0.24904223  1
  Na  Na15  1  0.15082418  0.48287564  0.25095777  1
  Na  Na16  1  0.17236457  0.32516202  0.62733339  1
  Na  Na17  1  0.67236457  0.17483798  0.87266661  1
  Na  Na18  1  0.82763543  0.67483798  0.37266661  1
  Na  Na19  1  0.32763543  0.82516202  0.12733339  1
  Sb  Sb20  1  0.47853116  0.41774235  0.74900932  1
  Sb  Sb21  1  0.97853116  0.08225765  0.75099068  1
  Sb  Sb22  1  0.52146884  0.58225765  0.25099068  1
  Sb  Sb23  1  0.02146884  0.91774235  0.24900932  1
  Sb  Sb24  1  0.22498530  0.63368251  0.75056582  1
  Sb  Sb25  1  0.72498530  0.86631749  0.74943418  1
  Sb  Sb26  1  0.77501470  0.36631749  0.24943418  1
  Sb  Sb27  1  0.27501470  0.13368251  0.25056582  1
  Sb  Sb28  1  0.34238434  0.03440409  0.53684038  1
  Sb  Sb29  1  0.84238434  0.46559591  0.96315962  1
  Sb  Sb30  1  0.65337470  0.96693923  0.03648430  1
  Sb  Sb31  1  0.15337470  0.53306077  0.46351570  1
  Sb  Sb32  1  0.65761566  0.96559591  0.46315962  1
  Sb  Sb33  1  0.15761566  0.53440409  0.03684038  1
  Sb  Sb34  1  0.34662530  0.03306077  0.96351570  1
  Sb  Sb35  1  0.84662530  0.46693923  0.53648430  1
