# generated using pymatgen
data_HgMo6(SeS)4
_symmetry_space_group_name_H-M   'P 1'
_cell_length_a   6.75205234
_cell_length_b   6.72324194
_cell_length_c   6.64960212
_cell_angle_alpha   91.89909967
_cell_angle_beta   91.84051854
_cell_angle_gamma   91.65723579
_symmetry_Int_Tables_number   1
_chemical_formula_structural   HgMo6(SeS)4
_chemical_formula_sum   'Hg1 Mo6 Se4 S4'
_cell_volume   301.40589699
_cell_formula_units_Z   1
loop_
 _symmetry_equiv_pos_site_id
 _symmetry_equiv_pos_as_xyz
  1  'x, y, z'
loop_
 _atom_site_type_symbol
 _atom_site_label
 _atom_site_symmetry_multiplicity
 _atom_site_fract_x
 _atom_site_fract_y
 _atom_site_fract_z
 _atom_site_occupancy
  Hg  Hg0  1  0.00394137  0.99794734  0.99991037  1
  Mo  Mo1  1  0.58525846  0.76857990  0.43961120  1
  Mo  Mo2  1  0.76907147  0.44516700  0.58804024  1
  Mo  Mo3  1  0.43970112  0.59330104  0.77829665  1
  Mo  Mo4  1  0.41329972  0.22712926  0.55843191  1
  Mo  Mo5  1  0.22398502  0.56092947  0.41103253  1
  Mo  Mo6  1  0.55817052  0.41353821  0.21881923  1
  Se  Se7  1  0.73892642  0.12352382  0.37305171  1
  Se  Se8  1  0.12346221  0.37810252  0.74113323  1
  Se  Se9  1  0.76981998  0.77493556  0.77628613  1
  Se  Se10  1  0.23005175  0.22911328  0.22526485  1
  S  S11  1  0.61271811  0.28558402  0.86642683  1
  S  S12  1  0.28267890  0.86993732  0.61297979  1
  S  S13  1  0.86690679  0.61297029  0.27918395  1
  S  S14  1  0.38200816  0.71924096  0.13153138  1
