# generated using pymatgen
data_BaMn8O16
_symmetry_space_group_name_H-M   'P 1'
_cell_length_a   5.94427871
_cell_length_b   9.96753531
_cell_length_c   9.97904199
_cell_angle_alpha   90.67290324
_cell_angle_beta   90.00000000
_cell_angle_gamma   90.00000000
_symmetry_Int_Tables_number   1
_chemical_formula_structural   BaMn8O16
_chemical_formula_sum   'Ba2 Mn16 O32'
_cell_volume   591.21554582
_cell_formula_units_Z   2
loop_
 _symmetry_equiv_pos_site_id
 _symmetry_equiv_pos_as_xyz
  1  'x, y, z'
loop_
 _atom_site_type_symbol
 _atom_site_label
 _atom_site_symmetry_multiplicity
 _atom_site_fract_x
 _atom_site_fract_y
 _atom_site_fract_z
 _atom_site_occupancy
  Ba  Ba0  1  0.12850599  0.75000000  0.25000000  1
  Ba  Ba1  1  0.87149401  0.25000000  0.75000000  1
  Mn  Mn2  1  0.62577372  0.59998468  0.91612335  1
  Mn  Mn3  1  0.37422628  0.40001532  0.08387665  1
  Mn  Mn4  1  0.62577372  0.90001532  0.58387665  1
  Mn  Mn5  1  0.37422628  0.09998468  0.41612335  1
  Mn  Mn6  1  0.87597071  0.58451880  0.59798702  1
  Mn  Mn7  1  0.12402929  0.41548120  0.40201298  1
  Mn  Mn8  1  0.87597071  0.91548120  0.90201298  1
  Mn  Mn9  1  0.12402929  0.08451880  0.09798702  1
  Mn  Mn10  1  0.37527334  0.58091742  0.60201294  1
  Mn  Mn11  1  0.62472666  0.41908258  0.39798706  1
  Mn  Mn12  1  0.37527334  0.91908258  0.89798706  1
  Mn  Mn13  1  0.62472666  0.08091742  0.10201294  1
  Mn  Mn14  1  0.12554711  0.59709883  0.91302227  1
  Mn  Mn15  1  0.87445289  0.40290117  0.08697773  1
  Mn  Mn16  1  0.12554711  0.90290117  0.58697773  1
  Mn  Mn17  1  0.87445289  0.09709883  0.41302227  1
  O  O18  1  0.87486548  0.57296289  0.79224442  1
  O  O19  1  0.12513452  0.42703711  0.20775558  1
  O  O20  1  0.87486548  0.92703711  0.70775558  1
  O  O21  1  0.12513452  0.07296289  0.29224442  1
  O  O22  1  0.87942558  0.59879064  0.04579555  1
  O  O23  1  0.12057442  0.40120936  0.95420445  1
  O  O24  1  0.87942558  0.90120936  0.45420445  1
  O  O25  1  0.12057442  0.09879064  0.54579555  1
  O  O26  1  0.62928777  0.40009247  0.95575202  1
  O  O27  1  0.37071223  0.59990753  0.04424798  1
  O  O28  1  0.62928777  0.09990753  0.54424798  1
  O  O29  1  0.37071223  0.90009247  0.45575202  1
  O  O30  1  0.12409738  0.79093072  0.91054067  1
  O  O31  1  0.87590262  0.20906928  0.08945933  1
  O  O32  1  0.12409738  0.70906928  0.58945933  1
  O  O33  1  0.87590262  0.29093072  0.41054067  1
  O  O34  1  0.11522145  0.44625952  0.59386097  1
  O  O35  1  0.88477855  0.55374048  0.40613903  1
  O  O36  1  0.11522145  0.05374048  0.90613903  1
  O  O37  1  0.88477855  0.94625952  0.09386097  1
  O  O38  1  0.62744932  0.70785815  0.59176336  1
  O  O39  1  0.37255068  0.29214185  0.40823664  1
  O  O40  1  0.62744932  0.79214185  0.90823664  1
  O  O41  1  0.37255068  0.20785815  0.09176336  1
  O  O42  1  0.36832414  0.54954131  0.40905528  1
  O  O43  1  0.63167586  0.45045869  0.59094472  1
  O  O44  1  0.36832414  0.95045869  0.09094472  1
  O  O45  1  0.63167586  0.04954131  0.90905528  1
  O  O46  1  0.37551844  0.57787858  0.79347774  1
  O  O47  1  0.62448156  0.42212142  0.20652226  1
  O  O48  1  0.37551844  0.92212142  0.70652226  1
  O  O49  1  0.62448156  0.07787858  0.29347774  1
