# generated using pymatgen
data_Cs(NpSe3)2
_symmetry_space_group_name_H-M   'P 1'
_cell_length_a   4.12594360
_cell_length_b   5.49281878
_cell_length_c   12.44389590
_cell_angle_alpha   77.24965311
_cell_angle_beta   80.45734222
_cell_angle_gamma   90.00000000
_symmetry_Int_Tables_number   1
_chemical_formula_structural   Cs(NpSe3)2
_chemical_formula_sum   'Cs1 Np2 Se6'
_cell_volume   271.05998667
_cell_formula_units_Z   1
loop_
 _symmetry_equiv_pos_site_id
 _symmetry_equiv_pos_as_xyz
  1  'x, y, z'
loop_
 _atom_site_type_symbol
 _atom_site_label
 _atom_site_symmetry_multiplicity
 _atom_site_fract_x
 _atom_site_fract_y
 _atom_site_fract_z
 _atom_site_occupancy
  Cs  Cs0  1  -0.00000000  0.00000000  -0.00000000  1
  Np  Np1  1  0.18791337  0.18791337  0.62417326  1
  Np  Np2  1  0.81208663  0.81208663  0.37582674  1
  Se  Se3  1  0.38072519  0.63693881  0.23854963  1
  Se  Se4  1  0.61927481  0.36306119  0.76145037  1
  Se  Se5  1  0.61927481  0.87548844  0.76145037  1
  Se  Se6  1  0.38072519  0.12451156  0.23854963  1
  Se  Se7  1  0.77236124  0.27236124  0.45527751  1
  Se  Se8  1  0.22763876  0.72763876  0.54472249  1
