# generated using pymatgen
data_Al8Zn3CoO16
_symmetry_space_group_name_H-M   'P 1'
_cell_length_a   5.78371116
_cell_length_b   8.17926558
_cell_length_c   5.78371116
_cell_angle_alpha   90.00000000
_cell_angle_beta   90.00000000
_cell_angle_gamma   90.00000000
_symmetry_Int_Tables_number   1
_chemical_formula_structural   Al8Zn3CoO16
_chemical_formula_sum   'Al8 Zn3 Co1 O16'
_cell_volume   273.60718738
_cell_formula_units_Z   1
loop_
 _symmetry_equiv_pos_site_id
 _symmetry_equiv_pos_as_xyz
  1  'x, y, z'
loop_
 _atom_site_type_symbol
 _atom_site_label
 _atom_site_symmetry_multiplicity
 _atom_site_fract_x
 _atom_site_fract_y
 _atom_site_fract_z
 _atom_site_occupancy
  Al  Al0  1  0.75000000  0.25008906  0.75013764  1
  Al  Al1  1  0.25000000  0.75003455  0.25008886  1
  Al  Al2  1  0.75000000  0.25008906  0.24986236  1
  Al  Al3  1  0.25000000  0.75003455  0.74991114  1
  Al  Al4  1  0.50008886  0.49996545  0.00000000  1
  Al  Al5  1  0.00013764  0.99991094  0.50000000  1
  Al  Al6  1  0.99991114  0.49996545  -0.00000000  1
  Al  Al7  1  0.49986236  0.99991094  0.50000000  1
  Zn  Zn8  1  0.75000000  0.62500000  0.50000000  1
  Zn  Zn9  1  0.75000000  0.87492794  -0.00000000  1
  Zn  Zn10  1  0.25000000  0.37507206  0.50000000  1
  Co  Co11  1  0.25000000  0.12500000  -0.00000000  1
  O  O12  1  0.75000000  0.48566225  0.22121937  1
  O  O13  1  0.25000000  0.98543853  0.72103635  1
  O  O14  1  0.75000000  0.48566225  0.77878063  1
  O  O15  1  0.25000000  0.98543853  0.27896365  1
  O  O16  1  0.97103635  0.26456147  -0.00000000  1
  O  O17  1  0.47121937  0.76433775  0.50000000  1
  O  O18  1  0.52896365  0.26456147  0.00000000  1
  O  O19  1  0.02878063  0.76433775  0.50000000  1
  O  O20  1  0.25000000  0.51441379  0.77886450  1
  O  O21  1  0.75000000  0.01444524  0.27881981  1
  O  O22  1  0.25000000  0.51441379  0.22113550  1
  O  O23  1  0.75000000  0.01444524  0.72118019  1
  O  O24  1  0.02886450  0.73558621  -0.00000000  1
  O  O25  1  0.52881981  0.23555476  0.50000000  1
  O  O26  1  0.47113550  0.73558621  0.00000000  1
  O  O27  1  0.97118019  0.23555476  0.50000000  1
