# generated using pymatgen
data_CsZn8
_symmetry_space_group_name_H-M   'P 1'
_cell_length_a   3.43033878
_cell_length_b   7.05277132
_cell_length_c   8.69942529
_cell_angle_alpha   66.08640780
_cell_angle_beta   78.62912999
_cell_angle_gamma   90.00000000
_symmetry_Int_Tables_number   1
_chemical_formula_structural   CsZn8
_chemical_formula_sum   'Cs1 Zn8'
_cell_volume   187.87350982
_cell_formula_units_Z   1
loop_
 _symmetry_equiv_pos_site_id
 _symmetry_equiv_pos_as_xyz
  1  'x, y, z'
loop_
 _atom_site_type_symbol
 _atom_site_label
 _atom_site_symmetry_multiplicity
 _atom_site_fract_x
 _atom_site_fract_y
 _atom_site_fract_z
 _atom_site_occupancy
  Cs  Cs0  1  0.25039858  0.00039858  0.49920283  1
  Zn  Zn1  1  0.17240630  0.42240630  0.65518740  1
  Zn  Zn2  1  0.82361513  0.57361513  0.35276975  1
  Zn  Zn3  1  0.96976152  0.21976152  0.06047696  1
  Zn  Zn4  1  0.03055883  0.78055883  0.93888235  1
  Zn  Zn5  1  0.42226847  0.46717164  0.15546306  1
  Zn  Zn6  1  0.57986135  0.54261525  0.84027729  1
  Zn  Zn7  1  0.57986135  0.11710745  0.84027729  1
  Zn  Zn8  1  0.42226847  0.87736530  0.15546306  1
