# generated using pymatgen
data_Ag9Ge2NO11
_symmetry_space_group_name_H-M   'P 1'
_cell_length_a   5.94924987
_cell_length_b   7.00229651
_cell_length_c   9.01454606
_cell_angle_alpha   106.52110006
_cell_angle_beta   98.02231334
_cell_angle_gamma   96.52367133
_symmetry_Int_Tables_number   1
_chemical_formula_structural   Ag9Ge2NO11
_chemical_formula_sum   'Ag9 Ge2 N1 O11'
_cell_volume   351.82570231
_cell_formula_units_Z   1
loop_
 _symmetry_equiv_pos_site_id
 _symmetry_equiv_pos_as_xyz
  1  'x, y, z'
loop_
 _atom_site_type_symbol
 _atom_site_label
 _atom_site_symmetry_multiplicity
 _atom_site_fract_x
 _atom_site_fract_y
 _atom_site_fract_z
 _atom_site_occupancy
  Ag  Ag0  1  0.27539004  0.19625725  0.86145605  1
  Ag  Ag1  1  0.72150273  0.80232355  0.14101411  1
  Ag  Ag2  1  0.99269872  0.70031057  0.48409639  1
  Ag  Ag3  1  0.00647718  0.29744766  0.51525936  1
  Ag  Ag4  1  0.25220559  0.52511658  0.14254388  1
  Ag  Ag5  1  0.74685560  0.46831392  0.85145832  1
  Ag  Ag6  1  0.16557582  0.02982583  0.14166923  1
  Ag  Ag7  1  0.83516885  0.96998135  0.85745001  1
  Ag  Ag8  1  0.50181755  0.50226927  0.49971676  1
  Ge  Ge9  1  0.27217505  0.67923130  0.81946160  1
  Ge  Ge10  1  0.72824297  0.32056659  0.17973401  1
  N  N11  1  0.50359176  0.01010149  0.50694595  1
  O  O12  1  0.10469397  0.43291465  0.77165823  1
  O  O13  1  0.89368436  0.56817044  0.22850824  1
  O  O14  1  0.88976663  0.16272886  0.26168043  1
  O  O15  1  0.10990147  0.83571806  0.73695666  1
  O  O16  1  0.65970376  0.21672489  0.97113283  1
  O  O17  1  0.34129628  0.78305929  0.02813898  1
  O  O18  1  0.46622225  0.33358510  0.25466280  1
  O  O19  1  0.53488095  0.66773185  0.74548256  1
  O  O20  1  0.71215090  0.99083447  0.54331731  1
  O  O21  1  0.37261095  0.88357795  0.38805699  1
  O  O22  1  0.42558662  0.15860910  0.58989930  1
