# generated using pymatgen
data_AlCr4GaC2
_symmetry_space_group_name_H-M   'P 1'
_cell_length_a   2.85474507
_cell_length_b   2.85474507
_cell_length_c   12.61408725
_cell_angle_alpha   90.00000000
_cell_angle_beta   90.00000000
_cell_angle_gamma   119.99968218
_symmetry_Int_Tables_number   1
_chemical_formula_structural   AlCr4GaC2
_chemical_formula_sum   'Al1 Cr4 Ga1 C2'
_cell_volume   89.02715915
_cell_formula_units_Z   1
loop_
 _symmetry_equiv_pos_site_id
 _symmetry_equiv_pos_as_xyz
  1  'x, y, z'
loop_
 _atom_site_type_symbol
 _atom_site_label
 _atom_site_symmetry_multiplicity
 _atom_site_fract_x
 _atom_site_fract_y
 _atom_site_fract_z
 _atom_site_occupancy
  Al  Al0  1  0.66668862  0.33331138  0.25000000  1
  Cr  Cr1  1  0.66666883  0.33333117  0.58531757  1
  Cr  Cr2  1  0.33333210  0.66666790  0.41583365  1
  Cr  Cr3  1  0.33333210  0.66666790  0.08416635  1
  Cr  Cr4  1  0.66666883  0.33333117  0.91468243  1
  Ga  Ga5  1  0.33330971  0.66669029  0.75000000  1
  C  C6  1  -0.00000010  0.00000010  0.50041835  1
  C  C7  1  -0.00000010  0.00000010  0.99958165  1
