# generated using pymatgen
data_As2P2S7
_symmetry_space_group_name_H-M   'P 1'
_cell_length_a   8.63180872
_cell_length_b   11.90666207
_cell_length_c   12.51233030
_cell_angle_alpha   94.64105589
_cell_angle_beta   90.00000000
_cell_angle_gamma   90.00000000
_symmetry_Int_Tables_number   1
_chemical_formula_structural   As2P2S7
_chemical_formula_sum   'As8 P8 S28'
_cell_volume   1281.75113938
_cell_formula_units_Z   4
loop_
 _symmetry_equiv_pos_site_id
 _symmetry_equiv_pos_as_xyz
  1  'x, y, z'
loop_
 _atom_site_type_symbol
 _atom_site_label
 _atom_site_symmetry_multiplicity
 _atom_site_fract_x
 _atom_site_fract_y
 _atom_site_fract_z
 _atom_site_occupancy
  As  As0  1  0.88542410  0.31837827  0.66393189  1
  As  As1  1  0.38542410  0.18162173  0.33606811  1
  As  As2  1  0.11457590  0.68162173  0.33606811  1
  As  As3  1  0.61457590  0.81837827  0.66393189  1
  As  As4  1  0.07961756  0.35106206  0.82324845  1
  As  As5  1  0.57961756  0.14893794  0.17675155  1
  As  As6  1  0.92038244  0.64893794  0.17675155  1
  As  As7  1  0.42038244  0.85106206  0.82324845  1
  P  P8  1  0.85613543  0.11467643  0.84261089  1
  P  P9  1  0.35613543  0.38532357  0.15738911  1
  P  P10  1  0.14386457  0.88532357  0.15738911  1
  P  P11  1  0.64386457  0.61467643  0.84261089  1
  P  P12  1  0.16726549  0.11367169  0.65790464  1
  P  P13  1  0.66726549  0.38632831  0.34209536  1
  P  P14  1  0.83273451  0.88632831  0.34209536  1
  P  P15  1  0.33273451  0.61367169  0.65790464  1
  S  S16  1  0.02228617  0.01484577  0.75152480  1
  S  S17  1  0.52228617  0.48515423  0.24847520  1
  S  S18  1  0.97771383  0.98515423  0.24847520  1
  S  S19  1  0.47771383  0.51484577  0.75152480  1
  S  S20  1  0.71746134  0.19933477  0.73820711  1
  S  S21  1  0.21746134  0.30066523  0.26179289  1
  S  S22  1  0.28253866  0.80066523  0.26179289  1
  S  S23  1  0.78253866  0.69933477  0.73820711  1
  S  S24  1  0.02883667  0.19855694  0.55257860  1
  S  S25  1  0.52883667  0.30144306  0.44742140  1
  S  S26  1  0.97116333  0.80144306  0.44742140  1
  S  S27  1  0.47116333  0.69855694  0.55257860  1
  S  S28  1  0.96952802  0.23863794  0.94151121  1
  S  S29  1  0.46952802  0.26136206  0.05848879  1
  S  S30  1  0.03047198  0.76136206  0.05848879  1
  S  S31  1  0.53047198  0.73863794  0.94151121  1
  S  S32  1  0.27732579  0.23883140  0.75682388  1
  S  S33  1  0.77732579  0.26116860  0.24317612  1
  S  S34  1  0.72267421  0.76116860  0.24317612  1
  S  S35  1  0.22267421  0.73883140  0.75682388  1
  S  S36  1  0.73974904  0.00919892  0.92242642  1
  S  S37  1  0.23974904  0.49080108  0.07757358  1
  S  S38  1  0.26025096  0.99080108  0.07757358  1
  S  S39  1  0.76025096  0.50919892  0.92242642  1
  S  S40  1  0.31282404  0.01019825  0.58355288  1
  S  S41  1  0.81282404  0.48980175  0.41644712  1
  S  S42  1  0.68717596  0.98980175  0.41644712  1
  S  S43  1  0.18717596  0.51019825  0.58355288  1
