# generated using pymatgen
data_K5TlO4
_symmetry_space_group_name_H-M   'P 1'
_cell_length_a   6.94911647
_cell_length_b   12.06691541
_cell_length_c   20.98697728
_cell_angle_alpha   90.00000000
_cell_angle_beta   90.00000000
_cell_angle_gamma   90.00000000
_symmetry_Int_Tables_number   1
_chemical_formula_structural   K5TlO4
_chemical_formula_sum   'K40 Tl8 O32'
_cell_volume   1759.85040059
_cell_formula_units_Z   8
loop_
 _symmetry_equiv_pos_site_id
 _symmetry_equiv_pos_as_xyz
  1  'x, y, z'
loop_
 _atom_site_type_symbol
 _atom_site_label
 _atom_site_symmetry_multiplicity
 _atom_site_fract_x
 _atom_site_fract_y
 _atom_site_fract_z
 _atom_site_occupancy
  O  O0  1  0.80814674  0.36530821  0.04570270  1
  O  O1  1  0.30814674  0.63469179  0.45429730  1
  O  O2  1  0.69185326  0.86530821  0.95429730  1
  O  O3  1  0.19185326  0.13469179  0.54570270  1
  O  O4  1  0.19185326  0.63469179  0.95429730  1
  O  O5  1  0.69185326  0.36530821  0.54570270  1
  O  O6  1  0.30814674  0.13469179  0.04570270  1
  O  O7  1  0.80814674  0.86530821  0.45429730  1
  O  O8  1  0.85984878  0.04799211  0.12046059  1
  O  O9  1  0.35984878  0.95200789  0.37953941  1
  O  O10  1  0.64015122  0.54799211  0.87953941  1
  O  O11  1  0.14015122  0.45200789  0.62046059  1
  O  O12  1  0.14015122  0.95200789  0.87953941  1
  O  O13  1  0.64015122  0.04799211  0.62046059  1
  O  O14  1  0.35984878  0.45200789  0.12046059  1
  O  O15  1  0.85984878  0.54799211  0.37953941  1
  O  O16  1  0.76202294  0.13931676  0.37513276  1
  O  O17  1  0.26202294  0.86068324  0.12486724  1
  O  O18  1  0.73797706  0.63931676  0.62486724  1
  O  O19  1  0.23797706  0.36068324  0.87513276  1
  O  O20  1  0.23797706  0.86068324  0.62486724  1
  O  O21  1  0.73797706  0.13931676  0.87513276  1
  O  O22  1  0.26202294  0.36068324  0.37513276  1
  O  O23  1  0.76202294  0.63931676  0.12486724  1
  O  O24  1  0.73159170  0.37654167  0.71291975  1
  O  O25  1  0.23159170  0.62345833  0.78708025  1
  O  O26  1  0.76840830  0.87654167  0.28708025  1
  O  O27  1  0.26840830  0.12345833  0.21291975  1
  O  O28  1  0.26840830  0.62345833  0.28708025  1
  O  O29  1  0.76840830  0.37654167  0.21291975  1
  O  O30  1  0.23159170  0.12345833  0.71291975  1
  O  O31  1  0.73159170  0.87654167  0.78708025  1
  K  K32  1  0.92510131  0.19955927  0.64096972  1
  K  K33  1  0.42510131  0.80044073  0.85903028  1
  K  K34  1  0.57489869  0.69955927  0.35903028  1
  K  K35  1  0.07489869  0.30044073  0.14096972  1
  K  K36  1  0.07489869  0.80044073  0.35903028  1
  K  K37  1  0.57489869  0.19955927  0.14096972  1
  K  K38  1  0.42510131  0.30044073  0.64096972  1
  K  K39  1  0.92510131  0.69955927  0.85903028  1
  K  K40  1  0.91427466  0.16176736  0.00372371  1
  K  K41  1  0.41427466  0.83823264  0.49627629  1
  K  K42  1  0.58572534  0.66176736  0.99627629  1
  K  K43  1  0.08572534  0.33823264  0.50372371  1
  K  K44  1  0.08572534  0.83823264  0.99627629  1
  K  K45  1  0.58572534  0.16176736  0.50372371  1
  K  K46  1  0.41427466  0.33823264  0.00372371  1
  K  K47  1  0.91427466  0.66176736  0.49627629  1
  K  K48  1  0.89912610  0.08039653  0.25121908  1
  K  K49  1  0.39912610  0.91960347  0.24878092  1
  K  K50  1  0.60087390  0.58039653  0.74878092  1
  K  K51  1  0.10087390  0.41960347  0.75121908  1
  K  K52  1  0.10087390  0.91960347  0.74878092  1
  K  K53  1  0.60087390  0.08039653  0.75121908  1
  K  K54  1  0.39912610  0.41960347  0.25121908  1
  K  K55  1  0.89912610  0.58039653  0.24878092  1
  K  K56  1  0.91619840  0.43754090  0.93497425  1
  K  K57  1  0.41619840  0.56245910  0.56502575  1
  K  K58  1  0.58380160  0.93754090  0.06502575  1
  K  K59  1  0.08380160  0.06245910  0.43497425  1
  K  K60  1  0.08380160  0.56245910  0.06502575  1
  K  K61  1  0.58380160  0.43754090  0.43497425  1
  K  K62  1  0.41619840  0.06245910  0.93497425  1
  K  K63  1  0.91619840  0.93754090  0.56502575  1
  K  K64  1  0.89650381  0.32760116  0.32872869  1
  K  K65  1  0.39650381  0.67239884  0.17127131  1
  K  K66  1  0.60349619  0.82760116  0.67127131  1
  K  K67  1  0.10349619  0.17239884  0.82872869  1
  K  K68  1  0.10349619  0.67239884  0.67127131  1
  K  K69  1  0.60349619  0.32760116  0.82872869  1
  K  K70  1  0.39650381  0.17239884  0.32872869  1
  K  K71  1  0.89650381  0.82760116  0.17127131  1
  Tl  Tl72  1  0.82399723  0.46209224  0.62301651  1
  Tl  Tl73  1  0.32399723  0.53790776  0.87698349  1
  Tl  Tl74  1  0.67600277  0.96209224  0.37698349  1
  Tl  Tl75  1  0.17600277  0.03790776  0.12301651  1
  Tl  Tl76  1  0.17600277  0.53790776  0.37698349  1
  Tl  Tl77  1  0.67600277  0.46209224  0.12301651  1
  Tl  Tl78  1  0.32399723  0.03790776  0.62301651  1
  Tl  Tl79  1  0.82399723  0.96209224  0.87698349  1
