# generated using pymatgen
data_In2GaS4
_symmetry_space_group_name_H-M   'P 1'
_cell_length_a   3.98295189
_cell_length_b   3.98470556
_cell_length_c   12.77978342
_cell_angle_alpha   89.99999999
_cell_angle_beta   90.00449916
_cell_angle_gamma   120.01456801
_symmetry_Int_Tables_number   1
_chemical_formula_structural   In2GaS4
_chemical_formula_sum   'In2 Ga1 S4'
_cell_volume   175.62714785
_cell_formula_units_Z   1
loop_
 _symmetry_equiv_pos_site_id
 _symmetry_equiv_pos_as_xyz
  1  'x, y, z'
loop_
 _atom_site_type_symbol
 _atom_site_label
 _atom_site_symmetry_multiplicity
 _atom_site_fract_x
 _atom_site_fract_y
 _atom_site_fract_z
 _atom_site_occupancy
  In  In0  1  0.99990140  0.99995070  0.00759239  1
  In  In1  1  0.33357598  0.66678799  0.69631897  1
  Ga  Ga2  1  0.66662863  0.33331431  0.30436095  1
  S  S3  1  0.33286749  0.66643374  0.89160667  1
  S  S4  1  0.66684213  0.33342106  0.12179357  1
  S  S5  1  0.33351596  0.66675798  0.36445032  1
  S  S6  1  0.66666841  0.33333421  0.61387713  1
