# generated using pymatgen
data_DyTiClO3
_symmetry_space_group_name_H-M   'P 1'
_cell_length_a   3.92209919
_cell_length_b   5.29712398
_cell_length_c   9.90275777
_cell_angle_alpha   74.52237045
_cell_angle_beta   78.57817513
_cell_angle_gamma   68.27141890
_symmetry_Int_Tables_number   1
_chemical_formula_structural   DyTiClO3
_chemical_formula_sum   'Dy2 Ti2 Cl2 O6'
_cell_volume   183.05399811
_cell_formula_units_Z   2
loop_
 _symmetry_equiv_pos_site_id
 _symmetry_equiv_pos_as_xyz
  1  'x, y, z'
loop_
 _atom_site_type_symbol
 _atom_site_label
 _atom_site_symmetry_multiplicity
 _atom_site_fract_x
 _atom_site_fract_y
 _atom_site_fract_z
 _atom_site_occupancy
  Dy  Dy0  1  0.77833118  0.23845472  0.20488292  1
  Dy  Dy1  1  0.22166882  0.76154528  0.79511708  1
  Ti  Ti2  1  0.61870128  0.19248079  0.57011665  1
  Ti  Ti3  1  0.38129872  0.80751921  0.42988335  1
  Cl  Cl4  1  0.11403500  0.67714271  0.09478730  1
  Cl  Cl5  1  0.88596500  0.32285729  0.90521270  1
  O  O6  1  0.16782724  0.09940490  0.56494062  1
  O  O7  1  0.57785585  0.46902856  0.37525975  1
  O  O8  1  0.65064782  0.95080265  0.74790172  1
  O  O9  1  0.34935218  0.04919735  0.25209828  1
  O  O10  1  0.83217276  0.90059510  0.43505938  1
  O  O11  1  0.42214415  0.53097144  0.62474025  1
