# generated using pymatgen
data_Rb2(ReS2)3
_symmetry_space_group_name_H-M   'P 1'
_cell_length_a   9.92231830
_cell_length_b   9.92231823
_cell_length_c   12.18340680
_cell_angle_alpha   88.83229721
_cell_angle_beta   88.83229724
_cell_angle_gamma   60.27057522
_symmetry_Int_Tables_number   1
_chemical_formula_structural   Rb2(ReS2)3
_chemical_formula_sum   'Rb8 Re12 S24'
_cell_volume   1041.31646827
_cell_formula_units_Z   4
loop_
 _symmetry_equiv_pos_site_id
 _symmetry_equiv_pos_as_xyz
  1  'x, y, z'
loop_
 _atom_site_type_symbol
 _atom_site_label
 _atom_site_symmetry_multiplicity
 _atom_site_fract_x
 _atom_site_fract_y
 _atom_site_fract_z
 _atom_site_occupancy
  Rb  Rb0  1  0.38155930  0.61844070  0.75000000  1
  Rb  Rb1  1  0.13639965  0.63307744  0.51937126  1
  Rb  Rb2  1  0.78625590  0.21374410  0.75000000  1
  Rb  Rb3  1  0.86360035  0.36692256  0.48062874  1
  Rb  Rb4  1  0.21374410  0.78625590  0.25000000  1
  Rb  Rb5  1  0.63307744  0.13639965  0.01937126  1
  Rb  Rb6  1  0.61844070  0.38155930  0.25000000  1
  Rb  Rb7  1  0.36692256  0.86360035  0.98062874  1
  Re  Re8  1  0.00277467  0.31186094  0.02187647  1
  Re  Re9  1  0.46171526  0.11936361  0.62675661  1
  Re  Re10  1  0.88063639  0.53828474  0.87324339  1
  Re  Re11  1  0.11936361  0.46171526  0.12675661  1
  Re  Re12  1  0.99722533  0.68813906  0.97812353  1
  Re  Re13  1  0.60096279  0.81820472  0.58621555  1
  Re  Re14  1  0.81820472  0.60096279  0.08621555  1
  Re  Re15  1  0.18179528  0.39903721  0.91378445  1
  Re  Re16  1  0.68813906  0.99722533  0.47812353  1
  Re  Re17  1  0.31186094  0.00277467  0.52187647  1
  Re  Re18  1  0.53828474  0.88063639  0.37324339  1
  Re  Re19  1  0.39903721  0.18179528  0.41378445  1
  S  S20  1  0.26879550  0.06341965  0.32882255  1
  S  S21  1  0.93658035  0.73120450  0.17117745  1
  S  S22  1  0.05095897  0.61696522  0.78688961  1
  S  S23  1  0.79740078  0.72321550  0.44037102  1
  S  S24  1  0.27258436  0.42282913  0.29697030  1
  S  S25  1  0.42282913  0.27258436  0.79697030  1
  S  S26  1  0.27678450  0.20259922  0.05962898  1
  S  S27  1  0.45485454  0.72474146  0.48227885  1
  S  S28  1  0.72321550  0.79740078  0.94037102  1
  S  S29  1  0.06610260  0.99739811  0.56967190  1
  S  S30  1  0.00260189  0.93389740  0.93032810  1
  S  S31  1  0.38303478  0.94904103  0.71311039  1
  S  S32  1  0.20259922  0.27678450  0.55962898  1
  S  S33  1  0.61696522  0.05095897  0.28688961  1
  S  S34  1  0.73120450  0.93658035  0.67117745  1
  S  S35  1  0.93389740  0.00260189  0.43032810  1
  S  S36  1  0.99739811  0.06610260  0.06967190  1
  S  S37  1  0.72741564  0.57717087  0.70302970  1
  S  S38  1  0.57717087  0.72741564  0.20302970  1
  S  S39  1  0.72474146  0.45485454  0.98227885  1
  S  S40  1  0.94904103  0.38303478  0.21311039  1
  S  S41  1  0.06341965  0.26879550  0.82882255  1
  S  S42  1  0.27525854  0.54514546  0.01772115  1
  S  S43  1  0.54514546  0.27525854  0.51772115  1
