# generated using pymatgen
data_Li4Al3Ge3BrO12
_symmetry_space_group_name_H-M   'P 1'
_cell_length_a   8.77133347
_cell_length_b   8.77133347
_cell_length_c   8.77133347
_cell_angle_alpha   90.00000000
_cell_angle_beta   90.00000000
_cell_angle_gamma   90.00000000
_symmetry_Int_Tables_number   1
_chemical_formula_structural   Li4Al3Ge3BrO12
_chemical_formula_sum   'Li8 Al6 Ge6 Br2 O24'
_cell_volume   674.83386292
_cell_formula_units_Z   2
loop_
 _symmetry_equiv_pos_site_id
 _symmetry_equiv_pos_as_xyz
  1  'x, y, z'
loop_
 _atom_site_type_symbol
 _atom_site_label
 _atom_site_symmetry_multiplicity
 _atom_site_fract_x
 _atom_site_fract_y
 _atom_site_fract_z
 _atom_site_occupancy
  Li  Li0  1  0.81935684  0.81935684  0.18064316  1
  Li  Li1  1  0.68064316  0.68064316  0.68064316  1
  Li  Li2  1  0.81935684  0.18064316  0.81935684  1
  Li  Li3  1  0.68064316  0.31935684  0.31935684  1
  Li  Li4  1  0.18064316  0.81935684  0.81935684  1
  Li  Li5  1  0.31935684  0.68064316  0.31935684  1
  Li  Li6  1  0.31935684  0.31935684  0.68064316  1
  Li  Li7  1  0.18064316  0.18064316  0.18064316  1
  Al  Al8  1  0.00000000  0.75000000  0.50000000  1
  Al  Al9  1  0.25000000  0.50000000  0.00000000  1
  Al  Al10  1  0.50000000  0.00000000  0.75000000  1
  Al  Al11  1  0.50000000  0.00000000  0.25000000  1
  Al  Al12  1  0.00000000  0.25000000  0.50000000  1
  Al  Al13  1  0.75000000  0.50000000  0.00000000  1
  Ge  Ge14  1  0.00000000  0.50000000  0.25000000  1
  Ge  Ge15  1  0.50000000  0.75000000  0.00000000  1
  Ge  Ge16  1  0.50000000  0.25000000  0.00000000  1
  Ge  Ge17  1  0.00000000  0.50000000  0.75000000  1
  Ge  Ge18  1  0.75000000  0.00000000  0.50000000  1
  Ge  Ge19  1  0.25000000  0.00000000  0.50000000  1
  Br  Br20  1  0.00000000  0.00000000  0.00000000  1
  Br  Br21  1  0.50000000  0.50000000  0.50000000  1
  O  O22  1  0.63888403  0.36087097  0.09518515  1
  O  O23  1  0.90481485  0.36111597  0.36087097  1
  O  O24  1  0.63912903  0.09518515  0.36111597  1
  O  O25  1  0.59518515  0.86087097  0.13888403  1
  O  O26  1  0.86111597  0.40481485  0.86087097  1
  O  O27  1  0.09518515  0.36111597  0.63912903  1
  O  O28  1  0.13888403  0.40481485  0.13912903  1
  O  O29  1  0.40481485  0.13912903  0.13888403  1
  O  O30  1  0.13888403  0.59518515  0.86087097  1
  O  O31  1  0.86087097  0.86111597  0.40481485  1
  O  O32  1  0.09518515  0.63888403  0.36087097  1
  O  O33  1  0.86111597  0.59518515  0.13912903  1
  O  O34  1  0.36087097  0.90481485  0.36111597  1
  O  O35  1  0.36087097  0.09518515  0.63888403  1
  O  O36  1  0.63888403  0.63912903  0.90481485  1
  O  O37  1  0.59518515  0.13912903  0.86111597  1
  O  O38  1  0.63912903  0.90481485  0.63888403  1
  O  O39  1  0.13912903  0.13888403  0.40481485  1
  O  O40  1  0.36111597  0.63912903  0.09518515  1
  O  O41  1  0.13912903  0.86111597  0.59518515  1
  O  O42  1  0.40481485  0.86087097  0.86111597  1
  O  O43  1  0.86087097  0.13888403  0.59518515  1
  O  O44  1  0.36111597  0.36087097  0.90481485  1
  O  O45  1  0.90481485  0.63888403  0.63912903  1
