# generated using pymatgen
data_Ba3CaRu2O9
_symmetry_space_group_name_H-M   'P 1'
_cell_length_a   5.97431303
_cell_length_b   5.97431302
_cell_length_c   14.91738378
_cell_angle_alpha   90.00000000
_cell_angle_beta   90.00000000
_cell_angle_gamma   119.99999998
_symmetry_Int_Tables_number   1
_chemical_formula_structural   Ba3CaRu2O9
_chemical_formula_sum   'Ba6 Ca2 Ru4 O18'
_cell_volume   461.10437475
_cell_formula_units_Z   2
loop_
 _symmetry_equiv_pos_site_id
 _symmetry_equiv_pos_as_xyz
  1  'x, y, z'
loop_
 _atom_site_type_symbol
 _atom_site_label
 _atom_site_symmetry_multiplicity
 _atom_site_fract_x
 _atom_site_fract_y
 _atom_site_fract_z
 _atom_site_occupancy
  O  O0  1  0.82389270  0.64778541  0.40939279  1
  O  O1  1  0.35221459  0.17610730  0.40939279  1
  O  O2  1  0.82389270  0.17610730  0.40939279  1
  O  O3  1  0.17610730  0.82389270  0.90939279  1
  O  O4  1  0.17610730  0.82389270  0.59060721  1
  O  O5  1  0.17610730  0.35221459  0.90939279  1
  O  O6  1  0.64778541  0.82389270  0.90939279  1
  O  O7  1  0.35221459  0.17610730  0.09060721  1
  O  O8  1  0.82389270  0.64778541  0.09060721  1
  O  O9  1  0.17610730  0.35221459  0.59060721  1
  O  O10  1  0.64778541  0.82389270  0.59060721  1
  O  O11  1  0.82389270  0.17610730  0.09060721  1
  O  O12  1  0.51602911  0.48397089  0.25000000  1
  O  O13  1  0.03205823  0.51602911  0.75000000  1
  O  O14  1  0.48397089  0.96794177  0.75000000  1
  O  O15  1  0.51602911  0.03205823  0.25000000  1
  O  O16  1  0.96794177  0.48397089  0.25000000  1
  O  O17  1  0.48397089  0.51602911  0.75000000  1
  Ca  Ca18  1  0.00000000  0.00000000  0.00000000  1
  Ca  Ca19  1  0.00000000  0.00000000  0.50000000  1
  Ru  Ru20  1  0.66666667  0.33333333  0.34267337  1
  Ru  Ru21  1  0.33333333  0.66666667  0.84267337  1
  Ru  Ru22  1  0.66666667  0.33333333  0.15732663  1
  Ru  Ru23  1  0.33333333  0.66666667  0.65732663  1
  Ba  Ba24  1  0.33333333  0.66666667  0.40059726  1
  Ba  Ba25  1  0.66666667  0.33333333  0.90059726  1
  Ba  Ba26  1  0.66666667  0.33333333  0.59940274  1
  Ba  Ba27  1  0.33333333  0.66666667  0.09940274  1
  Ba  Ba28  1  0.00000000  0.00000000  0.75000000  1
  Ba  Ba29  1  0.00000000  0.00000000  0.25000000  1
