# generated using pymatgen
data_Cs2Mn(PSe3)2
_symmetry_space_group_name_H-M   'P 1'
_cell_length_a   6.53897811
_cell_length_b   13.28770449
_cell_length_c   8.23091911
_cell_angle_alpha   90.00020983
_cell_angle_beta   93.20609058
_cell_angle_gamma   90.00012402
_symmetry_Int_Tables_number   1
_chemical_formula_structural   Cs2Mn(PSe3)2
_chemical_formula_sum   'Cs4 Mn2 P4 Se12'
_cell_volume   714.04880768
_cell_formula_units_Z   2
loop_
 _symmetry_equiv_pos_site_id
 _symmetry_equiv_pos_as_xyz
  1  'x, y, z'
loop_
 _atom_site_type_symbol
 _atom_site_label
 _atom_site_symmetry_multiplicity
 _atom_site_fract_x
 _atom_site_fract_y
 _atom_site_fract_z
 _atom_site_occupancy
  Cs  Cs0  1  0.74680799  0.67042449  0.52408502  1
  Cs  Cs1  1  0.75319450  0.17042602  0.97591691  1
  Cs  Cs2  1  0.25319301  0.32957551  0.47591598  1
  Cs  Cs3  1  0.24680750  0.82957498  0.02408409  1
  Mn  Mn4  1  0.00000000  0.00000000  0.49999900  1
  Mn  Mn5  1  0.49999900  0.50000000  0.00000100  1
  P  P6  1  0.54378332  0.03906639  0.38356574  1
  P  P7  1  0.95621729  0.53906704  0.11643351  1
  P  P8  1  0.45621768  0.96093361  0.61643326  1
  P  P9  1  0.04378171  0.46093396  0.88356549  1
  Se  Se10  1  0.74086582  0.16683862  0.46437519  1
  Se  Se11  1  0.75913531  0.66683984  0.03562547  1
  Se  Se12  1  0.25913318  0.83316138  0.53562481  1
  Se  Se13  1  0.24086469  0.33316016  0.96437353  1
  Se  Se14  1  0.73308205  0.92726414  0.25894403  1
  Se  Se15  1  0.76692264  0.42726332  0.24105886  1
  Se  Se16  1  0.26691895  0.07273586  0.74105597  1
  Se  Se17  1  0.23307836  0.57273668  0.75894214  1
  Se  Se18  1  0.24702375  0.07757409  0.26103607  1
  Se  Se19  1  0.25297534  0.57757507  0.23896567  1
  Se  Se20  1  0.75297725  0.92242591  0.73896293  1
  Se  Se21  1  0.74702466  0.42242593  0.76103333  1
