# generated using pymatgen
data_Zr6Ni16Ge7
_symmetry_space_group_name_H-M   'P 1'
_cell_length_a   8.26783027
_cell_length_b   8.26783038
_cell_length_c   8.26783016
_cell_angle_alpha   60.00000088
_cell_angle_beta   60.00000044
_cell_angle_gamma   60.00000306
_symmetry_Int_Tables_number   1
_chemical_formula_structural   Zr6Ni16Ge7
_chemical_formula_sum   'Zr6 Ni16 Ge7'
_cell_volume   399.63146383
_cell_formula_units_Z   1
loop_
 _symmetry_equiv_pos_site_id
 _symmetry_equiv_pos_as_xyz
  1  'x, y, z'
loop_
 _atom_site_type_symbol
 _atom_site_label
 _atom_site_symmetry_multiplicity
 _atom_site_fract_x
 _atom_site_fract_y
 _atom_site_fract_z
 _atom_site_occupancy
  Zr  Zr0  1  0.79372780  0.79372780  0.20627220  1
  Zr  Zr1  1  0.79372780  0.20627220  0.79372780  1
  Zr  Zr2  1  0.20627220  0.20627220  0.79372780  1
  Zr  Zr3  1  0.20627220  0.79372780  0.20627220  1
  Zr  Zr4  1  0.20627220  0.79372780  0.79372780  1
  Zr  Zr5  1  0.79372780  0.20627220  0.20627220  1
  Ni  Ni6  1  0.61856652  0.14430043  0.61856652  1
  Ni  Ni7  1  0.49312933  0.16895689  0.16895689  1
  Ni  Ni8  1  0.38143348  0.38143348  0.85569957  1
  Ni  Ni9  1  0.83104311  0.83104311  0.50687067  1
  Ni  Ni10  1  0.16895689  0.16895689  0.49312933  1
  Ni  Ni11  1  0.83104311  0.50687067  0.83104311  1
  Ni  Ni12  1  0.16895689  0.49312933  0.16895689  1
  Ni  Ni13  1  0.61856652  0.61856652  0.14430043  1
  Ni  Ni14  1  0.16895689  0.16895689  0.16895689  1
  Ni  Ni15  1  0.38143348  0.85569957  0.38143348  1
  Ni  Ni16  1  0.61856652  0.61856652  0.61856652  1
  Ni  Ni17  1  0.85569957  0.38143348  0.38143348  1
  Ni  Ni18  1  0.38143348  0.38143348  0.38143348  1
  Ni  Ni19  1  0.83104311  0.83104311  0.83104311  1
  Ni  Ni20  1  0.14430043  0.61856652  0.61856652  1
  Ni  Ni21  1  0.50687067  0.83104311  0.83104311  1
  Ge  Ge22  1  0.00000000  0.50000000  0.50000000  1
  Ge  Ge23  1  0.50000000  0.00000000  0.50000000  1
  Ge  Ge24  1  0.50000000  0.50000000  0.50000000  1
  Ge  Ge25  1  0.00000000  0.50000000  0.00000000  1
  Ge  Ge26  1  0.50000000  0.00000000  0.00000000  1
  Ge  Ge27  1  0.50000000  0.50000000  0.00000000  1
  Ge  Ge28  1  0.00000000  0.00000000  0.50000000  1
