# generated using pymatgen
data_La4CdRu
_symmetry_space_group_name_H-M   'P 1'
_cell_length_a   10.08541221
_cell_length_b   10.08541218
_cell_length_c   10.08541281
_cell_angle_alpha   60.00000124
_cell_angle_beta   60.00000135
_cell_angle_gamma   59.99999889
_symmetry_Int_Tables_number   1
_chemical_formula_structural   La4CdRu
_chemical_formula_sum   'La16 Cd4 Ru4'
_cell_volume   725.38069206
_cell_formula_units_Z   4
loop_
 _symmetry_equiv_pos_site_id
 _symmetry_equiv_pos_as_xyz
  1  'x, y, z'
loop_
 _atom_site_type_symbol
 _atom_site_label
 _atom_site_symmetry_multiplicity
 _atom_site_fract_x
 _atom_site_fract_y
 _atom_site_fract_z
 _atom_site_occupancy
  La  La0  1  0.65432976  0.65432976  0.65432976  1
  La  La1  1  0.18918007  0.81081993  0.18918007  1
  La  La2  1  0.81081993  0.18918007  0.81081993  1
  La  La3  1  0.81081993  0.81081993  0.18918007  1
  La  La4  1  0.44050560  0.05949440  0.05949440  1
  La  La5  1  0.44050560  0.05949440  0.44050560  1
  La  La6  1  0.05949440  0.05949440  0.44050560  1
  La  La7  1  0.65432976  0.65432976  0.03701073  1
  La  La8  1  0.03701073  0.65432976  0.65432976  1
  La  La9  1  0.44050560  0.44050560  0.05949440  1
  La  La10  1  0.65432976  0.03701073  0.65432976  1
  La  La11  1  0.18918007  0.81081993  0.81081993  1
  La  La12  1  0.05949440  0.44050560  0.05949440  1
  La  La13  1  0.18918007  0.18918007  0.81081993  1
  La  La14  1  0.81081993  0.18918007  0.18918007  1
  La  La15  1  0.05949440  0.44050560  0.44050560  1
  Cd  Cd16  1  0.42120148  0.73639557  0.42120148  1
  Cd  Cd17  1  0.42120148  0.42120148  0.73639557  1
  Cd  Cd18  1  0.73639557  0.42120148  0.42120148  1
  Cd  Cd19  1  0.42120148  0.42120148  0.42120148  1
  Ru  Ru20  1  0.86290733  0.41127802  0.86290733  1
  Ru  Ru21  1  0.86290733  0.86290733  0.86290733  1
  Ru  Ru22  1  0.41127802  0.86290733  0.86290733  1
  Ru  Ru23  1  0.86290733  0.86290733  0.41127802  1
