# generated using pymatgen
data_Ba2CaCu3F14
_symmetry_space_group_name_H-M   'P 1'
_cell_length_a   5.40272299
_cell_length_b   7.41428573
_cell_length_c   14.89421314
_cell_angle_alpha   91.55899655
_cell_angle_beta   90.12725734
_cell_angle_gamma   111.14000303
_symmetry_Int_Tables_number   1
_chemical_formula_structural   Ba2CaCu3F14
_chemical_formula_sum   'Ba4 Ca2 Cu6 F28'
_cell_volume   556.21861016
_cell_formula_units_Z   2
loop_
 _symmetry_equiv_pos_site_id
 _symmetry_equiv_pos_as_xyz
  1  'x, y, z'
loop_
 _atom_site_type_symbol
 _atom_site_label
 _atom_site_symmetry_multiplicity
 _atom_site_fract_x
 _atom_site_fract_y
 _atom_site_fract_z
 _atom_site_occupancy
  Ba  Ba0  1  0.12921491  0.38504763  0.62214464  1
  Ba  Ba1  1  0.25821210  0.38603205  0.12332108  1
  Ba  Ba2  1  0.87071877  0.61432392  0.37780092  1
  Ba  Ba3  1  0.74593403  0.61500698  0.87864389  1
  Ca  Ca4  1  0.41680358  0.99918650  0.74998600  1
  Ca  Ca5  1  0.58144620  0.99668913  0.25046295  1
  Cu  Cu6  1  0.09718513  0.23877464  0.87581429  1
  Cu  Cu7  1  0.90168472  0.75950767  0.12514738  1
  Cu  Cu8  1  0.14204131  0.23980006  0.37557521  1
  Cu  Cu9  1  0.85847962  0.75922189  0.62583866  1
  Cu  Cu10  1  0.50225202  0.00118483  0.99967229  1
  Cu  Cu11  1  0.49960444  0.99962007  0.50063305  1
  F  F12  1  0.92063071  0.97938989  0.34557159  1
  F  F13  1  0.87081179  0.26345123  0.45564931  1
  F  F14  1  0.12763901  0.73570375  0.54521787  1
  F  F15  1  0.66611758  0.49471398  0.59475119  1
  F  F16  1  0.61014744  0.11131631  0.61459280  1
  F  F17  1  0.49964599  0.88867894  0.88531017  1
  F  F18  1  0.39551165  0.25672652  0.95547913  1
  F  F19  1  0.94193742  0.01611176  0.15568393  1
  F  F20  1  0.35900715  0.31872399  0.77896268  1
  F  F21  1  0.33465787  0.50341537  0.40809856  1
  F  F22  1  0.82587895  0.24667019  0.79160322  1
  F  F23  1  0.17074588  0.50311101  0.90844487  1
  F  F24  1  0.41862762  0.24436948  0.29215833  1
  F  F25  1  0.17361784  0.75125740  0.21056308  1
  F  F26  1  0.50406754  0.11309463  0.11516533  1
  F  F27  1  0.63394635  0.67900360  0.22478340  1
  F  F28  1  0.14344760  0.83710361  0.02148323  1
  F  F29  1  0.07934007  0.02020235  0.65579187  1
  F  F30  1  0.86933745  0.16891355  0.98228833  1
  F  F31  1  0.69210120  0.83249577  0.52198185  1
  F  F32  1  0.60331147  0.73991539  0.04390235  1
  F  F33  1  0.58336014  0.75382006  0.71005953  1
  F  F34  1  0.95791280  0.31755687  0.27698108  1
  F  F35  1  0.30461992  0.16552996  0.48012677  1
  F  F36  1  0.38953955  0.88848143  0.38673982  1
  F  F37  1  0.05754523  0.97903283  0.84463005  1
  F  F38  1  0.04592037  0.68135826  0.72386004  1
  F  F39  1  0.83225455  0.49986249  0.09263026  1
