# generated using pymatgen
data_Sr3MgIrO6
_symmetry_space_group_name_H-M   'P 1'
_cell_length_a   6.75001385
_cell_length_b   6.75001385
_cell_length_c   6.75001385
_cell_angle_alpha   92.27786846
_cell_angle_beta   92.27786851
_cell_angle_gamma   92.27786845
_symmetry_Int_Tables_number   1
_chemical_formula_structural   Sr3MgIrO6
_chemical_formula_sum   'Sr6 Mg2 Ir2 O12'
_cell_volume   306.79977882
_cell_formula_units_Z   2
loop_
 _symmetry_equiv_pos_site_id
 _symmetry_equiv_pos_as_xyz
  1  'x, y, z'
loop_
 _atom_site_type_symbol
 _atom_site_label
 _atom_site_symmetry_multiplicity
 _atom_site_fract_x
 _atom_site_fract_y
 _atom_site_fract_z
 _atom_site_occupancy
  O  O0  1  0.78700120  0.59561044  0.46339302  1
  O  O1  1  0.59561044  0.46339302  0.78700120  1
  O  O2  1  0.46339302  0.78700120  0.59561044  1
  O  O3  1  0.03660698  0.90438956  0.71299880  1
  O  O4  1  0.90438956  0.71299880  0.03660698  1
  O  O5  1  0.71299880  0.03660698  0.90438956  1
  O  O6  1  0.21299880  0.40438956  0.53660698  1
  O  O7  1  0.40438956  0.53660698  0.21299880  1
  O  O8  1  0.53660698  0.21299880  0.40438956  1
  O  O9  1  0.96339302  0.09561044  0.28700120  1
  O  O10  1  0.28700120  0.96339302  0.09561044  1
  O  O11  1  0.09561044  0.28700120  0.96339302  1
  Mg  Mg12  1  0.25000000  0.25000000  0.25000000  1
  Mg  Mg13  1  0.75000000  0.75000000  0.75000000  1
  Sr  Sr14  1  0.25000000  0.61403735  0.88596265  1
  Sr  Sr15  1  0.61403735  0.88596265  0.25000000  1
  Sr  Sr16  1  0.11403735  0.75000000  0.38596265  1
  Sr  Sr17  1  0.75000000  0.38596265  0.11403735  1
  Sr  Sr18  1  0.38596265  0.11403735  0.75000000  1
  Sr  Sr19  1  0.88596265  0.25000000  0.61403735  1
  Ir  Ir20  1  0.00000000  0.00000000  0.00000000  1
  Ir  Ir21  1  0.50000000  0.50000000  0.50000000  1
