# generated using pymatgen
data_Ho3TmMn8
_symmetry_space_group_name_H-M   'P 1'
_cell_length_a   5.13506221
_cell_length_b   5.34553332
_cell_length_c   8.38938657
_cell_angle_alpha   90.00000000
_cell_angle_beta   93.34363747
_cell_angle_gamma   58.63463760
_symmetry_Int_Tables_number   1
_chemical_formula_structural   Ho3TmMn8
_chemical_formula_sum   'Ho3 Tm1 Mn8'
_cell_volume   196.17377784
_cell_formula_units_Z   1
loop_
 _symmetry_equiv_pos_site_id
 _symmetry_equiv_pos_as_xyz
  1  'x, y, z'
loop_
 _atom_site_type_symbol
 _atom_site_label
 _atom_site_symmetry_multiplicity
 _atom_site_fract_x
 _atom_site_fract_y
 _atom_site_fract_z
 _atom_site_occupancy
  Ho  Ho0  1  0.66127795  0.66936103  0.43900368  1
  Ho  Ho1  1  0.66774787  0.66612607  0.06299723  1
  Ho  Ho2  1  0.33264406  0.33367797  0.93654719  1
  Tm  Tm3  1  0.33824710  0.33087645  0.56137551  1
  Mn  Mn4  1  0.99944861  0.00027570  0.50029812  1
  Mn  Mn5  1  0.00023480  0.99988260  0.00003399  1
  Mn  Mn6  1  0.82996473  0.32824924  0.75461431  1
  Mn  Mn7  1  0.33622710  0.83188645  0.74414745  1
  Mn  Mn8  1  0.82996473  0.84178603  0.75461431  1
  Mn  Mn9  1  0.17021768  0.67120783  0.24513244  1
  Mn  Mn10  1  0.66380770  0.16809615  0.25610333  1
  Mn  Mn11  1  0.17021768  0.15857449  0.24513244  1
