# generated using pymatgen
data_BaYAgTe3
_symmetry_space_group_name_H-M   'P 1'
_cell_length_a   4.53922649
_cell_length_b   7.92681285
_cell_length_c   11.53464677
_cell_angle_alpha   90.00000000
_cell_angle_beta   90.00000000
_cell_angle_gamma   106.63782924
_symmetry_Int_Tables_number   1
_chemical_formula_structural   BaYAgTe3
_chemical_formula_sum   'Ba2 Y2 Ag2 Te6'
_cell_volume   397.65906898
_cell_formula_units_Z   2
loop_
 _symmetry_equiv_pos_site_id
 _symmetry_equiv_pos_as_xyz
  1  'x, y, z'
loop_
 _atom_site_type_symbol
 _atom_site_label
 _atom_site_symmetry_multiplicity
 _atom_site_fract_x
 _atom_site_fract_y
 _atom_site_fract_z
 _atom_site_occupancy
  Y  Y0  1  0.00000000  0.00000000  0.00000000  1
  Y  Y1  1  0.00000000  0.00000000  0.50000000  1
  Ag  Ag2  1  0.53131022  0.06262045  0.25000000  1
  Ag  Ag3  1  0.46868978  0.93737955  0.75000000  1
  Te  Te4  1  0.36188720  0.72377440  0.94928296  1
  Te  Te5  1  0.91990376  0.83980753  0.25000000  1
  Te  Te6  1  0.63811280  0.27622560  0.44928296  1
  Te  Te7  1  0.63811280  0.27622560  0.05071704  1
  Te  Te8  1  0.36188720  0.72377440  0.55071704  1
  Te  Te9  1  0.08009624  0.16019247  0.75000000  1
  Ba  Ba10  1  0.24377045  0.48754091  0.25000000  1
  Ba  Ba11  1  0.75622955  0.51245909  0.75000000  1
