# generated using pymatgen
data_BaMgCoF7
_symmetry_space_group_name_H-M   'P 1'
_cell_length_a   5.66141875
_cell_length_b   9.60242731
_cell_length_c   9.92850353
_cell_angle_alpha   90.00000000
_cell_angle_beta   90.00000000
_cell_angle_gamma   93.19470393
_symmetry_Int_Tables_number   1
_chemical_formula_structural   BaMgCoF7
_chemical_formula_sum   'Ba4 Mg4 Co4 F28'
_cell_volume   538.90802161
_cell_formula_units_Z   4
loop_
 _symmetry_equiv_pos_site_id
 _symmetry_equiv_pos_as_xyz
  1  'x, y, z'
loop_
 _atom_site_type_symbol
 _atom_site_label
 _atom_site_symmetry_multiplicity
 _atom_site_fract_x
 _atom_site_fract_y
 _atom_site_fract_z
 _atom_site_occupancy
  Ba  Ba0  1  0.26642282  0.50009230  0.31581349  1
  Ba  Ba1  1  0.73357718  0.99990770  0.81581349  1
  Ba  Ba2  1  0.73357718  0.49990770  0.68418651  1
  Ba  Ba3  1  0.26642282  0.00009230  0.18418651  1
  Mg  Mg4  1  0.69635023  0.80979819  0.39634056  1
  Mg  Mg5  1  0.30364977  0.69020181  0.89634056  1
  Mg  Mg6  1  0.69635023  0.30979819  0.10365944  1
  Mg  Mg7  1  0.30364977  0.19020181  0.60365944  1
  Co  Co8  1  0.19359243  0.81091115  0.61152473  1
  Co  Co9  1  0.80640757  0.18908885  0.38847527  1
  Co  Co10  1  0.19359243  0.31091115  0.88847527  1
  Co  Co11  1  0.80640757  0.68908885  0.11152473  1
  F  F12  1  0.11346854  0.12565493  0.44690203  1
  F  F13  1  0.37226529  0.36947080  0.04930351  1
  F  F14  1  0.47270694  0.74938901  0.71385060  1
  F  F15  1  0.52729306  0.25061099  0.28614940  1
  F  F16  1  0.88552603  0.36385190  0.45540356  1
  F  F17  1  0.25779917  0.49374652  0.81169470  1
  F  F18  1  0.02576476  0.75056095  0.78132987  1
  F  F19  1  0.11447397  0.13614810  0.95540356  1
  F  F20  1  0.37226529  0.86947080  0.45069649  1
  F  F21  1  0.52729306  0.75061099  0.21385060  1
  F  F22  1  0.11346854  0.62565493  0.05309797  1
  F  F23  1  0.88653146  0.87434507  0.55309797  1
  F  F24  1  0.97423524  0.74943905  0.28132987  1
  F  F25  1  0.38316399  0.87630012  0.95868946  1
  F  F26  1  0.11447397  0.63614810  0.54459644  1
  F  F27  1  0.88552603  0.86385190  0.04459644  1
  F  F28  1  0.97423524  0.24943905  0.21867013  1
  F  F29  1  0.88653146  0.37434507  0.94690203  1
  F  F30  1  0.61683601  0.62369988  0.45868946  1
  F  F31  1  0.62773471  0.63052920  0.95069649  1
  F  F32  1  0.61683601  0.12369988  0.04131054  1
  F  F33  1  0.02576476  0.25056095  0.71867013  1
  F  F34  1  0.38316399  0.37630012  0.54131054  1
  F  F35  1  0.74220083  0.00625348  0.31169470  1
  F  F36  1  0.74220083  0.50625348  0.18830530  1
  F  F37  1  0.25779917  0.99374652  0.68830530  1
  F  F38  1  0.62773471  0.13052920  0.54930351  1
  F  F39  1  0.47270694  0.24938901  0.78614940  1
