# generated using pymatgen
data_CaPr(MoO3)2
_symmetry_space_group_name_H-M   'P 1'
_cell_length_a   5.59928590
_cell_length_b   5.89726662
_cell_length_c   8.01614484
_cell_angle_alpha   90.01598015
_cell_angle_beta   89.55259093
_cell_angle_gamma   89.96396736
_symmetry_Int_Tables_number   1
_chemical_formula_structural   CaPr(MoO3)2
_chemical_formula_sum   'Ca2 Pr2 Mo4 O12'
_cell_volume   264.68883233
_cell_formula_units_Z   2
loop_
 _symmetry_equiv_pos_site_id
 _symmetry_equiv_pos_as_xyz
  1  'x, y, z'
loop_
 _atom_site_type_symbol
 _atom_site_label
 _atom_site_symmetry_multiplicity
 _atom_site_fract_x
 _atom_site_fract_y
 _atom_site_fract_z
 _atom_site_occupancy
  Ca  Ca0  1  0.48260472  0.44456476  0.75063161  1
  Ca  Ca1  1  0.98255917  0.05568142  0.25071064  1
  Pr  Pr2  1  0.01899863  0.94190117  0.74940979  1
  Pr  Pr3  1  0.51900547  0.55788352  0.24951699  1
  Mo  Mo4  1  0.99999056  0.49651828  0.99944505  1
  Mo  Mo5  1  0.00054964  0.49828765  0.50056583  1
  Mo  Mo6  1  0.50006197  0.00346312  0.49936041  1
  Mo  Mo7  1  0.50051991  0.00166127  0.00044419  1
  O  O8  1  0.10964096  0.45210557  0.24286939  1
  O  O9  1  0.19439832  0.20142942  0.93749296  1
  O  O10  1  0.20399379  0.19651858  0.55213983  1
  O  O11  1  0.30490861  0.70431963  0.56243095  1
  O  O12  1  0.29437141  0.69589924  0.94726421  1
  O  O13  1  0.39015855  0.95577785  0.25725742  1
  O  O14  1  0.60913657  0.04793020  0.74277652  1
  O  O15  1  0.70453842  0.30285832  0.05254785  1
  O  O16  1  0.69471609  0.29857118  0.43745912  1
  O  O17  1  0.80505641  0.79558876  0.06251529  1
  O  O18  1  0.79519138  0.80471645  0.44775971  1
  O  O19  1  0.88959641  0.54432261  0.75740127  1
