# generated using pymatgen
data_Ca(AgO2)2
_symmetry_space_group_name_H-M   'P 1'
_cell_length_a   6.65794474
_cell_length_b   6.05229866
_cell_length_c   6.05891930
_cell_angle_alpha   89.91389874
_cell_angle_beta   117.05146246
_cell_angle_gamma   117.02192488
_symmetry_Int_Tables_number   1
_chemical_formula_structural   Ca(AgO2)2
_chemical_formula_sum   'Ca2 Ag4 O8'
_cell_volume   187.11584146
_cell_formula_units_Z   2
loop_
 _symmetry_equiv_pos_site_id
 _symmetry_equiv_pos_as_xyz
  1  'x, y, z'
loop_
 _atom_site_type_symbol
 _atom_site_label
 _atom_site_symmetry_multiplicity
 _atom_site_fract_x
 _atom_site_fract_y
 _atom_site_fract_z
 _atom_site_occupancy
  Ca  Ca0  1  0.25000544  0.12466894  0.87480017  1
  Ca  Ca1  1  0.74993896  0.87540593  0.12516742  1
  Ag  Ag2  1  0.50004605  0.00004882  0.49992439  1
  Ag  Ag3  1  0.49994773  0.49995645  0.49993803  1
  Ag  Ag4  1  -0.00002177  0.49979014  -0.00004414  1
  Ag  Ag5  1  0.00000578  0.49994166  0.49999918  1
  O  O6  1  0.14692524  0.86961246  0.17146949  1
  O  O7  1  0.35309925  0.82859423  0.72313040  1
  O  O8  1  0.35292646  0.52328384  0.13006429  1
  O  O9  1  0.85319289  0.72322779  0.52458973  1
  O  O10  1  0.64703471  0.47673596  0.86993391  1
  O  O11  1  0.64693302  0.17138357  0.27692907  1
  O  O12  1  0.14672257  0.27671950  0.47538475  1
  O  O13  1  0.85324467  0.13063372  0.82871230  1
