# generated using pymatgen
data_Mg(CuO2)2
_symmetry_space_group_name_H-M   'P 1'
_cell_length_a   3.09475630
_cell_length_b   9.15890224
_cell_length_c   9.94971032
_cell_angle_alpha   90.00080608
_cell_angle_beta   90.00402284
_cell_angle_gamma   89.98531674
_symmetry_Int_Tables_number   1
_chemical_formula_structural   Mg(CuO2)2
_chemical_formula_sum   'Mg4 Cu8 O16'
_cell_volume   282.02025424
_cell_formula_units_Z   4
loop_
 _symmetry_equiv_pos_site_id
 _symmetry_equiv_pos_as_xyz
  1  'x, y, z'
loop_
 _atom_site_type_symbol
 _atom_site_label
 _atom_site_symmetry_multiplicity
 _atom_site_fract_x
 _atom_site_fract_y
 _atom_site_fract_z
 _atom_site_occupancy
  Mg  Mg0  1  0.36226572  0.74992143  0.15303722  1
  Mg  Mg1  1  0.36231237  0.24995206  0.34694687  1
  Mg  Mg2  1  0.63777853  0.75011237  0.65304710  1
  Mg  Mg3  1  0.63765556  0.25005698  0.84694970  1
  Cu  Cu4  1  0.84255147  0.56991213  0.38541253  1
  Cu  Cu5  1  0.84273691  0.06991614  0.11460606  1
  Cu  Cu6  1  0.15740065  0.06987921  0.61459322  1
  Cu  Cu7  1  0.84270211  0.43014994  0.11459937  1
  Cu  Cu8  1  0.15719015  0.43009140  0.61462188  1
  Cu  Cu9  1  0.84277762  0.93011390  0.38537815  1
  Cu  Cu10  1  0.15750160  0.93008779  0.88540364  1
  Cu  Cu11  1  0.15715099  0.56984486  0.88542100  1
  O  O12  1  0.12866851  0.88249240  0.54492121  1
  O  O13  1  0.87167231  0.11754190  0.45506844  1
  O  O14  1  0.49452850  0.00008307  0.24999950  1
  O  O15  1  0.87187112  0.88250887  0.04498479  1
  O  O16  1  0.87149208  0.61752405  0.04494285  1
  O  O17  1  0.85574815  0.25003324  0.20136476  1
  O  O18  1  0.12838973  0.11753217  0.95504371  1
  O  O19  1  0.14421506  0.24996046  0.70136251  1
  O  O20  1  0.49437538  0.50006827  0.24997592  1
  O  O21  1  0.50565368  0.99993480  0.74992787  1
  O  O22  1  0.12802627  0.61751760  0.54500297  1
  O  O23  1  0.14437363  0.74996545  0.79861364  1
  O  O24  1  0.85566547  0.74999840  0.29860635  1
  O  O25  1  0.50543053  0.49988082  0.75002691  1
  O  O26  1  0.12826744  0.38246082  0.95507988  1
  O  O27  1  0.87159948  0.38246247  0.45506195  1
