# generated using pymatgen
data_Tb2Mo2C3
_symmetry_space_group_name_H-M   'P 1'
_cell_length_a   3.36125485
_cell_length_b   5.75162486
_cell_length_c   6.15875505
_cell_angle_alpha   112.04041224
_cell_angle_beta   105.83597050
_cell_angle_gamma   90.00000000
_symmetry_Int_Tables_number   1
_chemical_formula_structural   Tb2Mo2C3
_chemical_formula_sum   'Tb2 Mo2 C3'
_cell_volume   105.47281984
_cell_formula_units_Z   1
loop_
 _symmetry_equiv_pos_site_id
 _symmetry_equiv_pos_as_xyz
  1  'x, y, z'
loop_
 _atom_site_type_symbol
 _atom_site_label
 _atom_site_symmetry_multiplicity
 _atom_site_fract_x
 _atom_site_fract_y
 _atom_site_fract_z
 _atom_site_occupancy
  Tb  Tb0  1  0.39035033  0.17734581  0.78070065  1
  Tb  Tb1  1  0.60964967  0.82265419  0.21929935  1
  Mo  Mo2  1  0.15781711  0.32508704  0.31563423  1
  Mo  Mo3  1  0.84218289  0.67491296  0.68436577  1
  C  C4  1  0.24883901  0.73232897  0.49767802  1
  C  C5  1  0.75116099  0.26767103  0.50232198  1
  C  C6  1  0.00000000  0.00000000  0.00000000  1
