# generated using pymatgen
data_BaVZnF7
_symmetry_space_group_name_H-M   'P 1'
_cell_length_a   5.67138000
_cell_length_b   9.70025472
_cell_length_c   10.10558011
_cell_angle_alpha   90.00000000
_cell_angle_beta   90.00000000
_cell_angle_gamma   92.82749675
_symmetry_Int_Tables_number   1
_chemical_formula_structural   BaVZnF7
_chemical_formula_sum   'Ba4 V4 Zn4 F28'
_cell_volume   555.26985079
_cell_formula_units_Z   4
loop_
 _symmetry_equiv_pos_site_id
 _symmetry_equiv_pos_as_xyz
  1  'x, y, z'
loop_
 _atom_site_type_symbol
 _atom_site_label
 _atom_site_symmetry_multiplicity
 _atom_site_fract_x
 _atom_site_fract_y
 _atom_site_fract_z
 _atom_site_occupancy
  Ba  Ba0  1  0.26152512  0.49854091  0.31830221  1
  Ba  Ba1  1  0.73847488  0.00145909  0.81830221  1
  Ba  Ba2  1  0.73847488  0.50145909  0.68169779  1
  Ba  Ba3  1  0.26152512  0.99854091  0.18169779  1
  V  V4  1  0.19487620  0.81072524  0.61182315  1
  V  V5  1  0.80512380  0.18927476  0.38817685  1
  V  V6  1  0.19487620  0.31072524  0.88817685  1
  V  V7  1  0.80512380  0.68927476  0.11182315  1
  Zn  Zn8  1  0.69649693  0.81070430  0.39946012  1
  Zn  Zn9  1  0.30350307  0.68929570  0.89946012  1
  Zn  Zn10  1  0.69649693  0.31070430  0.10053988  1
  Zn  Zn11  1  0.30350307  0.18929570  0.60053988  1
  F  F12  1  0.11235556  0.12060526  0.44229116  1
  F  F13  1  0.36418842  0.37158990  0.05354571  1
  F  F14  1  0.47905279  0.75360578  0.70798712  1
  F  F15  1  0.52094721  0.24639422  0.29201288  1
  F  F16  1  0.88972982  0.36768547  0.45911037  1
  F  F17  1  0.25882018  0.49769058  0.80778778  1
  F  F18  1  0.02129336  0.75074427  0.77911082  1
  F  F19  1  0.11027018  0.13231453  0.95911037  1
  F  F20  1  0.36418842  0.87158990  0.44645429  1
  F  F21  1  0.52094721  0.74639422  0.20798712  1
  F  F22  1  0.11235556  0.62060526  0.05770884  1
  F  F23  1  0.88764444  0.87939474  0.55770884  1
  F  F24  1  0.97870664  0.74925573  0.27911082  1
  F  F25  1  0.38853641  0.87592372  0.95823933  1
  F  F26  1  0.11027018  0.63231453  0.54088963  1
  F  F27  1  0.88972982  0.86768547  0.04088963  1
  F  F28  1  0.97870664  0.24925573  0.22088918  1
  F  F29  1  0.88764444  0.37939474  0.94229116  1
  F  F30  1  0.61146359  0.62407628  0.45823933  1
  F  F31  1  0.63581158  0.62841010  0.94645429  1
  F  F32  1  0.61146359  0.12407628  0.04176067  1
  F  F33  1  0.02129336  0.25074427  0.72088918  1
  F  F34  1  0.38853641  0.37592372  0.54176067  1
  F  F35  1  0.74117982  0.00230942  0.30778778  1
  F  F36  1  0.74117982  0.50230942  0.19221222  1
  F  F37  1  0.25882018  0.99769058  0.69221222  1
  F  F38  1  0.63581158  0.12841010  0.55354571  1
  F  F39  1  0.47905279  0.25360578  0.79201288  1
