# generated using pymatgen
data_BaZnCoF7
_symmetry_space_group_name_H-M   'P 1'
_cell_length_a   5.67169944
_cell_length_b   9.61559711
_cell_length_c   10.01192434
_cell_angle_alpha   90.00000000
_cell_angle_beta   90.00000000
_cell_angle_gamma   93.07232649
_symmetry_Int_Tables_number   1
_chemical_formula_structural   BaZnCoF7
_chemical_formula_sum   'Ba4 Zn4 Co4 F28'
_cell_volume   545.23327696
_cell_formula_units_Z   4
loop_
 _symmetry_equiv_pos_site_id
 _symmetry_equiv_pos_as_xyz
  1  'x, y, z'
loop_
 _atom_site_type_symbol
 _atom_site_label
 _atom_site_symmetry_multiplicity
 _atom_site_fract_x
 _atom_site_fract_y
 _atom_site_fract_z
 _atom_site_occupancy
  Ba  Ba0  1  0.26424138  0.49994304  0.31292810  1
  Ba  Ba1  1  0.73575862  0.00005696  0.81292810  1
  Ba  Ba2  1  0.73575862  0.50005696  0.68707190  1
  Ba  Ba3  1  0.26424138  0.99994304  0.18707190  1
  Zn  Zn4  1  0.69823384  0.80952965  0.39973213  1
  Zn  Zn5  1  0.30176616  0.69047035  0.89973213  1
  Zn  Zn6  1  0.69823384  0.30952965  0.10026787  1
  Zn  Zn7  1  0.30176616  0.19047035  0.60026787  1
  Co  Co8  1  0.19497881  0.81010890  0.61171692  1
  Co  Co9  1  0.80502119  0.18989110  0.38828308  1
  Co  Co10  1  0.19497881  0.31010890  0.88828308  1
  Co  Co11  1  0.80502119  0.68989110  0.11171692  1
  F  F12  1  0.11143627  0.12074384  0.44248308  1
  F  F13  1  0.36412988  0.37108417  0.05044629  1
  F  F14  1  0.47827877  0.75087629  0.70914473  1
  F  F15  1  0.52172123  0.24912371  0.29085527  1
  F  F16  1  0.88590398  0.36396378  0.45618712  1
  F  F17  1  0.25773338  0.49155123  0.80857013  1
  F  F18  1  0.02056298  0.75025222  0.77900171  1
  F  F19  1  0.11409602  0.13603622  0.95618712  1
  F  F20  1  0.36412988  0.87108417  0.44955371  1
  F  F21  1  0.52172123  0.74912371  0.20914473  1
  F  F22  1  0.11143627  0.62074384  0.05751692  1
  F  F23  1  0.88856373  0.87925616  0.55751692  1
  F  F24  1  0.97943702  0.74974778  0.27900171  1
  F  F25  1  0.38373053  0.88000911  0.95869344  1
  F  F26  1  0.11409602  0.63603622  0.54381288  1
  F  F27  1  0.88590398  0.86396378  0.04381288  1
  F  F28  1  0.97943702  0.24974778  0.22099829  1
  F  F29  1  0.88856373  0.37925616  0.94248308  1
  F  F30  1  0.61626947  0.61999089  0.45869344  1
  F  F31  1  0.63587012  0.62891583  0.94955371  1
  F  F32  1  0.61626947  0.11999089  0.04130656  1
  F  F33  1  0.02056298  0.25025222  0.72099829  1
  F  F34  1  0.38373053  0.38000911  0.54130656  1
  F  F35  1  0.74226662  0.00844877  0.30857013  1
  F  F36  1  0.74226662  0.50844877  0.19142987  1
  F  F37  1  0.25773338  0.99155123  0.69142987  1
  F  F38  1  0.63587012  0.12891583  0.55044629  1
  F  F39  1  0.47827877  0.25087629  0.79085527  1
