# generated using pymatgen
data_K3NaU(CO4)3
_symmetry_space_group_name_H-M   'P 1'
_cell_length_a   8.37122652
_cell_length_b   9.40749218
_cell_length_c   9.42868887
_cell_angle_alpha   119.92565847
_cell_angle_beta   89.95494373
_cell_angle_gamma   90.09031560
_symmetry_Int_Tables_number   1
_chemical_formula_structural   K3NaU(CO4)3
_chemical_formula_sum   'K6 Na2 U2 C6 O24'
_cell_volume   643.53060589
_cell_formula_units_Z   2
loop_
 _symmetry_equiv_pos_site_id
 _symmetry_equiv_pos_as_xyz
  1  'x, y, z'
loop_
 _atom_site_type_symbol
 _atom_site_label
 _atom_site_symmetry_multiplicity
 _atom_site_fract_x
 _atom_site_fract_y
 _atom_site_fract_z
 _atom_site_occupancy
  K  K0  1  0.99875259  0.29064524  -0.00006415  1
  K  K1  1  0.99912456  0.70928690  0.70885050  1
  K  K2  1  0.99895324  0.00055566  0.29061909  1
  K  K3  1  0.49875259  0.29070940  0.00006415  1
  K  K4  1  0.49895324  0.70993657  0.70938091  1
  K  K5  1  0.49912456  0.00043640  0.29114950  1
  Na  Na6  1  0.74982456  0.33324429  0.66621152  1
  Na  Na7  1  0.24982456  0.66703277  0.33378848  1
  U  U8  1  0.74998151  0.66662810  0.33309178  1
  U  U9  1  0.24998151  0.33353632  0.66690822  1
  C  C10  1  0.74954186  0.98591791  0.62721078  1
  C  C11  1  0.74940212  0.64142729  0.01366524  1
  C  C12  1  0.74958812  0.37257632  0.35924430  1
  C  C13  1  0.24954186  0.35870713  0.37278922  1
  C  C14  1  0.24940212  0.62776205  0.98633476  1
  C  C15  1  0.24958812  0.01333202  0.64075570  1
  O  O16  1  0.97025504  0.66694386  0.33339974  1
  O  O17  1  0.52962630  0.66668927  0.33334848  1
  O  O18  1  0.47025504  0.33354412  0.66660026  1
  O  O19  1  0.02962630  0.33334079  0.66665152  1
  O  O20  1  0.75002402  0.84737374  0.62924074  1
  O  O21  1  0.74940244  0.78243872  0.15272859  1
  O  O22  1  0.74972961  0.37032224  0.21879886  1
  O  O23  1  0.25002402  0.21813300  0.37075926  1
  O  O24  1  0.24940244  0.62971013  0.84727141  1
  O  O25  1  0.24972961  0.15152338  0.78120114  1
  O  O26  1  0.75021789  0.96796492  0.47943982  1
  O  O27  1  0.75037736  0.51203433  0.03349340  1
  O  O28  1  0.75016470  0.52120926  0.48802814  1
  O  O29  1  0.25021789  0.48852511  0.52056018  1
  O  O30  1  0.25037736  0.47854093  0.96650660  1
  O  O31  1  0.25016470  0.03318112  0.51197186  1
  O  O32  1  0.74860511  0.12582854  0.75539928  1
  O  O33  1  0.74880617  0.62987714  0.87432013  1
  O  O34  1  0.74930161  0.24474875  0.37169209  1
  O  O35  1  0.24860511  0.37042927  0.24460072  1
  O  O36  1  0.24880617  0.75555701  0.12567987  1
  O  O37  1  0.24930161  0.87305666  0.62830791  1
  O  O38  1  0.13832117  0.00052814  0.00356296  1
  O  O39  1  0.63832117  0.99696519  0.99643704  1
