# generated using pymatgen
data_Na4Al3Si3NO14
_symmetry_space_group_name_H-M   'P 1'
_cell_length_a   9.01846242
_cell_length_b   8.90228027
_cell_length_c   9.09320215
_cell_angle_alpha   89.70901614
_cell_angle_beta   90.00000000
_cell_angle_gamma   90.00000000
_symmetry_Int_Tables_number   1
_chemical_formula_structural   Na4Al3Si3NO14
_chemical_formula_sum   'Na8 Al6 Si6 N2 O28'
_cell_volume   730.03722873
_cell_formula_units_Z   2
loop_
 _symmetry_equiv_pos_site_id
 _symmetry_equiv_pos_as_xyz
  1  'x, y, z'
loop_
 _atom_site_type_symbol
 _atom_site_label
 _atom_site_symmetry_multiplicity
 _atom_site_fract_x
 _atom_site_fract_y
 _atom_site_fract_z
 _atom_site_occupancy
  Na  Na0  1  0.17962179  0.18001583  0.18970164  1
  Na  Na1  1  0.17962179  0.81998417  0.81029836  1
  Na  Na2  1  0.31182210  0.32495589  0.68566827  1
  Na  Na3  1  0.31182210  0.67504411  0.31433173  1
  Na  Na4  1  0.67958855  0.32014869  0.31084232  1
  Na  Na5  1  0.67958855  0.67985131  0.68915768  1
  Na  Na6  1  0.81250586  0.17515148  0.81496567  1
  Na  Na7  1  0.81250586  0.82484852  0.18503433  1
  Al  Al8  1  0.99848207  0.50044457  0.24915407  1
  Al  Al9  1  0.99848207  0.49955543  0.75084593  1
  Al  Al10  1  0.24983606  0.00000000  0.50000000  1
  Al  Al11  1  0.49852874  0.75069730  0.00061825  1
  Al  Al12  1  0.49852874  0.24930270  0.99938175  1
  Al  Al13  1  0.74669245  0.00000000  0.50000000  1
  Si  Si14  1  0.99823257  0.25069686  0.50142261  1
  Si  Si15  1  0.99823257  0.74930314  0.49857739  1
  Si  Si16  1  0.24713460  0.50000000  -0.00000000  1
  Si  Si17  1  0.49803963  0.00135360  0.74924217  1
  Si  Si18  1  0.49803963  0.99864640  0.25075783  1
  Si  Si19  1  0.75020052  0.50000000  -0.00000000  1
  N  N20  1  0.03486058  0.00000000  -0.00000000  1
  N  N21  1  0.53486843  0.50000000  0.50000000  1
  O  O22  1  0.05804563  0.34792728  0.64262350  1
  O  O23  1  0.05804563  0.65207272  0.35737650  1
  O  O24  1  0.13940125  0.15184311  0.44255203  1
  O  O25  1  0.13940125  0.84815689  0.55744797  1
  O  O26  1  0.14707428  0.43950560  0.13901689  1
  O  O27  1  0.14707428  0.56049440  0.86098311  1
  O  O28  1  0.34697084  0.35879935  0.94094820  1
  O  O29  1  0.34697084  0.64120065  0.05905180  1
  O  O30  1  0.35834168  0.06179296  0.64921200  1
  O  O31  1  0.35834168  0.93820704  0.35078800  1
  O  O32  1  0.43837313  0.13757152  0.14792624  1
  O  O33  1  0.43837313  0.86242848  0.85207376  1
  O  O34  1  0.45940392  0.45224757  0.39119468  1
  O  O35  1  0.45940392  0.54775243  0.60880532  1
  O  O36  1  0.55815632  0.14320695  0.84719356  1
  O  O37  1  0.55815632  0.85679305  0.15280644  1
  O  O38  1  0.63656258  0.05995985  0.35077145  1
  O  O39  1  0.63656258  0.94004015  0.64922855  1
  O  O40  1  0.65037111  0.35777761  0.05796666  1
  O  O41  1  0.65037111  0.64222239  0.94203334  1
  O  O42  1  0.84952965  0.56111105  0.13870697  1
  O  O43  1  0.84952965  0.43888895  0.86129303  1
  O  O44  1  0.85680056  0.15081951  0.55962489  1
  O  O45  1  0.85680056  0.84918049  0.44037511  1
  O  O46  1  0.93849235  0.35278161  0.36308313  1
  O  O47  1  0.93849235  0.64721839  0.63691687  1
  O  O48  1  0.95985904  0.95140135  0.89177326  1
  O  O49  1  0.95985904  0.04859865  0.10822674  1
