# generated using pymatgen
data_Pr2SbO2
_symmetry_space_group_name_H-M   'P 1'
_cell_length_a   4.02751978
_cell_length_b   4.03494846
_cell_length_c   7.53784288
_cell_angle_alpha   74.47575195
_cell_angle_beta   74.50505190
_cell_angle_gamma   90.00000000
_symmetry_Int_Tables_number   1
_chemical_formula_structural   Pr2SbO2
_chemical_formula_sum   'Pr2 Sb1 O2'
_cell_volume   113.39967067
_cell_formula_units_Z   1
loop_
 _symmetry_equiv_pos_site_id
 _symmetry_equiv_pos_as_xyz
  1  'x, y, z'
loop_
 _atom_site_type_symbol
 _atom_site_label
 _atom_site_symmetry_multiplicity
 _atom_site_fract_x
 _atom_site_fract_y
 _atom_site_fract_z
 _atom_site_occupancy
  Pr  Pr0  1  0.33700084  0.35385653  0.32599833  1
  Pr  Pr1  1  0.66299916  0.67985485  0.67400167  1
  Sb  Sb2  1  1.00000000  0.02797906  0.00000000  1
  O  O3  1  0.75003061  0.26723539  0.49993878  1
  O  O4  1  0.24996939  0.76717417  0.50006122  1
