# generated using pymatgen
data_Na(NiO2)2
_symmetry_space_group_name_H-M   'P 1'
_cell_length_a   4.87145276
_cell_length_b   5.77113829
_cell_length_c   11.26110969
_cell_angle_alpha   89.60992349
_cell_angle_beta   90.16075166
_cell_angle_gamma   89.78463990
_symmetry_Int_Tables_number   1
_chemical_formula_structural   Na(NiO2)2
_chemical_formula_sum   'Na4 Ni8 O16'
_cell_volume   316.58205364
_cell_formula_units_Z   4
loop_
 _symmetry_equiv_pos_site_id
 _symmetry_equiv_pos_as_xyz
  1  'x, y, z'
loop_
 _atom_site_type_symbol
 _atom_site_label
 _atom_site_symmetry_multiplicity
 _atom_site_fract_x
 _atom_site_fract_y
 _atom_site_fract_z
 _atom_site_occupancy
  Na  Na0  1  0.01516066  0.74988003  0.24988109  1
  Na  Na1  1  0.35856486  0.74998133  0.75035394  1
  Na  Na2  1  0.64190358  0.25007899  0.24953906  1
  Na  Na3  1  0.98670405  0.24998014  0.75070817  1
  Ni  Ni4  1  0.00161358  0.24705288  0.00345906  1
  Ni  Ni5  1  0.99830306  0.75282324  0.99649940  1
  Ni  Ni6  1  0.00058580  0.25241157  0.49744106  1
  Ni  Ni7  1  0.99793819  0.74654605  0.50373896  1
  Ni  Ni8  1  0.50005926  0.49974395  -0.00006084  1
  Ni  Ni9  1  0.50007295  0.00029974  -0.00006473  1
  Ni  Ni10  1  0.50027853  0.00283998  0.49997549  1
  Ni  Ni11  1  0.50025652  0.49808728  0.50017201  1
  O  O12  1  0.17075217  0.01257254  0.58888395  1
  O  O13  1  0.17832497  0.00254203  0.90697625  1
  O  O14  1  0.17540226  0.48472521  0.59043086  1
  O  O15  1  0.17535028  0.50032990  0.90869664  1
  O  O16  1  0.33386681  0.23960625  0.08793651  1
  O  O17  1  0.33269937  0.25895821  0.41155974  1
  O  O18  1  0.32194406  0.76305471  0.08613121  1
  O  O19  1  0.31885151  0.73390910  0.41352766  1
  O  O20  1  0.68276360  0.26558965  0.58801904  1
  O  O21  1  0.67801703  0.23687658  0.91390509  1
  O  O22  1  0.66441866  0.74069620  0.58726346  1
  O  O23  1  0.66608317  0.76037839  0.91199502  1
  O  O24  1  0.82874770  0.01357719  0.41006655  1
  O  O25  1  0.82487804  0.49034403  0.40877891  1
  O  O26  1  0.82169095  0.99672722  0.09298189  1
  O  O27  1  0.82476738  0.50038760  0.09120654  1
