# generated using pymatgen
data_Sr2MnBiPbO6
_symmetry_space_group_name_H-M   'P 1'
_cell_length_a   5.45524250
_cell_length_b   5.54138101
_cell_length_c   12.29781183
_cell_angle_alpha   77.05092390
_cell_angle_beta   90.00000000
_cell_angle_gamma   90.00000000
_symmetry_Int_Tables_number   1
_chemical_formula_structural   Sr2MnBiPbO6
_chemical_formula_sum   'Sr4 Mn2 Bi2 Pb2 O12'
_cell_volume   362.30371161
_cell_formula_units_Z   2
loop_
 _symmetry_equiv_pos_site_id
 _symmetry_equiv_pos_as_xyz
  1  'x, y, z'
loop_
 _atom_site_type_symbol
 _atom_site_label
 _atom_site_symmetry_multiplicity
 _atom_site_fract_x
 _atom_site_fract_y
 _atom_site_fract_z
 _atom_site_occupancy
  Sr  Sr0  1  0.49767985  0.07865980  0.34673187  1
  Sr  Sr1  1  0.49767985  0.92134020  0.65326813  1
  Sr  Sr2  1  0.99610599  0.42537744  0.65359429  1
  Sr  Sr3  1  0.99610599  0.57462256  0.34640571  1
  Mn  Mn4  1  0.49874476  0.50000000  0.50000000  1
  Mn  Mn5  1  0.99863103  -0.00000000  0.50000000  1
  Bi  Bi6  1  0.02204003  0.83646886  0.87473779  1
  Bi  Bi7  1  0.02204003  0.16353114  0.12526221  1
  Pb  Pb8  1  0.51106410  0.69397050  0.12542207  1
  Pb  Pb9  1  0.51106410  0.30602950  0.87457793  1
  O  O10  1  0.75088898  0.75211055  0.49430837  1
  O  O11  1  0.75088898  0.24788945  0.50569163  1
  O  O12  1  0.24857528  0.24498589  0.50553543  1
  O  O13  1  0.24857528  0.75501411  0.49446457  1
  O  O14  1  0.49389747  0.57045028  0.31150340  1
  O  O15  1  0.49389747  0.42954972  0.68849660  1
  O  O16  1  0.98598652  0.87542070  0.69822112  1
  O  O17  1  0.98598652  0.12457930  0.30177888  1
  O  O18  1  0.92886000  0.78702977  0.13300834  1
  O  O19  1  0.92886000  0.21297023  0.86699166  1
  O  O20  1  0.40601389  0.91140291  0.86153818  1
  O  O21  1  0.40601389  0.08859709  0.13846182  1
