# generated using pymatgen
data_Tb8Cu3Te16
_symmetry_space_group_name_H-M   'P 1'
_cell_length_a   12.54590624
_cell_length_b   9.86348722
_cell_length_c   8.13272158
_cell_angle_alpha   90.14494592
_cell_angle_beta   90.25876089
_cell_angle_gamma   50.52283424
_symmetry_Int_Tables_number   1
_chemical_formula_structural   Tb8Cu3Te16
_chemical_formula_sum   'Tb8 Cu3 Te16'
_cell_volume   776.80610748
_cell_formula_units_Z   1
loop_
 _symmetry_equiv_pos_site_id
 _symmetry_equiv_pos_as_xyz
  1  'x, y, z'
loop_
 _atom_site_type_symbol
 _atom_site_label
 _atom_site_symmetry_multiplicity
 _atom_site_fract_x
 _atom_site_fract_y
 _atom_site_fract_z
 _atom_site_occupancy
  Tb  Tb0  1  0.00245136  0.23882994  0.43955789  1
  Tb  Tb1  1  0.25631253  0.23509517  0.05705696  1
  Tb  Tb2  1  0.50826357  0.23517532  0.44354722  1
  Tb  Tb3  1  0.24041368  0.76408518  0.94500544  1
  Tb  Tb4  1  0.76189128  0.23237650  0.06112301  1
  Tb  Tb5  1  0.49249686  0.76597439  0.55379900  1
  Tb  Tb6  1  0.74878180  0.76078814  0.94184354  1
  Tb  Tb7  1  0.99410300  0.76256638  0.55599016  1
  Cu  Cu8  1  0.08688142  0.40332124  0.69624066  1
  Cu  Cu9  1  0.50806252  0.40027855  0.80513453  1
  Cu  Cu10  1  0.66485993  0.59491726  0.19765375  1
  Te  Te11  1  0.21419204  0.07087092  0.75177351  1
  Te  Te12  1  0.18557953  0.39363024  0.40467849  1
  Te  Te13  1  0.06712382  0.61136465  0.91360932  1
  Te  Te14  1  0.46744206  0.06541315  0.75112501  1
  Te  Te15  1  0.03716473  0.92464209  0.25104995  1
  Te  Te16  1  0.32321010  0.61177799  0.58795989  1
  Te  Te17  1  0.42156133  0.39374272  0.09743661  1
  Te  Te18  1  0.28096826  0.93265248  0.25142982  1
  Te  Te19  1  0.71532357  0.07081634  0.74784540  1
  Te  Te20  1  0.68282927  0.38984401  0.41424543  1
  Te  Te21  1  0.56305206  0.60843694  0.90579601  1
  Te  Te22  1  0.96420126  0.07154187  0.74949752  1
  Te  Te23  1  0.53524259  0.92821152  0.24964217  1
  Te  Te24  1  0.82448441  0.61021522  0.59176163  1
  Te  Te25  1  0.92558354  0.39116531  0.09093135  1
  Te  Te26  1  0.78652346  0.92926647  0.24926573  1
