# generated using pymatgen
data_NaMg3Si4O11F
_symmetry_space_group_name_H-M   'P 1'
_cell_length_a   5.35558097
_cell_length_b   9.78254562
_cell_length_c   10.27944500
_cell_angle_alpha   61.61311245
_cell_angle_beta   84.24417234
_cell_angle_gamma   77.83330557
_symmetry_Int_Tables_number   1
_chemical_formula_structural   NaMg3Si4O11F
_chemical_formula_sum   'Na2 Mg6 Si8 O22 F2'
_cell_volume   463.15351746
_cell_formula_units_Z   2
loop_
 _symmetry_equiv_pos_site_id
 _symmetry_equiv_pos_as_xyz
  1  'x, y, z'
loop_
 _atom_site_type_symbol
 _atom_site_label
 _atom_site_symmetry_multiplicity
 _atom_site_fract_x
 _atom_site_fract_y
 _atom_site_fract_z
 _atom_site_occupancy
  Na  Na0  1  0.00043461  0.49848894  0.00244595  1
  Na  Na1  1  0.49990052  0.27051006  0.45960436  1
  Mg  Mg2  1  0.00001085  0.00077652  0.99838062  1
  Mg  Mg3  1  0.99995235  0.18043206  0.63940764  1
  Mg  Mg4  1  0.00032154  0.82140494  0.35688889  1
  Mg  Mg5  1  0.49991618  0.09037847  0.81936909  1
  Mg  Mg6  1  0.50012127  0.74105494  0.51794483  1
  Mg  Mg7  1  0.50014943  0.91152226  0.17679133  1
  Si  Si8  1  0.21564543  0.11675492  0.34439342  1
  Si  Si9  1  0.22256702  0.46354571  0.65946595  1
  Si  Si10  1  0.28063511  0.63422664  0.16822893  1
  Si  Si11  1  0.27217360  0.80178943  0.82791089  1
  Si  Si12  1  0.71939107  0.19702135  0.16882962  1
  Si  Si13  1  0.72752435  0.37006726  0.82853726  1
  Si  Si14  1  0.78443643  0.53890437  0.34392053  1
  Si  Si15  1  0.77713752  0.87761881  0.65875265  1
  O  O16  1  0.05498664  0.53098773  0.24866197  1
  O  O17  1  0.20503156  0.11002457  0.50187917  1
  O  O18  1  0.04977441  0.77122167  0.75092056  1
  O  O19  1  0.22731144  0.62421783  0.50544986  1
  O  O20  1  0.21203705  0.80377093  0.16922917  1
  O  O21  1  0.27686821  0.29080018  0.66641717  1
  O  O22  1  0.28705962  0.65399209  0.99902965  1
  O  O23  1  0.43861626  0.22244406  0.24187227  1
  O  O24  1  0.21302673  0.96960901  0.83172046  1
  O  O25  1  0.28521816  0.94265971  0.34711589  1
  O  O26  1  0.45402472  0.47792554  0.75013709  1
  O  O27  1  0.56101809  0.53558863  0.24166810  1
  O  O28  1  0.71329002  0.34649110  0.99977118  1
  O  O29  1  0.72290674  0.04324723  0.66602245  1
  O  O30  1  0.78819716  0.02676646  0.16927378  1
  O  O31  1  0.54535174  0.77260746  0.74894320  1
  O  O32  1  0.71503491  0.71024813  0.34681605  1
  O  O33  1  0.78687246  0.19869402  0.83178890  1
  O  O34  1  0.79578094  0.38845805  0.50138061  1
  O  O35  1  0.94460640  0.21958134  0.24976554  1
  O  O36  1  0.77299813  0.87092912  0.50471736  1
  O  O37  1  0.94966872  0.47782535  0.75148433  1
  F  F38  1  0.29551831  0.10193075  0.00269560  1
  F  F39  1  0.70448432  0.89548233  0.00236771  1
