# generated using pymatgen
data_TmWO5
_symmetry_space_group_name_H-M   'P 1'
_cell_length_a   5.27360192
_cell_length_b   6.51338899
_cell_length_c   12.54755190
_cell_angle_alpha   90.00000000
_cell_angle_beta   90.00000000
_cell_angle_gamma   109.31809751
_symmetry_Int_Tables_number   1
_chemical_formula_structural   TmWO5
_chemical_formula_sum   'Tm4 W4 O20'
_cell_volume   406.72953323
_cell_formula_units_Z   4
loop_
 _symmetry_equiv_pos_site_id
 _symmetry_equiv_pos_as_xyz
  1  'x, y, z'
loop_
 _atom_site_type_symbol
 _atom_site_label
 _atom_site_symmetry_multiplicity
 _atom_site_fract_x
 _atom_site_fract_y
 _atom_site_fract_z
 _atom_site_occupancy
  Tm  Tm0  1  0.14498177  0.78550696  0.44496180  1
  Tm  Tm1  1  0.85501823  0.21449304  0.55503820  1
  Tm  Tm2  1  0.35501823  0.71449304  0.94496180  1
  Tm  Tm3  1  0.64498177  0.28550696  0.05503820  1
  W  W4  1  0.95193543  0.84727993  0.13852070  1
  W  W5  1  0.04806457  0.15272007  0.86147930  1
  W  W6  1  0.54806457  0.65272007  0.63852070  1
  W  W7  1  0.45193543  0.34727993  0.36147930  1
  O  O8  1  0.04681270  0.55712730  0.08487755  1
  O  O9  1  0.95318730  0.44287270  0.91512245  1
  O  O10  1  0.45318730  0.94287270  0.58487755  1
  O  O11  1  0.54681270  0.05712730  0.41512245  1
  O  O12  1  0.86072492  0.84569672  0.57193294  1
  O  O13  1  0.13927508  0.15430328  0.42806706  1
  O  O14  1  0.63927508  0.65430328  0.07193294  1
  O  O15  1  0.36072492  0.34569672  0.92806706  1
  O  O16  1  0.27301597  0.97192659  0.06355190  1
  O  O17  1  0.72698403  0.02807341  0.93644810  1
  O  O18  1  0.22698403  0.52807341  0.56355190  1
  O  O19  1  0.77301597  0.47192659  0.43644810  1
  O  O20  1  0.99785944  0.79089638  0.27590318  1
  O  O21  1  0.00214056  0.20910362  0.72409682  1
  O  O22  1  0.50214056  0.70910362  0.77590318  1
  O  O23  1  0.49785944  0.29089638  0.22409682  1
  O  O24  1  0.15480338  0.91698397  0.85106361  1
  O  O25  1  0.84519662  0.08301603  0.14893639  1
  O  O26  1  0.34519662  0.58301603  0.35106361  1
  O  O27  1  0.65480338  0.41698397  0.64893639  1
