# generated using pymatgen
data_Li2Fe3BiO8
_symmetry_space_group_name_H-M   'P 1'
_cell_length_a   8.68846816
_cell_length_b   8.68839865
_cell_length_c   8.68853701
_cell_angle_alpha   89.99993531
_cell_angle_beta   90.00035742
_cell_angle_gamma   90.00016506
_symmetry_Int_Tables_number   1
_chemical_formula_structural   Li2Fe3BiO8
_chemical_formula_sum   'Li8 Fe12 Bi4 O32'
_cell_volume   655.88788455
_cell_formula_units_Z   4
loop_
 _symmetry_equiv_pos_site_id
 _symmetry_equiv_pos_as_xyz
  1  'x, y, z'
loop_
 _atom_site_type_symbol
 _atom_site_label
 _atom_site_symmetry_multiplicity
 _atom_site_fract_x
 _atom_site_fract_y
 _atom_site_fract_z
 _atom_site_occupancy
  Li  Li0  1  0.00114183  0.00114146  0.00113824  1
  Li  Li1  1  0.24884330  0.24884671  0.24884731  1
  Li  Li2  1  0.25115193  0.75115392  0.74884627  1
  Li  Li3  1  0.49885341  0.99885988  0.50114356  1
  Li  Li4  1  0.50114120  0.49886284  0.99886042  1
  Li  Li5  1  0.74884751  0.25115179  0.75114282  1
  Li  Li6  1  0.75114753  0.74884716  0.25114663  1
  Li  Li7  1  0.99885369  0.50114515  0.49885445  1
  Fe  Fe8  1  0.11078624  0.13922195  0.62502348  1
  Fe  Fe9  1  0.12501108  0.38922608  0.86078624  1
  Fe  Fe10  1  0.13920217  0.62501747  0.11079194  1
  Fe  Fe11  1  0.36078617  0.37499942  0.61077691  1
  Fe  Fe12  1  0.37500457  0.61078554  0.36079548  1
  Fe  Fe13  1  0.38920811  0.86078770  0.12500519  1
  Fe  Fe14  1  0.61077207  0.36078601  0.37499273  1
  Fe  Fe15  1  0.62500318  0.11078035  0.13922828  1
  Fe  Fe16  1  0.63921564  0.87499901  0.88922427  1
  Fe  Fe17  1  0.86078341  0.12501131  0.38922578  1
  Fe  Fe18  1  0.87498700  0.88922606  0.63921688  1
  Fe  Fe19  1  0.88922374  0.63922279  0.87500449  1
  Bi  Bi20  1  0.12499602  0.87500852  0.37501509  1
  Bi  Bi21  1  0.37501002  0.12501131  0.87499434  1
  Bi  Bi22  1  0.62502366  0.62500956  0.62502063  1
  Bi  Bi23  1  0.87499250  0.37497491  0.12499149  1
  O  O24  1  0.10494870  0.12195213  0.38774785  1
  O  O25  1  0.11226540  0.89504096  0.62195722  1
  O  O26  1  0.11903724  0.61904755  0.88096451  1
  O  O27  1  0.12808307  0.14502092  0.86227748  1
  O  O28  1  0.12193767  0.38772436  0.10494569  1
  O  O29  1  0.13097730  0.36903512  0.63098231  1
  O  O30  1  0.13773137  0.62807481  0.35499062  1
  O  O31  1  0.14500796  0.86227899  0.12808242  1
  O  O32  1  0.35498455  0.13773286  0.62807149  1
  O  O33  1  0.36227974  0.37194182  0.85499019  1
  O  O34  1  0.36901944  0.63097645  0.13097737  1
  O  O35  1  0.37807386  0.61227131  0.60495852  1
  O  O36  1  0.37192967  0.85499686  0.36227087  1
  O  O37  1  0.38095894  0.38095923  0.38095743  1
  O  O38  1  0.38774050  0.10495949  0.12194327  1
  O  O39  1  0.39503941  0.87806826  0.88772657  1
  O  O40  1  0.60496259  0.37805499  0.61227023  1
  O  O41  1  0.61227240  0.60496587  0.37807606  1
  O  O42  1  0.61903331  0.88095938  0.11903541  1
  O  O43  1  0.62806175  0.35498678  0.13773131  1
  O  O44  1  0.62196560  0.11227668  0.89504042  1
  O  O45  1  0.63097080  0.13097396  0.36902865  1
  O  O46  1  0.63773470  0.87193737  0.64501634  1
  O  O47  1  0.64500804  0.63773741  0.87194554  1
  O  O48  1  0.85498520  0.36226551  0.37191491  1
  O  O49  1  0.86226608  0.12804137  0.14501025  1
  O  O50  1  0.86902289  0.86903222  0.86902653  1
  O  O51  1  0.87805499  0.88773270  0.39504208  1
  O  O52  1  0.87194721  0.64501542  0.63773759  1
  O  O53  1  0.88095816  0.11904353  0.61904626  1
  O  O54  1  0.88771554  0.39503998  0.87804066  1
  O  O55  1  0.89503797  0.62191985  0.11225803  1
