# generated using pymatgen
data_CaGaAu
_symmetry_space_group_name_H-M   'P 1'
_cell_length_a   4.60283901
_cell_length_b   7.34507932
_cell_length_c   7.78470382
_cell_angle_alpha   90.00000000
_cell_angle_beta   90.00000000
_cell_angle_gamma   90.00000000
_symmetry_Int_Tables_number   1
_chemical_formula_structural   CaGaAu
_chemical_formula_sum   'Ca4 Ga4 Au4'
_cell_volume   263.18696090
_cell_formula_units_Z   4
loop_
 _symmetry_equiv_pos_site_id
 _symmetry_equiv_pos_as_xyz
  1  'x, y, z'
loop_
 _atom_site_type_symbol
 _atom_site_label
 _atom_site_symmetry_multiplicity
 _atom_site_fract_x
 _atom_site_fract_y
 _atom_site_fract_z
 _atom_site_occupancy
  Ca  Ca0  1  0.75000000  0.49407567  0.20049285  1
  Ca  Ca1  1  0.25000000  0.00592433  0.70049285  1
  Ca  Ca2  1  0.75000000  0.99407567  0.29950715  1
  Ca  Ca3  1  0.25000000  0.50592433  0.79950715  1
  Ga  Ga4  1  0.25000000  0.18039788  0.07945632  1
  Ga  Ga5  1  0.75000000  0.31960212  0.57945632  1
  Ga  Ga6  1  0.25000000  0.68039788  0.42054368  1
  Ga  Ga7  1  0.75000000  0.81960212  0.92054368  1
  Au  Au8  1  0.25000000  0.79311530  0.09341200  1
  Au  Au9  1  0.75000000  0.20688470  0.90658800  1
  Au  Au10  1  0.25000000  0.29311530  0.40658800  1
  Au  Au11  1  0.75000000  0.70688470  0.59341200  1
