# generated using pymatgen
data_Sr2H4Pd
_symmetry_space_group_name_H-M   'P 1'
_cell_length_a   7.64964541
_cell_length_b   5.52058606
_cell_length_c   9.74596585
_cell_angle_alpha   90.00000000
_cell_angle_beta   90.00000000
_cell_angle_gamma   90.00000000
_symmetry_Int_Tables_number   1
_chemical_formula_structural   Sr2H4Pd
_chemical_formula_sum   'Sr8 H16 Pd4'
_cell_volume   411.57726241
_cell_formula_units_Z   4
loop_
 _symmetry_equiv_pos_site_id
 _symmetry_equiv_pos_as_xyz
  1  'x, y, z'
loop_
 _atom_site_type_symbol
 _atom_site_label
 _atom_site_symmetry_multiplicity
 _atom_site_fract_x
 _atom_site_fract_y
 _atom_site_fract_z
 _atom_site_occupancy
  Sr  Sr0  1  0.35002951  0.25000000  0.90848478  1
  Sr  Sr1  1  0.85002951  0.25000000  0.59151522  1
  Sr  Sr2  1  0.64997049  0.75000000  0.09151522  1
  Sr  Sr3  1  0.14997049  0.75000000  0.40848478  1
  Sr  Sr4  1  0.50887116  0.25000000  0.33126395  1
  Sr  Sr5  1  0.00887116  0.25000000  0.16873605  1
  Sr  Sr6  1  0.49112884  0.75000000  0.66873605  1
  Sr  Sr7  1  0.99112884  0.75000000  0.83126395  1
  H  H8  1  0.67530156  0.25000000  0.08884759  1
  H  H9  1  0.17530156  0.25000000  0.41115241  1
  H  H10  1  0.32469844  0.75000000  0.91115241  1
  H  H11  1  0.82469844  0.75000000  0.58884759  1
  H  H12  1  0.99215626  0.25000000  0.89947460  1
  H  H13  1  0.49215626  0.25000000  0.60052540  1
  H  H14  1  0.00784374  0.75000000  0.10052540  1
  H  H15  1  0.50784374  0.75000000  0.39947460  1
  H  H16  1  0.67630524  0.98454018  0.83988711  1
  H  H17  1  0.17630524  0.51545982  0.66011289  1
  H  H18  1  0.32369476  0.48454018  0.16011289  1
  H  H19  1  0.82369476  0.01545982  0.33988711  1
  H  H20  1  0.32369476  0.01545982  0.16011289  1
  H  H21  1  0.82369476  0.48454018  0.33988711  1
  H  H22  1  0.67630524  0.51545982  0.83988711  1
  H  H23  1  0.17630524  0.98454018  0.66011289  1
  Pd  Pd24  1  0.76055130  0.25000000  0.91585519  1
  Pd  Pd25  1  0.26055130  0.25000000  0.58414481  1
  Pd  Pd26  1  0.23944870  0.75000000  0.08414481  1
  Pd  Pd27  1  0.73944870  0.75000000  0.41585519  1
