# generated using pymatgen
data_Th(BOs)4
_symmetry_space_group_name_H-M   'P 1'
_cell_length_a   7.63376713
_cell_length_b   7.63376713
_cell_length_c   4.01398152
_cell_angle_alpha   90.00000000
_cell_angle_beta   90.00000000
_cell_angle_gamma   90.00000000
_symmetry_Int_Tables_number   1
_chemical_formula_structural   Th(BOs)4
_chemical_formula_sum   'Th2 B8 Os8'
_cell_volume   233.91236708
_cell_formula_units_Z   2
loop_
 _symmetry_equiv_pos_site_id
 _symmetry_equiv_pos_as_xyz
  1  'x, y, z'
loop_
 _atom_site_type_symbol
 _atom_site_label
 _atom_site_symmetry_multiplicity
 _atom_site_fract_x
 _atom_site_fract_y
 _atom_site_fract_z
 _atom_site_occupancy
  Th  Th0  1  0.25000000  0.25000000  0.25000000  1
  Th  Th1  1  0.75000000  0.75000000  0.75000000  1
  B  B2  1  0.91299297  0.03021970  0.36075748  1
  B  B3  1  0.58700703  0.46978030  0.36075748  1
  B  B4  1  0.53021970  0.08700703  0.86075748  1
  B  B5  1  0.96978030  0.41299297  0.86075748  1
  B  B6  1  0.08700703  0.96978030  0.63924252  1
  B  B7  1  0.41299297  0.53021970  0.63924252  1
  B  B8  1  0.46978030  0.91299297  0.13924252  1
  B  B9  1  0.03021970  0.58700703  0.13924252  1
  Os  Os10  1  0.39550899  0.64282181  0.13968405  1
  Os  Os11  1  0.10449101  0.85717819  0.13968405  1
  Os  Os12  1  0.14282181  0.60449101  0.63968405  1
  Os  Os13  1  0.35717819  0.89550899  0.63968405  1
  Os  Os14  1  0.60449101  0.35717819  0.86031595  1
  Os  Os15  1  0.89550899  0.14282181  0.86031595  1
  Os  Os16  1  0.85717819  0.39550899  0.36031595  1
  Os  Os17  1  0.64282181  0.10449101  0.36031595  1
