# generated using pymatgen
data_Fe(NiAs)2
_symmetry_space_group_name_H-M   'P 1'
_cell_length_a   6.03696033
_cell_length_b   6.95940032
_cell_length_c   6.95940032
_cell_angle_alpha   59.83408223
_cell_angle_beta   64.29568334
_cell_angle_gamma   64.29568334
_symmetry_Int_Tables_number   1
_chemical_formula_structural   Fe(NiAs)2
_chemical_formula_sum   'Fe3 Ni6 As6'
_cell_volume   218.86523581
_cell_formula_units_Z   3
loop_
 _symmetry_equiv_pos_site_id
 _symmetry_equiv_pos_as_xyz
  1  'x, y, z'
loop_
 _atom_site_type_symbol
 _atom_site_label
 _atom_site_symmetry_multiplicity
 _atom_site_fract_x
 _atom_site_fract_y
 _atom_site_fract_z
 _atom_site_occupancy
  Fe  Fe0  1  0.60336088  0.25000000  0.75000000  1
  Fe  Fe1  1  0.99123705  0.95740361  0.45740361  1
  Fe  Fe2  1  0.40604426  0.54259639  0.04259639  1
  Ni  Ni3  1  0.25459412  0.00249237  0.99750763  1
  Ni  Ni4  1  0.25459412  0.49750763  0.50249237  1
  Ni  Ni5  1  0.99925540  0.37248177  0.37303855  1
  Ni  Ni6  1  0.99925540  0.87303855  0.87248177  1
  Ni  Ni7  1  0.74477572  0.62696145  0.62751823  1
  Ni  Ni8  1  0.74477572  0.12751823  0.12696145  1
  As  As9  1  0.99955222  0.75000000  0.25000000  1
  As  As10  1  0.00457266  0.25000000  0.75000000  1
  As  As11  1  0.66571349  0.33366454  0.33379970  1
  As  As12  1  0.66571349  0.83379970  0.83366454  1
  As  As13  1  0.33317774  0.66620030  0.66633546  1
  As  As14  1  0.33317774  0.16633546  0.16620030  1
