# generated using pymatgen
data_YH3
_symmetry_space_group_name_H-M   'P 1'
_cell_length_a   6.34806338
_cell_length_b   6.34806341
_cell_length_c   6.60863595
_cell_angle_alpha   90.00000000
_cell_angle_beta   90.00000000
_cell_angle_gamma   119.99901853
_symmetry_Int_Tables_number   1
_chemical_formula_structural   YH3
_chemical_formula_sum   'Y6 H18'
_cell_volume   230.63715160
_cell_formula_units_Z   6
loop_
 _symmetry_equiv_pos_site_id
 _symmetry_equiv_pos_as_xyz
  1  'x, y, z'
loop_
 _atom_site_type_symbol
 _atom_site_label
 _atom_site_symmetry_multiplicity
 _atom_site_fract_x
 _atom_site_fract_y
 _atom_site_fract_z
 _atom_site_occupancy
  Y  Y0  1  0.67000361  0.67000361  0.74981598  1
  Y  Y1  1  0.32998160  0.99998617  0.74981331  1
  Y  Y2  1  0.99998617  0.32998160  0.74981331  1
  Y  Y3  1  0.32999639  0.32999639  0.24981598  1
  Y  Y4  1  0.67001840  0.00001383  0.24981331  1
  Y  Y5  1  0.00001383  0.67001840  0.24981331  1
  H  H6  1  0.30500620  0.30500620  0.59116549  1
  H  H7  1  0.69498693  0.99999803  0.59116376  1
  H  H8  1  0.99999803  0.69498693  0.59116376  1
  H  H9  1  0.69499380  0.69499380  0.09116549  1
  H  H10  1  0.30501307  0.00000197  0.09116376  1
  H  H11  1  0.00000197  0.30501307  0.09116376  1
  H  H12  1  0.35797496  0.35797496  0.90821839  1
  H  H13  1  0.64202200  0.99999920  0.90821789  1
  H  H14  1  0.99999920  0.64202200  0.90821789  1
  H  H15  1  0.64202504  0.64202504  0.40821839  1
  H  H16  1  0.35797800  0.00000080  0.40821789  1
  H  H17  1  0.00000080  0.35797800  0.40821789  1
  H  H18  1  0.99999740  0.99999740  0.81835390  1
  H  H19  1  0.00000260  0.00000260  0.31835390  1
  H  H20  1  0.33331700  0.66663640  0.70602815  1
  H  H21  1  0.66663640  0.33331700  0.70602815  1
  H  H22  1  0.66668300  0.33336360  0.20602815  1
  H  H23  1  0.33336360  0.66668300  0.20602815  1
