# generated using pymatgen
data_Li2Ti3FeO8
_symmetry_space_group_name_H-M   'P 1'
_cell_length_a   8.50906748
_cell_length_b   8.52069652
_cell_length_c   8.45963549
_cell_angle_alpha   89.99303266
_cell_angle_beta   90.02532849
_cell_angle_gamma   90.01133863
_symmetry_Int_Tables_number   1
_chemical_formula_structural   Li2Ti3FeO8
_chemical_formula_sum   'Li8 Ti12 Fe4 O32'
_cell_volume   613.35041224
_cell_formula_units_Z   4
loop_
 _symmetry_equiv_pos_site_id
 _symmetry_equiv_pos_as_xyz
  1  'x, y, z'
loop_
 _atom_site_type_symbol
 _atom_site_label
 _atom_site_symmetry_multiplicity
 _atom_site_fract_x
 _atom_site_fract_y
 _atom_site_fract_z
 _atom_site_occupancy
  Li  Li0  1  0.12500303  0.87421734  0.37319890  1
  Li  Li1  1  0.24635587  0.74731643  0.75332517  1
  Li  Li2  1  0.25230919  0.25271976  0.25257578  1
  Li  Li3  1  0.37305907  0.12516977  0.87462023  1
  Li  Li4  1  0.62588358  0.62532693  0.62546319  1
  Li  Li5  1  0.74748034  0.75332084  0.24692058  1
  Li  Li6  1  0.75369335  0.24677155  0.74710085  1
  Li  Li7  1  0.87503287  0.37320742  0.12592032  1
  Ti  Ti8  1  0.11686616  0.62211871  0.12884176  1
  Ti  Ti9  1  0.12180240  0.37065980  0.88347982  1
  Ti  Ti10  1  0.12945430  0.11646452  0.62183086  1
  Ti  Ti11  1  0.37050082  0.88380058  0.12226978  1
  Ti  Ti12  1  0.37860038  0.62898292  0.38298622  1
  Ti  Ti13  1  0.38373250  0.37820824  0.62897139  1
  Ti  Ti14  1  0.61655646  0.87783916  0.87106562  1
  Ti  Ti15  1  0.62149968  0.12883243  0.11668012  1
  Ti  Ti16  1  0.62929272  0.38376391  0.37733815  1
  Ti  Ti17  1  0.87050462  0.61634276  0.87816010  1
  Ti  Ti18  1  0.87834077  0.87095376  0.61670321  1
  Ti  Ti19  1  0.88323241  0.12212554  0.37079905  1
  Fe  Fe20  1  0.00197429  0.49885725  0.50208998  1
  Fe  Fe21  1  0.49759025  0.50177924  0.00108307  1
  Fe  Fe22  1  0.50209766  0.00228437  0.49897871  1
  Fe  Fe23  1  0.99769879  0.99839895  0.99841868  1
  O  O24  1  0.10379366  0.12713587  0.39093776  1
  O  O25  1  0.10797226  0.89624605  0.62768534  1
  O  O26  1  0.11051208  0.61075093  0.88891723  1
  O  O27  1  0.12650895  0.39191217  0.10483881  1
  O  O28  1  0.12272286  0.14643671  0.85938925  1
  O  O29  1  0.13956240  0.36135505  0.63816046  1
  O  O30  1  0.14339565  0.62139650  0.35499060  1
  O  O31  1  0.14575961  0.85746326  0.12071429  1
  O  O32  1  0.35393321  0.14270893  0.62107156  1
  O  O33  1  0.35789060  0.37637447  0.85538699  1
  O  O34  1  0.36154019  0.63993691  0.13751752  1
  O  O35  1  0.37900497  0.85347334  0.35871737  1
  O  O36  1  0.37283638  0.60794091  0.60482162  1
  O  O37  1  0.38926117  0.38943692  0.38840842  1
  O  O38  1  0.39129326  0.10411554  0.12677925  1
  O  O39  1  0.39610659  0.87311327  0.89119426  1
  O  O40  1  0.60380918  0.37284109  0.60896264  1
  O  O41  1  0.60879243  0.60390811  0.37308554  1
  O  O42  1  0.61070606  0.88972965  0.11160799  1
  O  O43  1  0.62755938  0.10783495  0.89520732  1
  O  O44  1  0.62150198  0.35315356  0.14097262  1
  O  O45  1  0.63894825  0.13941092  0.36211437  1
  O  O46  1  0.64212534  0.87697650  0.64502362  1
  O  O47  1  0.64580682  0.64288686  0.87913595  1
  O  O48  1  0.85368717  0.35804117  0.37903104  1
  O  O49  1  0.85757469  0.12288082  0.14462152  1
  O  O50  1  0.86104261  0.86048962  0.86234394  1
  O  O51  1  0.87659554  0.64601732  0.64110992  1
  O  O52  1  0.87323843  0.89219557  0.39522711  1
  O  O53  1  0.88977003  0.11061055  0.61136502  1
  O  O54  1  0.89188035  0.39614401  0.87282463  1
  O  O55  1  0.89630942  0.62770223  0.10909250  1
