# generated using pymatgen
data_Co2Ag3SbO6
_symmetry_space_group_name_H-M   'P 1'
_cell_length_a   5.44618002
_cell_length_b   5.44578271
_cell_length_c   18.97349357
_cell_angle_alpha   90.02860683
_cell_angle_beta   90.03537377
_cell_angle_gamma   120.05344295
_symmetry_Int_Tables_number   1
_chemical_formula_structural   Co2Ag3SbO6
_chemical_formula_sum   'Co6 Ag9 Sb3 O18'
_cell_volume   487.07499395
_cell_formula_units_Z   3
loop_
 _symmetry_equiv_pos_site_id
 _symmetry_equiv_pos_as_xyz
  1  'x, y, z'
loop_
 _atom_site_type_symbol
 _atom_site_label
 _atom_site_symmetry_multiplicity
 _atom_site_fract_x
 _atom_site_fract_y
 _atom_site_fract_z
 _atom_site_occupancy
  Co  Co0  1  0.44098219  0.55909124  0.33332926  1
  Co  Co1  1  0.44115255  0.88237386  0.66668045  1
  Co  Co2  1  0.11769087  0.55875145  0.00002667  1
  Co  Co3  1  0.10785652  0.89225630  0.33332258  1
  Co  Co4  1  0.10892826  0.21782932  0.66667212  1
  Co  Co5  1  0.78139534  0.89072636  0.00002157  1
  Ag  Ag6  1  0.77904490  0.88945793  0.49993313  1
  Ag  Ag7  1  0.11047422  0.88960804  0.83335703  1
  Ag  Ag8  1  0.11057265  0.22089483  0.16673783  1
  Ag  Ag9  1  0.45021461  0.22512673  0.50001130  1
  Ag  Ag10  1  0.77480935  0.22514941  0.83330562  1
  Ag  Ag11  1  0.77485919  0.54965204  0.16670970  1
  Ag  Ag12  1  0.09651676  0.54828455  0.49991655  1
  Ag  Ag13  1  0.45167571  0.54828033  0.83331610  1
  Ag  Ag14  1  0.45169468  0.90346772  0.16678419  1
  Sb  Sb15  1  0.77336337  0.22669028  0.33325720  1
  Sb  Sb16  1  0.77288508  0.54549116  0.66667979  1
  Sb  Sb17  1  0.45354689  0.22684623  0.00008830  1
  O  O18  1  0.09395760  0.22586031  0.27882709  1
  O  O19  1  0.77491129  0.86838444  0.61219262  1
  O  O20  1  0.13148799  0.90692852  0.94547691  1
  O  O21  1  0.09358550  0.86844124  0.72114720  1
  O  O22  1  0.77389614  0.90611640  0.38794821  1
  O  O23  1  0.13165325  0.22472681  0.05450551  1
  O  O24  1  0.77047154  0.54317713  0.27803685  1
  O  O25  1  0.45759716  0.22744129  0.61117199  1
  O  O26  1  0.77280862  0.23078736  0.94434197  1
  O  O27  1  0.76984482  0.22761028  0.72213637  1
  O  O28  1  0.45649524  0.22948793  0.38875333  1
  O  O29  1  0.77266348  0.54191271  0.05564119  1
  O  O30  1  0.45157894  0.90701909  0.27875383  1
  O  O31  1  0.09264860  0.54290626  0.61207677  1
  O  O32  1  0.45772835  0.54999242  0.94532777  1
  O  O33  1  0.45018824  0.54288446  0.72124693  1
  O  O34  1  0.09300024  0.54856165  0.38796600  1
  O  O35  1  0.45781989  0.90778393  0.05460006  1
