# generated using pymatgen
data_Eu(GaS2)2
_symmetry_space_group_name_H-M   'P 1'
_cell_length_a   11.98833492
_cell_length_b   11.98833429
_cell_length_c   12.10626089
_cell_angle_alpha   105.19847928
_cell_angle_beta   105.19847522
_cell_angle_gamma   118.06775004
_symmetry_Int_Tables_number   1
_chemical_formula_structural   Eu(GaS2)2
_chemical_formula_sum   'Eu8 Ga16 S32'
_cell_volume   1321.05089378
_cell_formula_units_Z   8
loop_
 _symmetry_equiv_pos_site_id
 _symmetry_equiv_pos_as_xyz
  1  'x, y, z'
loop_
 _atom_site_type_symbol
 _atom_site_label
 _atom_site_symmetry_multiplicity
 _atom_site_fract_x
 _atom_site_fract_y
 _atom_site_fract_z
 _atom_site_occupancy
  Eu  Eu0  1  0.62259948  0.87259948  0.74519896  1
  Eu  Eu1  1  0.37500000  0.62500000  0.25000000  1
  Eu  Eu2  1  0.62500000  0.37500000  0.75000000  1
  Eu  Eu3  1  0.87500000  0.12500000  0.25000000  1
  Eu  Eu4  1  0.37740052  0.12740052  0.25480104  1
  Eu  Eu5  1  0.87259948  0.62259948  0.24519896  1
  Eu  Eu6  1  0.12740052  0.37740052  0.75480104  1
  Eu  Eu7  1  0.12500000  0.87500000  0.75000000  1
  Ga  Ga8  1  0.86357540  0.88874844  0.49899361  1
  Ga  Ga9  1  0.13541821  0.61024516  0.49899361  1
  Ga  Ga10  1  0.13642460  0.11125156  0.50100639  1
  Ga  Ga11  1  0.35990967  0.46703066  0.50062249  1
  Ga  Ga12  1  0.53296934  0.64009033  0.99937751  1
  Ga  Ga13  1  0.35928717  0.96640817  0.49937751  1
  Ga  Ga14  1  0.11125156  0.13642460  0.00100639  1
  Ga  Ga15  1  0.88874844  0.86357540  0.99899361  1
  Ga  Ga16  1  0.38975484  0.86458179  0.00100639  1
  Ga  Ga17  1  0.64071283  0.03359183  0.50062249  1
  Ga  Ga18  1  0.96640817  0.35928717  0.99937751  1
  Ga  Ga19  1  0.46703066  0.35990967  0.00062249  1
  Ga  Ga20  1  0.86458179  0.38975484  0.50100639  1
  Ga  Ga21  1  0.03359183  0.64071283  0.00062249  1
  Ga  Ga22  1  0.64009033  0.53296934  0.49937751  1
  Ga  Ga23  1  0.61024516  0.13541821  0.99899361  1
  S  S24  1  0.84643051  0.18846663  0.50234622  1
  S  S25  1  0.84408430  0.68612042  0.49765378  1
  S  S26  1  0.81153337  0.15356949  0.99765378  1
  S  S27  1  0.41761137  0.91744332  0.33294498  1
  S  S28  1  0.68612042  0.84408430  0.99765378  1
  S  S29  1  0.35035800  0.66003083  0.00227885  1
  S  S30  1  0.91746910  0.91806349  0.83322194  1
  S  S31  1  0.15356949  0.81153337  0.49765378  1
  S  S32  1  0.58424716  0.08484155  0.16677806  1
  S  S33  1  0.31387958  0.15591570  0.00234622  1
  S  S34  1  0.91515845  0.41575284  0.33322194  1
  S  S35  1  0.41533260  0.41550165  0.33294498  1
  S  S36  1  0.18846663  0.84643051  0.00234622  1
  S  S37  1  0.65775298  0.84807915  0.49772115  1
  S  S38  1  0.41550165  0.41533260  0.83294498  1
  S  S39  1  0.58238863  0.08255668  0.66705502  1
  S  S40  1  0.66003083  0.35035800  0.50227885  1
  S  S41  1  0.08255668  0.58238863  0.16705502  1
  S  S42  1  0.08193651  0.08253090  0.66677806  1
  S  S43  1  0.64964200  0.33996917  0.99772115  1
  S  S44  1  0.33996917  0.64964200  0.49772115  1
  S  S45  1  0.84807915  0.65775298  0.99772115  1
  S  S46  1  0.15591570  0.31387958  0.50234622  1
  S  S47  1  0.34224702  0.15192085  0.50227885  1
  S  S48  1  0.08253090  0.08193651  0.16677806  1
  S  S49  1  0.58466740  0.58449835  0.66705502  1
  S  S50  1  0.58449835  0.58466740  0.16705502  1
  S  S51  1  0.41575284  0.91515845  0.83322194  1
  S  S52  1  0.08484155  0.58424716  0.66677806  1
  S  S53  1  0.91744332  0.41761137  0.83294498  1
  S  S54  1  0.15192085  0.34224702  0.00227885  1
  S  S55  1  0.91806349  0.91746910  0.33322194  1
