# generated using pymatgen
data_DyAgSe2
_symmetry_space_group_name_H-M   'P 1'
_cell_length_a   6.84880972
_cell_length_b   13.85537457
_cell_length_c   4.28335296
_cell_angle_alpha   90.00000000
_cell_angle_beta   90.00000000
_cell_angle_gamma   90.00000000
_symmetry_Int_Tables_number   1
_chemical_formula_structural   DyAgSe2
_chemical_formula_sum   'Dy4 Ag4 Se8'
_cell_volume   406.45945869
_cell_formula_units_Z   4
loop_
 _symmetry_equiv_pos_site_id
 _symmetry_equiv_pos_as_xyz
  1  'x, y, z'
loop_
 _atom_site_type_symbol
 _atom_site_label
 _atom_site_symmetry_multiplicity
 _atom_site_fract_x
 _atom_site_fract_y
 _atom_site_fract_z
 _atom_site_occupancy
  Dy  Dy0  1  0.70876201  0.62831752  0.27169675  1
  Dy  Dy1  1  0.79123799  0.37168248  0.77169675  1
  Dy  Dy2  1  0.20876201  0.87168248  0.72830325  1
  Dy  Dy3  1  0.29123799  0.12831752  0.22830325  1
  Ag  Ag4  1  0.70449541  0.87591649  0.49804330  1
  Ag  Ag5  1  0.79550459  0.12408351  0.99804330  1
  Ag  Ag6  1  0.20449541  0.62408351  0.50195670  1
  Ag  Ag7  1  0.29550459  0.37591649  0.00195670  1
  Se  Se8  1  0.91081332  0.72681283  0.76979902  1
  Se  Se9  1  0.58918668  0.27318717  0.26979902  1
  Se  Se10  1  0.41081332  0.77318717  0.23020098  1
  Se  Se11  1  0.08918668  0.22681283  0.73020098  1
  Se  Se12  1  0.51235384  0.52710739  0.76511488  1
  Se  Se13  1  0.98764616  0.47289261  0.26511488  1
  Se  Se14  1  0.01235384  0.97289261  0.23488512  1
  Se  Se15  1  0.48764616  0.02710739  0.73488512  1
