# generated using pymatgen
data_CaH16C4N8(ClO2)2
_symmetry_space_group_name_H-M   'P 1'
_cell_length_a   7.82075338
_cell_length_b   12.88062041
_cell_length_c   8.44204083
_cell_angle_alpha   90.00000000
_cell_angle_beta   112.21321140
_cell_angle_gamma   90.00000000
_symmetry_Int_Tables_number   1
_chemical_formula_structural   CaH16C4N8(ClO2)2
_chemical_formula_sum   'Ca2 H32 C8 N16 Cl4 O8'
_cell_volume   787.30358319
_cell_formula_units_Z   2
loop_
 _symmetry_equiv_pos_site_id
 _symmetry_equiv_pos_as_xyz
  1  'x, y, z'
loop_
 _atom_site_type_symbol
 _atom_site_label
 _atom_site_symmetry_multiplicity
 _atom_site_fract_x
 _atom_site_fract_y
 _atom_site_fract_z
 _atom_site_occupancy
  Ca  Ca0  1  -0.00000000  0.50000000  0.00000000  1
  Ca  Ca1  1  0.50000000  -0.00000000  0.00000000  1
  H  H2  1  0.43022096  0.48378056  0.72317268  1
  H  H3  1  0.06977904  0.98378056  0.27682732  1
  H  H4  1  0.56977904  0.51621944  0.27682732  1
  H  H5  1  0.93022096  0.01621944  0.72317268  1
  H  H6  1  0.45161946  0.25551787  0.95888937  1
  H  H7  1  0.04838054  0.75551787  0.04111063  1
  H  H8  1  0.54838054  0.74448213  0.04111063  1
  H  H9  1  0.95161946  0.24448213  0.95888937  1
  H  H10  1  0.55432231  0.32859527  0.84209578  1
  H  H11  1  0.94567769  0.82859527  0.15790422  1
  H  H12  1  0.44567769  0.67140473  0.15790422  1
  H  H13  1  0.05432231  0.17140473  0.84209578  1
  H  H14  1  0.16332283  0.42326173  0.42957497  1
  H  H15  1  0.33667717  0.92326173  0.57042503  1
  H  H16  1  0.83667717  0.57673827  0.57042503  1
  H  H17  1  0.66332283  0.07673827  0.42957497  1
  H  H18  1  0.15777524  0.31224949  0.54637277  1
  H  H19  1  0.34222476  0.81224949  0.45362723  1
  H  H20  1  0.84222476  0.68775051  0.45362723  1
  H  H21  1  0.65777524  0.18775051  0.54637277  1
  H  H22  1  0.85617504  0.17502075  0.17902569  1
  H  H23  1  0.64382496  0.67502075  0.82097431  1
  H  H24  1  0.14382496  0.82497925  0.82097431  1
  H  H25  1  0.35617504  0.32497925  0.17902569  1
  H  H26  1  0.99436882  0.16403416  0.39752951  1
  H  H27  1  0.50563118  0.66403416  0.60247049  1
  H  H28  1  0.00563118  0.83596584  0.60247049  1
  H  H29  1  0.49436882  0.33596584  0.39752951  1
  H  H30  1  0.25010745  0.53910556  0.77230597  1
  H  H31  1  0.24989255  0.03910556  0.22769403  1
  H  H32  1  0.74989255  0.46089444  0.22769403  1
  H  H33  1  0.75010745  0.96089444  0.77230597  1
  C  C34  1  0.32993755  0.39598613  0.87337510  1
  C  C35  1  0.17006245  0.89598613  0.12662490  1
  C  C36  1  0.67006245  0.60401387  0.12662490  1
  C  C37  1  0.82993755  0.10401387  0.87337510  1
  C  C38  1  -0.00007787  0.30695507  0.28651645  1
  C  C39  1  0.50007787  0.80695507  0.71348355  1
  C  C40  1  0.00007787  0.69304493  0.71348355  1
  C  C41  1  0.49992213  0.19304493  0.28651645  1
  N  N42  1  0.32745662  0.47653784  0.76927723  1
  N  N43  1  0.17254338  0.97653784  0.23072277  1
  N  N44  1  0.67254338  0.52346216  0.23072277  1
  N  N45  1  0.82745662  0.02346216  0.76927723  1
  N  N46  1  0.45149422  0.31905931  0.88708376  1
  N  N47  1  0.04850578  0.81905931  0.11291624  1
  N  N48  1  0.54850578  0.68094069  0.11291624  1
  N  N49  1  0.95149422  0.18094069  0.88708376  1
  N  N50  1  0.10887005  0.35200155  0.43493363  1
  N  N51  1  0.39112995  0.85200155  0.56506637  1
  N  N52  1  0.89112995  0.64799845  0.56506637  1
  N  N53  1  0.60887005  0.14799845  0.43493363  1
  N  N54  1  0.94994044  0.20701349  0.28865176  1
  N  N55  1  0.55005956  0.70701349  0.71134824  1
  N  N56  1  0.05005956  0.79298651  0.71134824  1
  N  N57  1  0.44994044  0.29298651  0.28865176  1
  Cl  Cl58  1  0.71418156  0.43245226  0.69317522  1
  Cl  Cl59  1  0.78581844  0.93245226  0.30682478  1
  Cl  Cl60  1  0.28581844  0.56754774  0.30682478  1
  Cl  Cl61  1  0.21418156  0.06754774  0.69317522  1
  O  O62  1  0.21820929  0.39163632  0.95055514  1
  O  O63  1  0.28179071  0.89163632  0.04944486  1
  O  O64  1  0.78179071  0.60836368  0.04944486  1
  O  O65  1  0.71820929  0.10836368  0.95055514  1
  O  O66  1  0.94307814  0.35872988  0.14736021  1
  O  O67  1  0.55692186  0.85872988  0.85263979  1
  O  O68  1  0.05692186  0.64127012  0.85263979  1
  O  O69  1  0.44307814  0.14127012  0.14736021  1
