# generated using pymatgen
data_CaH8(BrO6)2
_symmetry_space_group_name_H-M   'P 1'
_cell_length_a   5.74695757
_cell_length_b   8.24926392
_cell_length_c   12.25328183
_cell_angle_alpha   79.18936043
_cell_angle_beta   90.72498915
_cell_angle_gamma   89.16586044
_symmetry_Int_Tables_number   1
_chemical_formula_structural   CaH8(BrO6)2
_chemical_formula_sum   'Ca2 H16 Br4 O24'
_cell_volume   570.46554669
_cell_formula_units_Z   2
loop_
 _symmetry_equiv_pos_site_id
 _symmetry_equiv_pos_as_xyz
  1  'x, y, z'
loop_
 _atom_site_type_symbol
 _atom_site_label
 _atom_site_symmetry_multiplicity
 _atom_site_fract_x
 _atom_site_fract_y
 _atom_site_fract_z
 _atom_site_occupancy
  Ca  Ca0  1  0.98110338  0.76777482  0.25459306  1
  Ca  Ca1  1  0.01889662  0.23222518  0.74540694  1
  H  H2  1  0.28880228  0.68222112  0.06785545  1
  H  H3  1  0.71119772  0.31777888  0.93214455  1
  H  H4  1  0.19236720  0.51431313  0.12894651  1
  H  H5  1  0.80763280  0.48568687  0.87105349  1
  H  H6  1  0.38991460  0.93481634  0.34199003  1
  H  H7  1  0.61008540  0.06518366  0.65800997  1
  H  H8  1  0.29403495  0.81066213  0.44457748  1
  H  H9  1  0.70596505  0.18933787  0.55542252  1
  H  H10  1  0.80880960  0.08497725  0.30859904  1
  H  H11  1  0.19119040  0.91502275  0.69140096  1
  H  H12  1  0.68731437  0.07975747  0.19420235  1
  H  H13  1  0.31268563  0.92024253  0.80579765  1
  H  H14  1  0.71020900  0.45839442  0.29602952  1
  H  H15  1  0.28979100  0.54160558  0.70397048  1
  H  H16  1  0.54333878  0.57923821  0.21313984  1
  H  H17  1  0.45666122  0.42076179  0.78686016  1
  Br  Br18  1  0.73853704  0.83165485  0.94320740  1
  Br  Br19  1  0.26146296  0.16834515  0.05679260  1
  Br  Br20  1  0.84703597  0.67877912  0.58362898  1
  Br  Br21  1  0.15296403  0.32122088  0.41637102  1
  O  O22  1  0.24700787  0.62151409  0.14201573  1
  O  O23  1  0.75299213  0.37848591  0.85798427  1
  O  O24  1  0.25657734  0.86782659  0.36896079  1
  O  O25  1  0.74342266  0.13217341  0.63103921  1
  O  O26  1  0.74305493  0.00916131  0.26355027  1
  O  O27  1  0.25694507  0.99083869  0.73644973  1
  O  O28  1  0.70234211  0.56533026  0.24500316  1
  O  O29  1  0.29765789  0.43466974  0.75499684  1
  O  O30  1  0.77715039  0.86616642  0.07048306  1
  O  O31  1  0.22284961  0.13383358  0.92951694  1
  O  O32  1  0.93015312  0.69371714  0.91755819  1
  O  O33  1  0.06984688  0.30628286  0.08244181  1
  O  O34  1  0.47057772  0.76517274  0.93062988  1
  O  O35  1  0.52942228  0.23482726  0.06937012  1
  O  O36  1  0.75929856  0.00794146  0.85561411  1
  O  O37  1  0.24070144  0.99205854  0.14438589  1
  O  O38  1  0.11499561  0.73952754  0.60903138  1
  O  O39  1  0.88500439  0.26047246  0.39096862  1
  O  O40  1  0.84746170  0.47490330  0.60961737  1
  O  O41  1  0.15253830  0.52509670  0.39038263  1
  O  O42  1  0.77514599  0.74694312  0.45226010  1
  O  O43  1  0.22485401  0.25305688  0.54773990  1
  O  O44  1  0.65675445  0.74727911  0.66310978  1
  O  O45  1  0.34324555  0.25272089  0.33689022  1
