# generated using pymatgen
data_Fe3Co3Ge2
_symmetry_space_group_name_H-M   'P 1'
_cell_length_a   4.04494592
_cell_length_b   4.04494591
_cell_length_c   7.00850705
_cell_angle_alpha   73.22739026
_cell_angle_beta   90.00000000
_cell_angle_gamma   120.00000006
_symmetry_Int_Tables_number   1
_chemical_formula_structural   Fe3Co3Ge2
_chemical_formula_sum   'Fe3 Co3 Ge2'
_cell_volume   93.63200341
_cell_formula_units_Z   1
loop_
 _symmetry_equiv_pos_site_id
 _symmetry_equiv_pos_as_xyz
  1  'x, y, z'
loop_
 _atom_site_type_symbol
 _atom_site_label
 _atom_site_symmetry_multiplicity
 _atom_site_fract_x
 _atom_site_fract_y
 _atom_site_fract_z
 _atom_site_occupancy
  Fe  Fe0  1  0.12193765  0.24387530  0.63418705  1
  Fe  Fe1  1  0.87728712  0.75457424  0.36813864  1
  Fe  Fe2  1  0.37287910  0.74575821  0.88136269  1
  Co  Co3  1  0.24362136  0.48724271  0.26913593  1
  Co  Co4  1  0.75526578  0.51053156  0.73420266  1
  Co  Co5  1  0.62803684  0.25607367  0.11588949  1
  Ge  Ge6  1  0.99897172  0.99794344  0.00308484  1
  Ge  Ge7  1  0.50200043  0.00400086  0.49399871  1
