# generated using pymatgen
data_Cs3Pb4Au
_symmetry_space_group_name_H-M   'P 1'
_cell_length_a   7.54190155
_cell_length_b   14.09631963
_cell_length_c   7.08261276
_cell_angle_alpha   90.00000000
_cell_angle_beta   90.00000000
_cell_angle_gamma   90.00000000
_symmetry_Int_Tables_number   1
_chemical_formula_structural   Cs3Pb4Au
_chemical_formula_sum   'Cs6 Pb8 Au2'
_cell_volume   752.97419895
_cell_formula_units_Z   2
loop_
 _symmetry_equiv_pos_site_id
 _symmetry_equiv_pos_as_xyz
  1  'x, y, z'
loop_
 _atom_site_type_symbol
 _atom_site_label
 _atom_site_symmetry_multiplicity
 _atom_site_fract_x
 _atom_site_fract_y
 _atom_site_fract_z
 _atom_site_occupancy
  Cs  Cs0  1  0.24999900  0.00382883  0.16603378  1
  Cs  Cs1  1  0.24999900  0.49617117  0.16603378  1
  Cs  Cs2  1  0.74999900  0.75000000  0.43549228  1
  Cs  Cs3  1  0.24999900  0.25000000  0.56450772  1
  Cs  Cs4  1  0.74999900  0.50382883  0.83396622  1
  Cs  Cs5  1  0.74999900  0.99617117  0.83396622  1
  Pb  Pb6  1  0.53111388  0.25000000  0.05125768  1
  Pb  Pb7  1  0.96888512  0.25000000  0.05125768  1
  Pb  Pb8  1  0.74999900  0.13380961  0.34520727  1
  Pb  Pb9  1  0.74999900  0.36619039  0.34520727  1
  Pb  Pb10  1  0.24999900  0.63380961  0.65479173  1
  Pb  Pb11  1  0.24999900  0.86619139  0.65479173  1
  Pb  Pb12  1  0.03111288  0.75000000  0.94874232  1
  Pb  Pb13  1  0.46888412  0.75000000  0.94874232  1
  Au  Au14  1  0.24999900  0.75000000  0.30155844  1
  Au  Au15  1  0.74999900  0.25000000  0.69844356  1
