# generated using pymatgen
data_Ce2Si5Ni3
_symmetry_space_group_name_H-M   'P 1'
_cell_length_a   7.95696840
_cell_length_b   7.95696840
_cell_length_c   7.95696840
_cell_angle_alpha   106.11423122
_cell_angle_beta   89.00447923
_cell_angle_gamma   137.71616604
_symmetry_Int_Tables_number   1
_chemical_formula_structural   Ce2Si5Ni3
_chemical_formula_sum   'Ce4 Si10 Ni6'
_cell_volume   311.55687113
_cell_formula_units_Z   2
loop_
 _symmetry_equiv_pos_site_id
 _symmetry_equiv_pos_as_xyz
  1  'x, y, z'
loop_
 _atom_site_type_symbol
 _atom_site_label
 _atom_site_symmetry_multiplicity
 _atom_site_fract_x
 _atom_site_fract_y
 _atom_site_fract_z
 _atom_site_occupancy
  Ce  Ce0  1  0.12992203  0.26217249  0.39209452  1
  Ce  Ce1  1  0.87007897  0.73782851  0.60790748  1
  Ce  Ce2  1  0.37007797  0.76217249  0.13225046  1
  Ce  Ce3  1  0.62992203  0.23782851  0.86775054  1
  Si  Si4  1  0.39089242  0.35220608  0.74309850  1
  Si  Si5  1  0.60910858  0.64779392  0.25690150  1
  Si  Si6  1  0.10910758  0.85220608  0.96131367  1
  Si  Si7  1  0.89089242  0.14779392  0.03868633  1
  Si  Si8  1  0.48561632  0.24999900  0.23561732  1
  Si  Si9  1  0.01438368  0.25000100  0.76438268  1
  Si  Si10  1  0.51438168  0.75000000  0.76438268  1
  Si  Si11  1  0.98561632  0.74999900  0.23561732  1
  Si  Si12  1  0.24999900  0.75000000  0.50000000  1
  Si  Si13  1  0.74999900  0.24999900  0.50000000  1
  Ni  Ni14  1  0.36662946  0.11150025  0.47812971  1
  Ni  Ni15  1  0.63337054  0.88850075  0.52187129  1
  Ni  Ni16  1  0.13337054  0.61149925  0.74486980  1
  Ni  Ni17  1  0.86662946  0.38850075  0.25513020  1
  Ni  Ni18  1  0.24999900  0.24999900  -0.00000000  1
  Ni  Ni19  1  0.74999900  0.74999900  -0.00000000  1
