# generated using pymatgen
data_La5Al2Ru3
_symmetry_space_group_name_H-M   'P 1'
_cell_length_a   8.63830688
_cell_length_b   8.63830688
_cell_length_c   8.63830688
_cell_angle_alpha   109.47122063
_cell_angle_beta   109.47122063
_cell_angle_gamma   109.47122063
_symmetry_Int_Tables_number   1
_chemical_formula_structural   La5Al2Ru3
_chemical_formula_sum   'La10 Al4 Ru6'
_cell_volume   496.20826542
_cell_formula_units_Z   2
loop_
 _symmetry_equiv_pos_site_id
 _symmetry_equiv_pos_as_xyz
  1  'x, y, z'
loop_
 _atom_site_type_symbol
 _atom_site_label
 _atom_site_symmetry_multiplicity
 _atom_site_fract_x
 _atom_site_fract_y
 _atom_site_fract_z
 _atom_site_occupancy
  La  La0  1  0.25000000  0.68990246  0.43990346  1
  La  La1  1  0.75000000  0.81009754  0.06009754  1
  La  La2  1  0.43990346  0.25000000  0.68990246  1
  La  La3  1  0.68990246  0.43990346  0.25000000  1
  La  La4  1  0.06009754  0.75000000  0.81009754  1
  La  La5  1  0.81009754  0.06009754  0.75000000  1
  La  La6  1  0.21114415  0.21114415  0.21114415  1
  La  La7  1  0.50000100  0.00000000  0.28885585  1
  La  La8  1  0.28885585  0.50000100  0.00000000  1
  La  La9  1  0.00000000  0.28885585  0.50000100  1
  Al  Al10  1  0.50000100  -0.00000000  0.91332834  1
  Al  Al11  1  0.58667166  0.58667166  0.58667166  1
  Al  Al12  1  0.91332834  0.50000100  -0.00000000  1
  Al  Al13  1  -0.00000000  0.91332834  0.50000100  1
  Ru  Ru14  1  0.25000100  0.11721035  0.86721035  1
  Ru  Ru15  1  0.75000000  0.38278865  0.63278865  1
  Ru  Ru16  1  0.86721035  0.25000100  0.11721035  1
  Ru  Ru17  1  0.11721035  0.86721035  0.25000100  1
  Ru  Ru18  1  0.63278865  0.75000000  0.38278865  1
  Ru  Ru19  1  0.38278865  0.63278865  0.75000000  1
