# generated using pymatgen
data_Dy(AlCr)6
_symmetry_space_group_name_H-M   'P 1'
_cell_length_a   5.06395854
_cell_length_b   6.69590057
_cell_length_c   6.69590057
_cell_angle_alpha   97.53760061
_cell_angle_beta   112.21844190
_cell_angle_gamma   67.78155810
_symmetry_Int_Tables_number   1
_chemical_formula_structural   Dy(AlCr)6
_chemical_formula_sum   'Dy1 Al6 Cr6'
_cell_volume   194.55988773
_cell_formula_units_Z   1
loop_
 _symmetry_equiv_pos_site_id
 _symmetry_equiv_pos_as_xyz
  1  'x, y, z'
loop_
 _atom_site_type_symbol
 _atom_site_label
 _atom_site_symmetry_multiplicity
 _atom_site_fract_x
 _atom_site_fract_y
 _atom_site_fract_z
 _atom_site_occupancy
  Dy  Dy0  1  -0.00000000  -0.00000000  -0.00000000  1
  Al  Al1  1  0.65309348  0.34690652  0.65309348  1
  Al  Al2  1  0.34690652  0.65309348  0.34690652  1
  Al  Al3  1  0.00000000  0.33344965  0.33344965  1
  Al  Al4  1  -0.00000000  0.66655035  0.66655035  1
  Al  Al5  1  0.69705998  0.80294002  0.19705998  1
  Al  Al6  1  0.30294002  0.19705998  0.80294002  1
  Cr  Cr7  1  0.50000000  -0.00000000  0.50000000  1
  Cr  Cr8  1  -0.00000000  -0.00000000  0.50000000  1
  Cr  Cr9  1  0.50000000  0.50000000  -0.00000000  1
  Cr  Cr10  1  -0.00000000  0.50000000  -0.00000000  1
  Cr  Cr11  1  0.50000000  0.76055793  0.76055793  1
  Cr  Cr12  1  0.50000000  0.23944207  0.23944207  1
