# generated using pymatgen
data_Er3Mn3Ga2Ge
_symmetry_space_group_name_H-M   'P 1'
_cell_length_a   4.11414422
_cell_length_b   6.99388305
_cell_length_c   6.99289993
_cell_angle_alpha   120.03409441
_cell_angle_beta   90.00000000
_cell_angle_gamma   90.00000000
_symmetry_Int_Tables_number   1
_chemical_formula_structural   Er3Mn3Ga2Ge
_chemical_formula_sum   'Er3 Mn3 Ga2 Ge1'
_cell_volume   174.19533296
_cell_formula_units_Z   1
loop_
 _symmetry_equiv_pos_site_id
 _symmetry_equiv_pos_as_xyz
  1  'x, y, z'
loop_
 _atom_site_type_symbol
 _atom_site_label
 _atom_site_symmetry_multiplicity
 _atom_site_fract_x
 _atom_site_fract_y
 _atom_site_fract_z
 _atom_site_occupancy
  Er  Er0  1  0.50000000  0.57819590  0.99807034  1
  Er  Er1  1  0.50000000  0.42008775  0.42183636  1
  Er  Er2  1  0.50000000  0.00176795  0.58027551  1
  Mn  Mn3  1  -0.00000000  0.22754689  0.99596504  1
  Mn  Mn4  1  0.00000000  0.76834260  0.77238066  1
  Mn  Mn5  1  0.00000000  0.00380985  0.23144666  1
  Ga  Ga6  1  -0.00000000  0.66688300  0.33353760  1
  Ga  Ga7  1  0.50000000  0.99969764  0.99967884  1
  Ge  Ge8  1  -0.00000000  0.33356842  0.66680898  1
