# generated using pymatgen
data_Pm2AlZn
_symmetry_space_group_name_H-M   'P 1'
_cell_length_a   5.21893864
_cell_length_b   5.21882978
_cell_length_c   5.21894628
_cell_angle_alpha   60.00094115
_cell_angle_beta   59.99836024
_cell_angle_gamma   59.99951555
_symmetry_Int_Tables_number   1
_chemical_formula_structural   Pm2AlZn
_chemical_formula_sum   'Pm2 Al1 Zn1'
_cell_volume   100.51231337
_cell_formula_units_Z   1
loop_
 _symmetry_equiv_pos_site_id
 _symmetry_equiv_pos_as_xyz
  1  'x, y, z'
loop_
 _atom_site_type_symbol
 _atom_site_label
 _atom_site_symmetry_multiplicity
 _atom_site_fract_x
 _atom_site_fract_y
 _atom_site_fract_z
 _atom_site_occupancy
  Pm  Pm0  1  0.00000113  0.00000172  0.99999876  1
  Pm  Pm1  1  0.49999896  0.49999834  0.50000142  1
  Al  Al2  1  0.25000075  0.25000077  0.25000084  1
  Zn  Zn3  1  0.74999916  0.74999917  0.74999899  1
