# generated using pymatgen
data_PmCd3
_symmetry_space_group_name_H-M   'P 1'
_cell_length_a   6.75839575
_cell_length_b   6.75906623
_cell_length_c   5.05256258
_cell_angle_alpha   90.00000000
_cell_angle_beta   90.00000000
_cell_angle_gamma   120.01062429
_symmetry_Int_Tables_number   1
_chemical_formula_structural   PmCd3
_chemical_formula_sum   'Pm2 Cd6'
_cell_volume   199.86012279
_cell_formula_units_Z   2
loop_
 _symmetry_equiv_pos_site_id
 _symmetry_equiv_pos_as_xyz
  1  'x, y, z'
loop_
 _atom_site_type_symbol
 _atom_site_label
 _atom_site_symmetry_multiplicity
 _atom_site_fract_x
 _atom_site_fract_y
 _atom_site_fract_z
 _atom_site_occupancy
  Pm  Pm0  1  0.66667407  0.33332830  0.25000200  1
  Pm  Pm1  1  0.33332899  0.66666956  0.75000200  1
  Cd  Cd2  1  0.83871293  0.16129000  0.75000200  1
  Cd  Cd3  1  0.32256136  0.16128049  0.75000200  1
  Cd  Cd4  1  0.83872583  0.67743886  0.75000200  1
  Cd  Cd5  1  0.16128186  0.83870905  0.25000200  1
  Cd  Cd6  1  0.67744086  0.83872004  0.25000200  1
  Cd  Cd7  1  0.16127611  0.32256371  0.25000200  1
