# generated using pymatgen
data_Dy2Fe15Co2CN
_symmetry_space_group_name_H-M   'P 1'
_cell_length_a   6.43988908
_cell_length_b   6.45430551
_cell_length_c   6.49442328
_cell_angle_alpha   83.32349388
_cell_angle_beta   83.12537591
_cell_angle_gamma   82.62437277
_symmetry_Int_Tables_number   1
_chemical_formula_structural   Dy2Fe15Co2CN
_chemical_formula_sum   'Dy2 Fe15 Co2 C1 N1'
_cell_volume   264.38333678
_cell_formula_units_Z   1
loop_
 _symmetry_equiv_pos_site_id
 _symmetry_equiv_pos_as_xyz
  1  'x, y, z'
loop_
 _atom_site_type_symbol
 _atom_site_label
 _atom_site_symmetry_multiplicity
 _atom_site_fract_x
 _atom_site_fract_y
 _atom_site_fract_z
 _atom_site_occupancy
  Dy  Dy0  1  0.66103932  0.65144373  0.65865918  1
  Dy  Dy1  1  0.33896068  0.34855627  0.34134082  1
  Fe  Fe2  1  0.34518583  0.85203025  0.34080045  1
  Fe  Fe3  1  0.85082188  0.34395367  0.34100730  1
  Fe  Fe4  1  0.34762870  0.34589263  0.85658440  1
  Fe  Fe5  1  0.65481417  0.14796975  0.65919955  1
  Fe  Fe6  1  0.14917812  0.65604633  0.65899270  1
  Fe  Fe7  1  0.65237130  0.65410737  0.14341560  1
  Fe  Fe8  1  0.00000000  0.50000000  0.00000000  1
  Fe  Fe9  1  0.50000000  -0.00000000  0.00000000  1
  Fe  Fe10  1  0.00000000  -0.00000000  0.50000000  1
  Fe  Fe11  1  0.71339995  0.00082716  0.28503680  1
  Fe  Fe12  1  0.00244564  0.28139151  0.71844783  1
  Fe  Fe13  1  0.28707729  0.71427440  0.99767023  1
  Fe  Fe14  1  0.99755436  0.71860849  0.28155217  1
  Fe  Fe15  1  0.71292271  0.28572560  0.00232977  1
  Fe  Fe16  1  0.28660005  0.99917284  0.71496320  1
  Co  Co17  1  0.90476166  0.90559544  0.90784519  1
  Co  Co18  1  0.09523834  0.09440456  0.09215481  1
  C  C19  1  0.50000000  -0.00000000  0.50000000  1
  N  N20  1  0.00000000  0.50000000  0.50000000  1
