# generated using pymatgen
data_SrHN
_symmetry_space_group_name_H-M   'P 1'
_cell_length_a   7.57366144
_cell_length_b   3.94514460
_cell_length_c   5.72302306
_cell_angle_alpha   90.00000000
_cell_angle_beta   90.00000000
_cell_angle_gamma   90.00000000
_symmetry_Int_Tables_number   1
_chemical_formula_structural   SrHN
_chemical_formula_sum   'Sr4 H4 N4'
_cell_volume   170.99929071
_cell_formula_units_Z   4
loop_
 _symmetry_equiv_pos_site_id
 _symmetry_equiv_pos_as_xyz
  1  'x, y, z'
loop_
 _atom_site_type_symbol
 _atom_site_label
 _atom_site_symmetry_multiplicity
 _atom_site_fract_x
 _atom_site_fract_y
 _atom_site_fract_z
 _atom_site_occupancy
  Sr  Sr0  1  0.35052389  0.75000100  0.18085082  1
  Sr  Sr1  1  0.85052389  0.75000100  0.31914918  1
  Sr  Sr2  1  0.14947711  0.25000100  0.68084982  1
  Sr  Sr3  1  0.64947611  0.25000100  0.81914918  1
  H  H4  1  0.02237775  0.25000100  0.10251223  1
  H  H5  1  0.52237775  0.25000100  0.39748677  1
  H  H6  1  0.47762225  0.75000100  0.60251223  1
  H  H7  1  0.97762225  0.75000100  0.89748677  1
  N  N8  1  0.11191035  0.25000100  0.23985589  1
  N  N9  1  0.61190935  0.25000100  0.26014611  1
  N  N10  1  0.38808965  0.75000100  0.73985489  1
  N  N11  1  0.88809065  0.75000100  0.76014511  1
