# generated using pymatgen
data_YEr3
_symmetry_space_group_name_H-M   'P 1'
_cell_length_a   7.19405847
_cell_length_b   7.19348394
_cell_length_c   5.61329097
_cell_angle_alpha   90.00000000
_cell_angle_beta   90.00000000
_cell_angle_gamma   120.02523262
_symmetry_Int_Tables_number   1
_chemical_formula_structural   YEr3
_chemical_formula_sum   'Y2 Er6'
_cell_volume   251.50750442
_cell_formula_units_Z   2
loop_
 _symmetry_equiv_pos_site_id
 _symmetry_equiv_pos_as_xyz
  1  'x, y, z'
loop_
 _atom_site_type_symbol
 _atom_site_label
 _atom_site_symmetry_multiplicity
 _atom_site_fract_x
 _atom_site_fract_y
 _atom_site_fract_z
 _atom_site_occupancy
  Y  Y0  1  0.33340484  0.66676004  0.75000100  1
  Y  Y1  1  0.66663404  0.33328144  0.25000100  1
  Er  Er2  1  0.16554765  0.33099520  0.25000100  1
  Er  Er3  1  0.66898346  0.83448519  0.25000100  1
  Er  Er4  1  0.16558065  0.83450285  0.25000100  1
  Er  Er5  1  0.83436845  0.66890567  0.75000100  1
  Er  Er6  1  0.33113392  0.16558248  0.75000100  1
  Er  Er7  1  0.83434398  0.16548614  0.75000100  1
