# generated using pymatgen
data_U2Si5Ru3
_symmetry_space_group_name_H-M   'P 1'
_cell_length_a   5.70874874
_cell_length_b   8.12456589
_cell_length_c   8.12456589
_cell_angle_alpha   93.19559199
_cell_angle_beta   109.75126175
_cell_angle_gamma   109.75126175
_symmetry_Int_Tables_number   1
_chemical_formula_structural   U2Si5Ru3
_chemical_formula_sum   'U4 Si10 Ru6'
_cell_volume   327.59125217
_cell_formula_units_Z   2
loop_
 _symmetry_equiv_pos_site_id
 _symmetry_equiv_pos_as_xyz
  1  'x, y, z'
loop_
 _atom_site_type_symbol
 _atom_site_label
 _atom_site_symmetry_multiplicity
 _atom_site_fract_x
 _atom_site_fract_y
 _atom_site_fract_z
 _atom_site_occupancy
  U  U0  1  0.23689231  0.86795819  0.59458701  1
  U  U1  1  0.26310769  0.40541299  0.13204181  1
  U  U2  1  0.76310769  0.13204181  0.40541299  1
  U  U3  1  0.73689231  0.59458701  0.86795819  1
  Si  Si4  1  0.16534205  0.06470720  0.26296827  1
  Si  Si5  1  0.33465795  0.73703173  0.93529280  1
  Si  Si6  1  0.83465795  0.93529280  0.73703173  1
  Si  Si7  1  0.66534205  0.26296827  0.06470720  1
  Si  Si8  1  0.25000000  0.20434228  0.79565772  1
  Si  Si9  1  0.75000000  0.79565772  0.20434228  1
  Si  Si10  1  0.25000000  0.51383573  0.48616427  1
  Si  Si11  1  0.75000000  0.48616427  0.51383573  1
  Si  Si12  1  0.25000000  0.77886386  0.22113614  1
  Si  Si13  1  0.75000000  0.22113614  0.77886386  1
  Ru  Ru14  1  0.36493835  0.25517616  0.54422739  1
  Ru  Ru15  1  0.13506165  0.45577261  0.74482384  1
  Ru  Ru16  1  0.63506165  0.74482384  0.45577261  1
  Ru  Ru17  1  0.86493835  0.54422739  0.25517616  1
  Ru  Ru18  1  0.25000000  0.99968433  0.00031567  1
  Ru  Ru19  1  0.75000000  0.00031567  0.99968433  1
