# generated using pymatgen
data_YB2Ru
_symmetry_space_group_name_H-M   'P 1'
_cell_length_a   5.32639855
_cell_length_b   5.92445934
_cell_length_c   6.36267684
_cell_angle_alpha   90.00000000
_cell_angle_beta   90.00000000
_cell_angle_gamma   90.00000000
_symmetry_Int_Tables_number   1
_chemical_formula_structural   YB2Ru
_chemical_formula_sum   'Y4 B8 Ru4'
_cell_volume   200.78083167
_cell_formula_units_Z   4
loop_
 _symmetry_equiv_pos_site_id
 _symmetry_equiv_pos_as_xyz
  1  'x, y, z'
loop_
 _atom_site_type_symbol
 _atom_site_label
 _atom_site_symmetry_multiplicity
 _atom_site_fract_x
 _atom_site_fract_y
 _atom_site_fract_z
 _atom_site_occupancy
  Y  Y0  1  0.75000000  0.48880980  0.16312731  1
  Y  Y1  1  0.75000000  0.98880980  0.33687269  1
  Y  Y2  1  0.25000000  0.51119020  0.83687269  1
  Y  Y3  1  0.25000000  0.01119020  0.66312731  1
  B  B4  1  0.91559990  0.13016830  0.96145099  1
  B  B5  1  0.58440010  0.63016830  0.53854901  1
  B  B6  1  0.41559990  0.86983170  0.03854901  1
  B  B7  1  0.08440010  0.36983170  0.46145099  1
  B  B8  1  0.08440010  0.86983170  0.03854901  1
  B  B9  1  0.41559990  0.36983170  0.46145099  1
  B  B10  1  0.58440010  0.13016830  0.96145099  1
  B  B11  1  0.91559990  0.63016830  0.53854901  1
  Ru  Ru12  1  0.75000000  0.31874021  0.68164799  1
  Ru  Ru13  1  0.75000000  0.81874021  0.81835201  1
  Ru  Ru14  1  0.25000000  0.68125979  0.31835201  1
  Ru  Ru15  1  0.25000000  0.18125979  0.18164799  1
