# generated using pymatgen
data_Mg2FeB2Ir5
_symmetry_space_group_name_H-M   'P 1'
_cell_length_a   2.92291291
_cell_length_b   9.45946591
_cell_length_c   9.45946591
_cell_angle_alpha   90.00000000
_cell_angle_beta   90.00000000
_cell_angle_gamma   90.00000000
_symmetry_Int_Tables_number   1
_chemical_formula_structural   Mg2FeB2Ir5
_chemical_formula_sum   'Mg4 Fe2 B4 Ir10'
_cell_volume   261.54661783
_cell_formula_units_Z   2
loop_
 _symmetry_equiv_pos_site_id
 _symmetry_equiv_pos_as_xyz
  1  'x, y, z'
loop_
 _atom_site_type_symbol
 _atom_site_label
 _atom_site_symmetry_multiplicity
 _atom_site_fract_x
 _atom_site_fract_y
 _atom_site_fract_z
 _atom_site_occupancy
  Mg  Mg0  1  -0.00000000  0.32375197  0.82375197  1
  Mg  Mg1  1  0.00000000  0.67624803  0.17624803  1
  Mg  Mg2  1  -0.00000000  0.17624803  0.32375197  1
  Mg  Mg3  1  0.00000000  0.82375197  0.67624803  1
  Fe  Fe4  1  -0.00000000  0.50000000  0.50000000  1
  Fe  Fe5  1  0.00000000  -0.00000000  -0.00000000  1
  B  B6  1  0.00000000  0.12601512  0.62601512  1
  B  B7  1  -0.00000000  0.87398488  0.37398488  1
  B  B8  1  0.00000000  0.37398488  0.12601512  1
  B  B9  1  -0.00000000  0.62601512  0.87398488  1
  Ir  Ir10  1  0.50000000  -0.00000000  0.50000000  1
  Ir  Ir11  1  0.50000000  0.50000000  -0.00000000  1
  Ir  Ir12  1  0.50000000  0.57068033  0.71396690  1
  Ir  Ir13  1  0.50000000  0.42931967  0.28603310  1
  Ir  Ir14  1  0.50000000  0.92931967  0.21396690  1
  Ir  Ir15  1  0.50000000  0.07068033  0.78603310  1
  Ir  Ir16  1  0.50000000  0.71396690  0.42931967  1
  Ir  Ir17  1  0.50000000  0.28603310  0.57068033  1
  Ir  Ir18  1  0.50000000  0.21396690  0.07068033  1
  Ir  Ir19  1  0.50000000  0.78603310  0.92931967  1
