# generated using pymatgen
data_Dy2Te3
_symmetry_space_group_name_H-M   'P 1'
_cell_length_a   7.54049045
_cell_length_b   7.54049045
_cell_length_c   13.91043892
_cell_angle_alpha   100.41156685
_cell_angle_beta   100.41156685
_cell_angle_gamma   109.46532497
_symmetry_Int_Tables_number   1
_chemical_formula_structural   Dy2Te3
_chemical_formula_sum   'Dy8 Te12'
_cell_volume   708.25863192
_cell_formula_units_Z   4
loop_
 _symmetry_equiv_pos_site_id
 _symmetry_equiv_pos_as_xyz
  1  'x, y, z'
loop_
 _atom_site_type_symbol
 _atom_site_label
 _atom_site_symmetry_multiplicity
 _atom_site_fract_x
 _atom_site_fract_y
 _atom_site_fract_z
 _atom_site_occupancy
  Dy  Dy0  1  0.70767835  0.95767835  0.91535670  1
  Dy  Dy1  1  0.54232165  0.79232165  0.58464330  1
  Dy  Dy2  1  0.29232165  0.04232165  0.08464330  1
  Dy  Dy3  1  0.45767835  0.20767835  0.41535670  1
  Dy  Dy4  1  0.37481081  0.62481081  0.24962161  1
  Dy  Dy5  1  0.87518919  0.12518919  0.25037839  1
  Dy  Dy6  1  0.62518919  0.37518919  0.75037839  1
  Dy  Dy7  1  0.12481081  0.87481081  0.74962161  1
  Te  Te8  1  0.87627043  0.12627043  0.75000000  1
  Te  Te9  1  0.37372957  0.62372957  0.75000000  1
  Te  Te10  1  0.12372957  0.87372957  0.25000000  1
  Te  Te11  1  0.62627043  0.37627043  0.25000000  1
  Te  Te12  1  0.54368664  0.79343460  0.08442838  1
  Te  Te13  1  0.70656540  0.95631336  0.41557162  1
  Te  Te14  1  0.20900622  0.45925826  0.41557162  1
  Te  Te15  1  0.04074174  0.29099378  0.08442838  1
  Te  Te16  1  0.45631336  0.20656540  0.91557162  1
  Te  Te17  1  0.29343460  0.04368664  0.58442838  1
  Te  Te18  1  0.79099378  0.54074174  0.58442838  1
  Te  Te19  1  0.95925826  0.70900622  0.91557162  1
