# generated using pymatgen
data_La5Pb3Se
_symmetry_space_group_name_H-M   'P 1'
_cell_length_a   7.20573597
_cell_length_b   9.76793204
_cell_length_c   9.76709455
_cell_angle_alpha   120.00283273
_cell_angle_beta   90.00250173
_cell_angle_gamma   89.99499700
_symmetry_Int_Tables_number   1
_chemical_formula_structural   La5Pb3Se
_chemical_formula_sum   'La10 Pb6 Se2'
_cell_volume   595.33936289
_cell_formula_units_Z   2
loop_
 _symmetry_equiv_pos_site_id
 _symmetry_equiv_pos_as_xyz
  1  'x, y, z'
loop_
 _atom_site_type_symbol
 _atom_site_label
 _atom_site_symmetry_multiplicity
 _atom_site_fract_x
 _atom_site_fract_y
 _atom_site_fract_z
 _atom_site_occupancy
  La  La0  1  0.74997447  0.24877343  0.00000000  1
  La  La1  1  0.75000397  0.75116717  0.75117516  1
  La  La2  1  0.75000397  0.99999201  0.24882484  1
  La  La3  1  0.24998561  0.75122934  1.00000000  1
  La  La4  1  0.25000417  0.24883919  0.24882513  1
  La  La5  1  0.25000417  0.00001407  0.75117487  1
  La  La6  1  0.49999842  0.33329302  0.66663675  1
  La  La7  1  0.49999842  0.66665628  0.33336325  1
  La  La8  1  0.99998949  0.66670711  0.33336530  1
  La  La9  1  0.99998949  0.33334181  0.66663470  1
  Pb  Pb10  1  0.75001621  0.60292859  0.00000000  1
  Pb  Pb11  1  0.75000743  0.39708001  0.39715000  1
  Pb  Pb12  1  0.75000743  0.99993001  0.60285000  1
  Pb  Pb13  1  0.25001110  0.39706513  1.00000000  1
  Pb  Pb14  1  0.24999756  0.60291468  0.60284489  1
  Pb  Pb15  1  0.24999756  0.00006979  0.39715511  1
  Se  Se16  1  0.50000789  0.99999049  -0.00000000  1
  Se  Se17  1  0.00000262  0.00000786  -0.00000000  1
