# generated using pymatgen
data_La(BOs)4
_symmetry_space_group_name_H-M   'P 1'
_cell_length_a   4.00720265
_cell_length_b   7.65788359
_cell_length_c   7.65788359
_cell_angle_alpha   90.00000000
_cell_angle_beta   90.00000000
_cell_angle_gamma   90.00000000
_symmetry_Int_Tables_number   1
_chemical_formula_structural   La(BOs)4
_chemical_formula_sum   'La2 B8 Os8'
_cell_volume   234.99511062
_cell_formula_units_Z   2
loop_
 _symmetry_equiv_pos_site_id
 _symmetry_equiv_pos_as_xyz
  1  'x, y, z'
loop_
 _atom_site_type_symbol
 _atom_site_label
 _atom_site_symmetry_multiplicity
 _atom_site_fract_x
 _atom_site_fract_y
 _atom_site_fract_z
 _atom_site_occupancy
  La  La0  1  0.25000000  0.25000000  0.25000000  1
  La  La1  1  0.75000000  0.75000000  0.75000000  1
  B  B2  1  0.36028230  0.91494592  0.03244392  1
  B  B3  1  0.36028230  0.58505408  0.46755608  1
  B  B4  1  0.86028230  0.53244392  0.08505408  1
  B  B5  1  0.86028230  0.96755608  0.41494592  1
  B  B6  1  0.63971770  0.08505408  0.96755608  1
  B  B7  1  0.63971770  0.41494592  0.53244392  1
  B  B8  1  0.13971770  0.46755608  0.91494592  1
  B  B9  1  0.13971770  0.03244392  0.58505408  1
  Os  Os10  1  0.13962335  0.39551116  0.64351273  1
  Os  Os11  1  0.13962335  0.10448884  0.85648727  1
  Os  Os12  1  0.63962335  0.14351273  0.60448884  1
  Os  Os13  1  0.63962335  0.35648727  0.89551116  1
  Os  Os14  1  0.86037665  0.60448884  0.35648727  1
  Os  Os15  1  0.86037665  0.89551116  0.14351273  1
  Os  Os16  1  0.36037665  0.85648727  0.39551116  1
  Os  Os17  1  0.36037665  0.64351273  0.10448884  1
