# generated using pymatgen
data_Cr2(BW)3
_symmetry_space_group_name_H-M   'P 1'
_cell_length_a   5.77650532
_cell_length_b   5.77650532
_cell_length_c   6.68163715
_cell_angle_alpha   64.38846643
_cell_angle_beta   64.38846643
_cell_angle_gamma   90.00000000
_symmetry_Int_Tables_number   1
_chemical_formula_structural   Cr2(BW)3
_chemical_formula_sum   'Cr4 B6 W6'
_cell_volume   176.44159772
_cell_formula_units_Z   2
loop_
 _symmetry_equiv_pos_site_id
 _symmetry_equiv_pos_as_xyz
  1  'x, y, z'
loop_
 _atom_site_type_symbol
 _atom_site_label
 _atom_site_symmetry_multiplicity
 _atom_site_fract_x
 _atom_site_fract_y
 _atom_site_fract_z
 _atom_site_occupancy
  Cr  Cr0  1  0.30550467  0.80550467  0.71378120  1
  Cr  Cr1  1  0.98071413  0.48071413  0.71378120  1
  Cr  Cr2  1  0.48071413  0.30550467  0.71378120  1
  Cr  Cr3  1  0.80550467  0.98071413  0.71378120  1
  B  B4  1  0.38914009  0.88914009  0.98996099  1
  B  B5  1  0.62089891  0.12089891  0.98996099  1
  B  B6  1  0.12089891  0.38914009  0.98996099  1
  B  B7  1  0.88914009  0.62089891  0.98996099  1
  B  B8  1  0.73993681  0.73993681  0.52012638  1
  B  B9  1  0.23993681  0.23993681  0.52012638  1
  W  W10  1  0.67909024  0.17909024  0.29966559  1
  W  W11  1  0.02124417  0.52124417  0.29966559  1
  W  W12  1  0.52124417  0.67909024  0.29966559  1
  W  W13  1  0.17909024  0.02124417  0.29966559  1
  W  W14  1  0.51347097  0.51347097  0.97305807  1
  W  W15  1  0.01347097  0.01347097  0.97305807  1
