# generated using pymatgen
data_TmB2Os
_symmetry_space_group_name_H-M   'P 1'
_cell_length_a   5.27989548
_cell_length_b   5.84186443
_cell_length_c   6.32758073
_cell_angle_alpha   90.00000000
_cell_angle_beta   90.00000000
_cell_angle_gamma   90.00000000
_symmetry_Int_Tables_number   1
_chemical_formula_structural   TmB2Os
_chemical_formula_sum   'Tm4 B8 Os4'
_cell_volume   195.17064367
_cell_formula_units_Z   4
loop_
 _symmetry_equiv_pos_site_id
 _symmetry_equiv_pos_as_xyz
  1  'x, y, z'
loop_
 _atom_site_type_symbol
 _atom_site_label
 _atom_site_symmetry_multiplicity
 _atom_site_fract_x
 _atom_site_fract_y
 _atom_site_fract_z
 _atom_site_occupancy
  Tm  Tm0  1  0.75000000  0.48936346  0.16577601  1
  Tm  Tm1  1  0.75000000  0.98936346  0.33422399  1
  Tm  Tm2  1  0.25000000  0.51063654  0.83422399  1
  Tm  Tm3  1  0.25000000  0.01063654  0.66577601  1
  B  B4  1  0.91856425  0.13854823  0.96205524  1
  B  B5  1  0.58143575  0.63854823  0.53794476  1
  B  B6  1  0.41856425  0.86145177  0.03794476  1
  B  B7  1  0.08143575  0.36145177  0.46205524  1
  B  B8  1  0.08143575  0.86145177  0.03794476  1
  B  B9  1  0.41856425  0.36145177  0.46205524  1
  B  B10  1  0.58143575  0.13854823  0.96205524  1
  B  B11  1  0.91856425  0.63854823  0.53794476  1
  Os  Os12  1  0.75000000  0.32315161  0.68228865  1
  Os  Os13  1  0.75000000  0.82315161  0.81771135  1
  Os  Os14  1  0.25000000  0.67684839  0.31771135  1
  Os  Os15  1  0.25000000  0.17684839  0.18228865  1
