# generated using pymatgen
data_EuGePd2
_symmetry_space_group_name_H-M   'P 1'
_cell_length_a   5.86595688
_cell_length_b   7.64027346
_cell_length_c   7.16585635
_cell_angle_alpha   90.00000000
_cell_angle_beta   90.00000000
_cell_angle_gamma   90.00000000
_symmetry_Int_Tables_number   1
_chemical_formula_structural   EuGePd2
_chemical_formula_sum   'Eu4 Ge4 Pd8'
_cell_volume   321.15587207
_cell_formula_units_Z   4
loop_
 _symmetry_equiv_pos_site_id
 _symmetry_equiv_pos_as_xyz
  1  'x, y, z'
loop_
 _atom_site_type_symbol
 _atom_site_label
 _atom_site_symmetry_multiplicity
 _atom_site_fract_x
 _atom_site_fract_y
 _atom_site_fract_z
 _atom_site_occupancy
  Eu  Eu0  1  0.85820275  0.52171674  0.25000000  1
  Eu  Eu1  1  0.64179725  0.02171674  0.25000000  1
  Eu  Eu2  1  0.14179725  0.47828326  0.75000000  1
  Eu  Eu3  1  0.35820275  0.97828326  0.75000000  1
  Ge  Ge4  1  0.13939627  0.87705526  0.25000000  1
  Ge  Ge5  1  0.36060373  0.37705526  0.25000000  1
  Ge  Ge6  1  0.86060373  0.12294474  0.75000000  1
  Ge  Ge7  1  0.63939627  0.62294474  0.75000000  1
  Pd  Pd8  1  0.40965813  0.67701322  0.05440703  1
  Pd  Pd9  1  0.09034187  0.17701322  0.44559297  1
  Pd  Pd10  1  0.59034187  0.32298678  0.55440703  1
  Pd  Pd11  1  0.90965813  0.82298678  0.94559297  1
  Pd  Pd12  1  0.59034187  0.32298678  0.94559297  1
  Pd  Pd13  1  0.90965813  0.82298678  0.55440703  1
  Pd  Pd14  1  0.40965813  0.67701322  0.44559297  1
  Pd  Pd15  1  0.09034187  0.17701322  0.05440703  1
