# generated using pymatgen
data_Ta5Zn7O18
_symmetry_space_group_name_H-M   'P 1'
_cell_length_a   8.83756336
_cell_length_b   8.83756336
_cell_length_c   10.58746622
_cell_angle_alpha   87.74635939
_cell_angle_beta   87.74635939
_cell_angle_gamma   63.54046484
_symmetry_Int_Tables_number   1
_chemical_formula_structural   Ta5Zn7O18
_chemical_formula_sum   'Ta10 Zn14 O36'
_cell_volume   739.49633841
_cell_formula_units_Z   2
loop_
 _symmetry_equiv_pos_site_id
 _symmetry_equiv_pos_as_xyz
  1  'x, y, z'
loop_
 _atom_site_type_symbol
 _atom_site_label
 _atom_site_symmetry_multiplicity
 _atom_site_fract_x
 _atom_site_fract_y
 _atom_site_fract_z
 _atom_site_occupancy
  Ta  Ta0  1  0.30019769  0.99875348  0.73480055  1
  Ta  Ta1  1  0.69980231  0.00124652  0.26519945  1
  Ta  Ta2  1  0.00124652  0.69980231  0.76519945  1
  Ta  Ta3  1  0.99875348  0.30019769  0.23480055  1
  Ta  Ta4  1  0.33665250  0.33824743  0.79554009  1
  Ta  Ta5  1  0.66334750  0.66175257  0.20445991  1
  Ta  Ta6  1  0.66175257  0.66334750  0.70445991  1
  Ta  Ta7  1  0.33824743  0.33665250  0.29554009  1
  Ta  Ta8  1  -0.00000000  -0.00000000  0.00000000  1
  Ta  Ta9  1  -0.00000000  -0.00000000  0.50000000  1
  Zn  Zn10  1  0.56571456  0.11033212  0.55041308  1
  Zn  Zn11  1  0.43428544  0.88966788  0.44958692  1
  Zn  Zn12  1  0.88966788  0.43428544  0.94958692  1
  Zn  Zn13  1  0.11033212  0.56571456  0.05041308  1
  Zn  Zn14  1  0.65154841  0.96401873  0.93562482  1
  Zn  Zn15  1  0.34845159  0.03598127  0.06437518  1
  Zn  Zn16  1  0.03598127  0.34845159  0.56437518  1
  Zn  Zn17  1  0.96401873  0.65154841  0.43562482  1
  Zn  Zn18  1  0.77013528  0.22986472  0.75000000  1
  Zn  Zn19  1  0.22986472  0.77013528  0.25000000  1
  Zn  Zn20  1  0.37996538  0.67096477  0.96568123  1
  Zn  Zn21  1  0.62003462  0.32903523  0.03431877  1
  Zn  Zn22  1  0.32903523  0.62003462  0.53431877  1
  Zn  Zn23  1  0.67096477  0.37996538  0.46568123  1
  O  O24  1  0.44430824  0.76860567  0.81023140  1
  O  O25  1  0.55569176  0.23139433  0.18976860  1
  O  O26  1  0.23139433  0.55569176  0.68976860  1
  O  O27  1  0.76860567  0.44430824  0.31023140  1
  O  O28  1  0.76454984  0.12254141  0.92108827  1
  O  O29  1  0.23545016  0.87745859  0.07891173  1
  O  O30  1  0.87745859  0.23545016  0.57891173  1
  O  O31  1  0.12254141  0.76454984  0.42108827  1
  O  O32  1  0.24174796  0.22954645  0.66338292  1
  O  O33  1  0.75825204  0.77045355  0.33661708  1
  O  O34  1  0.77045355  0.75825204  0.83661708  1
  O  O35  1  0.22954645  0.24174796  0.16338292  1
  O  O36  1  0.39765471  0.10172036  0.87847799  1
  O  O37  1  0.60234529  0.89827964  0.12152201  1
  O  O38  1  0.89827964  0.60234529  0.62152201  1
  O  O39  1  0.10172036  0.39765471  0.37847799  1
  O  O40  1  0.54480044  0.25180301  0.69583889  1
  O  O41  1  0.45519956  0.74819699  0.30416111  1
  O  O42  1  0.74819699  0.45519956  0.80416111  1
  O  O43  1  0.25180301  0.54480044  0.19583889  1
  O  O44  1  0.23278444  0.93533796  0.57373066  1
  O  O45  1  0.76721556  0.06466204  0.42626934  1
  O  O46  1  0.06466204  0.76721556  0.92626934  1
  O  O47  1  0.93533796  0.23278444  0.07373066  1
  O  O48  1  0.10939327  0.04742906  0.84438844  1
  O  O49  1  0.89060673  0.95257094  0.15561156  1
  O  O50  1  0.95257094  0.89060673  0.65561156  1
  O  O51  1  0.04742906  0.10939327  0.34438844  1
  O  O52  1  0.56902090  0.58983853  0.57253548  1
  O  O53  1  0.43097910  0.41016147  0.42746452  1
  O  O54  1  0.41016147  0.43097910  0.92746452  1
  O  O55  1  0.58983853  0.56902090  0.07253548  1
  O  O56  1  0.53995990  0.90834054  0.62466247  1
  O  O57  1  0.46004010  0.09165946  0.37533753  1
  O  O58  1  0.09165946  0.46004010  0.87533753  1
  O  O59  1  0.90834054  0.53995990  0.12466247  1
