# generated using pymatgen
data_K3B6ClO10
_symmetry_space_group_name_H-M   'P 1'
_cell_length_a   6.60637614
_cell_length_b   6.60637614
_cell_length_c   6.60637570
_cell_angle_alpha   100.50824757
_cell_angle_beta   100.50824757
_cell_angle_gamma   100.50825466
_symmetry_Int_Tables_number   1
_chemical_formula_structural   K3B6ClO10
_chemical_formula_sum   'K3 B6 Cl1 O10'
_cell_volume   271.71697661
_cell_formula_units_Z   1
loop_
 _symmetry_equiv_pos_site_id
 _symmetry_equiv_pos_as_xyz
  1  'x, y, z'
loop_
 _atom_site_type_symbol
 _atom_site_label
 _atom_site_symmetry_multiplicity
 _atom_site_fract_x
 _atom_site_fract_y
 _atom_site_fract_z
 _atom_site_occupancy
  K  K0  1  0.92250148  0.38466271  0.38466389  1
  K  K1  1  0.38466271  0.38466389  0.92250148  1
  K  K2  1  0.38466389  0.92250148  0.38466271  1
  B  B3  1  0.07543954  0.81223440  0.81223449  1
  B  B4  1  0.81223440  0.81223449  0.07543954  1
  B  B5  1  0.81223449  0.07543954  0.81223440  1
  B  B6  1  0.93188626  0.93188502  0.48451987  1
  B  B7  1  0.93188502  0.48451987  0.93188626  1
  B  B8  1  0.48451987  0.93188626  0.93188502  1
  Cl  Cl9  1  0.43807725  0.43807725  0.43807725  1
  O  O10  1  0.05486580  0.81991537  0.58834720  1
  O  O11  1  0.81991537  0.58834720  0.05486580  1
  O  O12  1  0.58834720  0.05486580  0.81991537  1
  O  O13  1  0.05486626  0.58834739  0.81991765  1
  O  O14  1  0.58834739  0.81991765  0.05486626  1
  O  O15  1  0.81991765  0.05486626  0.58834739  1
  O  O16  1  0.93882883  0.93882660  0.27872513  1
  O  O17  1  0.93882660  0.27872513  0.93882883  1
  O  O18  1  0.27872513  0.93882883  0.93882660  1
  O  O19  1  0.89687489  0.89687489  0.89687489  1
