# generated using pymatgen
data_Tb6NiBr10
_symmetry_space_group_name_H-M   'P 1'
_cell_length_a   7.35857388
_cell_length_b   9.17611694
_cell_length_c   9.17894726
_cell_angle_alpha   108.67868064
_cell_angle_beta   97.04759662
_cell_angle_gamma   106.13298865
_symmetry_Int_Tables_number   1
_chemical_formula_structural   Tb6NiBr10
_chemical_formula_sum   'Tb6 Ni1 Br10'
_cell_volume   548.55270625
_cell_formula_units_Z   1
loop_
 _symmetry_equiv_pos_site_id
 _symmetry_equiv_pos_as_xyz
  1  'x, y, z'
loop_
 _atom_site_type_symbol
 _atom_site_label
 _atom_site_symmetry_multiplicity
 _atom_site_fract_x
 _atom_site_fract_y
 _atom_site_fract_z
 _atom_site_occupancy
  Tb  Tb0  1  0.12172048  0.04255602  0.75426176  1
  Tb  Tb1  1  0.87827952  0.95744398  0.24573824  1
  Tb  Tb2  1  0.97586129  0.29862965  0.09571011  1
  Tb  Tb3  1  0.02413871  0.70137035  0.90428989  1
  Tb  Tb4  1  0.36032583  0.13798314  0.17934603  1
  Tb  Tb5  1  0.63967417  0.86201686  0.82065397  1
  Ni  Ni6  1  0.00000000  -0.00000000  -0.00000000  1
  Br  Br7  1  0.55022891  0.18021342  0.91335410  1
  Br  Br8  1  0.44977109  0.81978658  0.08664590  1
  Br  Br9  1  0.36488278  0.46455098  0.27587382  1
  Br  Br10  1  0.63511722  0.53544902  0.72412618  1
  Br  Br11  1  0.26033598  0.08660941  0.46339616  1
  Br  Br12  1  0.73966402  0.91339059  0.53660384  1
  Br  Br13  1  0.79154451  0.26475713  0.35596524  1
  Br  Br14  1  0.20845549  0.73524287  0.64403476  1
  Br  Br15  1  0.08683748  0.37057899  0.82283241  1
  Br  Br16  1  0.91316252  0.62942101  0.17716759  1
