# generated using pymatgen
data_WNCl3
_symmetry_space_group_name_H-M   'P 1'
_cell_length_a   8.20000791
_cell_length_b   8.42576202
_cell_length_c   9.30383153
_cell_angle_alpha   96.90622173
_cell_angle_beta   108.62478327
_cell_angle_gamma   110.10630475
_symmetry_Int_Tables_number   1
_chemical_formula_structural   WNCl3
_chemical_formula_sum   'W4 N4 Cl12'
_cell_volume   552.58406178
_cell_formula_units_Z   4
loop_
 _symmetry_equiv_pos_site_id
 _symmetry_equiv_pos_as_xyz
  1  'x, y, z'
loop_
 _atom_site_type_symbol
 _atom_site_label
 _atom_site_symmetry_multiplicity
 _atom_site_fract_x
 _atom_site_fract_y
 _atom_site_fract_z
 _atom_site_occupancy
  W  W0  1  0.00659388  0.05725738  0.22878359  1
  W  W1  1  0.99340612  0.94274262  0.77121641  1
  W  W2  1  0.88378141  0.66013961  0.38467206  1
  W  W3  1  0.11621859  0.33986039  0.61532794  1
  N  N4  1  0.04689958  0.21700635  0.38948960  1
  N  N5  1  0.95310042  0.78299365  0.61051040  1
  N  N6  1  0.95086208  0.84479986  0.31516123  1
  N  N7  1  0.04913792  0.15520014  0.68483877  1
  Cl  Cl8  1  0.30838993  0.07299139  0.29973239  1
  Cl  Cl9  1  0.69161007  0.92700861  0.70026761  1
  Cl  Cl10  1  0.95183832  0.78315864  0.95846386  1
  Cl  Cl11  1  0.04816168  0.21684136  0.04153614  1
  Cl  Cl12  1  0.68375183  0.95032109  0.10451629  1
  Cl  Cl13  1  0.31624817  0.04967891  0.89548371  1
  Cl  Cl14  1  0.18349339  0.64237758  0.47683121  1
  Cl  Cl15  1  0.81650661  0.35762242  0.52316879  1
  Cl  Cl16  1  0.78229485  0.43993085  0.16306513  1
  Cl  Cl17  1  0.21770515  0.56006915  0.83693487  1
  Cl  Cl18  1  0.57883209  0.61807387  0.34387120  1
  Cl  Cl19  1  0.42116791  0.38192613  0.65612880  1
