# generated using pymatgen
data_Sr3(GaAs2)2
_symmetry_space_group_name_H-M   'P 1'
_cell_length_a   6.89241653
_cell_length_b   8.65155593
_cell_length_c   8.65155593
_cell_angle_alpha   75.82224126
_cell_angle_beta   89.71302218
_cell_angle_gamma   89.71302218
_symmetry_Int_Tables_number   1
_chemical_formula_structural   Sr3(GaAs2)2
_chemical_formula_sum   'Sr6 Ga4 As8'
_cell_volume   500.16944626
_cell_formula_units_Z   2
loop_
 _symmetry_equiv_pos_site_id
 _symmetry_equiv_pos_as_xyz
  1  'x, y, z'
loop_
 _atom_site_type_symbol
 _atom_site_label
 _atom_site_symmetry_multiplicity
 _atom_site_fract_x
 _atom_site_fract_y
 _atom_site_fract_z
 _atom_site_occupancy
  Sr  Sr0  1  0.96475830  0.00402123  0.74928716  1
  Sr  Sr1  1  0.53524170  0.25071284  0.99597877  1
  Sr  Sr2  1  0.03524170  0.99597877  0.25071284  1
  Sr  Sr3  1  0.46475830  0.74928716  0.00402123  1
  Sr  Sr4  1  0.25000000  0.40016228  0.59983772  1
  Sr  Sr5  1  0.75000000  0.59983772  0.40016228  1
  Ga  Ga6  1  0.41734944  0.82480514  0.58276857  1
  Ga  Ga7  1  0.08265056  0.41723143  0.17519486  1
  Ga  Ga8  1  0.58265056  0.17519486  0.41723143  1
  Ga  Ga9  1  0.91734944  0.58276857  0.82480514  1
  As  As10  1  0.47643047  0.05879579  0.70927735  1
  As  As11  1  0.02356953  0.29072265  0.94120421  1
  As  As12  1  0.52356953  0.94120421  0.29072265  1
  As  As13  1  0.97643047  0.70927735  0.05879579  1
  As  As14  1  0.07130831  0.74155565  0.57086097  1
  As  As15  1  0.42869169  0.42913903  0.25844435  1
  As  As16  1  0.92869169  0.25844435  0.42913903  1
  As  As17  1  0.57130831  0.57086097  0.74155565  1
