# generated using pymatgen
data_ScB2Os
_symmetry_space_group_name_H-M   'P 1'
_cell_length_a   5.19944534
_cell_length_b   5.66993795
_cell_length_c   6.18205637
_cell_angle_alpha   90.00000000
_cell_angle_beta   90.00000000
_cell_angle_gamma   90.00000000
_symmetry_Int_Tables_number   1
_chemical_formula_structural   ScB2Os
_chemical_formula_sum   'Sc4 B8 Os4'
_cell_volume   182.25031344
_cell_formula_units_Z   4
loop_
 _symmetry_equiv_pos_site_id
 _symmetry_equiv_pos_as_xyz
  1  'x, y, z'
loop_
 _atom_site_type_symbol
 _atom_site_label
 _atom_site_symmetry_multiplicity
 _atom_site_fract_x
 _atom_site_fract_y
 _atom_site_fract_z
 _atom_site_occupancy
  Sc  Sc0  1  0.75000000  0.48898196  0.17052854  1
  Sc  Sc1  1  0.75000000  0.98898196  0.32947146  1
  Sc  Sc2  1  0.25000000  0.51101804  0.82947146  1
  Sc  Sc3  1  0.25000000  0.01101804  0.67052854  1
  B  B4  1  0.91951585  0.14461950  0.96630250  1
  B  B5  1  0.58048415  0.64461950  0.53369750  1
  B  B6  1  0.41951585  0.85538050  0.03369750  1
  B  B7  1  0.08048415  0.35538050  0.46630250  1
  B  B8  1  0.08048415  0.85538050  0.03369750  1
  B  B9  1  0.41951585  0.35538050  0.46630250  1
  B  B10  1  0.58048415  0.14461950  0.96630250  1
  B  B11  1  0.91951585  0.64461950  0.53369750  1
  Os  Os12  1  0.75000000  0.32242069  0.67952333  1
  Os  Os13  1  0.75000000  0.82242069  0.82047667  1
  Os  Os14  1  0.25000000  0.67757931  0.32047667  1
  Os  Os15  1  0.25000000  0.17757931  0.17952333  1
