# generated using pymatgen
data_NdAlPd2
_symmetry_space_group_name_H-M   'P 1'
_cell_length_a   5.89417521
_cell_length_b   7.09280580
_cell_length_c   7.57060654
_cell_angle_alpha   90.00000000
_cell_angle_beta   90.00000000
_cell_angle_gamma   90.00000000
_symmetry_Int_Tables_number   1
_chemical_formula_structural   NdAlPd2
_chemical_formula_sum   'Nd4 Al4 Pd8'
_cell_volume   316.49859483
_cell_formula_units_Z   4
loop_
 _symmetry_equiv_pos_site_id
 _symmetry_equiv_pos_as_xyz
  1  'x, y, z'
loop_
 _atom_site_type_symbol
 _atom_site_label
 _atom_site_symmetry_multiplicity
 _atom_site_fract_x
 _atom_site_fract_y
 _atom_site_fract_z
 _atom_site_occupancy
  Nd  Nd0  1  0.15319115  0.75000000  0.46726386  1
  Nd  Nd1  1  0.34680885  0.75000000  0.96726386  1
  Nd  Nd2  1  0.84680885  0.25000000  0.53273614  1
  Nd  Nd3  1  0.65319115  0.25000000  0.03273614  1
  Al  Al4  1  0.84597848  0.75000000  0.11821936  1
  Al  Al5  1  0.65402152  0.75000000  0.61821936  1
  Al  Al6  1  0.15402152  0.25000000  0.88178064  1
  Al  Al7  1  0.34597848  0.25000000  0.38178064  1
  Pd  Pd8  1  0.58803217  0.94716448  0.32293249  1
  Pd  Pd9  1  0.91196783  0.55283552  0.82293249  1
  Pd  Pd10  1  0.41196783  0.44716448  0.67706751  1
  Pd  Pd11  1  0.08803217  0.05283552  0.17706751  1
  Pd  Pd12  1  0.41196783  0.05283552  0.67706751  1
  Pd  Pd13  1  0.08803217  0.44716448  0.17706751  1
  Pd  Pd14  1  0.58803217  0.55283552  0.32293249  1
  Pd  Pd15  1  0.91196783  0.94716448  0.82293249  1
