# generated using pymatgen
data_Eu3NbO6
_symmetry_space_group_name_H-M   'P 1'
_cell_length_a   5.80790811
_cell_length_b   6.05302066
_cell_length_c   8.36928188
_cell_angle_alpha   90.00000000
_cell_angle_beta   90.09775699
_cell_angle_gamma   90.00000000
_symmetry_Int_Tables_number   1
_chemical_formula_structural   Eu3NbO6
_chemical_formula_sum   'Eu6 Nb2 O12'
_cell_volume   294.22492207
_cell_formula_units_Z   2
loop_
 _symmetry_equiv_pos_site_id
 _symmetry_equiv_pos_as_xyz
  1  'x, y, z'
loop_
 _atom_site_type_symbol
 _atom_site_label
 _atom_site_symmetry_multiplicity
 _atom_site_fract_x
 _atom_site_fract_y
 _atom_site_fract_z
 _atom_site_occupancy
  Eu  Eu0  1  0.48449843  0.55536208  0.24743939  1
  Eu  Eu1  1  0.98449843  0.94463792  0.74743939  1
  Eu  Eu2  1  0.51550157  0.44463792  0.75256061  1
  Eu  Eu3  1  0.01550157  0.05536208  0.25256061  1
  Eu  Eu4  1  -0.00000000  0.50000000  0.50000000  1
  Eu  Eu5  1  0.50000000  -0.00000000  0.00000000  1
  Nb  Nb6  1  -0.00000000  0.50000000  0.00000000  1
  Nb  Nb7  1  0.50000000  0.00000000  0.50000000  1
  O  O8  1  0.61795701  0.94753256  0.27305288  1
  O  O9  1  0.11795701  0.55246744  0.77305288  1
  O  O10  1  0.38204299  0.05246744  0.72694712  1
  O  O11  1  0.88204299  0.44753256  0.22694712  1
  O  O12  1  0.21608584  0.82292643  0.44393419  1
  O  O13  1  0.71608584  0.67707357  0.94393419  1
  O  O14  1  0.78391416  0.17707357  0.55606581  1
  O  O15  1  0.28391416  0.32292643  0.05606581  1
  O  O16  1  0.16920257  0.78075524  0.06896304  1
  O  O17  1  0.66920257  0.71924476  0.56896304  1
  O  O18  1  0.83079743  0.21924476  0.93103696  1
  O  O19  1  0.33079743  0.28075524  0.43103696  1
