# generated using pymatgen
data_LuGePd2
_symmetry_space_group_name_H-M   'P 1'
_cell_length_a   5.58133388
_cell_length_b   7.20564696
_cell_length_c   7.19786858
_cell_angle_alpha   90.00000000
_cell_angle_beta   90.00000000
_cell_angle_gamma   90.00000000
_symmetry_Int_Tables_number   1
_chemical_formula_structural   LuGePd2
_chemical_formula_sum   'Lu4 Ge4 Pd8'
_cell_volume   289.47755526
_cell_formula_units_Z   4
loop_
 _symmetry_equiv_pos_site_id
 _symmetry_equiv_pos_as_xyz
  1  'x, y, z'
loop_
 _atom_site_type_symbol
 _atom_site_label
 _atom_site_symmetry_multiplicity
 _atom_site_fract_x
 _atom_site_fract_y
 _atom_site_fract_z
 _atom_site_occupancy
  Lu  Lu0  1  0.85582123  0.52322500  0.25000000  1
  Lu  Lu1  1  0.64417877  0.02322500  0.25000000  1
  Lu  Lu2  1  0.14417877  0.47677500  0.75000000  1
  Lu  Lu3  1  0.35582123  0.97677500  0.75000000  1
  Ge  Ge4  1  0.13825674  0.88017868  0.25000000  1
  Ge  Ge5  1  0.36174326  0.38017868  0.25000000  1
  Ge  Ge6  1  0.86174326  0.11982132  0.75000000  1
  Ge  Ge7  1  0.63825674  0.61982132  0.75000000  1
  Pd  Pd8  1  0.41254569  0.68552195  0.05106816  1
  Pd  Pd9  1  0.08745431  0.18552195  0.44893184  1
  Pd  Pd10  1  0.58745431  0.31447805  0.55106816  1
  Pd  Pd11  1  0.91254569  0.81447805  0.94893184  1
  Pd  Pd12  1  0.58745431  0.31447805  0.94893184  1
  Pd  Pd13  1  0.91254569  0.81447805  0.55106816  1
  Pd  Pd14  1  0.41254569  0.68552195  0.44893184  1
  Pd  Pd15  1  0.08745431  0.18552195  0.05106816  1
