# generated using pymatgen
data_Er2Si2PbO8
_symmetry_space_group_name_H-M   'P 1'
_cell_length_a   6.90955534
_cell_length_b   9.76822206
_cell_length_c   9.76821021
_cell_angle_alpha   60.00031621
_cell_angle_beta   89.99934707
_cell_angle_gamma   89.99861777
_symmetry_Int_Tables_number   1
_chemical_formula_structural   Er2Si2PbO8
_chemical_formula_sum   'Er6 Si6 Pb3 O24'
_cell_volume   570.96914002
_cell_formula_units_Z   3
loop_
 _symmetry_equiv_pos_site_id
 _symmetry_equiv_pos_as_xyz
  1  'x, y, z'
loop_
 _atom_site_type_symbol
 _atom_site_label
 _atom_site_symmetry_multiplicity
 _atom_site_fract_x
 _atom_site_fract_y
 _atom_site_fract_z
 _atom_site_occupancy
  Er  Er0  1  0.24870121  0.99721894  0.72361765  1
  Er  Er1  1  0.24870997  0.27917023  0.99721870  1
  Er  Er2  1  0.24870326  0.72361504  0.27916050  1
  Er  Er3  1  0.75400380  0.00870256  0.27229911  1
  Er  Er4  1  0.75400373  0.71900065  0.00871553  1
  Er  Er5  1  0.75401094  0.27229343  0.71898949  1
  Si  Si6  1  0.75112902  0.01003789  0.63467104  1
  Si  Si7  1  0.75114362  0.35530144  0.01004640  1
  Si  Si8  1  0.75114414  0.63465545  0.35529791  1
  Si  Si9  1  0.25251856  0.99239027  0.36022025  1
  Si  Si10  1  0.25252591  0.64738947  0.99239946  1
  Si  Si11  1  0.25252741  0.36021810  0.64738110  1
  Pb  Pb12  1  0.45569203  0.33326365  0.33336230  1
  Pb  Pb13  1  0.99655445  0.66663147  0.66670337  1
  Pb  Pb14  1  0.50805974  0.66665171  0.66662112  1
  O  O15  1  0.56802286  0.07923453  0.69031875  1
  O  O16  1  0.56803202  0.23045653  0.07923917  1
  O  O17  1  0.56804099  0.69033677  0.23043528  1
  O  O18  1  0.06806068  0.91454745  0.31578475  1
  O  O19  1  0.06805888  0.76966698  0.91455358  1
  O  O20  1  0.06806844  0.31580009  0.76966429  1
  O  O21  1  0.43500232  0.91599120  0.31063766  1
  O  O22  1  0.43499149  0.77337748  0.91599788  1
  O  O23  1  0.43500303  0.31065544  0.77336996  1
  O  O24  1  0.92920797  0.07179094  0.70276463  1
  O  O25  1  0.92922569  0.22544680  0.07179267  1
  O  O26  1  0.92922600  0.70275704  0.22544434  1
  O  O27  1  0.74648235  0.07278066  0.44519024  1
  O  O28  1  0.74649563  0.48203020  0.07277662  1
  O  O29  1  0.74648604  0.44519855  0.48201971  1
  O  O30  1  0.25740924  0.92646232  0.55286371  1
  O  O31  1  0.25741302  0.52067833  0.92645341  1
  O  O32  1  0.25741505  0.55287219  0.52067222  1
  O  O33  1  0.75238681  0.81279377  0.72756719  1
  O  O34  1  0.75239200  0.45963628  0.81279655  1
  O  O35  1  0.75239170  0.72756983  0.45963028  1
  O  O36  1  0.24878118  0.18390794  0.26008500  1
  O  O37  1  0.24879407  0.55598869  0.18392324  1
  O  O38  1  0.24878475  0.26007969  0.55601494  1
