# generated using pymatgen
data_Eu3(AlAs2)2
_symmetry_space_group_name_H-M   'P 1'
_cell_length_a   6.76969470
_cell_length_b   8.44842881
_cell_length_c   8.44842881
_cell_angle_alpha   75.85526504
_cell_angle_beta   89.63839299
_cell_angle_gamma   89.63839299
_symmetry_Int_Tables_number   1
_chemical_formula_structural   Eu3(AlAs2)2
_chemical_formula_sum   'Eu6 Al4 As8'
_cell_volume   468.52869545
_cell_formula_units_Z   2
loop_
 _symmetry_equiv_pos_site_id
 _symmetry_equiv_pos_as_xyz
  1  'x, y, z'
loop_
 _atom_site_type_symbol
 _atom_site_label
 _atom_site_symmetry_multiplicity
 _atom_site_fract_x
 _atom_site_fract_y
 _atom_site_fract_z
 _atom_site_occupancy
  Eu  Eu0  1  0.96551606  0.00603720  0.75071219  1
  Eu  Eu1  1  0.53448394  0.24928781  0.99396280  1
  Eu  Eu2  1  0.03448394  0.99396280  0.24928781  1
  Eu  Eu3  1  0.46551606  0.75071219  0.00603720  1
  Eu  Eu4  1  0.25000000  0.40160629  0.59839371  1
  Eu  Eu5  1  0.75000000  0.59839371  0.40160629  1
  Al  Al6  1  0.41700114  0.82917172  0.58084381  1
  Al  Al7  1  0.08299886  0.41915619  0.17082828  1
  Al  Al8  1  0.58299886  0.17082828  0.41915619  1
  Al  Al9  1  0.91700114  0.58084381  0.82917172  1
  As  As10  1  0.47398410  0.06049525  0.71327373  1
  As  As11  1  0.02601590  0.28672627  0.93950475  1
  As  As12  1  0.52601590  0.93950475  0.28672627  1
  As  As13  1  0.97398410  0.71327373  0.06049525  1
  As  As14  1  0.06838661  0.74248938  0.57131126  1
  As  As15  1  0.43161339  0.42868874  0.25751062  1
  As  As16  1  0.93161339  0.25751062  0.42868874  1
  As  As17  1  0.56838661  0.57131126  0.74248938  1
