# generated using pymatgen
data_Eu3Au
_symmetry_space_group_name_H-M   'P 1'
_cell_length_a   6.99126336
_cell_length_b   8.04909076
_cell_length_c   10.21643231
_cell_angle_alpha   90.00000000
_cell_angle_beta   90.00000000
_cell_angle_gamma   90.00000000
_symmetry_Int_Tables_number   1
_chemical_formula_structural   Eu3Au
_chemical_formula_sum   'Eu12 Au4'
_cell_volume   574.91249631
_cell_formula_units_Z   4
loop_
 _symmetry_equiv_pos_site_id
 _symmetry_equiv_pos_as_xyz
  1  'x, y, z'
loop_
 _atom_site_type_symbol
 _atom_site_label
 _atom_site_symmetry_multiplicity
 _atom_site_fract_x
 _atom_site_fract_y
 _atom_site_fract_z
 _atom_site_occupancy
  Eu  Eu0  1  0.33713231  0.67596941  0.06308458  1
  Eu  Eu1  1  0.16286769  0.17596941  0.43691542  1
  Eu  Eu2  1  0.66286769  0.32403059  0.56308458  1
  Eu  Eu3  1  0.83713231  0.82403059  0.93691542  1
  Eu  Eu4  1  0.66286769  0.32403059  0.93691542  1
  Eu  Eu5  1  0.83713231  0.82403059  0.56308458  1
  Eu  Eu6  1  0.33713231  0.67596941  0.43691542  1
  Eu  Eu7  1  0.16286769  0.17596941  0.06308458  1
  Eu  Eu8  1  0.85798790  0.53456924  0.25000000  1
  Eu  Eu9  1  0.64201210  0.03456924  0.25000000  1
  Eu  Eu10  1  0.14201210  0.46543076  0.75000000  1
  Eu  Eu11  1  0.35798790  0.96543076  0.75000000  1
  Au  Au12  1  0.05470851  0.87938845  0.25000000  1
  Au  Au13  1  0.44529149  0.37938845  0.25000000  1
  Au  Au14  1  0.94529149  0.12061155  0.75000000  1
  Au  Au15  1  0.55470851  0.62061155  0.75000000  1
