# generated using pymatgen
data_CeGe2Pt
_symmetry_space_group_name_H-M   'P 1'
_cell_length_a   4.43395499
_cell_length_b   8.79163207
_cell_length_c   9.67347240
_cell_angle_alpha   117.02759697
_cell_angle_beta   103.24887024
_cell_angle_gamma   90.00000000
_symmetry_Int_Tables_number   1
_chemical_formula_structural   CeGe2Pt
_chemical_formula_sum   'Ce4 Ge8 Pt4'
_cell_volume   324.59817407
_cell_formula_units_Z   4
loop_
 _symmetry_equiv_pos_site_id
 _symmetry_equiv_pos_as_xyz
  1  'x, y, z'
loop_
 _atom_site_type_symbol
 _atom_site_label
 _atom_site_symmetry_multiplicity
 _atom_site_fract_x
 _atom_site_fract_y
 _atom_site_fract_z
 _atom_site_occupancy
  Ce  Ce0  1  0.00000000  0.25484820  0.00000000  1
  Ce  Ce1  1  1.00000000  0.74515180  1.00000000  1
  Ce  Ce2  1  0.79619324  0.29619324  0.59238647  1
  Ce  Ce3  1  0.20380676  0.70380676  0.40761353  1
  Ge  Ge4  1  0.42682458  0.92682458  0.85364915  1
  Ge  Ge5  1  0.57317542  0.07317542  0.14635085  1
  Ge  Ge6  1  0.42620240  0.42620240  0.85240479  1
  Ge  Ge7  1  0.57379760  0.57379760  0.14759521  1
  Ge  Ge8  1  0.19725100  0.04671525  0.39450200  1
  Ge  Ge9  1  0.80274900  0.95328475  0.60549800  1
  Ge  Ge10  1  0.19725100  0.34778675  0.39450200  1
  Ge  Ge11  1  0.80274900  0.65221325  0.60549800  1
  Pt  Pt12  1  0.35111639  0.10006782  0.70223278  1
  Pt  Pt13  1  0.64888361  0.89993218  0.29776722  1
  Pt  Pt14  1  0.35111639  0.60216496  0.70223278  1
  Pt  Pt15  1  0.64888361  0.39783504  0.29776722  1
