# generated using pymatgen
data_Ho6GaNi2
_symmetry_space_group_name_H-M   'P 1'
_cell_length_a   8.26112792
_cell_length_b   8.26112792
_cell_length_c   8.26112792
_cell_angle_alpha   106.70237994
_cell_angle_beta   110.30624269
_cell_angle_gamma   111.44216443
_symmetry_Int_Tables_number   1
_chemical_formula_structural   Ho6GaNi2
_chemical_formula_sum   'Ho12 Ga2 Ni4'
_cell_volume   433.20604298
_cell_formula_units_Z   2
loop_
 _symmetry_equiv_pos_site_id
 _symmetry_equiv_pos_as_xyz
  1  'x, y, z'
loop_
 _atom_site_type_symbol
 _atom_site_label
 _atom_site_symmetry_multiplicity
 _atom_site_fract_x
 _atom_site_fract_y
 _atom_site_fract_z
 _atom_site_occupancy
  Ho  Ho0  1  0.69892926  0.26428543  0.96321469  1
  Ho  Ho1  1  0.30107074  0.73571457  0.03678531  1
  Ho  Ho2  1  0.69892926  0.73571457  0.43464383  1
  Ho  Ho3  1  0.30107074  0.26428543  0.56535617  1
  Ho  Ho4  1  0.80396803  0.12579939  0.32183136  1
  Ho  Ho5  1  0.80396803  0.48213667  0.67816864  1
  Ho  Ho6  1  0.19603197  0.87420061  0.67816864  1
  Ho  Ho7  1  0.19603197  0.51786333  0.32183136  1
  Ho  Ho8  1  0.60092960  0.78308340  0.81784619  1
  Ho  Ho9  1  0.96523721  0.78308340  0.18215381  1
  Ho  Ho10  1  0.03476279  0.21691660  0.81784619  1
  Ho  Ho11  1  0.39907040  0.21691660  0.18215381  1
  Ga  Ga12  1  0.50000000  0.50000000  -0.00000000  1
  Ga  Ga13  1  0.50000000  0.00000000  0.50000000  1
  Ni  Ni14  1  0.85938302  0.50000000  0.35938302  1
  Ni  Ni15  1  0.14061698  0.50000000  0.64061698  1
  Ni  Ni16  1  0.00000000  0.12113032  0.12113032  1
  Ni  Ni17  1  0.00000000  0.87886968  0.87886968  1
