# generated using pymatgen
data_HfSiOs
_symmetry_space_group_name_H-M   'P 1'
_cell_length_a   6.66321876
_cell_length_b   7.40048578
_cell_length_c   7.60427881
_cell_angle_alpha   119.11736534
_cell_angle_beta   115.98418179
_cell_angle_gamma   90.00000000
_symmetry_Int_Tables_number   1
_chemical_formula_structural   HfSiOs
_chemical_formula_sum   'Hf6 Si6 Os6'
_cell_volume   283.41476614
_cell_formula_units_Z   6
loop_
 _symmetry_equiv_pos_site_id
 _symmetry_equiv_pos_as_xyz
  1  'x, y, z'
loop_
 _atom_site_type_symbol
 _atom_site_label
 _atom_site_symmetry_multiplicity
 _atom_site_fract_x
 _atom_site_fract_y
 _atom_site_fract_z
 _atom_site_occupancy
  Hf  Hf0  1  0.90450781  0.94921128  0.39842257  1
  Hf  Hf1  1  0.50608524  0.05078872  0.60157743  1
  Hf  Hf2  1  0.50713356  0.52923940  0.55847880  1
  Hf  Hf3  1  0.94865476  0.47076060  0.44152120  1
  Hf  Hf4  1  0.08025835  0.74716554  0.99433109  1
  Hf  Hf5  1  0.08592726  0.25283446  0.00566891  1
  Si  Si6  1  0.17143823  0.67310067  0.33429622  1
  Si  Si7  1  0.83714201  0.32689933  0.66570378  1
  Si  Si8  1  0.17143823  0.16119555  0.33429622  1
  Si  Si9  1  0.83714201  0.83880445  0.66570378  1
  Si  Si10  1  0.46851557  0.72372946  0.94745891  1
  Si  Si11  1  0.52105666  0.27627054  0.05254109  1
  Os  Os12  1  0.25417214  0.90373638  0.75095224  1
  Os  Os13  1  0.50321991  0.09626362  0.24904776  1
  Os  Os14  1  0.25417214  0.34721585  0.75095224  1
  Os  Os15  1  0.50321991  0.65278415  0.24904776  1
  Os  Os16  1  0.75095811  0.50000000  -0.00000000  1
  Os  Os17  1  0.75095811  -0.00000000  -0.00000000  1
