# generated using pymatgen
data_Ba2SmGaSe5
_symmetry_space_group_name_H-M   'P 1'
_cell_length_a   7.43316055
_cell_length_b   8.87665331
_cell_length_c   9.61789042
_cell_angle_alpha   103.71251575
_cell_angle_beta   103.00361903
_cell_angle_gamma   107.52342477
_symmetry_Int_Tables_number   1
_chemical_formula_structural   Ba2SmGaSe5
_chemical_formula_sum   'Ba4 Sm2 Ga2 Se10'
_cell_volume   557.00614810
_cell_formula_units_Z   2
loop_
 _symmetry_equiv_pos_site_id
 _symmetry_equiv_pos_as_xyz
  1  'x, y, z'
loop_
 _atom_site_type_symbol
 _atom_site_label
 _atom_site_symmetry_multiplicity
 _atom_site_fract_x
 _atom_site_fract_y
 _atom_site_fract_z
 _atom_site_occupancy
  Ba  Ba0  1  0.63427263  0.97840811  0.29271750  1
  Ba  Ba1  1  0.36572737  0.02159189  0.70728250  1
  Ba  Ba2  1  0.34006510  0.50960134  0.70508355  1
  Ba  Ba3  1  0.65993490  0.49039866  0.29491645  1
  Sm  Sm4  1  0.99723811  0.73071769  0.99756967  1
  Sm  Sm5  1  0.00276189  0.26928231  0.00243033  1
  Ga  Ga6  1  0.80436949  0.87108871  0.68695053  1
  Ga  Ga7  1  0.19563051  0.12891129  0.31304947  1
  Se  Se8  1  0.98843598  0.68565212  0.68130994  1
  Se  Se9  1  0.01156402  0.31434788  0.31869006  1
  Se  Se10  1  0.98286303  0.14954233  0.68525107  1
  Se  Se11  1  0.01713697  0.85045767  0.31474893  1
  Se  Se12  1  0.70723546  0.90605899  0.92258764  1
  Se  Se13  1  0.29276454  0.09394101  0.07741236  1
  Se  Se14  1  0.70203773  0.40966593  0.94509834  1
  Se  Se15  1  0.29796227  0.59033407  0.05490166  1
  Se  Se16  1  0.48881491  0.74042592  0.49223555  1
  Se  Se17  1  0.51118509  0.25957408  0.50776445  1
