# generated using pymatgen
data_NaPS3
_symmetry_space_group_name_H-M   'P 1'
_cell_length_a   6.73970089
_cell_length_b   7.89050060
_cell_length_c   9.13262406
_cell_angle_alpha   90.00000000
_cell_angle_beta   90.21934735
_cell_angle_gamma   90.00000000
_symmetry_Int_Tables_number   1
_chemical_formula_structural   NaPS3
_chemical_formula_sum   'Na4 P4 S12'
_cell_volume   485.66586234
_cell_formula_units_Z   4
loop_
 _symmetry_equiv_pos_site_id
 _symmetry_equiv_pos_as_xyz
  1  'x, y, z'
loop_
 _atom_site_type_symbol
 _atom_site_label
 _atom_site_symmetry_multiplicity
 _atom_site_fract_x
 _atom_site_fract_y
 _atom_site_fract_z
 _atom_site_occupancy
  Na  Na0  1  0.28687849  0.48640982  0.70931967  1
  Na  Na1  1  0.71312151  0.98640982  0.29068033  1
  Na  Na2  1  0.71312151  0.51359018  0.29068033  1
  Na  Na3  1  0.28687849  0.01359018  0.70931967  1
  P  P4  1  0.78740690  0.25000000  0.61231316  1
  P  P5  1  0.21259310  0.75000000  0.38768684  1
  P  P6  1  0.67702926  0.25000000  0.92343811  1
  P  P7  1  0.32297074  0.75000000  0.07656189  1
  S  S8  1  0.23456453  0.94845283  0.22826376  1
  S  S9  1  0.76543547  0.44845283  0.77173624  1
  S  S10  1  0.76543547  0.05154717  0.77173624  1
  S  S11  1  0.23456453  0.55154717  0.22826376  1
  S  S12  1  0.38272082  0.25000000  0.95108501  1
  S  S13  1  0.61727918  0.75000000  0.04891499  1
  S  S14  1  0.54981206  0.25000000  0.47971860  1
  S  S15  1  0.45018794  0.75000000  0.52028140  1
  S  S16  1  0.85498024  0.25000000  0.09640130  1
  S  S17  1  0.14501976  0.75000000  0.90359870  1
  S  S18  1  0.05121223  0.25000000  0.51364944  1
  S  S19  1  0.94878777  0.75000000  0.48635056  1
