# generated using pymatgen
data_Pr(FeAs3)4
_symmetry_space_group_name_H-M   'P 1'
_cell_length_a   7.25921667
_cell_length_b   7.25921667
_cell_length_c   7.25921667
_cell_angle_alpha   109.47122063
_cell_angle_beta   109.47122063
_cell_angle_gamma   109.47122063
_symmetry_Int_Tables_number   1
_chemical_formula_structural   Pr(FeAs3)4
_chemical_formula_sum   'Pr1 Fe4 As12'
_cell_volume   294.47429276
_cell_formula_units_Z   1
loop_
 _symmetry_equiv_pos_site_id
 _symmetry_equiv_pos_as_xyz
  1  'x, y, z'
loop_
 _atom_site_type_symbol
 _atom_site_label
 _atom_site_symmetry_multiplicity
 _atom_site_fract_x
 _atom_site_fract_y
 _atom_site_fract_z
 _atom_site_occupancy
  Pr  Pr0  1  0.00000000  -0.00000000  0.00000000  1
  Fe  Fe1  1  0.00000000  -0.00000000  0.50000000  1
  Fe  Fe2  1  0.50000000  -0.00000000  -0.00000000  1
  Fe  Fe3  1  0.00000000  0.50000000  0.00000000  1
  Fe  Fe4  1  0.50000000  0.50000000  0.50000000  1
  As  As5  1  0.34268110  0.18598776  0.84330666  1
  As  As6  1  0.65731890  0.81401224  0.15669334  1
  As  As7  1  0.65731890  0.50062557  0.84330666  1
  As  As8  1  0.34268110  0.49937443  0.15669334  1
  As  As9  1  0.18598776  0.84330666  0.34268110  1
  As  As10  1  0.81401224  0.15669334  0.65731890  1
  As  As11  1  0.50062557  0.84330666  0.65731890  1
  As  As12  1  0.49937443  0.15669334  0.34268110  1
  As  As13  1  0.84330666  0.34268110  0.18598776  1
  As  As14  1  0.15669334  0.65731890  0.81401224  1
  As  As15  1  0.84330666  0.65731890  0.50062557  1
  As  As16  1  0.15669334  0.34268110  0.49937443  1
