# generated using pymatgen
data_CsAlTe3
_symmetry_space_group_name_H-M   'P 1'
_cell_length_a   7.30816286
_cell_length_b   8.29750825
_cell_length_c   14.13581518
_cell_angle_alpha   90.00000000
_cell_angle_beta   90.00000000
_cell_angle_gamma   104.35537181
_symmetry_Int_Tables_number   1
_chemical_formula_structural   CsAlTe3
_chemical_formula_sum   'Cs4 Al4 Te12'
_cell_volume   830.42496531
_cell_formula_units_Z   4
loop_
 _symmetry_equiv_pos_site_id
 _symmetry_equiv_pos_as_xyz
  1  'x, y, z'
loop_
 _atom_site_type_symbol
 _atom_site_label
 _atom_site_symmetry_multiplicity
 _atom_site_fract_x
 _atom_site_fract_y
 _atom_site_fract_z
 _atom_site_occupancy
  Cs  Cs0  1  0.21000796  0.74453823  0.41996869  1
  Cs  Cs1  1  0.28999204  0.25546177  0.91996869  1
  Cs  Cs2  1  0.78999204  0.25546177  0.58003131  1
  Cs  Cs3  1  0.71000796  0.74453823  0.08003131  1
  Al  Al4  1  0.15114718  0.17919776  0.27310884  1
  Al  Al5  1  0.34885282  0.82080224  0.77310884  1
  Al  Al6  1  0.84885282  0.82080224  0.72689116  1
  Al  Al7  1  0.65114718  0.17919776  0.22689116  1
  Te  Te8  1  0.64791704  0.45561435  0.32062564  1
  Te  Te9  1  0.85208296  0.54438565  0.82062564  1
  Te  Te10  1  0.35208296  0.54438565  0.67937436  1
  Te  Te11  1  0.14791704  0.45561435  0.17937436  1
  Te  Te12  1  0.32360001  0.99576159  0.16900804  1
  Te  Te13  1  0.17639999  0.00423841  0.66900804  1
  Te  Te14  1  0.67639999  0.00423841  0.83099196  1
  Te  Te15  1  0.82360001  0.99576159  0.33099196  1
  Te  Te16  1  0.34469063  0.28123912  0.42918125  1
  Te  Te17  1  0.15530937  0.71876088  0.92918125  1
  Te  Te18  1  0.65530937  0.71876088  0.57081875  1
  Te  Te19  1  0.84469063  0.28123912  0.07081875  1
