# generated using pymatgen
data_TbGePd
_symmetry_space_group_name_H-M   'P 1'
_cell_length_a   4.42651504
_cell_length_b   7.64661495
_cell_length_c   11.47226221
_cell_angle_alpha   109.46709189
_cell_angle_beta   101.12338993
_cell_angle_gamma   90.00000000
_symmetry_Int_Tables_number   1
_chemical_formula_structural   TbGePd
_chemical_formula_sum   'Tb6 Ge6 Pd6'
_cell_volume   358.36649247
_cell_formula_units_Z   6
loop_
 _symmetry_equiv_pos_site_id
 _symmetry_equiv_pos_as_xyz
  1  'x, y, z'
loop_
 _atom_site_type_symbol
 _atom_site_label
 _atom_site_symmetry_multiplicity
 _atom_site_fract_x
 _atom_site_fract_y
 _atom_site_fract_z
 _atom_site_occupancy
  Tb  Tb0  1  1.00000000  0.53516599  1.00000000  1
  Tb  Tb1  1  0.66615754  0.20135864  0.33231509  1
  Tb  Tb2  1  0.33384246  0.86904355  0.66768491  1
  Tb  Tb3  1  0.50000000  0.95212992  0.00000000  1
  Tb  Tb4  1  0.83273186  0.29110027  0.66546372  1
  Tb  Tb5  1  0.16726814  0.62563654  0.33453628  1
  Ge  Ge6  1  0.93526956  0.09007239  0.87053912  1
  Ge  Ge7  1  0.06473044  0.21953327  0.12946088  1
  Ge  Ge8  1  0.76518208  0.60114790  0.53036417  1
  Ge  Ge9  1  0.23481792  0.07078373  0.46963583  1
  Ge  Ge10  1  0.59406437  0.74951886  0.18812874  1
  Ge  Ge11  1  0.40593563  0.56139012  0.81187126  1
  Pd  Pd12  1  0.89598549  0.72278917  0.79197099  1
  Pd  Pd13  1  0.10401451  0.93081818  0.20802901  1
  Pd  Pd14  1  0.73367274  0.89918521  0.46734549  1
  Pd  Pd15  1  0.26632726  0.43183973  0.53265451  1
  Pd  Pd16  1  0.57174508  0.39545835  0.14349016  1
  Pd  Pd17  1  0.42825492  0.25196819  0.85650984  1
