# generated using pymatgen
data_NbReSi
_symmetry_space_group_name_H-M   'P 1'
_cell_length_a   6.73574115
_cell_length_b   7.03806616
_cell_length_c   7.58120153
_cell_angle_alpha   117.65708877
_cell_angle_beta   116.37470867
_cell_angle_gamma   90.00000000
_symmetry_Int_Tables_number   1
_chemical_formula_structural   NbReSi
_chemical_formula_sum   'Nb6 Re6 Si6'
_cell_volume   275.40115655
_cell_formula_units_Z   6
loop_
 _symmetry_equiv_pos_site_id
 _symmetry_equiv_pos_as_xyz
  1  'x, y, z'
loop_
 _atom_site_type_symbol
 _atom_site_label
 _atom_site_symmetry_multiplicity
 _atom_site_fract_x
 _atom_site_fract_y
 _atom_site_fract_z
 _atom_site_occupancy
  Nb  Nb0  1  0.90521782  0.94616289  0.39232578  1
  Nb  Nb1  1  0.51289204  0.05383711  0.60767422  1
  Nb  Nb2  1  0.50131673  0.53488151  0.56976302  1
  Nb  Nb3  1  0.93155371  0.46511849  0.43023698  1
  Nb  Nb4  1  0.08801496  0.74664893  0.99329786  1
  Nb  Nb5  1  0.09471711  0.25335107  0.00670214  1
  Re  Re6  1  0.75320358  0.50000000  1.00000000  1
  Re  Re7  1  0.75320358  1.00000000  1.00000000  1
  Re  Re8  1  0.25149678  0.90920384  0.74746066  1
  Re  Re9  1  0.50403613  0.09079616  0.25253934  1
  Re  Re10  1  0.25149678  0.33825681  0.74746066  1
  Re  Re11  1  0.50403613  0.66174319  0.25253934  1
  Si  Si12  1  0.46347790  0.72183892  0.94367785  1
  Si  Si13  1  0.51980005  0.27816108  0.05632215  1
  Si  Si14  1  0.17322746  0.67143648  0.33478658  1
  Si  Si15  1  0.83844088  0.32856352  0.66521342  1
  Si  Si16  1  0.17322746  0.16335011  0.33478658  1
  Si  Si17  1  0.83844088  0.83664989  0.66521342  1
