# generated using pymatgen
data_Er6GaCo2
_symmetry_space_group_name_H-M   'P 1'
_cell_length_a   8.23161439
_cell_length_b   8.23161439
_cell_length_c   8.23161439
_cell_angle_alpha   106.38451750
_cell_angle_beta   110.18560294
_cell_angle_gamma   111.89182612
_symmetry_Int_Tables_number   1
_chemical_formula_structural   Er6GaCo2
_chemical_formula_sum   'Er12 Ga2 Co4'
_cell_volume   428.34254920
_cell_formula_units_Z   2
loop_
 _symmetry_equiv_pos_site_id
 _symmetry_equiv_pos_as_xyz
  1  'x, y, z'
loop_
 _atom_site_type_symbol
 _atom_site_label
 _atom_site_symmetry_multiplicity
 _atom_site_fract_x
 _atom_site_fract_y
 _atom_site_fract_z
 _atom_site_occupancy
  Er  Er0  1  0.70036922  0.26719867  0.96756788  1
  Er  Er1  1  0.29963078  0.73280133  0.03243212  1
  Er  Er2  1  0.70036922  0.73280133  0.43317055  1
  Er  Er3  1  0.29963078  0.26719867  0.56682945  1
  Er  Er4  1  0.80426021  0.12309298  0.31883277  1
  Er  Er5  1  0.80426021  0.48542744  0.68116723  1
  Er  Er6  1  0.19573979  0.87690702  0.68116723  1
  Er  Er7  1  0.19573979  0.51457256  0.31883277  1
  Er  Er8  1  0.59985305  0.78313969  0.81671336  1
  Er  Er9  1  0.96642633  0.78313969  0.18328664  1
  Er  Er10  1  0.03357367  0.21686031  0.81671336  1
  Er  Er11  1  0.40014695  0.21686031  0.18328664  1
  Ga  Ga12  1  0.50000000  0.50000000  -0.00000000  1
  Ga  Ga13  1  0.50000000  -0.00000000  0.50000000  1
  Co  Co14  1  0.87468536  0.50000000  0.37468536  1
  Co  Co15  1  0.12531464  0.50000000  0.62531464  1
  Co  Co16  1  -0.00000000  0.11378189  0.11378189  1
  Co  Co17  1  -0.00000000  0.88621811  0.88621811  1
