# generated using pymatgen
data_Tb7RhBr12
_symmetry_space_group_name_H-M   'P 1'
_cell_length_a   9.31381208
_cell_length_b   9.31381208
_cell_length_c   9.31381207
_cell_angle_alpha   107.17820197
_cell_angle_beta   107.17820197
_cell_angle_gamma   107.17819307
_symmetry_Int_Tables_number   1
_chemical_formula_structural   Tb7RhBr12
_chemical_formula_sum   'Tb7 Rh1 Br12'
_cell_volume   669.56751151
_cell_formula_units_Z   1
loop_
 _symmetry_equiv_pos_site_id
 _symmetry_equiv_pos_as_xyz
  1  'x, y, z'
loop_
 _atom_site_type_symbol
 _atom_site_label
 _atom_site_symmetry_multiplicity
 _atom_site_fract_x
 _atom_site_fract_y
 _atom_site_fract_z
 _atom_site_occupancy
  Tb  Tb0  1  0.10282653  0.31063503  0.02611172  1
  Tb  Tb1  1  0.31063503  0.02611172  0.10282653  1
  Tb  Tb2  1  0.02611172  0.10282653  0.31063503  1
  Tb  Tb3  1  0.89717347  0.68936497  0.97388828  1
  Tb  Tb4  1  0.68936497  0.97388828  0.89717347  1
  Tb  Tb5  1  0.97388828  0.89717347  0.68936497  1
  Tb  Tb6  1  0.50000000  0.50000000  0.50000000  1
  Rh  Rh7  1  -0.00000000  -0.00000000  0.00000000  1
  Br  Br8  1  0.21959943  0.67996023  0.07228886  1
  Br  Br9  1  0.67996023  0.07228886  0.21959943  1
  Br  Br10  1  0.07228886  0.21959943  0.67996023  1
  Br  Br11  1  0.78040057  0.32003977  0.92771114  1
  Br  Br12  1  0.32003977  0.92771114  0.78040057  1
  Br  Br13  1  0.92771114  0.78040057  0.32003977  1
  Br  Br14  1  0.17039926  0.46814335  0.39030982  1
  Br  Br15  1  0.46814335  0.39030982  0.17039926  1
  Br  Br16  1  0.39030982  0.17039926  0.46814335  1
  Br  Br17  1  0.82960074  0.53185665  0.60969018  1
  Br  Br18  1  0.53185665  0.60969018  0.82960074  1
  Br  Br19  1  0.60969018  0.82960074  0.53185665  1
