# generated using pymatgen
data_BaYMn2O5
_symmetry_space_group_name_H-M   'P 1'
_cell_length_a   5.62208892
_cell_length_b   5.62208892
_cell_length_c   7.84212557
_cell_angle_alpha   90.00000000
_cell_angle_beta   90.00000000
_cell_angle_gamma   90.00000000
_symmetry_Int_Tables_number   1
_chemical_formula_structural   BaYMn2O5
_chemical_formula_sum   'Ba2 Y2 Mn4 O10'
_cell_volume   247.87299395
_cell_formula_units_Z   2
loop_
 _symmetry_equiv_pos_site_id
 _symmetry_equiv_pos_as_xyz
  1  'x, y, z'
loop_
 _atom_site_type_symbol
 _atom_site_label
 _atom_site_symmetry_multiplicity
 _atom_site_fract_x
 _atom_site_fract_y
 _atom_site_fract_z
 _atom_site_occupancy
  Ba  Ba0  1  0.75000000  0.25000000  0.00000000  1
  Ba  Ba1  1  0.25000000  0.75000000  0.00000000  1
  Y  Y2  1  0.75000000  0.25000000  0.50000000  1
  Y  Y3  1  0.25000000  0.75000000  0.50000000  1
  Mn  Mn4  1  0.75000000  0.75000000  0.25631536  1
  Mn  Mn5  1  0.25000000  0.25000000  0.74368464  1
  Mn  Mn6  1  0.75000000  0.75000000  0.72515709  1
  Mn  Mn7  1  0.25000000  0.25000000  0.27484291  1
  O  O8  1  0.99400663  0.99400663  0.68037616  1
  O  O9  1  0.50599337  0.99400663  0.68037616  1
  O  O10  1  0.99400663  0.50599337  0.68037616  1
  O  O11  1  0.50599337  0.50599337  0.68037616  1
  O  O12  1  0.00599337  0.00599337  0.31962384  1
  O  O13  1  0.49400663  0.00599337  0.31962384  1
  O  O14  1  0.00599337  0.49400663  0.31962384  1
  O  O15  1  0.49400663  0.49400663  0.31962384  1
  O  O16  1  0.75000000  0.75000000  0.99279255  1
  O  O17  1  0.25000000  0.25000000  0.00720745  1
