# generated using pymatgen
data_Ce5Ga2Ge
_symmetry_space_group_name_H-M   'P 1'
_cell_length_a   8.00860795
_cell_length_b   8.00860795
_cell_length_c   8.41478554
_cell_angle_alpha   118.41569815
_cell_angle_beta   118.41569815
_cell_angle_gamma   90.00000000
_symmetry_Int_Tables_number   1
_chemical_formula_structural   Ce5Ga2Ge
_chemical_formula_sum   'Ce10 Ga4 Ge2'
_cell_volume   399.20163477
_cell_formula_units_Z   2
loop_
 _symmetry_equiv_pos_site_id
 _symmetry_equiv_pos_as_xyz
  1  'x, y, z'
loop_
 _atom_site_type_symbol
 _atom_site_label
 _atom_site_symmetry_multiplicity
 _atom_site_fract_x
 _atom_site_fract_y
 _atom_site_fract_z
 _atom_site_occupancy
  Ce  Ce0  1  0.50000000  0.50000000  -0.00000000  1
  Ce  Ce1  1  -0.00000000  -0.00000000  -0.00000000  1
  Ce  Ce2  1  0.98439368  0.83607499  0.32046867  1
  Ce  Ce3  1  0.33607499  0.48439368  0.32046867  1
  Ce  Ce4  1  0.83607499  0.33607499  0.32046867  1
  Ce  Ce5  1  0.48439368  0.98439368  0.32046867  1
  Ce  Ce6  1  0.01560632  0.16392501  0.67953133  1
  Ce  Ce7  1  0.66392501  0.51560632  0.67953133  1
  Ce  Ce8  1  0.16392501  0.66392501  0.67953133  1
  Ce  Ce9  1  0.51560632  0.01560632  0.67953133  1
  Ga  Ga10  1  0.62097963  0.87902037  -0.00000000  1
  Ga  Ga11  1  0.37902037  0.12097963  -0.00000000  1
  Ga  Ga12  1  0.87902037  0.37902037  1.00000000  1
  Ga  Ga13  1  0.12097963  0.62097963  0.00000000  1
  Ge  Ge14  1  0.75000000  0.75000000  0.50000000  1
  Ge  Ge15  1  0.25000000  0.25000000  0.50000000  1
