# generated using pymatgen
data_ErGa2Co3
_symmetry_space_group_name_H-M   'P 1'
_cell_length_a   3.83659984
_cell_length_b   8.92540230
_cell_length_c   8.92753239
_cell_angle_alpha   119.99210914
_cell_angle_beta   90.00000000
_cell_angle_gamma   90.00000000
_symmetry_Int_Tables_number   1
_chemical_formula_structural   ErGa2Co3
_chemical_formula_sum   'Er3 Ga6 Co9'
_cell_volume   264.77129380
_cell_formula_units_Z   3
loop_
 _symmetry_equiv_pos_site_id
 _symmetry_equiv_pos_as_xyz
  1  'x, y, z'
loop_
 _atom_site_type_symbol
 _atom_site_label
 _atom_site_symmetry_multiplicity
 _atom_site_fract_x
 _atom_site_fract_y
 _atom_site_fract_z
 _atom_site_occupancy
  Er  Er0  1  -0.00000000  0.00023729  1.00000000  1
  Er  Er1  1  0.50000000  0.33308001  0.66642360  1
  Er  Er2  1  0.50000000  0.66665641  0.33357640  1
  Ga  Ga3  1  0.50000000  0.31544003  0.00000000  1
  Ga  Ga4  1  0.50000000  0.68429235  0.68417914  1
  Ga  Ga5  1  0.50000000  0.00011321  0.31582086  1
  Ga  Ga6  1  0.50000000  0.68449828  1.00000000  1
  Ga  Ga7  1  0.50000000  0.31573653  0.31572539  1
  Ga  Ga8  1  0.50000000  0.00001114  0.68427461  1
  Co  Co9  1  -0.00000000  0.50000600  -0.00000000  1
  Co  Co10  1  -0.00000000  0.49999698  0.50000174  1
  Co  Co11  1  0.00000000  0.99999524  0.49999826  1
  Co  Co12  1  -0.00000000  0.18324262  0.36637496  1
  Co  Co13  1  0.00000000  0.18333215  0.81668315  1
  Co  Co14  1  -0.00000000  0.63312733  0.81650957  1
  Co  Co15  1  -0.00000000  0.81686766  0.63362504  1
  Co  Co16  1  0.00000000  0.36664901  0.18331685  1
  Co  Co17  1  -0.00000000  0.81661776  0.18349043  1
