# generated using pymatgen
data_Nd2Zn5Pb
_symmetry_space_group_name_H-M   'P 1'
_cell_length_a   4.50198300
_cell_length_b   8.63995796
_cell_length_c   9.14684657
_cell_angle_alpha   90.00000000
_cell_angle_beta   90.00000000
_cell_angle_gamma   105.10167021
_symmetry_Int_Tables_number   1
_chemical_formula_structural   Nd2Zn5Pb
_chemical_formula_sum   'Nd4 Zn10 Pb2'
_cell_volume   343.49737692
_cell_formula_units_Z   2
loop_
 _symmetry_equiv_pos_site_id
 _symmetry_equiv_pos_as_xyz
  1  'x, y, z'
loop_
 _atom_site_type_symbol
 _atom_site_label
 _atom_site_symmetry_multiplicity
 _atom_site_fract_x
 _atom_site_fract_y
 _atom_site_fract_z
 _atom_site_occupancy
  Nd  Nd0  1  0.79516625  0.59033250  0.25000000  1
  Nd  Nd1  1  0.20483375  0.40966750  0.75000000  1
  Nd  Nd2  1  0.00000000  0.00000000  0.50000000  1
  Nd  Nd3  1  0.00000000  0.00000000  0.00000000  1
  Zn  Zn4  1  0.18575935  0.37151870  0.39131386  1
  Zn  Zn5  1  0.81424065  0.62848130  0.60868614  1
  Zn  Zn6  1  0.18575935  0.37151870  0.10868614  1
  Zn  Zn7  1  0.81424065  0.62848130  0.89131386  1
  Zn  Zn8  1  0.34194899  0.68389798  0.48522865  1
  Zn  Zn9  1  0.65805101  0.31610202  0.51477135  1
  Zn  Zn10  1  0.34194899  0.68389798  0.01477135  1
  Zn  Zn11  1  0.65805101  0.31610202  0.98522865  1
  Zn  Zn12  1  0.60833152  0.21666304  0.25000000  1
  Zn  Zn13  1  0.39166848  0.78333696  0.75000000  1
  Pb  Pb14  1  0.44619407  0.89238815  0.25000000  1
  Pb  Pb15  1  0.55380593  0.10761185  0.75000000  1
