# generated using pymatgen
data_Hf5GaSn3
_symmetry_space_group_name_H-M   'P 1'
_cell_length_a   5.82935533
_cell_length_b   8.66216842
_cell_length_c   8.66146594
_cell_angle_alpha   120.00267700
_cell_angle_beta   90.00000000
_cell_angle_gamma   90.00000000
_symmetry_Int_Tables_number   1
_chemical_formula_structural   Hf5GaSn3
_chemical_formula_sum   'Hf10 Ga2 Sn6'
_cell_volume   378.75421117
_cell_formula_units_Z   2
loop_
 _symmetry_equiv_pos_site_id
 _symmetry_equiv_pos_as_xyz
  1  'x, y, z'
loop_
 _atom_site_type_symbol
 _atom_site_label
 _atom_site_symmetry_multiplicity
 _atom_site_fract_x
 _atom_site_fract_y
 _atom_site_fract_z
 _atom_site_occupancy
  Hf  Hf0  1  0.74999571  0.26771343  0.00000000  1
  Hf  Hf1  1  0.75000223  0.73229528  0.73228261  1
  Hf  Hf2  1  0.75000223  0.00001267  0.26771739  1
  Hf  Hf3  1  0.24999571  0.73228657  1.00000000  1
  Hf  Hf4  1  0.25000223  0.26770472  0.26771739  1
  Hf  Hf5  1  0.25000223  0.99998733  0.73228261  1
  Hf  Hf6  1  0.49999959  0.33329879  0.66666959  1
  Hf  Hf7  1  0.49999959  0.66662920  0.33333041  1
  Hf  Hf8  1  -0.00000041  0.66670121  0.33333041  1
  Hf  Hf9  1  -0.00000041  0.33337080  0.66666959  1
  Ga  Ga10  1  0.49999964  0.00000031  -0.00000000  1
  Ga  Ga11  1  0.99999964  0.99999969  0.00000000  1
  Sn  Sn12  1  0.74999814  0.61125839  1.00000000  1
  Sn  Sn13  1  0.75000143  0.38875240  0.38876624  1
  Sn  Sn14  1  0.75000143  0.99998616  0.61123376  1
  Sn  Sn15  1  0.24999814  0.38874161  0.00000000  1
  Sn  Sn16  1  0.25000143  0.61124760  0.61123376  1
  Sn  Sn17  1  0.25000143  0.00001384  0.38876624  1
