# generated using pymatgen
data_BeCN2
_symmetry_space_group_name_H-M   'P 1'
_cell_length_a   4.25227477
_cell_length_b   4.41012245
_cell_length_c   5.30470063
_cell_angle_alpha   90.00000000
_cell_angle_beta   90.00000000
_cell_angle_gamma   90.00000000
_symmetry_Int_Tables_number   1
_chemical_formula_structural   BeCN2
_chemical_formula_sum   'Be4 C4 N8'
_cell_volume   99.47932902
_cell_formula_units_Z   4
loop_
 _symmetry_equiv_pos_site_id
 _symmetry_equiv_pos_as_xyz
  1  'x, y, z'
loop_
 _atom_site_type_symbol
 _atom_site_label
 _atom_site_symmetry_multiplicity
 _atom_site_fract_x
 _atom_site_fract_y
 _atom_site_fract_z
 _atom_site_occupancy
  Be  Be0  1  0.99245360  0.58577007  0.87511280  1
  Be  Be1  1  0.49245360  0.41422993  0.12488720  1
  Be  Be2  1  0.49245360  0.91422993  0.37511280  1
  Be  Be3  1  0.99245360  0.08577007  0.62488720  1
  C  C4  1  0.99342006  0.56790834  0.37506712  1
  C  C5  1  0.49342006  0.43209166  0.62493288  1
  C  C6  1  0.49342006  0.93209166  0.87506712  1
  C  C7  1  0.99342006  0.06790834  0.12493288  1
  N  N8  1  0.34828146  0.55876822  0.39684152  1
  N  N9  1  0.84828146  0.44123178  0.60315848  1
  N  N10  1  0.84828146  0.94123178  0.89684152  1
  N  N11  1  0.34828146  0.05876822  0.10315848  1
  N  N12  1  0.39114488  0.60784292  0.85230264  1
  N  N13  1  0.89114488  0.39215708  0.14769736  1
  N  N14  1  0.89114488  0.89215708  0.35230264  1
  N  N15  1  0.39114488  0.10784292  0.64769736  1
