# generated using pymatgen
data_Co(NiS2)2
_symmetry_space_group_name_H-M   'P 1'
_cell_length_a   3.36792286
_cell_length_b   5.91782182
_cell_length_c   5.18138259
_cell_angle_alpha   92.57958590
_cell_angle_beta   90.03240695
_cell_angle_gamma   89.99099841
_symmetry_Int_Tables_number   1
_chemical_formula_structural   Co(NiS2)2
_chemical_formula_sum   'Co1 Ni2 S4'
_cell_volume   103.16426819
_cell_formula_units_Z   1
loop_
 _symmetry_equiv_pos_site_id
 _symmetry_equiv_pos_as_xyz
  1  'x, y, z'
loop_
 _atom_site_type_symbol
 _atom_site_label
 _atom_site_symmetry_multiplicity
 _atom_site_fract_x
 _atom_site_fract_y
 _atom_site_fract_z
 _atom_site_occupancy
  Co  Co0  1  -0.00000000  0.00000000  0.50000000  1
  Ni  Ni1  1  0.50000000  0.50000000  0.50000000  1
  Ni  Ni2  1  -0.00000000  0.00000000  0.00000000  1
  S  S3  1  0.49991960  0.16370459  0.74562414  1
  S  S4  1  0.00009220  0.67895139  0.71540986  1
  S  S5  1  0.99990780  0.32104861  0.28459014  1
  S  S6  1  0.50008040  0.83629541  0.25437586  1
