# generated using pymatgen
data_DyGaPd2
_symmetry_space_group_name_H-M   'P 1'
_cell_length_a   5.60809923
_cell_length_b   7.16714904
_cell_length_c   7.40299610
_cell_angle_alpha   90.00000000
_cell_angle_beta   90.00000000
_cell_angle_gamma   90.00000000
_symmetry_Int_Tables_number   1
_chemical_formula_structural   DyGaPd2
_chemical_formula_sum   'Dy4 Ga4 Pd8'
_cell_volume   297.55663978
_cell_formula_units_Z   4
loop_
 _symmetry_equiv_pos_site_id
 _symmetry_equiv_pos_as_xyz
  1  'x, y, z'
loop_
 _atom_site_type_symbol
 _atom_site_label
 _atom_site_symmetry_multiplicity
 _atom_site_fract_x
 _atom_site_fract_y
 _atom_site_fract_z
 _atom_site_occupancy
  Dy  Dy0  1  0.14918919  0.75000000  0.46799953  1
  Dy  Dy1  1  0.35081081  0.75000000  0.96799953  1
  Dy  Dy2  1  0.85081081  0.25000000  0.53200047  1
  Dy  Dy3  1  0.64918919  0.25000000  0.03200047  1
  Ga  Ga4  1  0.85212942  0.75000000  0.11717118  1
  Ga  Ga5  1  0.64787058  0.75000000  0.61717118  1
  Ga  Ga6  1  0.14787058  0.25000000  0.88282882  1
  Ga  Ga7  1  0.35212942  0.25000000  0.38282882  1
  Pd  Pd8  1  0.58791720  0.94921233  0.31935471  1
  Pd  Pd9  1  0.91208280  0.55078767  0.81935471  1
  Pd  Pd10  1  0.41208280  0.44921233  0.68064529  1
  Pd  Pd11  1  0.08791720  0.05078767  0.18064529  1
  Pd  Pd12  1  0.41208280  0.05078767  0.68064529  1
  Pd  Pd13  1  0.08791720  0.44921233  0.18064529  1
  Pd  Pd14  1  0.58791720  0.55078767  0.31935471  1
  Pd  Pd15  1  0.91208280  0.94921233  0.81935471  1
