# generated using pymatgen
data_Nd2Zn5Sn
_symmetry_space_group_name_H-M   'P 1'
_cell_length_a   4.49174399
_cell_length_b   8.57902676
_cell_length_c   9.08156619
_cell_angle_alpha   90.00000000
_cell_angle_beta   90.00000000
_cell_angle_gamma   105.17608038
_symmetry_Int_Tables_number   1
_chemical_formula_structural   Nd2Zn5Sn
_chemical_formula_sum   'Nd4 Zn10 Sn2'
_cell_volume   337.75184211
_cell_formula_units_Z   2
loop_
 _symmetry_equiv_pos_site_id
 _symmetry_equiv_pos_as_xyz
  1  'x, y, z'
loop_
 _atom_site_type_symbol
 _atom_site_label
 _atom_site_symmetry_multiplicity
 _atom_site_fract_x
 _atom_site_fract_y
 _atom_site_fract_z
 _atom_site_occupancy
  Nd  Nd0  1  0.79503088  0.59006177  0.25000000  1
  Nd  Nd1  1  0.20496912  0.40993823  0.75000000  1
  Nd  Nd2  1  -0.00000000  -0.00000000  0.50000000  1
  Nd  Nd3  1  -0.00000000  -0.00000000  0.00000000  1
  Zn  Zn4  1  0.18591488  0.37182976  0.39221140  1
  Zn  Zn5  1  0.81408512  0.62817024  0.60778860  1
  Zn  Zn6  1  0.18591488  0.37182976  0.10778860  1
  Zn  Zn7  1  0.81408512  0.62817024  0.89221140  1
  Zn  Zn8  1  0.34402138  0.68804277  0.48372512  1
  Zn  Zn9  1  0.65597862  0.31195723  0.51627488  1
  Zn  Zn10  1  0.34402138  0.68804277  0.01627488  1
  Zn  Zn11  1  0.65597862  0.31195723  0.98372512  1
  Zn  Zn12  1  0.60541181  0.21082362  0.25000000  1
  Zn  Zn13  1  0.39458819  0.78917638  0.75000000  1
  Sn  Sn14  1  0.44601258  0.89202515  0.25000000  1
  Sn  Sn15  1  0.55398742  0.10797485  0.75000000  1
