# generated using pymatgen
data_Na2UTeO7
_symmetry_space_group_name_H-M   'P 1'
_cell_length_a   6.51009799
_cell_length_b   6.51009799
_cell_length_c   7.63293813
_cell_angle_alpha   90.00000000
_cell_angle_beta   90.00000000
_cell_angle_gamma   107.52148204
_symmetry_Int_Tables_number   1
_chemical_formula_structural   Na2UTeO7
_chemical_formula_sum   'Na4 U2 Te2 O14'
_cell_volume   308.48561731
_cell_formula_units_Z   2
loop_
 _symmetry_equiv_pos_site_id
 _symmetry_equiv_pos_as_xyz
  1  'x, y, z'
loop_
 _atom_site_type_symbol
 _atom_site_label
 _atom_site_symmetry_multiplicity
 _atom_site_fract_x
 _atom_site_fract_y
 _atom_site_fract_z
 _atom_site_occupancy
  Na  Na0  1  0.09802462  0.56206447  0.75000000  1
  Na  Na1  1  0.56206447  0.09802462  0.25000000  1
  Na  Na2  1  0.58807571  0.58807571  0.50000000  1
  Na  Na3  1  0.58807571  0.58807571  0.00000000  1
  U  U4  1  0.60498809  0.07838250  0.75000000  1
  U  U5  1  0.07838250  0.60498809  0.25000000  1
  Te  Te6  1  0.07399906  0.07399906  0.50000000  1
  Te  Te7  1  0.07399906  0.07399906  0.00000000  1
  O  O8  1  0.72434277  0.37841040  0.75000000  1
  O  O9  1  0.37841040  0.72434277  0.25000000  1
  O  O10  1  0.48335833  0.77613719  0.75000000  1
  O  O11  1  0.77613719  0.48335833  0.25000000  1
  O  O12  1  0.02832543  0.76837758  0.51365401  1
  O  O13  1  0.76837758  0.02832543  0.48634599  1
  O  O14  1  0.02832543  0.76837758  0.98634599  1
  O  O15  1  0.76837758  0.02832543  0.01365401  1
  O  O16  1  0.01106757  0.11918246  0.75000000  1
  O  O17  1  0.11918246  0.01106757  0.25000000  1
  O  O18  1  0.37673413  0.13294890  0.54898770  1
  O  O19  1  0.13294890  0.37673413  0.45101230  1
  O  O20  1  0.37673413  0.13294890  0.95101230  1
  O  O21  1  0.13294890  0.37673413  0.04898770  1
