# generated using pymatgen
data_Ho7(TeAu)2
_symmetry_space_group_name_H-M   'P 1'
_cell_length_a   3.99665257
_cell_length_b   9.33034728
_cell_length_c   17.12782644
_cell_angle_alpha   103.91911790
_cell_angle_beta   90.00000000
_cell_angle_gamma   102.36712554
_symmetry_Int_Tables_number   1
_chemical_formula_structural   Ho7(TeAu)2
_chemical_formula_sum   'Ho14 Te4 Au4'
_cell_volume   604.66440779
_cell_formula_units_Z   2
loop_
 _symmetry_equiv_pos_site_id
 _symmetry_equiv_pos_as_xyz
  1  'x, y, z'
loop_
 _atom_site_type_symbol
 _atom_site_label
 _atom_site_symmetry_multiplicity
 _atom_site_fract_x
 _atom_site_fract_y
 _atom_site_fract_z
 _atom_site_occupancy
  Ho  Ho0  1  0.00099990  0.00199981  0.33276814  1
  Ho  Ho1  1  0.99900010  0.99800019  0.66723186  1
  Ho  Ho2  1  0.17546572  0.35093143  0.53164115  1
  Ho  Ho3  1  0.82453428  0.64906857  0.46835885  1
  Ho  Ho4  1  0.19142719  0.38285439  0.31964330  1
  Ho  Ho5  1  0.80857281  0.61714561  0.68035670  1
  Ho  Ho6  1  0.33817680  0.67635360  0.01944059  1
  Ho  Ho7  1  0.66182320  0.32364640  0.98055941  1
  Ho  Ho8  1  0.57420818  0.14841635  0.17081808  1
  Ho  Ho9  1  0.42579182  0.85158365  0.82918192  1
  Ho  Ho10  1  0.78065261  0.56130523  0.19455312  1
  Ho  Ho11  1  0.21934739  0.43869477  0.80544688  1
  Ho  Ho12  1  0.50000000  0.00000000  0.50000000  1
  Ho  Ho13  1  0.00000000  0.00000000  0.00000000  1
  Te  Te14  1  0.36613902  0.73227803  0.33767192  1
  Te  Te15  1  0.63386098  0.26772197  0.66232808  1
  Te  Te16  1  0.06540889  0.13081779  0.85020684  1
  Te  Te17  1  0.93459111  0.86918221  0.14979316  1
  Au  Au18  1  0.17023194  0.34046388  0.11106553  1
  Au  Au19  1  0.82976806  0.65953612  0.88893447  1
  Au  Au20  1  0.38125610  0.76251220  0.60033962  1
  Au  Au21  1  0.61874390  0.23748780  0.39966038  1
