# generated using pymatgen
data_Eu2CoTe2(SO7)2
_symmetry_space_group_name_H-M   'P 1'
_cell_length_a   5.30390740
_cell_length_b   8.06272870
_cell_length_c   8.34634830
_cell_angle_alpha   63.39951724
_cell_angle_beta   73.80504703
_cell_angle_gamma   86.39856618
_symmetry_Int_Tables_number   1
_chemical_formula_structural   Eu2CoTe2(SO7)2
_chemical_formula_sum   'Eu2 Co1 Te2 S2 O14'
_cell_volume   305.67692581
_cell_formula_units_Z   1
loop_
 _symmetry_equiv_pos_site_id
 _symmetry_equiv_pos_as_xyz
  1  'x, y, z'
loop_
 _atom_site_type_symbol
 _atom_site_label
 _atom_site_symmetry_multiplicity
 _atom_site_fract_x
 _atom_site_fract_y
 _atom_site_fract_z
 _atom_site_occupancy
  Eu  Eu0  1  0.90901161  0.74604391  0.98987125  1
  Eu  Eu1  1  0.09098839  0.25395609  0.01012875  1
  Co  Co2  1  0.00000000  0.00000000  0.50000000  1
  Te  Te3  1  0.47951464  0.73475432  0.64565468  1
  Te  Te4  1  0.52048536  0.26524568  0.35434532  1
  S  S5  1  0.22950496  0.75417078  0.25551138  1
  S  S6  1  0.77049504  0.24582922  0.74448862  1
  O  O7  1  0.09262365  0.59365076  0.26584374  1
  O  O8  1  0.90737635  0.40634924  0.73415626  1
  O  O9  1  0.12267524  0.77675862  0.42973623  1
  O  O10  1  0.87732476  0.22324138  0.57026377  1
  O  O11  1  0.51504124  0.72825014  0.22956753  1
  O  O12  1  0.48495876  0.27174986  0.77043247  1
  O  O13  1  0.18155754  0.92184295  0.09142935  1
  O  O14  1  0.81844246  0.07815705  0.90857065  1
  O  O15  1  0.26715929  0.57300263  0.88575785  1
  O  O16  1  0.73284071  0.42699737  0.11424215  1
  O  O17  1  0.73180717  0.82647439  0.72109406  1
  O  O18  1  0.26819283  0.17352561  0.27890594  1
  O  O19  1  0.24738955  0.93233539  0.64764952  1
  O  O20  1  0.75261045  0.06766461  0.35235048  1
