# generated using pymatgen
data_HoPS
_symmetry_space_group_name_H-M   'P 1'
_cell_length_a   5.29330166
_cell_length_b   5.34767255
_cell_length_c   16.66243843
_cell_angle_alpha   90.00000000
_cell_angle_beta   90.00000000
_cell_angle_gamma   90.00000000
_symmetry_Int_Tables_number   1
_chemical_formula_structural   HoPS
_chemical_formula_sum   'Ho8 P8 S8'
_cell_volume   471.66104507
_cell_formula_units_Z   8
loop_
 _symmetry_equiv_pos_site_id
 _symmetry_equiv_pos_as_xyz
  1  'x, y, z'
loop_
 _atom_site_type_symbol
 _atom_site_label
 _atom_site_symmetry_multiplicity
 _atom_site_fract_x
 _atom_site_fract_y
 _atom_site_fract_z
 _atom_site_occupancy
  Ho  Ho0  1  0.75000000  0.01595018  0.13761957  1
  Ho  Ho1  1  0.75000000  0.51595018  0.36238043  1
  Ho  Ho2  1  0.25000000  0.98404982  0.86238043  1
  Ho  Ho3  1  0.25000000  0.48404982  0.63761957  1
  Ho  Ho4  1  0.75000000  0.48506516  0.85378300  1
  Ho  Ho5  1  0.75000000  0.98506516  0.64621700  1
  Ho  Ho6  1  0.25000000  0.51493484  0.14621700  1
  Ho  Ho7  1  0.25000000  0.01493484  0.35378300  1
  P  P8  1  0.96529594  0.20636427  0.50273212  1
  P  P9  1  0.53470406  0.70636427  0.99726788  1
  P  P10  1  0.46529594  0.79363573  0.49726788  1
  P  P11  1  0.03470406  0.29363573  0.00273212  1
  P  P12  1  0.03470406  0.79363573  0.49726788  1
  P  P13  1  0.46529594  0.29363573  0.00273212  1
  P  P14  1  0.53470406  0.20636427  0.50273212  1
  P  P15  1  0.96529594  0.70636427  0.99726788  1
  S  S16  1  0.75000000  0.01530174  0.31073747  1
  S  S17  1  0.75000000  0.51530174  0.18926253  1
  S  S18  1  0.25000000  0.98469826  0.68926253  1
  S  S19  1  0.25000000  0.48469826  0.81073747  1
  S  S20  1  0.75000000  0.48847859  0.68386242  1
  S  S21  1  0.75000000  0.98847859  0.81613758  1
  S  S22  1  0.25000000  0.51152141  0.31613758  1
  S  S23  1  0.25000000  0.01152141  0.18386242  1
