# generated using pymatgen
data_Na2Cd(GeS3)2
_symmetry_space_group_name_H-M   'P 1'
_cell_length_a   7.44504338
_cell_length_b   7.43731774
_cell_length_c   11.74496756
_cell_angle_alpha   85.48377088
_cell_angle_beta   80.94865411
_cell_angle_gamma   59.96563195
_symmetry_Int_Tables_number   1
_chemical_formula_structural   Na2Cd(GeS3)2
_chemical_formula_sum   'Na4 Cd2 Ge4 S12'
_cell_volume   555.99850129
_cell_formula_units_Z   2
loop_
 _symmetry_equiv_pos_site_id
 _symmetry_equiv_pos_as_xyz
  1  'x, y, z'
loop_
 _atom_site_type_symbol
 _atom_site_label
 _atom_site_symmetry_multiplicity
 _atom_site_fract_x
 _atom_site_fract_y
 _atom_site_fract_z
 _atom_site_occupancy
  Na  Na0  1  0.76557419  0.40150237  0.11965938  1
  Na  Na1  1  0.16707655  0.59849763  0.61965938  1
  Na  Na2  1  0.55753493  0.02276514  0.98645298  1
  Na  Na3  1  0.58030007  0.97723486  0.48645298  1
  Cd  Cd4  1  0.15242733  0.49788190  0.27925773  1
  Cd  Cd5  1  0.65030923  0.50211810  0.77925773  1
  Ge  Ge6  1  0.18680475  0.04891439  0.75379166  1
  Ge  Ge7  1  0.23571914  0.95108561  0.25379166  1
  Ge  Ge8  1  0.88919944  0.27552048  0.50137525  1
  Ge  Ge9  1  0.16471993  0.72447952  0.00137525  1
  S  S10  1  0.03134865  0.37259975  0.80730705  1
  S  S11  1  0.40394840  0.62740025  0.30730705  1
  S  S12  1  0.61021066  0.31370844  0.61811243  1
  S  S13  1  0.92391910  0.68629156  0.11811243  1
  S  S14  1  0.89009610  0.13318503  0.33653990  1
  S  S15  1  0.02328113  0.86681497  0.83653990  1
  S  S16  1  0.47589426  0.44170927  0.97370126  1
  S  S17  1  0.91760353  0.55829073  0.47370126  1
  S  S18  1  0.41612538  0.10928900  0.26253033  1
  S  S19  1  0.52541438  0.89071100  0.76253033  1
  S  S20  1  0.17988175  0.00042935  0.56470202  1
  S  S21  1  0.18031110  0.99957065  0.06470202  1
