# generated using pymatgen
data_EuAl2Ge
_symmetry_space_group_name_H-M   'P 1'
_cell_length_a   4.28312707
_cell_length_b   7.24650259
_cell_length_c   11.24303172
_cell_angle_alpha   90.00000000
_cell_angle_beta   90.00000000
_cell_angle_gamma   90.00000000
_symmetry_Int_Tables_number   1
_chemical_formula_structural   EuAl2Ge
_chemical_formula_sum   'Eu4 Al8 Ge4'
_cell_volume   348.95774899
_cell_formula_units_Z   4
loop_
 _symmetry_equiv_pos_site_id
 _symmetry_equiv_pos_as_xyz
  1  'x, y, z'
loop_
 _atom_site_type_symbol
 _atom_site_label
 _atom_site_symmetry_multiplicity
 _atom_site_fract_x
 _atom_site_fract_y
 _atom_site_fract_z
 _atom_site_occupancy
  Eu  Eu0  1  0.75000000  0.14016688  0.86028618  1
  Eu  Eu1  1  0.75000000  0.64016688  0.63971382  1
  Eu  Eu2  1  0.25000000  0.85983312  0.13971382  1
  Eu  Eu3  1  0.25000000  0.35983312  0.36028618  1
  Al  Al4  1  0.75000000  0.53276314  0.15683143  1
  Al  Al5  1  0.75000000  0.03276314  0.34316857  1
  Al  Al6  1  0.25000000  0.46723686  0.84316857  1
  Al  Al7  1  0.25000000  0.96723686  0.65683143  1
  Al  Al8  1  0.75000000  0.14787502  0.56385099  1
  Al  Al9  1  0.75000000  0.64787502  0.93614901  1
  Al  Al10  1  0.25000000  0.85212498  0.43614901  1
  Al  Al11  1  0.25000000  0.35212498  0.06385099  1
  Ge  Ge12  1  0.75000000  0.17493210  0.14093090  1
  Ge  Ge13  1  0.75000000  0.67493210  0.35906910  1
  Ge  Ge14  1  0.25000000  0.82506790  0.85906910  1
  Ge  Ge15  1  0.25000000  0.32506790  0.64093090  1
