# generated using pymatgen
data_Zr5Sn3Se
_symmetry_space_group_name_H-M   'P 1'
_cell_length_a   6.08365546
_cell_length_b   8.65656764
_cell_length_c   8.65668299
_cell_angle_alpha   119.99956417
_cell_angle_beta   90.00000000
_cell_angle_gamma   90.00000000
_symmetry_Int_Tables_number   1
_chemical_formula_structural   Zr5Sn3Se
_chemical_formula_sum   'Zr10 Sn6 Se2'
_cell_volume   394.81567783
_cell_formula_units_Z   2
loop_
 _symmetry_equiv_pos_site_id
 _symmetry_equiv_pos_as_xyz
  1  'x, y, z'
loop_
 _atom_site_type_symbol
 _atom_site_label
 _atom_site_symmetry_multiplicity
 _atom_site_fract_x
 _atom_site_fract_y
 _atom_site_fract_z
 _atom_site_occupancy
  Zr  Zr0  1  0.50000097  0.33332628  0.66665494  1
  Zr  Zr1  1  0.50000097  0.66667133  0.33334506  1
  Zr  Zr2  1  0.00000097  0.66667372  0.33334506  1
  Zr  Zr3  1  0.00000097  0.33332867  0.66665494  1
  Zr  Zr4  1  0.74999547  0.26322916  0.00000000  1
  Zr  Zr5  1  0.75000316  0.73676302  0.73675942  1
  Zr  Zr6  1  0.75000316  0.00000361  0.26324058  1
  Zr  Zr7  1  0.24999547  0.73677084  1.00000000  1
  Zr  Zr8  1  0.25000316  0.26323698  0.26324058  1
  Zr  Zr9  1  0.25000316  0.99999639  0.73675942  1
  Sn  Sn10  1  0.74999107  0.60505165  0.00000000  1
  Sn  Sn11  1  0.75000392  0.39497358  0.39499039  1
  Sn  Sn12  1  0.75000392  0.99998319  0.60500961  1
  Sn  Sn13  1  0.24999107  0.39494835  1.00000000  1
  Sn  Sn14  1  0.25000392  0.60502642  0.60500961  1
  Sn  Sn15  1  0.25000392  0.00001681  0.39499039  1
  Se  Se16  1  0.49999736  0.00002145  1.00000000  1
  Se  Se17  1  0.99999736  0.99997855  0.00000000  1
