# generated using pymatgen
data_RbTb2Ag3Te5
_symmetry_space_group_name_H-M   'P 1'
_cell_length_a   4.58961739
_cell_length_b   8.47271450
_cell_length_c   18.54327545
_cell_angle_alpha   90.00000000
_cell_angle_beta   90.00000000
_cell_angle_gamma   105.71467017
_symmetry_Int_Tables_number   1
_chemical_formula_structural   RbTb2Ag3Te5
_chemical_formula_sum   'Rb2 Tb4 Ag6 Te10'
_cell_volume   694.13106531
_cell_formula_units_Z   2
loop_
 _symmetry_equiv_pos_site_id
 _symmetry_equiv_pos_as_xyz
  1  'x, y, z'
loop_
 _atom_site_type_symbol
 _atom_site_label
 _atom_site_symmetry_multiplicity
 _atom_site_fract_x
 _atom_site_fract_y
 _atom_site_fract_z
 _atom_site_occupancy
  Rb  Rb0  1  0.44230185  0.88460370  0.25000000  1
  Rb  Rb1  1  0.55769815  0.11539630  0.75000000  1
  Tb  Tb2  1  0.30919058  0.61838117  0.90555139  1
  Tb  Tb3  1  0.69080942  0.38161883  0.09444861  1
  Tb  Tb4  1  0.30919058  0.61838117  0.59444861  1
  Tb  Tb5  1  0.69080942  0.38161883  0.40555139  1
  Ag  Ag6  1  0.16377373  0.32754745  0.25000000  1
  Ag  Ag7  1  0.83622627  0.67245255  0.75000000  1
  Ag  Ag8  1  0.91520605  0.83041210  0.46901511  1
  Ag  Ag9  1  0.08479395  0.16958790  0.53098489  1
  Ag  Ag10  1  0.91520605  0.83041210  0.03098489  1
  Ag  Ag11  1  0.08479395  0.16958790  0.96901511  1
  Te  Te12  1  0.93781066  0.87562131  0.87837894  1
  Te  Te13  1  0.06218934  0.12437869  0.12162106  1
  Te  Te14  1  0.93781066  0.87562131  0.62162106  1
  Te  Te15  1  0.06218934  0.12437869  0.37837894  1
  Te  Te16  1  0.67611831  0.35223662  0.92755533  1
  Te  Te17  1  0.32388169  0.64776338  0.07244467  1
  Te  Te18  1  0.67611831  0.35223662  0.57244467  1
  Te  Te19  1  0.32388169  0.64776338  0.42755533  1
  Te  Te20  1  0.76055341  0.52110681  0.25000000  1
  Te  Te21  1  0.23944659  0.47889319  0.75000000  1
