# generated using pymatgen
data_RbHf2Br9
_symmetry_space_group_name_H-M   'P 1'
_cell_length_a   7.03373978
_cell_length_b   10.31846128
_cell_length_c   13.17827698
_cell_angle_alpha   111.86442920
_cell_angle_beta   90.00000000
_cell_angle_gamma   90.00000000
_symmetry_Int_Tables_number   1
_chemical_formula_structural   RbHf2Br9
_chemical_formula_sum   'Rb2 Hf4 Br18'
_cell_volume   887.64537696
_cell_formula_units_Z   2
loop_
 _symmetry_equiv_pos_site_id
 _symmetry_equiv_pos_as_xyz
  1  'x, y, z'
loop_
 _atom_site_type_symbol
 _atom_site_label
 _atom_site_symmetry_multiplicity
 _atom_site_fract_x
 _atom_site_fract_y
 _atom_site_fract_z
 _atom_site_occupancy
  Rb  Rb0  1  0.40951992  0.75000000  0.25000000  1
  Rb  Rb1  1  0.59048008  0.25000000  0.75000000  1
  Hf  Hf2  1  0.74096041  0.30959579  0.13330369  1
  Hf  Hf3  1  0.25903959  0.69040421  0.86669631  1
  Hf  Hf4  1  0.74096041  0.19040421  0.36669631  1
  Hf  Hf5  1  0.25903959  0.80959579  0.63330369  1
  Br  Br6  1  0.89148537  0.16537057  0.95499060  1
  Br  Br7  1  0.10851463  0.83462943  0.04500940  1
  Br  Br8  1  0.89148537  0.33462943  0.54500940  1
  Br  Br9  1  0.10851463  0.66537057  0.45499060  1
  Br  Br10  1  0.88722762  0.54245812  0.15672498  1
  Br  Br11  1  0.11277238  0.45754188  0.84327502  1
  Br  Br12  1  0.88722762  0.95754188  0.34327502  1
  Br  Br13  1  0.11277238  0.04245812  0.65672498  1
  Br  Br14  1  0.02739139  0.25000000  0.25000000  1
  Br  Br15  1  0.97260861  0.75000000  0.75000000  1
  Br  Br16  1  0.59332084  0.07539236  0.15733626  1
  Br  Br17  1  0.40667916  0.92460764  0.84266374  1
  Br  Br18  1  0.59332084  0.42460764  0.34266374  1
  Br  Br19  1  0.40667916  0.57539236  0.65733626  1
  Br  Br20  1  0.42597540  0.35336820  0.05858891  1
  Br  Br21  1  0.57402460  0.64663180  0.94141109  1
  Br  Br22  1  0.42597540  0.14663180  0.44141109  1
  Br  Br23  1  0.57402460  0.85336820  0.55858891  1
