# generated using pymatgen
data_Sm2Ge5Rh3
_symmetry_space_group_name_H-M   'P 1'
_cell_length_a   5.98834616
_cell_length_b   8.42239617
_cell_length_c   8.42239617
_cell_angle_alpha   92.66518932
_cell_angle_beta   109.83913630
_cell_angle_gamma   109.83913630
_symmetry_Int_Tables_number   1
_chemical_formula_structural   Sm2Ge5Rh3
_chemical_formula_sum   'Sm4 Ge10 Rh6'
_cell_volume   369.53842099
_cell_formula_units_Z   2
loop_
 _symmetry_equiv_pos_site_id
 _symmetry_equiv_pos_as_xyz
  1  'x, y, z'
loop_
 _atom_site_type_symbol
 _atom_site_label
 _atom_site_symmetry_multiplicity
 _atom_site_fract_x
 _atom_site_fract_y
 _atom_site_fract_z
 _atom_site_occupancy
  Sm  Sm0  1  0.23287936  0.86679903  0.59430211  1
  Sm  Sm1  1  0.26712064  0.40569789  0.13320097  1
  Sm  Sm2  1  0.76712064  0.13320097  0.40569789  1
  Sm  Sm3  1  0.73287936  0.59430211  0.86679903  1
  Ge  Ge4  1  0.16647797  0.06855050  0.26257587  1
  Ge  Ge5  1  0.33352203  0.73742413  0.93144950  1
  Ge  Ge6  1  0.83352203  0.93144950  0.73742413  1
  Ge  Ge7  1  0.66647797  0.26257587  0.06855050  1
  Ge  Ge8  1  0.25000000  0.21352506  0.78647494  1
  Ge  Ge9  1  0.75000000  0.78647494  0.21352506  1
  Ge  Ge10  1  0.25000000  0.50687825  0.49312175  1
  Ge  Ge11  1  0.75000000  0.49312175  0.50687825  1
  Ge  Ge12  1  0.25000000  0.77740981  0.22259019  1
  Ge  Ge13  1  0.75000000  0.22259019  0.77740981  1
  Rh  Rh14  1  0.38443372  0.25694576  0.54006462  1
  Rh  Rh15  1  0.11556628  0.45993538  0.74305424  1
  Rh  Rh16  1  0.61556628  0.74305424  0.45993538  1
  Rh  Rh17  1  0.88443372  0.54006462  0.25694576  1
  Rh  Rh18  1  0.25000000  0.00145146  0.99854854  1
  Rh  Rh19  1  0.75000000  0.99854854  0.00145146  1
