# generated using pymatgen
data_Cs4In2S5
_symmetry_space_group_name_H-M   'P 1'
_cell_length_a   8.06494914
_cell_length_b   9.91603829
_cell_length_c   11.32482986
_cell_angle_alpha   72.35784127
_cell_angle_beta   70.31592193
_cell_angle_gamma   83.97672248
_symmetry_Int_Tables_number   1
_chemical_formula_structural   Cs4In2S5
_chemical_formula_sum   'Cs8 In4 S10'
_cell_volume   812.63877167
_cell_formula_units_Z   2
loop_
 _symmetry_equiv_pos_site_id
 _symmetry_equiv_pos_as_xyz
  1  'x, y, z'
loop_
 _atom_site_type_symbol
 _atom_site_label
 _atom_site_symmetry_multiplicity
 _atom_site_fract_x
 _atom_site_fract_y
 _atom_site_fract_z
 _atom_site_occupancy
  Cs  Cs0  1  0.50266944  0.78791784  0.91136272  1
  Cs  Cs1  1  0.49733056  0.21208216  0.08863728  1
  Cs  Cs2  1  0.54703831  0.18821267  0.54187048  1
  Cs  Cs3  1  0.45296169  0.81178733  0.45812952  1
  Cs  Cs4  1  0.11932832  0.18107874  0.90510435  1
  Cs  Cs5  1  0.88067168  0.81892126  0.09489565  1
  Cs  Cs6  1  0.76845118  0.47291117  0.66009027  1
  Cs  Cs7  1  0.23154882  0.52708883  0.33990973  1
  In  In8  1  0.03330553  0.00723558  0.34166254  1
  In  In9  1  0.96669447  0.99276442  0.65833746  1
  In  In10  1  0.88394935  0.41173013  0.16561010  1
  In  In11  1  0.11605065  0.58826987  0.83438990  1
  S  S12  1  0.83510615  0.85316853  0.55814994  1
  S  S13  1  0.16489385  0.14683147  0.44185006  1
  S  S14  1  0.82391604  0.14875243  0.22739694  1
  S  S15  1  0.17608396  0.85124757  0.77260306  1
  S  S16  1  0.20072057  0.48545371  0.04374011  1
  S  S17  1  0.79927943  0.51454629  0.95625989  1
  S  S18  1  0.72554428  0.51552655  0.34095516  1
  S  S19  1  0.27445572  0.48447345  0.65904484  1
  S  S20  1  0.25069875  0.89746857  0.18878913  1
  S  S21  1  0.74930125  0.10253143  0.81121087  1
