# generated using pymatgen
data_NdSi2Ni9
_symmetry_space_group_name_H-M   'P 1'
_cell_length_a   6.19302006
_cell_length_b   7.59137291
_cell_length_c   7.59137291
_cell_angle_alpha   80.42251767
_cell_angle_beta   65.92710658
_cell_angle_gamma   65.92710658
_symmetry_Int_Tables_number   1
_chemical_formula_structural   NdSi2Ni9
_chemical_formula_sum   'Nd2 Si4 Ni18'
_cell_volume   297.51620309
_cell_formula_units_Z   2
loop_
 _symmetry_equiv_pos_site_id
 _symmetry_equiv_pos_as_xyz
  1  'x, y, z'
loop_
 _atom_site_type_symbol
 _atom_site_label
 _atom_site_symmetry_multiplicity
 _atom_site_fract_x
 _atom_site_fract_y
 _atom_site_fract_z
 _atom_site_occupancy
  Nd  Nd0  1  0.37500000  0.25000000  0.75000000  1
  Nd  Nd1  1  0.62500000  0.75000000  0.25000000  1
  Si  Si2  1  0.50000000  0.50000000  0.00000000  1
  Si  Si3  1  -0.00000000  0.50000000  0.50000000  1
  Si  Si4  1  -0.00000000  0.00000000  0.00000000  1
  Si  Si5  1  -0.00000000  0.00000000  0.50000000  1
  Ni  Ni6  1  0.12500000  0.75000000  0.25000000  1
  Ni  Ni7  1  0.87500000  0.25000000  0.75000000  1
  Ni  Ni8  1  0.56356589  0.57817712  0.67059958  1
  Ni  Ni9  1  0.56356589  0.17059958  0.07817712  1
  Ni  Ni10  1  0.14174301  0.42182288  0.17059958  1
  Ni  Ni11  1  0.14174301  0.67059958  0.92182288  1
  Ni  Ni12  1  0.81234258  0.32940042  0.42182288  1
  Ni  Ni13  1  0.81234258  0.92182288  0.82940042  1
  Ni  Ni14  1  0.73416546  0.82940042  0.57817712  1
  Ni  Ni15  1  0.73416546  0.07817712  0.32940042  1
  Ni  Ni16  1  0.43643411  0.42182288  0.32940042  1
  Ni  Ni17  1  0.43643411  0.82940042  0.92182288  1
  Ni  Ni18  1  0.85825699  0.57817712  0.82940042  1
  Ni  Ni19  1  0.85825699  0.32940042  0.07817712  1
  Ni  Ni20  1  0.18765742  0.67059958  0.57817712  1
  Ni  Ni21  1  0.18765742  0.07817712  0.17059958  1
  Ni  Ni22  1  0.26583454  0.17059958  0.42182288  1
  Ni  Ni23  1  0.26583454  0.92182288  0.67059958  1
