# generated using pymatgen
data_Cs2U(PtSe2)3
_symmetry_space_group_name_H-M   'P 1'
_cell_length_a   9.55986086
_cell_length_b   9.55986086
_cell_length_c   10.26851449
_cell_angle_alpha   105.43456668
_cell_angle_beta   105.43456668
_cell_angle_gamma   115.35769651
_symmetry_Int_Tables_number   1
_chemical_formula_structural   Cs2U(PtSe2)3
_chemical_formula_sum   'Cs4 U2 Pt6 Se12'
_cell_volume   735.50716502
_cell_formula_units_Z   2
loop_
 _symmetry_equiv_pos_site_id
 _symmetry_equiv_pos_as_xyz
  1  'x, y, z'
loop_
 _atom_site_type_symbol
 _atom_site_label
 _atom_site_symmetry_multiplicity
 _atom_site_fract_x
 _atom_site_fract_y
 _atom_site_fract_z
 _atom_site_occupancy
  Cs  Cs0  1  0.75000000  0.25000000  0.50000000  1
  Cs  Cs1  1  0.25000000  0.75000000  0.50000000  1
  Cs  Cs2  1  0.68655446  0.31344554  -0.00000000  1
  Cs  Cs3  1  0.31344554  0.68655446  0.00000000  1
  U  U4  1  0.16761853  0.16761853  0.33523706  1
  U  U5  1  0.83238147  0.83238147  0.66476294  1
  Pt  Pt6  1  0.82765203  0.82765203  0.32295119  1
  Pt  Pt7  1  0.50470084  0.50470084  0.67704881  1
  Pt  Pt8  1  0.17234797  0.17234797  0.67704881  1
  Pt  Pt9  1  0.49529916  0.49529916  0.32295119  1
  Pt  Pt10  1  0.83233872  0.83233872  0.00000000  1
  Pt  Pt11  1  0.16766128  0.16766128  -0.00000000  1
  Se  Se12  1  0.80389422  0.01661661  0.20095403  1
  Se  Se13  1  0.81566258  0.60294019  0.79904597  1
  Se  Se14  1  0.98338339  0.19610578  0.79904597  1
  Se  Se15  1  0.39705981  0.18433742  0.20095403  1
  Se  Se16  1  0.19610578  0.98338339  0.79904597  1
  Se  Se17  1  0.18433742  0.39705981  0.20095403  1
  Se  Se18  1  0.01661661  0.80389422  0.20095403  1
  Se  Se19  1  0.60294019  0.81566258  0.79904597  1
  Se  Se20  1  0.19403430  0.40355376  0.59758806  1
  Se  Se21  1  0.80596570  0.59644624  0.40241194  1
  Se  Se22  1  0.59644624  0.80596570  0.40241194  1
  Se  Se23  1  0.40355376  0.19403430  0.59758806  1
