# generated using pymatgen
data_Eu2CuTe2(SO7)2
_symmetry_space_group_name_H-M   'P 1'
_cell_length_a   5.21536856
_cell_length_b   8.13377986
_cell_length_c   8.47684602
_cell_angle_alpha   61.45720002
_cell_angle_beta   74.97236304
_cell_angle_gamma   86.13800876
_symmetry_Int_Tables_number   1
_chemical_formula_structural   Eu2CuTe2(SO7)2
_chemical_formula_sum   'Eu2 Cu1 Te2 S2 O14'
_cell_volume   304.40732168
_cell_formula_units_Z   1
loop_
 _symmetry_equiv_pos_site_id
 _symmetry_equiv_pos_as_xyz
  1  'x, y, z'
loop_
 _atom_site_type_symbol
 _atom_site_label
 _atom_site_symmetry_multiplicity
 _atom_site_fract_x
 _atom_site_fract_y
 _atom_site_fract_z
 _atom_site_occupancy
  Eu  Eu0  1  0.92332160  0.74717002  0.98822157  1
  Eu  Eu1  1  0.07667840  0.25282998  0.01177843  1
  Cu  Cu2  1  -0.00000000  0.00000000  0.50000000  1
  Te  Te3  1  0.48676909  0.73326471  0.64115553  1
  Te  Te4  1  0.51323091  0.26673529  0.35884447  1
  S  S5  1  0.25038672  0.74587614  0.25594748  1
  S  S6  1  0.74961328  0.25412386  0.74405252  1
  O  O7  1  0.13429757  0.58511381  0.25231531  1
  O  O8  1  0.86570243  0.41488619  0.74768469  1
  O  O9  1  0.13837951  0.74820338  0.43382428  1
  O  O10  1  0.86162049  0.25179662  0.56617572  1
  O  O11  1  0.54327036  0.73488309  0.22518209  1
  O  O12  1  0.45672964  0.26511691  0.77481791  1
  O  O13  1  0.18042637  0.91826443  0.09813182  1
  O  O14  1  0.81957363  0.08173557  0.90186818  1
  O  O15  1  0.27144630  0.57205492  0.88037567  1
  O  O16  1  0.72855370  0.42794508  0.11962433  1
  O  O17  1  0.73871741  0.82743706  0.71828363  1
  O  O18  1  0.26128259  0.17256294  0.28171637  1
  O  O19  1  0.25193759  0.93448998  0.64068746  1
  O  O20  1  0.74806241  0.06551002  0.35931254  1
