# generated using pymatgen
data_SmEuCuS3
_symmetry_space_group_name_H-M   'P 1'
_cell_length_a   3.96491514
_cell_length_b   10.53066181
_cell_length_c   12.80449561
_cell_angle_alpha   90.00000000
_cell_angle_beta   90.00000000
_cell_angle_gamma   90.00000000
_symmetry_Int_Tables_number   1
_chemical_formula_structural   SmEuCuS3
_chemical_formula_sum   'Sm4 Eu4 Cu4 S12'
_cell_volume   534.62841571
_cell_formula_units_Z   4
loop_
 _symmetry_equiv_pos_site_id
 _symmetry_equiv_pos_as_xyz
  1  'x, y, z'
loop_
 _atom_site_type_symbol
 _atom_site_label
 _atom_site_symmetry_multiplicity
 _atom_site_fract_x
 _atom_site_fract_y
 _atom_site_fract_z
 _atom_site_occupancy
  Sm  Sm0  1  0.75000000  0.48301378  0.23594590  1
  Sm  Sm1  1  0.75000000  0.98301378  0.26405410  1
  Sm  Sm2  1  0.25000000  0.51698622  0.76405410  1
  Sm  Sm3  1  0.25000000  0.01698622  0.73594590  1
  Eu  Eu4  1  0.75000000  0.71540682  0.50165363  1
  Eu  Eu5  1  0.75000000  0.21540682  0.99834637  1
  Eu  Eu6  1  0.25000000  0.28459318  0.49834637  1
  Eu  Eu7  1  0.25000000  0.78459318  0.00165363  1
  Cu  Cu8  1  0.75000000  0.26635036  0.72345247  1
  Cu  Cu9  1  0.75000000  0.76635036  0.77654753  1
  Cu  Cu10  1  0.25000000  0.73364964  0.27654753  1
  Cu  Cu11  1  0.25000000  0.23364964  0.22345247  1
  S  S12  1  0.75000000  0.44770284  0.61568235  1
  S  S13  1  0.75000000  0.94770284  0.88431765  1
  S  S14  1  0.25000000  0.55229716  0.38431765  1
  S  S15  1  0.25000000  0.05229716  0.11568235  1
  S  S16  1  0.75000000  0.10213690  0.59969644  1
  S  S17  1  0.75000000  0.60213690  0.90030356  1
  S  S18  1  0.25000000  0.89786310  0.40030356  1
  S  S19  1  0.25000000  0.39786310  0.09969644  1
  S  S20  1  0.75000000  0.24019930  0.32923393  1
  S  S21  1  0.75000000  0.74019930  0.17076607  1
  S  S22  1  0.25000000  0.75980070  0.67076607  1
  S  S23  1  0.25000000  0.25980070  0.82923393  1
