# generated using pymatgen
data_Nd3MnGaS7
_symmetry_space_group_name_H-M   'P 1'
_cell_length_a   6.06296681
_cell_length_b   10.08142112
_cell_length_c   10.08133619
_cell_angle_alpha   119.99944797
_cell_angle_beta   90.00000000
_cell_angle_gamma   90.00000000
_symmetry_Int_Tables_number   1
_chemical_formula_structural   Nd3MnGaS7
_chemical_formula_sum   'Nd6 Mn2 Ga2 S14'
_cell_volume   533.65193954
_cell_formula_units_Z   2
loop_
 _symmetry_equiv_pos_site_id
 _symmetry_equiv_pos_as_xyz
  1  'x, y, z'
loop_
 _atom_site_type_symbol
 _atom_site_label
 _atom_site_symmetry_multiplicity
 _atom_site_fract_x
 _atom_site_fract_y
 _atom_site_fract_z
 _atom_site_occupancy
  Nd  Nd0  1  0.25151435  0.23444936  0.37464408  1
  Nd  Nd1  1  0.25150562  0.62536144  0.85981229  1
  Nd  Nd2  1  0.25152039  0.14019207  0.76554624  1
  Nd  Nd3  1  0.75151435  0.76555064  0.62535592  1
  Nd  Nd4  1  0.75150562  0.37463856  0.14018771  1
  Nd  Nd5  1  0.75152039  0.85980793  0.23445376  1
  Mn  Mn6  1  0.47617301  -0.00000009  0.99999184  1
  Mn  Mn7  1  0.97617301  0.00000009  0.00000816  1
  Ga  Ga8  1  0.82909976  0.33335769  0.66667902  1
  Ga  Ga9  1  0.32909976  0.66664231  0.33332098  1
  S  S10  1  0.71451876  0.14780457  0.23806272  1
  S  S11  1  0.71452161  0.76193767  0.90974530  1
  S  S12  1  0.71451984  0.09025213  0.85218778  1
  S  S13  1  0.21451876  0.85219543  0.76193728  1
  S  S14  1  0.21452161  0.23806233  0.09025470  1
  S  S15  1  0.21451984  0.90974787  0.14781222  1
  S  S16  1  0.98345686  0.09645185  0.51630363  1
  S  S17  1  0.98347475  0.48371477  0.58014063  1
  S  S18  1  0.98347428  0.41986202  0.90357000  1
  S  S19  1  0.48345686  0.90354815  0.48369637  1
  S  S20  1  0.48347475  0.51628523  0.41985937  1
  S  S21  1  0.48347428  0.58013798  0.09643000  1
  S  S22  1  0.45822078  0.33336770  0.66668285  1
  S  S23  1  0.95822078  0.66663230  0.33331715  1
