# generated using pymatgen
data_Dy2Mn12P7
_symmetry_space_group_name_H-M   'P 1'
_cell_length_a   3.60245587
_cell_length_b   9.30218717
_cell_length_c   9.30323476
_cell_angle_alpha   119.99503185
_cell_angle_beta   90.00000000
_cell_angle_gamma   90.00000000
_symmetry_Int_Tables_number   1
_chemical_formula_structural   Dy2Mn12P7
_chemical_formula_sum   'Dy2 Mn12 P7'
_cell_volume   270.00393545
_cell_formula_units_Z   1
loop_
 _symmetry_equiv_pos_site_id
 _symmetry_equiv_pos_as_xyz
  1  'x, y, z'
loop_
 _atom_site_type_symbol
 _atom_site_label
 _atom_site_symmetry_multiplicity
 _atom_site_fract_x
 _atom_site_fract_y
 _atom_site_fract_z
 _atom_site_occupancy
  Dy  Dy0  1  -0.00000000  0.66668128  0.33334170  1
  Dy  Dy1  1  0.50000000  0.33321683  0.66644708  1
  Mn  Mn2  1  -0.00000000  0.37631239  0.95118347  1
  Mn  Mn3  1  -0.00000000  0.04893014  0.42529569  1
  Mn  Mn4  1  0.00000000  0.57480286  0.62361876  1
  Mn  Mn5  1  -0.00000000  0.87922689  0.72325864  1
  Mn  Mn6  1  -0.00000000  0.27657044  0.15598267  1
  Mn  Mn7  1  -0.00000000  0.84411472  0.12087052  1
  Mn  Mn8  1  0.50000000  0.95504225  0.56356348  1
  Mn  Mn9  1  0.50000000  0.43646052  0.39148758  1
  Mn  Mn10  1  0.50000000  0.60863313  0.04500730  1
  Mn  Mn11  1  0.50000000  0.12305877  0.89619259  1
  Mn  Mn12  1  0.50000000  0.10375822  0.22671927  1
  Mn  Mn13  1  0.50000000  0.77316711  0.87693204  1
  P  P14  1  0.00000000  0.11922697  0.70858543  1
  P  P15  1  0.00000000  0.29139275  0.41075235  1
  P  P16  1  0.00000000  0.58932210  0.88063976  1
  P  P17  1  0.50000000  0.71815603  0.59198187  1
  P  P18  1  0.50000000  0.40804476  0.12627192  1
  P  P19  1  0.50000000  0.87388517  0.28190845  1
  P  P20  1  -0.00000000  0.99999667  0.99995942  1
