# generated using pymatgen
data_Ba2FeGe2O7
_symmetry_space_group_name_H-M   'P 1'
_cell_length_a   5.56943615
_cell_length_b   8.60275472
_cell_length_c   8.60275472
_cell_angle_alpha   90.00000000
_cell_angle_beta   90.00000000
_cell_angle_gamma   90.00000000
_symmetry_Int_Tables_number   1
_chemical_formula_structural   Ba2FeGe2O7
_chemical_formula_sum   'Ba4 Fe2 Ge4 O14'
_cell_volume   412.17942640
_cell_formula_units_Z   2
loop_
 _symmetry_equiv_pos_site_id
 _symmetry_equiv_pos_as_xyz
  1  'x, y, z'
loop_
 _atom_site_type_symbol
 _atom_site_label
 _atom_site_symmetry_multiplicity
 _atom_site_fract_x
 _atom_site_fract_y
 _atom_site_fract_z
 _atom_site_occupancy
  Ba  Ba0  1  0.99221644  0.33361584  0.16638416  1
  Ba  Ba1  1  0.00778356  0.16638416  0.66638416  1
  Ba  Ba2  1  0.99221644  0.66638416  0.83361584  1
  Ba  Ba3  1  0.00778356  0.83361584  0.33361584  1
  Fe  Fe4  1  0.50000000  0.50000000  0.50000000  1
  Fe  Fe5  1  0.50000000  -0.00000000  -0.00000000  1
  Ge  Ge6  1  0.53625558  0.13853268  0.36146732  1
  Ge  Ge7  1  0.46374442  0.36146732  0.86146732  1
  Ge  Ge8  1  0.53625558  0.86146732  0.63853268  1
  Ge  Ge9  1  0.46374442  0.63853268  0.13853268  1
  O  O10  1  0.66122544  0.00000000  0.50000000  1
  O  O11  1  0.33877456  0.50000000  -0.00000000  1
  O  O12  1  0.22317433  0.13602842  0.36397158  1
  O  O13  1  0.77682567  0.36397158  0.86397158  1
  O  O14  1  0.22317433  0.86397158  0.63602842  1
  O  O15  1  0.77682567  0.63602842  0.13602842  1
  O  O16  1  0.68441772  0.31166238  0.42091668  1
  O  O17  1  0.31558228  0.18833762  0.92091668  1
  O  O18  1  0.68441772  0.68833762  0.57908332  1
  O  O19  1  0.31558228  0.81166238  0.07908332  1
  O  O20  1  0.31558228  0.57908332  0.31166238  1
  O  O21  1  0.68441772  0.92091668  0.81166238  1
  O  O22  1  0.31558228  0.42091668  0.68833762  1
  O  O23  1  0.68441772  0.07908332  0.18833762  1
