# generated using pymatgen
data_UMnB4
_symmetry_space_group_name_H-M   'P 1'
_cell_length_a   3.43276535
_cell_length_b   5.84913623
_cell_length_c   11.35608847
_cell_angle_alpha   90.00000000
_cell_angle_beta   90.00000000
_cell_angle_gamma   90.00000000
_symmetry_Int_Tables_number   1
_chemical_formula_structural   UMnB4
_chemical_formula_sum   'U4 Mn4 B16'
_cell_volume   228.01563185
_cell_formula_units_Z   4
loop_
 _symmetry_equiv_pos_site_id
 _symmetry_equiv_pos_as_xyz
  1  'x, y, z'
loop_
 _atom_site_type_symbol
 _atom_site_label
 _atom_site_symmetry_multiplicity
 _atom_site_fract_x
 _atom_site_fract_y
 _atom_site_fract_z
 _atom_site_occupancy
  U  U0  1  0.00000000  0.62623532  0.34966218  1
  U  U1  1  0.00000000  0.37376468  0.65033782  1
  U  U2  1  -0.00000000  0.12623532  0.15033782  1
  U  U3  1  -0.00000000  0.87376468  0.84966218  1
  Mn  Mn4  1  -0.00000000  0.63503837  0.09089394  1
  Mn  Mn5  1  0.00000000  0.36496163  0.90910606  1
  Mn  Mn6  1  -0.00000000  0.13503837  0.40910606  1
  Mn  Mn7  1  0.00000000  0.86496163  0.59089394  1
  B  B8  1  0.50000000  0.78312134  0.18717041  1
  B  B9  1  0.50000000  0.21687866  0.81282959  1
  B  B10  1  0.50000000  0.28312134  0.31282959  1
  B  B11  1  0.50000000  0.71687866  0.68717041  1
  B  B12  1  0.50000000  0.86411860  0.03352808  1
  B  B13  1  0.50000000  0.13588140  0.96647192  1
  B  B14  1  0.50000000  0.36411860  0.46647192  1
  B  B15  1  0.50000000  0.63588140  0.53352808  1
  B  B16  1  0.50000000  0.88585048  0.45421844  1
  B  B17  1  0.50000000  0.11414952  0.54578156  1
  B  B18  1  0.50000000  0.38585048  0.04578156  1
  B  B19  1  0.50000000  0.61414952  0.95421844  1
  B  B20  1  0.50000000  0.97325950  0.30865958  1
  B  B21  1  0.50000000  0.02674050  0.69134042  1
  B  B22  1  0.50000000  0.47325950  0.19134042  1
  B  B23  1  0.50000000  0.52674050  0.80865958  1
