# generated using pymatgen
data_PrCd2Cu9
_symmetry_space_group_name_H-M   'P 1'
_cell_length_a   4.99774423
_cell_length_b   8.48493379
_cell_length_c   8.48493379
_cell_angle_alpha   90.00000000
_cell_angle_beta   90.00000000
_cell_angle_gamma   90.00000000
_symmetry_Int_Tables_number   1
_chemical_formula_structural   PrCd2Cu9
_chemical_formula_sum   'Pr2 Cd4 Cu18'
_cell_volume   359.80810497
_cell_formula_units_Z   2
loop_
 _symmetry_equiv_pos_site_id
 _symmetry_equiv_pos_as_xyz
  1  'x, y, z'
loop_
 _atom_site_type_symbol
 _atom_site_label
 _atom_site_symmetry_multiplicity
 _atom_site_fract_x
 _atom_site_fract_y
 _atom_site_fract_z
 _atom_site_occupancy
  Pr  Pr0  1  -0.00000000  0.50000000  0.50000000  1
  Pr  Pr1  1  0.00000000  0.00000000  -0.00000000  1
  Cd  Cd2  1  -0.00000000  0.12002293  0.62002293  1
  Cd  Cd3  1  0.00000000  0.87997707  0.37997707  1
  Cd  Cd4  1  0.00000000  0.37997707  0.12002293  1
  Cd  Cd5  1  -0.00000000  0.62002293  0.87997707  1
  Cu  Cu6  1  0.75209256  0.32148099  0.82148099  1
  Cu  Cu7  1  0.75209256  0.67851901  0.17851901  1
  Cu  Cu8  1  0.75209256  0.17851901  0.32148099  1
  Cu  Cu9  1  0.75209256  0.82148099  0.67851901  1
  Cu  Cu10  1  0.24790744  0.67851901  0.17851901  1
  Cu  Cu11  1  0.24790744  0.32148099  0.82148099  1
  Cu  Cu12  1  0.24790744  0.82148099  0.67851901  1
  Cu  Cu13  1  0.24790744  0.17851901  0.32148099  1
  Cu  Cu14  1  0.50000000  0.56372024  0.70863359  1
  Cu  Cu15  1  0.50000000  0.43627976  0.29136641  1
  Cu  Cu16  1  0.50000000  0.93627976  0.20863359  1
  Cu  Cu17  1  0.50000000  0.06372024  0.79136641  1
  Cu  Cu18  1  0.50000000  0.70863359  0.43627976  1
  Cu  Cu19  1  0.50000000  0.29136641  0.56372024  1
  Cu  Cu20  1  0.50000000  0.20863359  0.06372024  1
  Cu  Cu21  1  0.50000000  0.79136641  0.93627976  1
  Cu  Cu22  1  0.50000000  0.00000000  0.50000000  1
  Cu  Cu23  1  0.50000000  0.50000000  -0.00000000  1
