# generated using pymatgen
data_Ce2FeSi3
_symmetry_space_group_name_H-M   'P 1'
_cell_length_a   4.04094527
_cell_length_b   4.04307208
_cell_length_c   8.12190509
_cell_angle_alpha   90.00000000
_cell_angle_beta   90.00000000
_cell_angle_gamma   119.93341832
_symmetry_Int_Tables_number   1
_chemical_formula_structural   Ce2FeSi3
_chemical_formula_sum   'Ce2 Fe1 Si3'
_cell_volume   114.99368230
_cell_formula_units_Z   1
loop_
 _symmetry_equiv_pos_site_id
 _symmetry_equiv_pos_as_xyz
  1  'x, y, z'
loop_
 _atom_site_type_symbol
 _atom_site_label
 _atom_site_symmetry_multiplicity
 _atom_site_fract_x
 _atom_site_fract_y
 _atom_site_fract_z
 _atom_site_occupancy
  Ce  Ce0  1  0.99998916  0.99996395  0.01135348  1
  Ce  Ce1  1  0.99998916  0.99996395  0.48864652  1
  Fe  Fe2  1  0.33330077  0.66674919  0.25000000  1
  Si  Si3  1  0.33330252  0.66598370  0.75000000  1
  Si  Si4  1  0.66662232  0.33340376  0.25000000  1
  Si  Si5  1  0.66659607  0.33393545  0.75000000  1
