# generated using pymatgen
data_Rb6HgS4
_symmetry_space_group_name_H-M   'P 1'
_cell_length_a   8.09502856
_cell_length_b   10.49592168
_cell_length_c   10.49592168
_cell_angle_alpha   119.99888682
_cell_angle_beta   90.00000000
_cell_angle_gamma   90.00000000
_symmetry_Int_Tables_number   1
_chemical_formula_structural   Rb6HgS4
_chemical_formula_sum   'Rb12 Hg2 S8'
_cell_volume   772.31603372
_cell_formula_units_Z   2
loop_
 _symmetry_equiv_pos_site_id
 _symmetry_equiv_pos_as_xyz
  1  'x, y, z'
loop_
 _atom_site_type_symbol
 _atom_site_label
 _atom_site_symmetry_multiplicity
 _atom_site_fract_x
 _atom_site_fract_y
 _atom_site_fract_z
 _atom_site_occupancy
  Rb  Rb0  1  0.20679332  0.14844712  0.29689725  1
  Rb  Rb1  1  0.20679613  0.14843209  0.85156791  1
  Rb  Rb2  1  0.20679332  0.70310275  0.85155288  1
  Rb  Rb3  1  0.70679332  0.85155288  0.70310275  1
  Rb  Rb4  1  0.70679613  0.85156791  0.14843209  1
  Rb  Rb5  1  0.70679332  0.29689725  0.14844712  1
  Rb  Rb6  1  0.37829433  0.52910151  0.05820568  1
  Rb  Rb7  1  0.37829944  0.52910690  0.47089310  1
  Rb  Rb8  1  0.37829433  0.94179432  0.47089849  1
  Rb  Rb9  1  0.87829433  0.47089849  0.94179432  1
  Rb  Rb10  1  0.87829944  0.47089310  0.52910690  1
  Rb  Rb11  1  0.87829433  0.05820568  0.52910151  1
  Hg  Hg12  1  0.50013868  0.33332698  0.66667302  1
  Hg  Hg13  1  0.00013868  0.66667302  0.33332698  1
  S  S14  1  0.16794449  0.33331575  0.66668425  1
  S  S15  1  0.66794449  0.66668425  0.33331575  1
  S  S16  1  0.09987898  0.80634426  0.61270081  1
  S  S17  1  0.09988802  0.80636142  0.19363858  1
  S  S18  1  0.09987898  0.38729919  0.19365574  1
  S  S19  1  0.59987898  0.19365574  0.38729919  1
  S  S20  1  0.59988802  0.19363858  0.80636142  1
  S  S21  1  0.59987898  0.61270081  0.80634426  1
