# generated using pymatgen
data_Cs2AgCl3
_symmetry_space_group_name_H-M   'P 1'
_cell_length_a   4.66225049
_cell_length_b   13.64063226
_cell_length_c   14.00481036
_cell_angle_alpha   90.00000000
_cell_angle_beta   90.00000000
_cell_angle_gamma   90.00000000
_symmetry_Int_Tables_number   1
_chemical_formula_structural   Cs2AgCl3
_chemical_formula_sum   'Cs8 Ag4 Cl12'
_cell_volume   890.65054200
_cell_formula_units_Z   4
loop_
 _symmetry_equiv_pos_site_id
 _symmetry_equiv_pos_as_xyz
  1  'x, y, z'
loop_
 _atom_site_type_symbol
 _atom_site_label
 _atom_site_symmetry_multiplicity
 _atom_site_fract_x
 _atom_site_fract_y
 _atom_site_fract_z
 _atom_site_occupancy
  Cs  Cs0  1  0.25000000  0.67233366  0.02007789  1
  Cs  Cs1  1  0.25000000  0.17233366  0.47992211  1
  Cs  Cs2  1  0.75000000  0.32766634  0.97992211  1
  Cs  Cs3  1  0.75000000  0.82766634  0.52007789  1
  Cs  Cs4  1  0.25000000  0.01167158  0.82610059  1
  Cs  Cs5  1  0.25000000  0.51167158  0.67389941  1
  Cs  Cs6  1  0.75000000  0.98832842  0.17389941  1
  Cs  Cs7  1  0.75000000  0.48832842  0.32610059  1
  Ag  Ag8  1  0.25000000  0.75219290  0.30148535  1
  Ag  Ag9  1  0.25000000  0.25219290  0.19851465  1
  Ag  Ag10  1  0.75000000  0.24780710  0.69851465  1
  Ag  Ag11  1  0.75000000  0.74780710  0.80148535  1
  Cl  Cl12  1  0.25000000  0.63381171  0.44668192  1
  Cl  Cl13  1  0.25000000  0.13381171  0.05331808  1
  Cl  Cl14  1  0.75000000  0.36618829  0.55331808  1
  Cl  Cl15  1  0.75000000  0.86618829  0.94668192  1
  Cl  Cl16  1  0.25000000  0.93430150  0.36012935  1
  Cl  Cl17  1  0.25000000  0.43430150  0.13987065  1
  Cl  Cl18  1  0.75000000  0.06569850  0.63987065  1
  Cl  Cl19  1  0.75000000  0.56569850  0.86012935  1
  Cl  Cl20  1  0.25000000  0.77546534  0.71226272  1
  Cl  Cl21  1  0.25000000  0.27546534  0.78773728  1
  Cl  Cl22  1  0.75000000  0.22453466  0.28773728  1
  Cl  Cl23  1  0.75000000  0.72453466  0.21226272  1
