# generated using pymatgen
data_Tb4Ni13C4
_symmetry_space_group_name_H-M   'P 1'
_cell_length_a   3.88171081
_cell_length_b   8.40490652
_cell_length_c   8.40490652
_cell_angle_alpha   91.28746934
_cell_angle_beta   90.00000000
_cell_angle_gamma   90.00000000
_symmetry_Int_Tables_number   1
_chemical_formula_structural   Tb4Ni13C4
_chemical_formula_sum   'Tb4 Ni13 C4'
_cell_volume   274.14434970
_cell_formula_units_Z   1
loop_
 _symmetry_equiv_pos_site_id
 _symmetry_equiv_pos_as_xyz
  1  'x, y, z'
loop_
 _atom_site_type_symbol
 _atom_site_label
 _atom_site_symmetry_multiplicity
 _atom_site_fract_x
 _atom_site_fract_y
 _atom_site_fract_z
 _atom_site_occupancy
  Tb  Tb0  1  0.50000000  0.18663859  0.81336141  1
  Tb  Tb1  1  0.50000000  0.81336141  0.18663859  1
  Tb  Tb2  1  0.50000000  0.65138333  0.65138333  1
  Tb  Tb3  1  0.50000000  0.34861667  0.34861667  1
  Ni  Ni4  1  0.50000000  -0.00000000  0.50000000  1
  Ni  Ni5  1  0.50000000  0.50000000  0.00000000  1
  Ni  Ni6  1  -0.00000000  -0.00000000  0.00000000  1
  Ni  Ni7  1  -0.00000000  0.78420523  0.43081600  1
  Ni  Ni8  1  0.00000000  0.21579477  0.56918400  1
  Ni  Ni9  1  0.00000000  0.56918400  0.21579477  1
  Ni  Ni10  1  0.00000000  0.43081600  0.78420523  1
  Ni  Ni11  1  0.00000000  0.92541620  0.70796927  1
  Ni  Ni12  1  0.00000000  0.07458380  0.29203073  1
  Ni  Ni13  1  0.00000000  0.29203073  0.07458380  1
  Ni  Ni14  1  0.00000000  0.70796927  0.92541620  1
  Ni  Ni15  1  0.50000000  0.87590311  0.87590311  1
  Ni  Ni16  1  0.50000000  0.12409689  0.12409689  1
  C  C17  1  0.00000000  0.55667975  0.44332025  1
  C  C18  1  0.00000000  0.44332025  0.55667975  1
  C  C19  1  0.00000000  -0.00000000  0.50000000  1
  C  C20  1  0.00000000  0.50000000  0.00000000  1
