# generated using pymatgen
data_Tb3RuO7
_symmetry_space_group_name_H-M   'P 1'
_cell_length_a   6.42908504
_cell_length_b   6.42908504
_cell_length_c   7.42966996
_cell_angle_alpha   90.00000000
_cell_angle_beta   90.00000000
_cell_angle_gamma   110.47504087
_symmetry_Int_Tables_number   1
_chemical_formula_structural   Tb3RuO7
_chemical_formula_sum   'Tb6 Ru2 O14'
_cell_volume   287.69093407
_cell_formula_units_Z   2
loop_
 _symmetry_equiv_pos_site_id
 _symmetry_equiv_pos_as_xyz
  1  'x, y, z'
loop_
 _atom_site_type_symbol
 _atom_site_label
 _atom_site_symmetry_multiplicity
 _atom_site_fract_x
 _atom_site_fract_y
 _atom_site_fract_z
 _atom_site_occupancy
  Tb  Tb0  1  0.00000000  0.00000000  0.50000000  1
  Tb  Tb1  1  0.00000000  0.00000000  -0.00000000  1
  Tb  Tb2  1  0.07394218  0.52141200  0.25000000  1
  Tb  Tb3  1  0.47858800  0.92605782  0.75000000  1
  Tb  Tb4  1  0.92605782  0.47858800  0.75000000  1
  Tb  Tb5  1  0.52141200  0.07394218  0.25000000  1
  Ru  Ru6  1  0.50000000  0.50000000  0.50000000  1
  Ru  Ru7  1  0.50000000  0.50000000  -0.00000000  1
  O  O8  1  0.18077060  0.43695296  0.53879014  1
  O  O9  1  0.56304704  0.81922940  0.46120986  1
  O  O10  1  0.18077060  0.43695296  0.96120986  1
  O  O11  1  0.56304704  0.81922940  0.03879014  1
  O  O12  1  0.81922940  0.56304704  0.46120986  1
  O  O13  1  0.43695296  0.18077060  0.53879014  1
  O  O14  1  0.81922940  0.56304704  0.03879014  1
  O  O15  1  0.43695296  0.18077060  0.96120986  1
  O  O16  1  0.89122352  0.15704926  0.25000000  1
  O  O17  1  0.84295074  0.10877648  0.75000000  1
  O  O18  1  0.10877648  0.84295074  0.75000000  1
  O  O19  1  0.15704926  0.89122352  0.25000000  1
  O  O20  1  0.41067733  0.41067733  0.25000000  1
  O  O21  1  0.58932267  0.58932267  0.75000000  1
