# generated using pymatgen
data_Ho2Fe12P7
_symmetry_space_group_name_H-M   'P 1'
_cell_length_a   3.63557735
_cell_length_b   8.96981830
_cell_length_c   8.97222147
_cell_angle_alpha   120.05757275
_cell_angle_beta   90.00000000
_cell_angle_gamma   90.00000000
_symmetry_Int_Tables_number   1
_chemical_formula_structural   Ho2Fe12P7
_chemical_formula_sum   'Ho2 Fe12 P7'
_cell_volume   253.24180894
_cell_formula_units_Z   1
loop_
 _symmetry_equiv_pos_site_id
 _symmetry_equiv_pos_as_xyz
  1  'x, y, z'
loop_
 _atom_site_type_symbol
 _atom_site_label
 _atom_site_symmetry_multiplicity
 _atom_site_fract_x
 _atom_site_fract_y
 _atom_site_fract_z
 _atom_site_occupancy
  Ho  Ho0  1  0.00000000  0.66685706  0.33357582  1
  Ho  Ho1  1  0.50000000  0.33312004  0.66650435  1
  Fe  Fe2  1  0.00000000  0.37289834  0.94474513  1
  Fe  Fe3  1  -0.00000000  0.05531531  0.42797196  1
  Fe  Fe4  1  -0.00000000  0.57177702  0.62697816  1
  Fe  Fe5  1  -0.00000000  0.88055132  0.72552264  1
  Fe  Fe6  1  -0.00000000  0.27471055  0.15529879  1
  Fe  Fe7  1  0.00000000  0.84465780  0.11951075  1
  Fe  Fe8  1  0.50000000  0.95154943  0.56775239  1
  Fe  Fe9  1  0.50000000  0.43224500  0.38389477  1
  Fe  Fe10  1  0.50000000  0.61631736  0.04842413  1
  Fe  Fe11  1  0.50000000  0.12111881  0.90310803  1
  Fe  Fe12  1  0.50000000  0.09675425  0.21797995  1
  Fe  Fe13  1  0.50000000  0.78201622  0.87883155  1
  P  P14  1  0.00000000  0.11444857  0.70424078  1
  P  P15  1  0.00000000  0.29515637  0.41009701  1
  P  P16  1  0.00000000  0.58969054  0.88485612  1
  P  P17  1  0.50000000  0.71080409  0.59823126  1
  P  P18  1  0.50000000  0.40188323  0.11227040  1
  P  P19  1  0.50000000  0.88814165  0.29015780  1
  P  P20  1  0.00000000  0.99998703  0.00004823  1
