# generated using pymatgen
data_Y2Ni12As7
_symmetry_space_group_name_H-M   'P 1'
_cell_length_a   3.82416716
_cell_length_b   9.35529598
_cell_length_c   9.35001338
_cell_angle_alpha   120.00238751
_cell_angle_beta   90.00000000
_cell_angle_gamma   90.00000000
_symmetry_Int_Tables_number   1
_chemical_formula_structural   Y2Ni12As7
_chemical_formula_sum   'Y2 Ni12 As7'
_cell_volume   289.68553857
_cell_formula_units_Z   1
loop_
 _symmetry_equiv_pos_site_id
 _symmetry_equiv_pos_as_xyz
  1  'x, y, z'
loop_
 _atom_site_type_symbol
 _atom_site_label
 _atom_site_symmetry_multiplicity
 _atom_site_fract_x
 _atom_site_fract_y
 _atom_site_fract_z
 _atom_site_occupancy
  Y  Y0  1  -0.00000000  0.66674484  0.33330265  1
  Y  Y1  1  0.50000000  0.33320822  0.66655107  1
  Ni  Ni2  1  -0.00000000  0.38103679  0.94479907  1
  Ni  Ni3  1  -0.00000000  0.05507257  0.43605678  1
  Ni  Ni4  1  0.00000000  0.56382103  0.61901220  1
  Ni  Ni5  1  -0.00000000  0.87366429  0.72104263  1
  Ni  Ni6  1  -0.00000000  0.27898679  0.15259017  1
  Ni  Ni7  1  -0.00000000  0.84729144  0.12634983  1
  Ni  Ni8  1  0.50000000  0.95305716  0.57392263  1
  Ni  Ni9  1  0.50000000  0.42629721  0.37936354  1
  Ni  Ni10  1  0.50000000  0.62068191  0.04687462  1
  Ni  Ni11  1  0.50000000  0.11543161  0.90436077  1
  Ni  Ni12  1  0.50000000  0.09578491  0.21121201  1
  Ni  Ni13  1  0.50000000  0.78889702  0.88452753  1
  As  As14  1  -0.00000000  0.11710126  0.71261411  1
  As  As15  1  -0.00000000  0.28733449  0.40453653  1
  As  As16  1  -0.00000000  0.59549357  0.88271832  1
  As  As17  1  0.50000000  0.70422291  0.59384674  1
  As  As18  1  0.50000000  0.40618078  0.11046208  1
  As  As19  1  0.50000000  0.88964348  0.29578260  1
  As  As20  1  -0.00000000  0.00004769  0.00007412  1
