# generated using pymatgen
data_Rb2LaNb2O7
_symmetry_space_group_name_H-M   'P 1'
_cell_length_a   5.77161001
_cell_length_b   5.77402033
_cell_length_c   11.71241023
_cell_angle_alpha   104.26999935
_cell_angle_beta   90.00000000
_cell_angle_gamma   90.00000000
_symmetry_Int_Tables_number   1
_chemical_formula_structural   Rb2LaNb2O7
_chemical_formula_sum   'Rb4 La2 Nb4 O14'
_cell_volume   378.27730816
_cell_formula_units_Z   2
loop_
 _symmetry_equiv_pos_site_id
 _symmetry_equiv_pos_as_xyz
  1  'x, y, z'
loop_
 _atom_site_type_symbol
 _atom_site_label
 _atom_site_symmetry_multiplicity
 _atom_site_fract_x
 _atom_site_fract_y
 _atom_site_fract_z
 _atom_site_occupancy
  Rb  Rb0  1  0.25000000  0.45274549  0.38327434  1
  Rb  Rb1  1  0.75000000  0.93052885  0.38327434  1
  Rb  Rb2  1  0.75000000  0.54725451  0.61672566  1
  Rb  Rb3  1  0.25000000  0.06947115  0.61672566  1
  La  La4  1  0.75000000  0.73825068  1.00000000  1
  La  La5  1  0.25000000  0.26174932  0.00000000  1
  Nb  Nb6  1  0.25000000  0.84420424  0.18671592  1
  Nb  Nb7  1  0.75000000  0.34251168  0.18671592  1
  Nb  Nb8  1  0.75000000  0.15579576  0.81328408  1
  Nb  Nb9  1  0.25000000  0.65748832  0.81328408  1
  O  O10  1  0.75000000  0.30045279  0.00000000  1
  O  O11  1  0.25000000  0.69954721  1.00000000  1
  O  O12  1  0.75000000  0.40608312  0.35188975  1
  O  O13  1  0.25000000  0.94580663  0.35188975  1
  O  O14  1  0.25000000  0.59391688  0.64811025  1
  O  O15  1  0.75000000  0.05419337  0.64811025  1
  O  O16  1  0.00000000  0.58676414  0.17352829  1
  O  O17  1  0.50000000  0.58676414  0.17352829  1
  O  O18  1  0.00000000  0.41323586  0.82647171  1
  O  O19  1  0.50000000  0.41323586  0.82647171  1
  O  O20  1  -0.00000000  0.07338976  0.14677952  1
  O  O21  1  0.50000000  0.07338976  0.14677952  1
  O  O22  1  -0.00000000  0.92661024  0.85322048  1
  O  O23  1  0.50000000  0.92661024  0.85322048  1
