# generated using pymatgen
data_Er3MnB7
_symmetry_space_group_name_H-M   'P 1'
_cell_length_a   3.42146043
_cell_length_b   7.99178887
_cell_length_c   9.25604204
_cell_angle_alpha   90.00000000
_cell_angle_beta   90.00000000
_cell_angle_gamma   102.36044330
_symmetry_Int_Tables_number   1
_chemical_formula_structural   Er3MnB7
_chemical_formula_sum   'Er6 Mn2 B14'
_cell_volume   247.22678280
_cell_formula_units_Z   2
loop_
 _symmetry_equiv_pos_site_id
 _symmetry_equiv_pos_as_xyz
  1  'x, y, z'
loop_
 _atom_site_type_symbol
 _atom_site_label
 _atom_site_symmetry_multiplicity
 _atom_site_fract_x
 _atom_site_fract_y
 _atom_site_fract_z
 _atom_site_occupancy
  Er  Er0  1  0.10424103  0.20848207  0.44045315  1
  Er  Er1  1  0.89575897  0.79151793  0.55954685  1
  Er  Er2  1  0.10424103  0.20848207  0.05954685  1
  Er  Er3  1  0.89575897  0.79151793  0.94045315  1
  Er  Er4  1  0.75887741  0.51775483  0.25000000  1
  Er  Er5  1  0.24112259  0.48224517  0.75000000  1
  Mn  Mn6  1  0.94693403  0.89386805  0.25000000  1
  Mn  Mn7  1  0.05306597  0.10613195  0.75000000  1
  B  B8  1  0.27249220  0.54498439  0.46720846  1
  B  B9  1  0.72750780  0.45501561  0.53279154  1
  B  B10  1  0.27249220  0.54498439  0.03279154  1
  B  B11  1  0.72750780  0.45501561  0.96720846  1
  B  B12  1  0.36971834  0.73943667  0.15254342  1
  B  B13  1  0.63028166  0.26056333  0.84745658  1
  B  B14  1  0.36971834  0.73943667  0.34745658  1
  B  B15  1  0.63028166  0.26056333  0.65254342  1
  B  B16  1  0.47910315  0.95820629  0.09775663  1
  B  B17  1  0.52089685  0.04179371  0.90224337  1
  B  B18  1  0.47910315  0.95820629  0.40224337  1
  B  B19  1  0.52089685  0.04179371  0.59775663  1
  B  B20  1  0.54195553  0.08391107  0.25000000  1
  B  B21  1  0.45804447  0.91608893  0.75000000  1
