# generated using pymatgen
data_Tb8Ga3Co
_symmetry_space_group_name_H-M   'P 1'
_cell_length_a   6.94216246
_cell_length_b   10.08239225
_cell_length_c   10.08239225
_cell_angle_alpha   120.00023958
_cell_angle_beta   90.00000000
_cell_angle_gamma   90.00000000
_symmetry_Int_Tables_number   1
_chemical_formula_structural   Tb8Ga3Co
_chemical_formula_sum   'Tb16 Ga6 Co2'
_cell_volume   611.15523327
_cell_formula_units_Z   2
loop_
 _symmetry_equiv_pos_site_id
 _symmetry_equiv_pos_as_xyz
  1  'x, y, z'
loop_
 _atom_site_type_symbol
 _atom_site_label
 _atom_site_symmetry_multiplicity
 _atom_site_fract_x
 _atom_site_fract_y
 _atom_site_fract_z
 _atom_site_occupancy
  Tb  Tb0  1  0.50984810  0.17233465  0.82766535  1
  Tb  Tb1  1  0.50987976  0.65531934  0.82766167  1
  Tb  Tb2  1  0.50987976  0.17233833  0.34468066  1
  Tb  Tb3  1  0.00984810  0.82766535  0.17233465  1
  Tb  Tb4  1  0.00987976  0.34468066  0.17233833  1
  Tb  Tb5  1  0.00987976  0.82766167  0.65531934  1
  Tb  Tb6  1  0.82767063  0.33333455  0.66666545  1
  Tb  Tb7  1  0.32767063  0.66666545  0.33333455  1
  Tb  Tb8  1  0.20786690  0.46344646  0.53655354  1
  Tb  Tb9  1  0.20785217  0.07310270  0.53654682  1
  Tb  Tb10  1  0.20785217  0.46345318  0.92689730  1
  Tb  Tb11  1  0.70786690  0.53655354  0.46344646  1
  Tb  Tb12  1  0.70785217  0.92689730  0.46345318  1
  Tb  Tb13  1  0.70785217  0.53654682  0.07310270  1
  Tb  Tb14  1  0.22997110  0.99999550  0.00000450  1
  Tb  Tb15  1  0.72997110  0.00000450  0.99999550  1
  Ga  Ga16  1  0.96049156  0.16354060  0.83645940  1
  Ga  Ga17  1  0.96049382  0.67291432  0.83645104  1
  Ga  Ga18  1  0.96049382  0.16354896  0.32708568  1
  Ga  Ga19  1  0.46049156  0.83645940  0.16354060  1
  Ga  Ga20  1  0.46049382  0.32708568  0.16354896  1
  Ga  Ga21  1  0.46049382  0.83645104  0.67291432  1
  Co  Co22  1  0.44470021  0.33333561  0.66666439  1
  Co  Co23  1  0.94470021  0.66666439  0.33333561  1
