# generated using pymatgen
data_TmAlB4
_symmetry_space_group_name_H-M   'P 1'
_cell_length_a   3.52111411
_cell_length_b   5.92192516
_cell_length_c   11.48102389
_cell_angle_alpha   90.00000000
_cell_angle_beta   90.00000000
_cell_angle_gamma   90.00000000
_symmetry_Int_Tables_number   1
_chemical_formula_structural   TmAlB4
_chemical_formula_sum   'Tm4 Al4 B16'
_cell_volume   239.39971819
_cell_formula_units_Z   4
loop_
 _symmetry_equiv_pos_site_id
 _symmetry_equiv_pos_as_xyz
  1  'x, y, z'
loop_
 _atom_site_type_symbol
 _atom_site_label
 _atom_site_symmetry_multiplicity
 _atom_site_fract_x
 _atom_site_fract_y
 _atom_site_fract_z
 _atom_site_occupancy
  Tm  Tm0  1  0.00000000  0.62966059  0.34988798  1
  Tm  Tm1  1  -0.00000000  0.37033941  0.65011202  1
  Tm  Tm2  1  0.00000000  0.12966059  0.15011202  1
  Tm  Tm3  1  0.00000000  0.87033941  0.84988798  1
  Al  Al4  1  -0.00000000  0.63809630  0.09020392  1
  Al  Al5  1  -0.00000000  0.36190370  0.90979608  1
  Al  Al6  1  0.00000000  0.13809630  0.40979608  1
  Al  Al7  1  0.00000000  0.86190370  0.59020392  1
  B  B8  1  0.50000000  0.79037483  0.18760083  1
  B  B9  1  0.50000000  0.20962517  0.81239917  1
  B  B10  1  0.50000000  0.29037483  0.31239917  1
  B  B11  1  0.50000000  0.70962517  0.68760083  1
  B  B12  1  0.50000000  0.86688208  0.03075537  1
  B  B13  1  0.50000000  0.13311792  0.96924463  1
  B  B14  1  0.50000000  0.36688208  0.46924463  1
  B  B15  1  0.50000000  0.63311792  0.53075537  1
  B  B16  1  0.50000000  0.88564383  0.45301005  1
  B  B17  1  0.50000000  0.11435617  0.54698995  1
  B  B18  1  0.50000000  0.38564383  0.04698995  1
  B  B19  1  0.50000000  0.61435617  0.95301005  1
  B  B20  1  0.50000000  0.97373880  0.30711170  1
  B  B21  1  0.50000000  0.02626120  0.69288830  1
  B  B22  1  0.50000000  0.47373880  0.19288830  1
  B  B23  1  0.50000000  0.52626120  0.80711170  1
