# generated using pymatgen
data_NdNiB4
_symmetry_space_group_name_H-M   'P 1'
_cell_length_a   6.93786724
_cell_length_b   6.93786724
_cell_length_c   6.93786724
_cell_angle_alpha   102.97755865
_cell_angle_beta   112.81241318
_cell_angle_gamma   112.81241318
_symmetry_Int_Tables_number   1
_chemical_formula_structural   NdNiB4
_chemical_formula_sum   'Nd4 Ni4 B16'
_cell_volume   254.63484217
_cell_formula_units_Z   4
loop_
 _symmetry_equiv_pos_site_id
 _symmetry_equiv_pos_as_xyz
  1  'x, y, z'
loop_
 _atom_site_type_symbol
 _atom_site_label
 _atom_site_symmetry_multiplicity
 _atom_site_fract_x
 _atom_site_fract_y
 _atom_site_fract_z
 _atom_site_occupancy
  Nd  Nd0  1  -0.00000000  0.20494044  0.20494044  1
  Nd  Nd1  1  -0.00000000  0.79505956  0.79505956  1
  Nd  Nd2  1  0.50000000  0.75000000  0.25000000  1
  Nd  Nd3  1  0.50000000  0.25000000  0.75000000  1
  Ni  Ni4  1  0.22794713  0.50000000  0.72794713  1
  Ni  Ni5  1  0.77205287  0.50000000  0.27205287  1
  Ni  Ni6  1  0.77205287  0.27205287  0.50000000  1
  Ni  Ni7  1  0.22794713  0.72794713  0.50000000  1
  B  B8  1  0.61194458  0.88756980  0.72437479  1
  B  B9  1  0.38805542  0.11243020  0.27562521  1
  B  B10  1  0.83680499  0.11243020  0.72437479  1
  B  B11  1  0.16319501  0.88756980  0.27562521  1
  B  B12  1  0.16319501  0.27562521  0.88756980  1
  B  B13  1  0.83680499  0.72437479  0.11243020  1
  B  B14  1  0.61194458  0.72437479  0.88756980  1
  B  B15  1  0.38805542  0.27562521  0.11243020  1
  B  B16  1  0.47051119  0.88687750  0.88687750  1
  B  B17  1  0.52948881  0.41636632  0.41636632  1
  B  B18  1  -0.00000000  0.41636632  0.88687750  1
  B  B19  1  -0.00000000  0.88687750  0.41636632  1
  B  B20  1  0.52948881  0.11312250  0.11312250  1
  B  B21  1  0.47051119  0.58363368  0.58363368  1
  B  B22  1  -0.00000000  0.58363368  0.11312250  1
  B  B23  1  0.00000000  0.11312250  0.58363368  1
