# generated using pymatgen
data_EuIn2Ni9
_symmetry_space_group_name_H-M   'P 1'
_cell_length_a   4.88201601
_cell_length_b   8.31761335
_cell_length_c   8.31761335
_cell_angle_alpha   90.00000000
_cell_angle_beta   90.00000000
_cell_angle_gamma   90.00000000
_symmetry_Int_Tables_number   1
_chemical_formula_structural   EuIn2Ni9
_chemical_formula_sum   'Eu2 In4 Ni18'
_cell_volume   337.75100918
_cell_formula_units_Z   2
loop_
 _symmetry_equiv_pos_site_id
 _symmetry_equiv_pos_as_xyz
  1  'x, y, z'
loop_
 _atom_site_type_symbol
 _atom_site_label
 _atom_site_symmetry_multiplicity
 _atom_site_fract_x
 _atom_site_fract_y
 _atom_site_fract_z
 _atom_site_occupancy
  Eu  Eu0  1  0.00000000  0.50000000  0.50000000  1
  Eu  Eu1  1  0.00000000  -0.00000000  0.00000000  1
  In  In2  1  0.00000000  0.62458244  0.12458244  1
  In  In3  1  0.00000000  0.37541756  0.87541756  1
  In  In4  1  0.00000000  0.87541756  0.62458244  1
  In  In5  1  0.00000000  0.12458244  0.37541756  1
  Ni  Ni6  1  0.74985634  0.17640752  0.67640752  1
  Ni  Ni7  1  0.74985634  0.82359248  0.32359248  1
  Ni  Ni8  1  0.74985634  0.32359248  0.17640752  1
  Ni  Ni9  1  0.74985634  0.67640752  0.82359248  1
  Ni  Ni10  1  0.25014366  0.82359248  0.32359248  1
  Ni  Ni11  1  0.25014366  0.17640752  0.67640752  1
  Ni  Ni12  1  0.25014366  0.67640752  0.82359248  1
  Ni  Ni13  1  0.25014366  0.32359248  0.17640752  1
  Ni  Ni14  1  0.50000000  0.70991159  0.56505983  1
  Ni  Ni15  1  0.50000000  0.29008841  0.43494017  1
  Ni  Ni16  1  0.50000000  0.79008841  0.06505983  1
  Ni  Ni17  1  0.50000000  0.20991159  0.93494017  1
  Ni  Ni18  1  0.50000000  0.56505983  0.29008841  1
  Ni  Ni19  1  0.50000000  0.43494017  0.70991159  1
  Ni  Ni20  1  0.50000000  0.06505983  0.20991159  1
  Ni  Ni21  1  0.50000000  0.93494017  0.79008841  1
  Ni  Ni22  1  0.50000000  -0.00000000  0.50000000  1
  Ni  Ni23  1  0.50000000  0.50000000  0.00000000  1
