# generated using pymatgen
data_CeY3Mn8
_symmetry_space_group_name_H-M   'P 1'
_cell_length_a   5.24836213
_cell_length_b   5.31630334
_cell_length_c   8.49173177
_cell_angle_alpha   90.00000000
_cell_angle_beta   90.16600578
_cell_angle_gamma   59.57084355
_symmetry_Int_Tables_number   1
_chemical_formula_structural   CeY3Mn8
_chemical_formula_sum   'Ce1 Y3 Mn8'
_cell_volume   204.29776309
_cell_formula_units_Z   1
loop_
 _symmetry_equiv_pos_site_id
 _symmetry_equiv_pos_as_xyz
  1  'x, y, z'
loop_
 _atom_site_type_symbol
 _atom_site_label
 _atom_site_symmetry_multiplicity
 _atom_site_fract_x
 _atom_site_fract_y
 _atom_site_fract_z
 _atom_site_occupancy
  Ce  Ce0  1  0.34394181  0.32802910  0.57264336  1
  Y  Y1  1  0.66745492  0.66627254  0.44159698  1
  Y  Y2  1  0.66781566  0.66609217  0.05936137  1
  Y  Y3  1  0.34056380  0.32971810  0.93554552  1
  Mn  Mn4  1  0.01081654  0.99459173  0.49680376  1
  Mn  Mn5  1  0.01540512  0.99229744  0.00414957  1
  Mn  Mn6  1  0.85006440  0.31182109  0.74944988  1
  Mn  Mn7  1  0.33000307  0.83499846  0.74765446  1
  Mn  Mn8  1  0.85006440  0.83811451  0.74944988  1
  Mn  Mn9  1  0.14589152  0.68338927  0.24632906  1
  Mn  Mn10  1  0.63208725  0.18395638  0.25068709  1
  Mn  Mn11  1  0.14589152  0.17071921  0.24632906  1
