# generated using pymatgen
data_Tb4Ga16Co3
_symmetry_space_group_name_H-M   'P 1'
_cell_length_a   6.03606485
_cell_length_b   6.03606485
_cell_length_c   11.10633859
_cell_angle_alpha   90.00000000
_cell_angle_beta   90.00000000
_cell_angle_gamma   90.00000000
_symmetry_Int_Tables_number   1
_chemical_formula_structural   Tb4Ga16Co3
_chemical_formula_sum   'Tb4 Ga16 Co3'
_cell_volume   404.64921618
_cell_formula_units_Z   1
loop_
 _symmetry_equiv_pos_site_id
 _symmetry_equiv_pos_as_xyz
  1  'x, y, z'
loop_
 _atom_site_type_symbol
 _atom_site_label
 _atom_site_symmetry_multiplicity
 _atom_site_fract_x
 _atom_site_fract_y
 _atom_site_fract_z
 _atom_site_occupancy
  Tb  Tb0  1  0.50000000  -0.00000000  0.80572745  1
  Tb  Tb1  1  0.00000000  0.50000000  0.80572745  1
  Tb  Tb2  1  0.50000000  0.00000000  0.19427255  1
  Tb  Tb3  1  -0.00000000  0.50000000  0.19427255  1
  Ga  Ga4  1  0.25012557  0.25012557  0.61546236  1
  Ga  Ga5  1  0.74987443  0.74987443  0.61546236  1
  Ga  Ga6  1  0.74987443  0.25012557  0.61546236  1
  Ga  Ga7  1  0.25012557  0.74987443  0.61546236  1
  Ga  Ga8  1  0.74987443  0.74987443  0.38453764  1
  Ga  Ga9  1  0.25012557  0.25012557  0.38453764  1
  Ga  Ga10  1  0.25012557  0.74987443  0.38453764  1
  Ga  Ga11  1  0.74987443  0.25012557  0.38453764  1
  Ga  Ga12  1  0.28042451  0.28042451  0.00000000  1
  Ga  Ga13  1  0.71957549  0.71957549  0.00000000  1
  Ga  Ga14  1  0.71957549  0.28042451  0.00000000  1
  Ga  Ga15  1  0.28042451  0.71957549  0.00000000  1
  Ga  Ga16  1  0.50000000  0.50000000  0.80457805  1
  Ga  Ga17  1  0.50000000  0.50000000  0.19542195  1
  Ga  Ga18  1  -0.00000000  0.00000000  0.78109537  1
  Ga  Ga19  1  0.00000000  -0.00000000  0.21890463  1
  Co  Co20  1  0.50000000  0.00000000  0.50000000  1
  Co  Co21  1  -0.00000000  0.50000000  0.50000000  1
  Co  Co22  1  -0.00000000  0.00000000  0.00000000  1
