# generated using pymatgen
data_SmPS
_symmetry_space_group_name_H-M   'P 1'
_cell_length_a   5.43257424
_cell_length_b   5.50206645
_cell_length_c   17.06998317
_cell_angle_alpha   90.00000000
_cell_angle_beta   90.00000000
_cell_angle_gamma   90.00000000
_symmetry_Int_Tables_number   1
_chemical_formula_structural   SmPS
_chemical_formula_sum   'Sm8 P8 S8'
_cell_volume   510.22835973
_cell_formula_units_Z   8
loop_
 _symmetry_equiv_pos_site_id
 _symmetry_equiv_pos_as_xyz
  1  'x, y, z'
loop_
 _atom_site_type_symbol
 _atom_site_label
 _atom_site_symmetry_multiplicity
 _atom_site_fract_x
 _atom_site_fract_y
 _atom_site_fract_z
 _atom_site_occupancy
  Sm  Sm0  1  0.75000000  0.01587469  0.13752339  1
  Sm  Sm1  1  0.75000000  0.51587469  0.36247661  1
  Sm  Sm2  1  0.25000000  0.98412531  0.86247661  1
  Sm  Sm3  1  0.25000000  0.48412531  0.63752339  1
  Sm  Sm4  1  0.75000000  0.48444883  0.85343322  1
  Sm  Sm5  1  0.75000000  0.98444883  0.64656678  1
  Sm  Sm6  1  0.25000000  0.51555117  0.14656678  1
  Sm  Sm7  1  0.25000000  0.01555117  0.35343322  1
  P  P8  1  0.96036679  0.20030598  0.50263737  1
  P  P9  1  0.53963321  0.70030598  0.99736263  1
  P  P10  1  0.46036679  0.79969402  0.49736263  1
  P  P11  1  0.03963321  0.29969402  0.00263737  1
  P  P12  1  0.03963321  0.79969402  0.49736263  1
  P  P13  1  0.46036679  0.29969402  0.00263737  1
  P  P14  1  0.53963321  0.20030598  0.50263737  1
  P  P15  1  0.96036679  0.70030598  0.99736263  1
  S  S16  1  0.75000000  0.01517907  0.31092614  1
  S  S17  1  0.75000000  0.51517907  0.18907386  1
  S  S18  1  0.25000000  0.98482093  0.68907386  1
  S  S19  1  0.25000000  0.48482093  0.81092614  1
  S  S20  1  0.75000000  0.48793780  0.68319678  1
  S  S21  1  0.75000000  0.98793780  0.81680322  1
  S  S22  1  0.25000000  0.51206220  0.31680322  1
  S  S23  1  0.25000000  0.01206220  0.18319678  1
