# generated using pymatgen
data_LiDy(WO4)2
_symmetry_space_group_name_H-M   'P 1'
_cell_length_a   5.10635006
_cell_length_b   5.90662340
_cell_length_c   10.13976781
_cell_angle_alpha   90.00000000
_cell_angle_beta   94.56844780
_cell_angle_gamma   90.00000000
_symmetry_Int_Tables_number   1
_chemical_formula_structural   LiDy(WO4)2
_chemical_formula_sum   'Li2 Dy2 W4 O16'
_cell_volume   304.85679452
_cell_formula_units_Z   2
loop_
 _symmetry_equiv_pos_site_id
 _symmetry_equiv_pos_as_xyz
  1  'x, y, z'
loop_
 _atom_site_type_symbol
 _atom_site_label
 _atom_site_symmetry_multiplicity
 _atom_site_fract_x
 _atom_site_fract_y
 _atom_site_fract_z
 _atom_site_occupancy
  Li  Li0  1  0.75000000  0.24190527  0.25000000  1
  Li  Li1  1  0.25000000  0.75809473  0.75000000  1
  Dy  Dy2  1  0.25000000  0.68521457  0.25000000  1
  Dy  Dy3  1  0.75000000  0.31478543  0.75000000  1
  W  W4  1  0.25051143  0.17484301  0.48580495  1
  W  W5  1  0.74948857  0.82515699  0.51419505  1
  W  W6  1  0.24948857  0.17484301  0.01419505  1
  W  W7  1  0.75051143  0.82515699  0.98580495  1
  O  O8  1  0.59790043  0.62559835  0.39438928  1
  O  O9  1  0.40209957  0.37440165  0.60561072  1
  O  O10  1  0.90209957  0.62559835  0.10561072  1
  O  O11  1  0.09790043  0.37440165  0.89438928  1
  O  O12  1  0.09346535  0.36815913  0.36283309  1
  O  O13  1  0.90653465  0.63184087  0.63716691  1
  O  O14  1  0.40653465  0.36815913  0.13716691  1
  O  O15  1  0.59346535  0.63184087  0.86283309  1
  O  O16  1  0.53230693  0.07789810  0.38628804  1
  O  O17  1  0.46769307  0.92210190  0.61371196  1
  O  O18  1  0.96769307  0.07789810  0.11371196  1
  O  O19  1  0.03230693  0.92210190  0.88628804  1
  O  O20  1  0.04811437  0.88700084  0.40388979  1
  O  O21  1  0.95188563  0.11299916  0.59611021  1
  O  O22  1  0.45188563  0.88700084  0.09611021  1
  O  O23  1  0.54811437  0.11299916  0.90388979  1
