# generated using pymatgen
data_KBaAsSe3
_symmetry_space_group_name_H-M   'P 1'
_cell_length_a   9.24268513
_cell_length_b   9.55754434
_cell_length_c   9.46659823
_cell_angle_alpha   108.23996378
_cell_angle_beta   90.00000000
_cell_angle_gamma   90.00000000
_symmetry_Int_Tables_number   1
_chemical_formula_structural   KBaAsSe3
_chemical_formula_sum   'K4 Ba4 As4 Se12'
_cell_volume   794.23595109
_cell_formula_units_Z   4
loop_
 _symmetry_equiv_pos_site_id
 _symmetry_equiv_pos_as_xyz
  1  'x, y, z'
loop_
 _atom_site_type_symbol
 _atom_site_label
 _atom_site_symmetry_multiplicity
 _atom_site_fract_x
 _atom_site_fract_y
 _atom_site_fract_z
 _atom_site_occupancy
  K  K0  1  0.58023448  0.59166595  0.22396277  1
  K  K1  1  0.08023448  0.40833405  0.27603723  1
  K  K2  1  0.41976552  0.40833405  0.77603723  1
  K  K3  1  0.91976552  0.59166595  0.72396277  1
  Ba  Ba4  1  0.21483781  0.91684752  0.46485812  1
  Ba  Ba5  1  0.71483781  0.08315248  0.03514188  1
  Ba  Ba6  1  0.78516219  0.08315248  0.53514188  1
  Ba  Ba7  1  0.28516219  0.91684752  0.96485812  1
  As  As8  1  0.95700113  0.75552343  0.14105787  1
  As  As9  1  0.45700113  0.24447657  0.35894213  1
  As  As10  1  0.04299887  0.24447657  0.85894213  1
  As  As11  1  0.54299887  0.75552343  0.64105787  1
  Se  Se12  1  0.69360211  0.35527061  0.40519145  1
  Se  Se13  1  0.19360211  0.64472939  0.09480855  1
  Se  Se14  1  0.30639789  0.64472939  0.59480855  1
  Se  Se15  1  0.80639789  0.35527061  0.90519145  1
  Se  Se16  1  0.51102757  0.97729795  0.27734830  1
  Se  Se17  1  0.01102757  0.02270205  0.22265170  1
  Se  Se18  1  0.48897243  0.02270205  0.72265170  1
  Se  Se19  1  0.98897243  0.97729795  0.77734830  1
  Se  Se20  1  0.89454092  0.72915633  0.37897622  1
  Se  Se21  1  0.39454092  0.27084367  0.12102378  1
  Se  Se22  1  0.10545908  0.27084367  0.62102378  1
  Se  Se23  1  0.60545908  0.72915633  0.87897622  1
