# generated using pymatgen
data_Y4Ni13C4
_symmetry_space_group_name_H-M   'P 1'
_cell_length_a   3.86097101
_cell_length_b   8.41762034
_cell_length_c   8.41762034
_cell_angle_alpha   91.52870672
_cell_angle_beta   90.00000000
_cell_angle_gamma   90.00000000
_symmetry_Int_Tables_number   1
_chemical_formula_structural   Y4Ni13C4
_chemical_formula_sum   'Y4 Ni13 C4'
_cell_volume   273.47687517
_cell_formula_units_Z   1
loop_
 _symmetry_equiv_pos_site_id
 _symmetry_equiv_pos_as_xyz
  1  'x, y, z'
loop_
 _atom_site_type_symbol
 _atom_site_label
 _atom_site_symmetry_multiplicity
 _atom_site_fract_x
 _atom_site_fract_y
 _atom_site_fract_z
 _atom_site_occupancy
  Y  Y0  1  0.50000000  0.18786951  0.81213049  1
  Y  Y1  1  0.50000000  0.81213049  0.18786951  1
  Y  Y2  1  0.50000000  0.65090429  0.65090429  1
  Y  Y3  1  0.50000000  0.34909571  0.34909571  1
  Ni  Ni4  1  0.50000000  -0.00000000  0.50000000  1
  Ni  Ni5  1  0.50000000  0.50000000  -0.00000000  1
  Ni  Ni6  1  -0.00000000  -0.00000000  -0.00000000  1
  Ni  Ni7  1  0.00000000  0.78408377  0.43101456  1
  Ni  Ni8  1  0.00000000  0.21591623  0.56898544  1
  Ni  Ni9  1  0.00000000  0.56898544  0.21591623  1
  Ni  Ni10  1  0.00000000  0.43101456  0.78408377  1
  Ni  Ni11  1  -0.00000000  0.92568173  0.70927982  1
  Ni  Ni12  1  -0.00000000  0.07431827  0.29072018  1
  Ni  Ni13  1  -0.00000000  0.29072018  0.07431827  1
  Ni  Ni14  1  -0.00000000  0.70927982  0.92568173  1
  Ni  Ni15  1  0.50000000  0.87593099  0.87593099  1
  Ni  Ni16  1  0.50000000  0.12406901  0.12406901  1
  C  C17  1  0.00000000  0.55653794  0.44346206  1
  C  C18  1  0.00000000  0.44346206  0.55653794  1
  C  C19  1  0.00000000  -0.00000000  0.50000000  1
  C  C20  1  0.00000000  0.50000000  -0.00000000  1
