# generated using pymatgen
data_Ce11In9Ni4
_symmetry_space_group_name_H-M   'P 1'
_cell_length_a   3.69603181
_cell_length_b   13.02048153
_cell_length_c   13.02048153
_cell_angle_alpha   112.24577700
_cell_angle_beta   90.00000000
_cell_angle_gamma   90.00000000
_symmetry_Int_Tables_number   1
_chemical_formula_structural   Ce11In9Ni4
_chemical_formula_sum   'Ce11 In9 Ni4'
_cell_volume   579.96036629
_cell_formula_units_Z   1
loop_
 _symmetry_equiv_pos_site_id
 _symmetry_equiv_pos_as_xyz
  1  'x, y, z'
loop_
 _atom_site_type_symbol
 _atom_site_label
 _atom_site_symmetry_multiplicity
 _atom_site_fract_x
 _atom_site_fract_y
 _atom_site_fract_z
 _atom_site_occupancy
  Ce  Ce0  1  -0.00000000  0.92945494  0.58418278  1
  Ce  Ce1  1  -0.00000000  0.07054506  0.41581722  1
  Ce  Ce2  1  0.00000000  0.58418278  0.92945494  1
  Ce  Ce3  1  0.00000000  0.41581722  0.07054506  1
  Ce  Ce4  1  0.00000000  0.15636405  0.84363595  1
  Ce  Ce5  1  -0.00000000  0.84363595  0.15636405  1
  Ce  Ce6  1  0.00000000  0.37549663  0.62450337  1
  Ce  Ce7  1  -0.00000000  0.62450337  0.37549663  1
  Ce  Ce8  1  -0.00000000  0.68686292  0.68686292  1
  Ce  Ce9  1  0.00000000  0.31313708  0.31313708  1
  Ce  Ce10  1  -0.00000000  -0.00000000  0.00000000  1
  In  In11  1  0.50000000  0.16237154  0.63178023  1
  In  In12  1  0.50000000  0.83762846  0.36821977  1
  In  In13  1  0.50000000  0.63178023  0.16237154  1
  In  In14  1  0.50000000  0.36821977  0.83762846  1
  In  In15  1  0.50000000  0.91849996  0.77853243  1
  In  In16  1  0.50000000  0.08150004  0.22146757  1
  In  In17  1  0.50000000  0.77853243  0.91849996  1
  In  In18  1  0.50000000  0.22146757  0.08150004  1
  In  In19  1  0.50000000  0.50000000  0.50000000  1
  Ni  Ni20  1  0.50000000  0.74810455  0.54906158  1
  Ni  Ni21  1  0.50000000  0.25189545  0.45093842  1
  Ni  Ni22  1  0.50000000  0.54906158  0.74810455  1
  Ni  Ni23  1  0.50000000  0.45093842  0.25189545  1
