# generated using pymatgen
data_Tl3V5O14
_symmetry_space_group_name_H-M   'P 1'
_cell_length_a   5.32839396
_cell_length_b   8.85148585
_cell_length_c   8.85141403
_cell_angle_alpha   119.99972735
_cell_angle_beta   90.00059101
_cell_angle_gamma   89.99970451
_symmetry_Int_Tables_number   1
_chemical_formula_structural   Tl3V5O14
_chemical_formula_sum   'Tl3 V5 O14'
_cell_volume   361.54052759
_cell_formula_units_Z   1
loop_
 _symmetry_equiv_pos_site_id
 _symmetry_equiv_pos_as_xyz
  1  'x, y, z'
loop_
 _atom_site_type_symbol
 _atom_site_label
 _atom_site_symmetry_multiplicity
 _atom_site_fract_x
 _atom_site_fract_y
 _atom_site_fract_z
 _atom_site_occupancy
  Tl  Tl0  1  0.23499038  0.60886151  0.60886046  1
  Tl  Tl1  1  0.23499038  0.39113849  0.99999895  1
  Tl  Tl2  1  0.23499916  0.00000000  0.39114471  1
  V  V3  1  0.70400445  0.66665406  0.33332438  1
  V  V4  1  0.70400445  0.33334594  0.66667033  1
  V  V5  1  0.71147848  1.00000000  0.77224064  1
  V  V6  1  0.71149219  0.22775341  0.22775819  1
  V  V7  1  0.71149219  0.77224659  0.00000478  1
  O  O8  1  0.01647096  0.33338178  0.66669150  1
  O  O9  1  0.01647096  0.66661822  0.33330972  1
  O  O10  1  0.01658525  0.24632711  0.24632818  1
  O  O11  1  0.01658525  0.75367289  0.00000107  1
  O  O12  1  0.01659269  1.00000000  0.75367061  1
  O  O13  1  0.64327461  0.83208111  0.83208070  1
  O  O14  1  0.64327461  0.16791889  -0.00000040  1
  O  O15  1  0.64327663  0.00000000  0.16792423  1
  O  O16  1  0.59010728  0.29171943  0.46085319  1
  O  O17  1  0.59008301  0.53915909  0.83086801  1
  O  O18  1  0.59011841  0.16914156  0.70828481  1
  O  O19  1  0.59010728  0.70828057  0.16913377  1
  O  O20  1  0.59011841  0.83085844  0.53914325  1
  O  O21  1  0.59008301  0.46084091  0.29170892  1
