# generated using pymatgen
data_Cd4FeS5
_symmetry_space_group_name_H-M   'P 1'
_cell_length_a   4.14671350
_cell_length_b   17.94042242
_cell_length_c   6.79451000
_cell_angle_alpha   90.70831158
_cell_angle_beta   89.87216315
_cell_angle_gamma   83.54494225
_symmetry_Int_Tables_number   1
_chemical_formula_structural   Cd4FeS5
_chemical_formula_sum   'Cd8 Fe2 S10'
_cell_volume   502.22314674
_cell_formula_units_Z   2
loop_
 _symmetry_equiv_pos_site_id
 _symmetry_equiv_pos_as_xyz
  1  'x, y, z'
loop_
 _atom_site_type_symbol
 _atom_site_label
 _atom_site_symmetry_multiplicity
 _atom_site_fract_x
 _atom_site_fract_y
 _atom_site_fract_z
 _atom_site_occupancy
  Cd  Cd0  1  0.93116112  0.13691743  0.49818478  1
  Cd  Cd1  1  0.33269250  0.33374490  0.49444783  1
  Cd  Cd2  1  0.73562886  0.52843465  0.49514873  1
  Cd  Cd3  1  0.13360390  0.73193343  0.50055767  1
  Cd  Cd4  1  0.53263787  0.93377463  0.50030865  1
  Cd  Cd5  1  0.46396863  0.07321972  0.00303905  1
  Cd  Cd6  1  0.67128060  0.65838676  0.00236719  1
  Cd  Cd7  1  0.06758129  0.86619907  0.00142693  1
  Fe  Fe8  1  0.86138560  0.27475167  0.99737559  1
  Fe  Fe9  1  0.27190975  0.46026526  0.00286362  1
  S  S10  1  0.92467154  0.14871304  0.11842019  1
  S  S11  1  0.33229116  0.33326714  0.10868736  1
  S  S12  1  0.74094153  0.51821625  0.11037521  1
  S  S13  1  0.13402428  0.73041057  0.12209292  1
  S  S14  1  0.53081770  0.93689645  0.12252737  1
  S  S15  1  0.46629627  0.06860791  0.62333446  1
  S  S16  1  0.86557199  0.26945371  0.64985344  1
  S  S17  1  0.26742899  0.46608795  0.65236156  1
  S  S18  1  0.66872792  0.66408785  0.62257109  1
  S  S19  1  0.06737850  0.86663159  0.62405635  1
