# generated using pymatgen
data_Ca4Si3(BO4)5
_symmetry_space_group_name_H-M   'P 1'
_cell_length_a   4.95511374
_cell_length_b   7.64003487
_cell_length_c   9.46812369
_cell_angle_alpha   90.02989182
_cell_angle_beta   91.91022890
_cell_angle_gamma   90.13595083
_symmetry_Int_Tables_number   1
_chemical_formula_structural   Ca4Si3(BO4)5
_chemical_formula_sum   'Ca4 Si3 B5 O20'
_cell_volume   358.23678429
_cell_formula_units_Z   1
loop_
 _symmetry_equiv_pos_site_id
 _symmetry_equiv_pos_as_xyz
  1  'x, y, z'
loop_
 _atom_site_type_symbol
 _atom_site_label
 _atom_site_symmetry_multiplicity
 _atom_site_fract_x
 _atom_site_fract_y
 _atom_site_fract_z
 _atom_site_occupancy
  Ca  Ca0  1  0.99750371  0.37872367  0.82416103  1
  Ca  Ca1  1  0.00269695  0.88491255  0.67352970  1
  Ca  Ca2  1  0.00388008  0.61050335  0.17404090  1
  Ca  Ca3  1  0.99525424  0.11884540  0.33260948  1
  Si  Si4  1  0.52485683  0.74337040  0.91073207  1
  Si  Si5  1  0.53025130  0.75586018  0.41395443  1
  Si  Si6  1  0.47134042  0.25648305  0.08583997  1
  B  B7  1  0.54805639  0.09990375  0.82060887  1
  B  B8  1  0.44225300  0.59062328  0.66785053  1
  B  B9  1  0.43300093  0.90657222  0.16964995  1
  B  B10  1  0.55958752  0.39896705  0.33757327  1
  B  B11  1  0.49442402  0.25205591  0.58718659  1
  O  O12  1  0.26975229  0.12799065  0.55867832  1
  O  O13  1  0.76576526  0.60661545  0.95029259  1
  O  O14  1  0.76142475  0.89839061  0.45450552  1
  O  O15  1  0.24301434  0.40174123  0.04717731  1
  O  O16  1  0.25524421  0.10019225  0.80001183  1
  O  O17  1  0.73542044  0.60228845  0.69534395  1
  O  O18  1  0.72819256  0.90124389  0.19646222  1
  O  O19  1  0.26718687  0.39454873  0.30951370  1
  O  O20  1  0.35840327  0.40668361  0.64943019  1
  O  O21  1  0.65770887  0.91985093  0.83940907  1
  O  O22  1  0.67165249  0.57821378  0.35278204  1
  O  O23  1  0.32183961  0.08193341  0.14907578  1
  O  O24  1  0.64223645  0.20636671  0.94503245  1
  O  O25  1  0.34857836  0.70422192  0.55080928  1
  O  O26  1  0.35228841  0.79233551  0.04989578  1
  O  O27  1  0.63812422  0.28800044  0.45809619  1
  O  O28  1  0.68132907  0.17557914  0.69515405  1
  O  O29  1  0.30089325  0.65787427  0.79495781  1
  O  O30  1  0.30129769  0.83253199  0.29766038  1
  O  O31  1  0.69654222  0.32657623  0.20797474  1
