# generated using pymatgen
data_Na2Th(AsO4)2
_symmetry_space_group_name_H-M   'P 1'
_cell_length_a   7.16299577
_cell_length_b   7.17783889
_cell_length_c   9.92167864
_cell_angle_alpha   79.62352595
_cell_angle_beta   68.83979038
_cell_angle_gamma   60.06838238
_symmetry_Int_Tables_number   1
_chemical_formula_structural   Na2Th(AsO4)2
_chemical_formula_sum   'Na4 Th2 As4 O16'
_cell_volume   412.27468670
_cell_formula_units_Z   2
loop_
 _symmetry_equiv_pos_site_id
 _symmetry_equiv_pos_as_xyz
  1  'x, y, z'
loop_
 _atom_site_type_symbol
 _atom_site_label
 _atom_site_symmetry_multiplicity
 _atom_site_fract_x
 _atom_site_fract_y
 _atom_site_fract_z
 _atom_site_occupancy
  Na  Na0  1  0.73185273  0.75000000  0.53629455  1
  Na  Na1  1  0.01814727  0.75000000  0.96370545  1
  Na  Na2  1  0.26814727  0.25000000  0.46370545  1
  Na  Na3  1  0.98185273  0.25000000  0.03629455  1
  Th  Th4  1  0.37500000  0.75000000  0.25000000  1
  Th  Th5  1  0.62500000  0.25000000  0.75000000  1
  As  As6  1  0.55385853  0.75000000  0.89228294  1
  As  As7  1  0.19614147  0.75000000  0.60771706  1
  As  As8  1  0.44614147  0.25000000  0.10771706  1
  As  As9  1  0.80385853  0.25000000  0.39228294  1
  O  O10  1  0.70473118  0.68020875  0.01120998  1
  O  O11  1  0.39614991  0.81979125  0.48879002  1
  O  O12  1  0.11506007  0.68020875  0.48879002  1
  O  O13  1  0.28405884  0.81979125  0.01120998  1
  O  O14  1  0.29526882  0.31979125  0.98879002  1
  O  O15  1  0.60385009  0.18020875  0.51120998  1
  O  O16  1  0.88493993  0.31979125  0.51120998  1
  O  O17  1  0.71594116  0.18020875  0.98879002  1
  O  O18  1  0.66805967  0.54123197  0.77720979  1
  O  O19  1  0.98650144  0.95876803  0.72279021  1
  O  O20  1  0.29070835  0.54123197  0.72279021  1
  O  O21  1  0.55473054  0.95876803  0.77720979  1
  O  O22  1  0.33194033  0.45876803  0.22279021  1
  O  O23  1  0.01349856  0.04123197  0.27720979  1
  O  O24  1  0.70929165  0.45876803  0.27720979  1
  O  O25  1  0.44526946  0.04123197  0.22279021  1
