# generated using pymatgen
data_DyB4Os
_symmetry_space_group_name_H-M   'P 1'
_cell_length_a   3.57128771
_cell_length_b   5.97331788
_cell_length_c   11.55335026
_cell_angle_alpha   90.00000000
_cell_angle_beta   90.00000000
_cell_angle_gamma   90.00000000
_symmetry_Int_Tables_number   1
_chemical_formula_structural   DyB4Os
_chemical_formula_sum   'Dy4 B16 Os4'
_cell_volume   246.46111347
_cell_formula_units_Z   4
loop_
 _symmetry_equiv_pos_site_id
 _symmetry_equiv_pos_as_xyz
  1  'x, y, z'
loop_
 _atom_site_type_symbol
 _atom_site_label
 _atom_site_symmetry_multiplicity
 _atom_site_fract_x
 _atom_site_fract_y
 _atom_site_fract_z
 _atom_site_occupancy
  Dy  Dy0  1  0.00000000  0.62803431  0.34976132  1
  Dy  Dy1  1  0.00000000  0.37196569  0.65023868  1
  Dy  Dy2  1  0.00000000  0.12803431  0.15023868  1
  Dy  Dy3  1  -0.00000000  0.87196569  0.84976132  1
  B  B4  1  0.50000000  0.78855041  0.18579591  1
  B  B5  1  0.50000000  0.21144959  0.81420409  1
  B  B6  1  0.50000000  0.28855041  0.31420409  1
  B  B7  1  0.50000000  0.71144959  0.68579591  1
  B  B8  1  0.50000000  0.86367980  0.03007896  1
  B  B9  1  0.50000000  0.13632020  0.96992104  1
  B  B10  1  0.50000000  0.36367980  0.46992104  1
  B  B11  1  0.50000000  0.63632020  0.53007896  1
  B  B12  1  0.50000000  0.88740733  0.45336612  1
  B  B13  1  0.50000000  0.11259267  0.54663388  1
  B  B14  1  0.50000000  0.38740733  0.04663388  1
  B  B15  1  0.50000000  0.61259267  0.95336612  1
  B  B16  1  0.50000000  0.97465791  0.30876983  1
  B  B17  1  0.50000000  0.02534209  0.69123017  1
  B  B18  1  0.50000000  0.47465791  0.19123017  1
  B  B19  1  0.50000000  0.52534209  0.80876983  1
  Os  Os20  1  -0.00000000  0.64107032  0.09337207  1
  Os  Os21  1  0.00000000  0.35892968  0.90662793  1
  Os  Os22  1  -0.00000000  0.14107032  0.40662793  1
  Os  Os23  1  0.00000000  0.85892968  0.59337207  1
