# generated using pymatgen
data_K5Pr4Si4O16F
_symmetry_space_group_name_H-M   'P 1'
_cell_length_a   5.57404765
_cell_length_b   9.27410923
_cell_length_c   9.27410923
_cell_angle_alpha   84.81854537
_cell_angle_beta   72.51136575
_cell_angle_gamma   72.51136575
_symmetry_Int_Tables_number   1
_chemical_formula_structural   K5Pr4Si4O16F
_chemical_formula_sum   'K5 Pr4 Si4 O16 F1'
_cell_volume   436.12240786
_cell_formula_units_Z   1
loop_
 _symmetry_equiv_pos_site_id
 _symmetry_equiv_pos_as_xyz
  1  'x, y, z'
loop_
 _atom_site_type_symbol
 _atom_site_label
 _atom_site_symmetry_multiplicity
 _atom_site_fract_x
 _atom_site_fract_y
 _atom_site_fract_z
 _atom_site_occupancy
  K  K0  1  0.59235597  0.30497520  0.50941644  1
  K  K1  1  0.40674761  0.69502480  0.49058356  1
  K  K2  1  0.10266883  0.49058356  0.30497520  1
  K  K3  1  0.89822759  0.50941644  0.69502480  1
  K  K4  1  -0.00000000  0.00000000  0.00000000  1
  Pr  Pr5  1  0.63490823  0.69773749  0.06673015  1
  Pr  Pr6  1  0.39937587  0.30226251  0.93326985  1
  Pr  Pr7  1  0.66735428  0.93326985  0.69773749  1
  Pr  Pr8  1  0.29836162  0.06673015  0.30226251  1
  Si  Si9  1  0.74498196  0.34964571  0.14093623  1
  Si  Si10  1  0.23556390  0.65035429  0.85906377  1
  Si  Si11  1  0.90537233  0.85906377  0.34964571  1
  Si  Si12  1  0.11408181  0.14093623  0.65035429  1
  O  O13  1  0.62709570  0.49317557  0.25999051  1
  O  O14  1  0.38026177  0.50682443  0.74000949  1
  O  O15  1  0.87972874  0.74000949  0.49317557  1
  O  O16  1  0.11291380  0.25999051  0.50682443  1
  O  O17  1  0.04244572  0.24840501  0.14644972  1
  O  O18  1  0.43730044  0.75159499  0.85355028  1
  O  O19  1  0.70914928  0.85355028  0.24840501  1
  O  O20  1  0.81110457  0.14644972  0.75159499  1
  O  O21  1  0.54751780  0.24067764  0.16979573  1
  O  O22  1  0.95799117  0.75932236  0.83020427  1
  O  O23  1  0.21180456  0.83020427  0.24067764  1
  O  O24  1  0.28268648  0.16979573  0.75932236  1
  O  O25  1  0.74366369  0.42645263  0.97333540  1
  O  O26  1  0.14345172  0.57354737  0.02666460  1
  O  O27  1  0.82988368  0.02666460  0.42645263  1
  O  O28  1  0.28300090  0.97333540  0.57354737  1
  F  F29  1  0.50000000  0.00000000  0.00000000  1
