# generated using pymatgen
data_NaYbSiO4
_symmetry_space_group_name_H-M   'P 1'
_cell_length_a   5.24132539
_cell_length_b   6.52837027
_cell_length_c   11.38799312
_cell_angle_alpha   90.00000000
_cell_angle_beta   90.00000000
_cell_angle_gamma   90.00000000
_symmetry_Int_Tables_number   1
_chemical_formula_structural   NaYbSiO4
_chemical_formula_sum   'Na4 Yb4 Si4 O16'
_cell_volume   389.66652334
_cell_formula_units_Z   4
loop_
 _symmetry_equiv_pos_site_id
 _symmetry_equiv_pos_as_xyz
  1  'x, y, z'
loop_
 _atom_site_type_symbol
 _atom_site_label
 _atom_site_symmetry_multiplicity
 _atom_site_fract_x
 _atom_site_fract_y
 _atom_site_fract_z
 _atom_site_occupancy
  Na  Na0  1  0.50000000  0.00000000  0.50000000  1
  Na  Na1  1  -0.00000000  0.50000000  0.00000000  1
  Na  Na2  1  0.50000000  0.50000000  0.50000000  1
  Na  Na3  1  -0.00000000  -0.00000000  0.00000000  1
  Yb  Yb4  1  0.00176198  0.75000000  0.27860360  1
  Yb  Yb5  1  0.49823802  0.75000000  0.77860360  1
  Yb  Yb6  1  0.99823802  0.25000000  0.72139640  1
  Yb  Yb7  1  0.50176198  0.25000000  0.22139640  1
  Si  Si8  1  0.56043160  0.75000000  0.10280437  1
  Si  Si9  1  0.93956840  0.75000000  0.60280437  1
  Si  Si10  1  0.43956840  0.25000000  0.89719563  1
  Si  Si11  1  0.06043160  0.25000000  0.39719563  1
  O  O12  1  0.69738303  0.94747836  0.16851012  1
  O  O13  1  0.80261697  0.55252164  0.66851012  1
  O  O14  1  0.30261697  0.44747836  0.83148988  1
  O  O15  1  0.19738303  0.05252164  0.33148988  1
  O  O16  1  0.30261697  0.05252164  0.83148988  1
  O  O17  1  0.19738303  0.44747836  0.33148988  1
  O  O18  1  0.69738303  0.55252164  0.16851012  1
  O  O19  1  0.80261697  0.94747836  0.66851012  1
  O  O20  1  0.83165188  0.75000000  0.46685660  1
  O  O21  1  0.66834812  0.75000000  0.96685660  1
  O  O22  1  0.16834812  0.25000000  0.53314340  1
  O  O23  1  0.33165188  0.25000000  0.03314340  1
  O  O24  1  0.25094047  0.75000000  0.11086714  1
  O  O25  1  0.24905953  0.75000000  0.61086714  1
  O  O26  1  0.74905953  0.25000000  0.88913286  1
  O  O27  1  0.75094047  0.25000000  0.38913286  1
