# generated using pymatgen
data_Mn3TeP2Pb3O14
_symmetry_space_group_name_H-M   'P 1'
_cell_length_a   5.41454249
_cell_length_b   8.66220256
_cell_length_c   8.66218872
_cell_angle_alpha   119.99994392
_cell_angle_beta   89.99999998
_cell_angle_gamma   89.99852950
_symmetry_Int_Tables_number   1
_chemical_formula_structural   Mn3TeP2Pb3O14
_chemical_formula_sum   'Mn3 Te1 P2 Pb3 O14'
_cell_volume   351.84276050
_cell_formula_units_Z   1
loop_
 _symmetry_equiv_pos_site_id
 _symmetry_equiv_pos_as_xyz
  1  'x, y, z'
loop_
 _atom_site_type_symbol
 _atom_site_label
 _atom_site_symmetry_multiplicity
 _atom_site_fract_x
 _atom_site_fract_y
 _atom_site_fract_z
 _atom_site_occupancy
  Mn  Mn0  1  0.49999727  0.74938053  0.74937421  1
  Mn  Mn1  1  0.50000273  0.25061947  0.99999368  1
  Mn  Mn2  1  0.50000000  0.00000000  0.25063853  1
  Te  Te3  1  -0.00000000  0.00000000  0.00000212  1
  P  P4  1  0.55370615  0.33335529  0.66667607  1
  P  P5  1  0.44629385  0.66664471  0.33332078  1
  Pb  Pb6  1  0.00000970  0.39770662  0.39769944  1
  Pb  Pb7  1  0.99999030  0.60229338  0.99999282  1
  Pb  Pb8  1  0.00000000  1.00000000  0.60231540  1
  O  O9  1  0.26959928  0.33338881  0.66669465  1
  O  O10  1  0.73040072  0.66661119  0.33330585  1
  O  O11  1  0.33563381  0.72972453  0.52320982  1
  O  O12  1  0.33560482  0.47677203  0.20651261  1
  O  O13  1  0.33564610  0.79346958  0.27025851  1
  O  O14  1  0.66436619  0.27027547  0.79348530  1
  O  O15  1  0.66435390  0.20653042  0.47678893  1
  O  O16  1  0.66439518  0.52322797  0.72974057  1
  O  O17  1  0.20737103  0.08551509  0.87343245  1
  O  O18  1  0.20737341  0.12655717  0.21207680  1
  O  O19  1  0.20737168  0.78791959  0.91448203  1
  O  O20  1  0.79262897  0.91448491  0.78791737  1
  O  O21  1  0.79262832  0.21208041  0.12656245  1
  O  O22  1  0.79262659  0.87344283  0.08551962  1
