# generated using pymatgen
data_Ho3Te3N
_symmetry_space_group_name_H-M   'P 1'
_cell_length_a   8.09345806
_cell_length_b   8.65559556
_cell_length_c   11.95082676
_cell_angle_alpha   90.00000000
_cell_angle_beta   90.00000000
_cell_angle_gamma   108.94592244
_symmetry_Int_Tables_number   1
_chemical_formula_structural   Ho3Te3N
_chemical_formula_sum   'Ho12 Te12 N4'
_cell_volume   791.84470277
_cell_formula_units_Z   4
loop_
 _symmetry_equiv_pos_site_id
 _symmetry_equiv_pos_as_xyz
  1  'x, y, z'
loop_
 _atom_site_type_symbol
 _atom_site_label
 _atom_site_symmetry_multiplicity
 _atom_site_fract_x
 _atom_site_fract_y
 _atom_site_fract_z
 _atom_site_occupancy
  Ho  Ho0  1  0.60213250  0.36316875  0.52269368  1
  Ho  Ho1  1  0.39786750  0.13683125  0.02269368  1
  Ho  Ho2  1  0.39786750  0.63683125  0.47730632  1
  Ho  Ho3  1  0.60213250  0.86316875  0.97730632  1
  Ho  Ho4  1  0.83946810  0.29503881  0.91227982  1
  Ho  Ho5  1  0.16053190  0.20496119  0.41227982  1
  Ho  Ho6  1  0.16053190  0.70496119  0.08772018  1
  Ho  Ho7  1  0.83946810  0.79503881  0.58772018  1
  Ho  Ho8  1  0.76577952  0.15383219  0.20957458  1
  Ho  Ho9  1  0.23422048  0.34616781  0.70957458  1
  Ho  Ho10  1  0.23422048  0.84616781  0.79042542  1
  Ho  Ho11  1  0.76577952  0.65383219  0.29042542  1
  Te  Te12  1  0.77557212  0.08578386  0.48002708  1
  Te  Te13  1  0.22442788  0.41421614  0.98002708  1
  Te  Te14  1  0.22442788  0.91421614  0.51997292  1
  Te  Te15  1  0.77557212  0.58578386  0.01997292  1
  Te  Te16  1  0.50875853  0.18719847  0.76594265  1
  Te  Te17  1  0.49124147  0.31280153  0.26594265  1
  Te  Te18  1  0.49124147  0.81280153  0.23405735  1
  Te  Te19  1  0.50875853  0.68719847  0.73405735  1
  Te  Te20  1  0.95484085  0.01743711  0.80863536  1
  Te  Te21  1  0.04515915  0.48256289  0.30863536  1
  Te  Te22  1  0.04515915  0.98256289  0.19136464  1
  Te  Te23  1  0.95484085  0.51743711  0.69136464  1
  N  N24  1  0.67312921  0.12381951  0.03490504  1
  N  N25  1  0.32687079  0.37618049  0.53490504  1
  N  N26  1  0.32687079  0.87618049  0.96509496  1
  N  N27  1  0.67312921  0.62381951  0.46509496  1
