# generated using pymatgen
data_Ba2U(PO5)2
_symmetry_space_group_name_H-M   'P 1'
_cell_length_a   6.84068111
_cell_length_b   8.80010647
_cell_length_c   9.17649620
_cell_angle_alpha   105.20768741
_cell_angle_beta   93.54910537
_cell_angle_gamma   111.72644046
_symmetry_Int_Tables_number   1
_chemical_formula_structural   Ba2U(PO5)2
_chemical_formula_sum   'Ba4 U2 P4 O20'
_cell_volume   487.34777271
_cell_formula_units_Z   2
loop_
 _symmetry_equiv_pos_site_id
 _symmetry_equiv_pos_as_xyz
  1  'x, y, z'
loop_
 _atom_site_type_symbol
 _atom_site_label
 _atom_site_symmetry_multiplicity
 _atom_site_fract_x
 _atom_site_fract_y
 _atom_site_fract_z
 _atom_site_occupancy
  Ba  Ba0  1  0.33940931  0.95064266  0.23826331  1
  Ba  Ba1  1  0.66059069  0.04935734  0.76173669  1
  Ba  Ba2  1  0.68777553  0.58196387  0.29479323  1
  Ba  Ba3  1  0.31222447  0.41803613  0.70520677  1
  U  U4  1  0.00565038  0.25277674  0.21788503  1
  U  U5  1  0.99434962  0.74722326  0.78211497  1
  P  P6  1  0.27839683  0.68819329  0.46568210  1
  P  P7  1  0.72160317  0.31180671  0.53431790  1
  P  P8  1  0.29582871  0.18209856  0.96805059  1
  P  P9  1  0.70417129  0.81790144  0.03194941  1
  O  O10  1  0.50691012  0.80718671  0.46050484  1
  O  O11  1  0.49308988  0.19281329  0.53949516  1
  O  O12  1  0.24985636  0.71392539  0.63841112  1
  O  O13  1  0.75014364  0.28607461  0.36158888  1
  O  O14  1  0.25460431  0.49505586  0.40323610  1
  O  O15  1  0.74539569  0.50494414  0.59676390  1
  O  O16  1  0.10871808  0.71830259  0.37503438  1
  O  O17  1  0.89128192  0.28169741  0.62496562  1
  O  O18  1  0.34496681  0.25679850  0.14835023  1
  O  O19  1  0.65503319  0.74320150  0.85164977  1
  O  O20  1  0.28686960  0.99296606  0.92616706  1
  O  O21  1  0.71313040  0.00703394  0.07383294  1
  O  O22  1  0.06192396  0.12980025  0.33566110  1
  O  O23  1  0.93807604  0.87019975  0.66433890  1
  O  O24  1  0.47081963  0.28604661  0.89494668  1
  O  O25  1  0.52918037  0.71395339  0.10505332  1
  O  O26  1  0.92828042  0.38670785  0.12436933  1
  O  O27  1  0.07171958  0.61329215  0.87563067  1
  O  O28  1  0.07132470  0.17576311  0.92242853  1
  O  O29  1  0.92867530  0.82423689  0.07757147  1
