# generated using pymatgen
data_CsGa9Au5
_symmetry_space_group_name_H-M   'P 1'
_cell_length_a   7.82906413
_cell_length_b   7.82907465
_cell_length_c   12.41850634
_cell_angle_alpha   90.00000000
_cell_angle_beta   90.00000000
_cell_angle_gamma   120.01153462
_symmetry_Int_Tables_number   1
_chemical_formula_structural   CsGa9Au5
_chemical_formula_sum   'Cs2 Ga18 Au10'
_cell_volume   659.12804413
_cell_formula_units_Z   2
loop_
 _symmetry_equiv_pos_site_id
 _symmetry_equiv_pos_as_xyz
  1  'x, y, z'
loop_
 _atom_site_type_symbol
 _atom_site_label
 _atom_site_symmetry_multiplicity
 _atom_site_fract_x
 _atom_site_fract_y
 _atom_site_fract_z
 _atom_site_occupancy
  Cs  Cs0  1  0.00000000  0.00000000  0.50000000  1
  Cs  Cs1  1  0.00000000  0.00000000  0.00000000  1
  Ga  Ga2  1  0.53857625  0.46141864  0.59776489  1
  Ga  Ga3  1  0.92279578  0.46137701  0.59776230  1
  Ga  Ga4  1  0.53862144  0.07719992  0.59775313  1
  Ga  Ga5  1  0.46142375  0.53858136  0.40223511  1
  Ga  Ga6  1  0.07720422  0.53862299  0.40223770  1
  Ga  Ga7  1  0.46137856  0.92280008  0.40224687  1
  Ga  Ga8  1  0.46142375  0.53858136  0.09776489  1
  Ga  Ga9  1  0.07720422  0.53862299  0.09776230  1
  Ga  Ga10  1  0.46137856  0.92280008  0.09775313  1
  Ga  Ga11  1  0.53857625  0.46141864  0.90223511  1
  Ga  Ga12  1  0.92279578  0.46137701  0.90223770  1
  Ga  Ga13  1  0.53862144  0.07719992  0.90224687  1
  Ga  Ga14  1  0.19421065  0.80578253  0.75000000  1
  Ga  Ga15  1  0.61155049  0.80576330  0.75000000  1
  Ga  Ga16  1  0.19424055  0.38844599  0.75000000  1
  Ga  Ga17  1  0.80578935  0.19421747  0.25000000  1
  Ga  Ga18  1  0.38844951  0.19423670  0.25000000  1
  Ga  Ga19  1  0.80575945  0.61155401  0.25000000  1
  Au  Au20  1  0.33331381  0.66668416  0.58332533  1
  Au  Au21  1  0.66668619  0.33331584  0.41667467  1
  Au  Au22  1  0.66668619  0.33331584  0.08332533  1
  Au  Au23  1  0.33331381  0.66668416  0.91667467  1
  Au  Au24  1  0.80967927  0.61934982  0.75000000  1
  Au  Au25  1  0.80966601  0.19033488  0.75000000  1
  Au  Au26  1  0.38065454  0.19030968  0.75000000  1
  Au  Au27  1  0.19032073  0.38065018  0.25000000  1
  Au  Au28  1  0.19033399  0.80966512  0.25000000  1
  Au  Au29  1  0.61934546  0.80969032  0.25000000  1
