# generated using pymatgen
data_Ba3AlAs3
_symmetry_space_group_name_H-M   'P 1'
_cell_length_a   6.93184978
_cell_length_b   10.64863486
_cell_length_c   13.50932698
_cell_angle_alpha   90.00000000
_cell_angle_beta   90.00000000
_cell_angle_gamma   108.99470248
_symmetry_Int_Tables_number   1
_chemical_formula_structural   Ba3AlAs3
_chemical_formula_sum   'Ba12 Al4 As12'
_cell_volume   942.88924249
_cell_formula_units_Z   4
loop_
 _symmetry_equiv_pos_site_id
 _symmetry_equiv_pos_as_xyz
  1  'x, y, z'
loop_
 _atom_site_type_symbol
 _atom_site_label
 _atom_site_symmetry_multiplicity
 _atom_site_fract_x
 _atom_site_fract_y
 _atom_site_fract_z
 _atom_site_occupancy
  Ba  Ba0  1  0.66946348  0.00000000  0.15310880  1
  Ba  Ba1  1  0.33053652  1.00000000  0.84689120  1
  Ba  Ba2  1  0.83053652  1.00000000  0.65310880  1
  Ba  Ba3  1  0.16946348  0.00000000  0.34689120  1
  Ba  Ba4  1  0.98825339  0.35251219  0.36996567  1
  Ba  Ba5  1  0.36425880  0.35251219  0.63003433  1
  Ba  Ba6  1  0.86425880  0.35251219  0.86996567  1
  Ba  Ba7  1  0.48825339  0.35251219  0.13003433  1
  Ba  Ba8  1  0.01174661  0.64748781  0.63003433  1
  Ba  Ba9  1  0.63574120  0.64748781  0.36996567  1
  Ba  Ba10  1  0.13574120  0.64748781  0.13003433  1
  Ba  Ba11  1  0.51174661  0.64748781  0.86996567  1
  Al  Al12  1  0.58265640  0.16531280  0.50000000  1
  Al  Al13  1  0.08265640  0.16531280  -0.00000000  1
  Al  Al14  1  0.41734360  0.83468720  0.50000000  1
  Al  Al15  1  0.91734360  0.83468720  -0.00000000  1
  As  As16  1  0.70292131  1.00000000  0.40390780  1
  As  As17  1  0.29707869  0.00000000  0.59609220  1
  As  As18  1  0.79707869  0.00000000  0.90390780  1
  As  As19  1  0.20292131  1.00000000  0.09609220  1
  As  As20  1  0.15304747  0.68814920  0.38219797  1
  As  As21  1  0.53510173  0.68814920  0.61780203  1
  As  As22  1  0.03510173  0.68814920  0.88219797  1
  As  As23  1  0.65304747  0.68814920  0.11780203  1
  As  As24  1  0.84695253  0.31185080  0.61780203  1
  As  As25  1  0.46489827  0.31185080  0.38219797  1
  As  As26  1  0.96489827  0.31185080  0.11780203  1
  As  As27  1  0.34695253  0.31185080  0.88219797  1
