# generated using pymatgen
data_Cs4Mn(AsS4)2
_symmetry_space_group_name_H-M   'P 1'
_cell_length_a   9.60230207
_cell_length_b   9.76252881
_cell_length_c   11.58446711
_cell_angle_alpha   105.22175481
_cell_angle_beta   104.62020041
_cell_angle_gamma   90.74923006
_symmetry_Int_Tables_number   1
_chemical_formula_structural   Cs4Mn(AsS4)2
_chemical_formula_sum   'Cs8 Mn2 As4 S16'
_cell_volume   1010.26331419
_cell_formula_units_Z   2
loop_
 _symmetry_equiv_pos_site_id
 _symmetry_equiv_pos_as_xyz
  1  'x, y, z'
loop_
 _atom_site_type_symbol
 _atom_site_label
 _atom_site_symmetry_multiplicity
 _atom_site_fract_x
 _atom_site_fract_y
 _atom_site_fract_z
 _atom_site_occupancy
  Cs  Cs0  1  0.93205704  0.52181796  0.24988027  1
  Cs  Cs1  1  0.06793544  0.47818751  0.75011718  1
  Cs  Cs2  1  0.76098624  0.98242888  0.45615459  1
  Cs  Cs3  1  0.23901349  0.01756899  0.54384472  1
  Cs  Cs4  1  0.59893409  0.74290424  0.01517705  1
  Cs  Cs5  1  0.40106725  0.25709462  0.98482340  1
  Cs  Cs6  1  0.61841315  0.68301686  0.62405487  1
  Cs  Cs7  1  0.38158644  0.31698377  0.37594704  1
  Mn  Mn8  1  0.85082378  0.13924695  0.92738607  1
  Mn  Mn9  1  0.14918608  0.86075538  0.07261686  1
  As  As10  1  0.95450206  0.10982210  0.22023950  1
  As  As11  1  0.04549695  0.89017868  0.77976048  1
  As  As12  1  0.36284505  0.69346736  0.25367702  1
  As  As13  1  0.63715401  0.30653158  0.74632117  1
  S  S14  1  0.98296649  0.88748007  0.22148228  1
  S  S15  1  0.01703194  0.11251684  0.77851720  1
  S  S16  1  0.61036422  0.08271168  0.75311301  1
  S  S17  1  0.38963455  0.91728716  0.24688512  1
  S  S18  1  0.28470930  0.67224198  0.40965151  1
  S  S19  1  0.71528817  0.32775693  0.59034815  1
  S  S20  1  0.80301501  0.39728779  0.92228694  1
  S  S21  1  0.19698451  0.60271241  0.07771645  1
  S  S22  1  0.00691840  0.25006249  0.40746441  1
  S  S23  1  0.99308104  0.74993706  0.59253248  1
  S  S24  1  0.09270210  0.16060404  0.10885821  1
  S  S25  1  0.90729838  0.83939528  0.89114349  1
  S  S26  1  0.73941382  0.13213876  0.10776170  1
  S  S27  1  0.26058679  0.86786164  0.89223915  1
  S  S28  1  0.56493802  0.59134486  0.26149125  1
  S  S29  1  0.43506621  0.40865612  0.73850845  1
