# generated using pymatgen
data_Ce3(Si3Pd10)2
_symmetry_space_group_name_H-M   'P 1'
_cell_length_a   8.74077222
_cell_length_b   8.74077222
_cell_length_c   8.74077222
_cell_angle_alpha   60.00000000
_cell_angle_beta   60.00000000
_cell_angle_gamma   60.00000000
_symmetry_Int_Tables_number   1
_chemical_formula_structural   Ce3(Si3Pd10)2
_chemical_formula_sum   'Ce3 Si6 Pd20'
_cell_volume   472.20916391
_cell_formula_units_Z   1
loop_
 _symmetry_equiv_pos_site_id
 _symmetry_equiv_pos_as_xyz
  1  'x, y, z'
loop_
 _atom_site_type_symbol
 _atom_site_label
 _atom_site_symmetry_multiplicity
 _atom_site_fract_x
 _atom_site_fract_y
 _atom_site_fract_z
 _atom_site_occupancy
  Ce  Ce0  1  -0.00000000  0.00000000  0.00000000  1
  Ce  Ce1  1  0.25000000  0.25000000  0.25000000  1
  Ce  Ce2  1  0.75000000  0.75000000  0.75000000  1
  Si  Si3  1  0.73227869  0.26772131  0.26772131  1
  Si  Si4  1  0.73227869  0.26772131  0.73227869  1
  Si  Si5  1  0.73227869  0.73227869  0.26772131  1
  Si  Si6  1  0.26772131  0.73227869  0.73227869  1
  Si  Si7  1  0.26772131  0.73227869  0.26772131  1
  Si  Si8  1  0.26772131  0.26772131  0.73227869  1
  Pd  Pd9  1  0.84782657  0.38405781  0.38405781  1
  Pd  Pd10  1  0.38405781  0.84782657  0.38405781  1
  Pd  Pd11  1  0.38405781  0.38405781  0.84782657  1
  Pd  Pd12  1  0.38405781  0.38405781  0.38405781  1
  Pd  Pd13  1  0.15217343  0.61594219  0.61594219  1
  Pd  Pd14  1  0.61594219  0.15217343  0.61594219  1
  Pd  Pd15  1  0.61594219  0.61594219  0.15217343  1
  Pd  Pd16  1  0.61594219  0.61594219  0.61594219  1
  Pd  Pd17  1  0.65403312  -0.00000000  0.00000000  1
  Pd  Pd18  1  0.65403312  0.00000000  0.34596688  1
  Pd  Pd19  1  0.65403312  0.34596688  -0.00000000  1
  Pd  Pd20  1  0.00000000  0.65403312  0.34596688  1
  Pd  Pd21  1  -0.00000000  0.65403312  -0.00000000  1
  Pd  Pd22  1  0.34596688  0.65403312  -0.00000000  1
  Pd  Pd23  1  -0.00000000  0.34596688  0.65403312  1
  Pd  Pd24  1  0.34596688  -0.00000000  0.65403312  1
  Pd  Pd25  1  -0.00000000  0.00000000  0.65403312  1
  Pd  Pd26  1  0.34596688  -0.00000000  0.00000000  1
  Pd  Pd27  1  -0.00000000  0.34596688  -0.00000000  1
  Pd  Pd28  1  0.00000000  -0.00000000  0.34596688  1
