# generated using pymatgen
data_Na5Tm4Si4O16F
_symmetry_space_group_name_H-M   'P 1'
_cell_length_a   5.40159365
_cell_length_b   8.60234109
_cell_length_c   8.60234109
_cell_angle_alpha   84.34309415
_cell_angle_beta   71.70191786
_cell_angle_gamma   71.70191786
_symmetry_Int_Tables_number   1
_chemical_formula_structural   Na5Tm4Si4O16F
_chemical_formula_sum   'Na5 Tm4 Si4 O16 F1'
_cell_volume   360.31853706
_cell_formula_units_Z   1
loop_
 _symmetry_equiv_pos_site_id
 _symmetry_equiv_pos_as_xyz
  1  'x, y, z'
loop_
 _atom_site_type_symbol
 _atom_site_label
 _atom_site_symmetry_multiplicity
 _atom_site_fract_x
 _atom_site_fract_y
 _atom_site_fract_z
 _atom_site_occupancy
  Na  Na0  1  0.59506238  0.30575835  0.51564974  1
  Na  Na1  1  0.41647047  0.69424165  0.48435026  1
  Na  Na2  1  0.09917927  0.48435026  0.30575835  1
  Na  Na3  1  0.88928788  0.51564974  0.69424165  1
  Na  Na4  1  -0.00000000  0.00000000  -0.00000000  1
  Tm  Tm5  1  0.63841084  0.70302625  0.06670219  1
  Tm  Tm6  1  0.40813928  0.29697375  0.93329781  1
  Tm  Tm7  1  0.65856291  0.93329781  0.70302625  1
  Tm  Tm8  1  0.29488697  0.06670219  0.29697375  1
  Si  Si9  1  0.74270910  0.35031996  0.14237231  1
  Si  Si10  1  0.23540136  0.64968004  0.85762769  1
  Si  Si11  1  0.90697095  0.85762769  0.35031996  1
  Si  Si12  1  0.11491859  0.14237231  0.64968004  1
  O  O13  1  0.62401168  0.49869422  0.27776032  1
  O  O14  1  0.40046622  0.50130578  0.72223968  1
  O  O15  1  0.87729411  0.72223968  0.49869422  1
  O  O16  1  0.09822800  0.27776032  0.50130578  1
  O  O17  1  0.05090699  0.23520762  0.13760344  1
  O  O18  1  0.42371805  0.76479238  0.86239656  1
  O  O19  1  0.71388539  0.86239656  0.23520762  1
  O  O20  1  0.81148957  0.13760344  0.76479238  1
  O  O21  1  0.53702338  0.23688671  0.17053779  1
  O  O22  1  0.94444788  0.76311329  0.82946221  1
  O  O23  1  0.22608991  0.82946221  0.23688671  1
  O  O24  1  0.29243882  0.17053779  0.76311329  1
  O  O25  1  0.72782805  0.44138316  0.96587342  1
  O  O26  1  0.13508464  0.55861684  0.03412658  1
  O  O27  1  0.83078878  0.03412658  0.44138316  1
  O  O28  1  0.30629853  0.96587342  0.55861684  1
  F  F29  1  0.50000000  0.00000000  -0.00000000  1
