# generated using pymatgen
data_Ca3(Cd2Pt)4
_symmetry_space_group_name_H-M   'P 1'
_cell_length_a   9.71374991
_cell_length_b   9.71374991
_cell_length_c   9.71374991
_cell_angle_alpha   60.00000000
_cell_angle_beta   60.00000000
_cell_angle_gamma   60.00000000
_symmetry_Int_Tables_number   1
_chemical_formula_structural   Ca3(Cd2Pt)4
_chemical_formula_sum   'Ca6 Cd16 Pt8'
_cell_volume   648.10557251
_cell_formula_units_Z   2
loop_
 _symmetry_equiv_pos_site_id
 _symmetry_equiv_pos_as_xyz
  1  'x, y, z'
loop_
 _atom_site_type_symbol
 _atom_site_label
 _atom_site_symmetry_multiplicity
 _atom_site_fract_x
 _atom_site_fract_y
 _atom_site_fract_z
 _atom_site_occupancy
  Ca  Ca0  1  0.78891239  0.21108761  0.21108761  1
  Ca  Ca1  1  0.78891239  0.21108761  0.78891239  1
  Ca  Ca2  1  0.78891239  0.78891239  0.21108761  1
  Ca  Ca3  1  0.21108761  0.78891239  0.78891239  1
  Ca  Ca4  1  0.21108761  0.78891239  0.21108761  1
  Ca  Ca5  1  0.21108761  0.21108761  0.78891239  1
  Cd  Cd6  1  0.85912133  0.38029289  0.38029289  1
  Cd  Cd7  1  0.38029289  0.85912133  0.38029289  1
  Cd  Cd8  1  0.38029289  0.38029289  0.85912133  1
  Cd  Cd9  1  0.38029289  0.38029289  0.38029289  1
  Cd  Cd10  1  0.14087867  0.61970711  0.61970711  1
  Cd  Cd11  1  0.61970711  0.14087867  0.61970711  1
  Cd  Cd12  1  0.61970711  0.61970711  0.14087867  1
  Cd  Cd13  1  0.61970711  0.61970711  0.61970711  1
  Cd  Cd14  1  0.50566170  0.16477943  0.16477943  1
  Cd  Cd15  1  0.16477943  0.50566170  0.16477943  1
  Cd  Cd16  1  0.16477943  0.16477943  0.50566170  1
  Cd  Cd17  1  0.16477943  0.16477943  0.16477943  1
  Cd  Cd18  1  0.49433830  0.83522057  0.83522057  1
  Cd  Cd19  1  0.83522057  0.49433830  0.83522057  1
  Cd  Cd20  1  0.83522057  0.83522057  0.49433830  1
  Cd  Cd21  1  0.83522057  0.83522057  0.83522057  1
  Pt  Pt22  1  0.50000000  -0.00000000  0.00000000  1
  Pt  Pt23  1  0.50000000  -0.00000000  0.50000000  1
  Pt  Pt24  1  0.50000000  0.50000000  0.00000000  1
  Pt  Pt25  1  0.00000000  0.50000000  0.50000000  1
  Pt  Pt26  1  -0.00000000  0.50000000  0.00000000  1
  Pt  Pt27  1  -0.00000000  -0.00000000  0.50000000  1
  Pt  Pt28  1  0.50000000  0.50000000  0.50000000  1
  Pt  Pt29  1  -0.00000000  -0.00000000  0.00000000  1
