# generated using pymatgen
data_Tb3Te3N
_symmetry_space_group_name_H-M   'P 1'
_cell_length_a   8.17004103
_cell_length_b   8.70100884
_cell_length_c   12.06799820
_cell_angle_alpha   90.00000000
_cell_angle_beta   90.00000000
_cell_angle_gamma   109.07368851
_symmetry_Int_Tables_number   1
_chemical_formula_structural   Tb3Te3N
_chemical_formula_sum   'Tb12 Te12 N4'
_cell_volume   810.78634063
_cell_formula_units_Z   4
loop_
 _symmetry_equiv_pos_site_id
 _symmetry_equiv_pos_as_xyz
  1  'x, y, z'
loop_
 _atom_site_type_symbol
 _atom_site_label
 _atom_site_symmetry_multiplicity
 _atom_site_fract_x
 _atom_site_fract_y
 _atom_site_fract_z
 _atom_site_occupancy
  Tb  Tb0  1  0.60307611  0.36188289  0.52224579  1
  Tb  Tb1  1  0.39692389  0.13811711  0.02224579  1
  Tb  Tb2  1  0.39692389  0.63811711  0.47775421  1
  Tb  Tb3  1  0.60307611  0.86188289  0.97775421  1
  Tb  Tb4  1  0.83947312  0.29540208  0.91050171  1
  Tb  Tb5  1  0.16052688  0.20459792  0.41050171  1
  Tb  Tb6  1  0.16052688  0.70459792  0.08949829  1
  Tb  Tb7  1  0.83947312  0.79540208  0.58949829  1
  Tb  Tb8  1  0.76738830  0.15904992  0.20823518  1
  Tb  Tb9  1  0.23261170  0.34095008  0.70823518  1
  Tb  Tb10  1  0.23261170  0.84095008  0.79176482  1
  Tb  Tb11  1  0.76738830  0.65904992  0.29176482  1
  Te  Te12  1  0.77580150  0.08359405  0.47815523  1
  Te  Te13  1  0.22419850  0.41640595  0.97815523  1
  Te  Te14  1  0.22419850  0.91640595  0.52184477  1
  Te  Te15  1  0.77580150  0.58359405  0.02184477  1
  Te  Te16  1  0.50774194  0.18418321  0.76572975  1
  Te  Te17  1  0.49225806  0.31581679  0.26572975  1
  Te  Te18  1  0.49225806  0.81581679  0.23427025  1
  Te  Te19  1  0.50774194  0.68418321  0.73427025  1
  Te  Te20  1  0.95490004  0.01451573  0.81164751  1
  Te  Te21  1  0.04509996  0.48548427  0.31164751  1
  Te  Te22  1  0.04509996  0.98548427  0.18835249  1
  Te  Te23  1  0.95490004  0.51451573  0.68835249  1
  N  N24  1  0.67207126  0.12412111  0.03406301  1
  N  N25  1  0.32792874  0.37587889  0.53406301  1
  N  N26  1  0.32792874  0.87587889  0.96593699  1
  N  N27  1  0.67207126  0.62412111  0.46593699  1
