# generated using pymatgen
data_Eu8In3
_symmetry_space_group_name_H-M   'P 1'
_cell_length_a   9.92717568
_cell_length_b   9.98012243
_cell_length_c   10.07493674
_cell_angle_alpha   99.12743055
_cell_angle_beta   101.19418924
_cell_angle_gamma   119.47931163
_symmetry_Int_Tables_number   1
_chemical_formula_structural   Eu8In3
_chemical_formula_sum   'Eu16 In6'
_cell_volume   813.77781757
_cell_formula_units_Z   2
loop_
 _symmetry_equiv_pos_site_id
 _symmetry_equiv_pos_as_xyz
  1  'x, y, z'
loop_
 _atom_site_type_symbol
 _atom_site_label
 _atom_site_symmetry_multiplicity
 _atom_site_fract_x
 _atom_site_fract_y
 _atom_site_fract_z
 _atom_site_occupancy
  Eu  Eu0  1  0.95907400  0.06061901  0.67008254  1
  Eu  Eu1  1  0.04092600  0.93938099  0.32991746  1
  Eu  Eu2  1  0.92268180  0.77095936  0.89272733  1
  Eu  Eu3  1  0.07731820  0.22904064  0.10727267  1
  Eu  Eu4  1  0.53487161  0.70114338  0.64784167  1
  Eu  Eu5  1  0.46512839  0.29885662  0.35215833  1
  Eu  Eu6  1  0.70257907  0.49994935  0.11351992  1
  Eu  Eu7  1  0.29742093  0.50005065  0.88648008  1
  Eu  Eu8  1  0.87879328  0.39927428  0.64530370  1
  Eu  Eu9  1  0.12120672  0.60072572  0.35469630  1
  Eu  Eu10  1  0.66748230  0.12065977  0.88681606  1
  Eu  Eu11  1  0.33251770  0.87934023  0.11318394  1
  Eu  Eu12  1  0.53678183  0.70585195  0.29347328  1
  Eu  Eu13  1  0.46321817  0.29414805  0.70652672  1
  Eu  Eu14  1  0.76987269  0.15500681  0.29567280  1
  Eu  Eu15  1  0.23012731  0.84499319  0.70432720  1
  In  In16  1  0.82813330  0.66308646  0.49945231  1
  In  In17  1  0.17186670  0.33691354  0.50054769  1
  In  In18  1  0.67428399  0.83770540  0.02564608  1
  In  In19  1  0.32571601  0.16229460  0.97435392  1
  In  In20  1  0.00000000  0.50000000  -0.00000000  1
  In  In21  1  0.50000000  0.00000000  0.50000000  1
