# generated using pymatgen
data_Na2Nb4Se4O19
_symmetry_space_group_name_H-M   'P 1'
_cell_length_a   4.01449008
_cell_length_b   10.36853939
_cell_length_c   11.12372744
_cell_angle_alpha   106.08043350
_cell_angle_beta   90.05296107
_cell_angle_gamma   97.42126356
_symmetry_Int_Tables_number   1
_chemical_formula_structural   Na2Nb4Se4O19
_chemical_formula_sum   'Na2 Nb4 Se4 O19'
_cell_volume   440.84810259
_cell_formula_units_Z   1
loop_
 _symmetry_equiv_pos_site_id
 _symmetry_equiv_pos_as_xyz
  1  'x, y, z'
loop_
 _atom_site_type_symbol
 _atom_site_label
 _atom_site_symmetry_multiplicity
 _atom_site_fract_x
 _atom_site_fract_y
 _atom_site_fract_z
 _atom_site_occupancy
  Na  Na0  1  0.77648113  0.93714254  0.86068828  1
  Na  Na1  1  0.22351887  0.06285746  0.13931172  1
  Nb  Nb2  1  0.33906798  0.18745323  0.70405603  1
  Nb  Nb3  1  0.66093202  0.81254677  0.29594397  1
  Nb  Nb4  1  0.56822995  0.55374719  0.68117954  1
  Nb  Nb5  1  0.43177005  0.44625281  0.31882046  1
  Se  Se6  1  0.34435394  0.82547833  0.58458768  1
  Se  Se7  1  0.65564606  0.17452167  0.41541232  1
  Se  Se8  1  0.28568300  0.71722070  0.98661655  1
  Se  Se9  1  0.71431700  0.28277930  0.01338345  1
  O  O10  1  0.64645160  0.87727286  0.48838552  1
  O  O11  1  0.35354840  0.12272714  0.51161448  1
  O  O12  1  0.31771483  0.97613727  0.69757835  1
  O  O13  1  0.68228517  0.02386273  0.30242165  1
  O  O14  1  0.60281181  0.76204040  0.67237531  1
  O  O15  1  0.39718819  0.23795960  0.32762469  1
  O  O16  1  0.56381686  0.64725475  0.87399003  1
  O  O17  1  0.43618314  0.35274525  0.12600997  1
  O  O18  1  0.60371473  0.77407558  0.10978395  1
  O  O19  1  0.39628527  0.22592442  0.89021605  1
  O  O20  1  0.24486084  0.86619480  0.95889649  1
  O  O21  1  0.75513916  0.13380520  0.04110351  1
  O  O22  1  0.88025538  0.17655077  0.70543244  1
  O  O23  1  0.11974462  0.82344923  0.29456756  1
  O  O24  1  0.45746650  0.37198015  0.69923853  1
  O  O25  1  0.54253350  0.62801985  0.30076147  1
  O  O26  1  0.50000000  0.50000000  0.50000000  1
  O  O27  1  0.02885841  0.56992337  0.69086991  1
  O  O28  1  0.97114159  0.43007663  0.30913009  1
