# generated using pymatgen
data_Ca2Al2SiO8
_symmetry_space_group_name_H-M   'P 1'
_cell_length_a   7.71943251
_cell_length_b   7.71943251
_cell_length_c   7.71943251
_cell_angle_alpha   69.76245482
_cell_angle_beta   70.91057737
_cell_angle_gamma   109.08942263
_symmetry_Int_Tables_number   1
_chemical_formula_structural   Ca2Al2SiO8
_chemical_formula_sum   'Ca4 Al4 Si2 O16'
_cell_volume   354.05918951
_cell_formula_units_Z   2
loop_
 _symmetry_equiv_pos_site_id
 _symmetry_equiv_pos_as_xyz
  1  'x, y, z'
loop_
 _atom_site_type_symbol
 _atom_site_label
 _atom_site_symmetry_multiplicity
 _atom_site_fract_x
 _atom_site_fract_y
 _atom_site_fract_z
 _atom_site_occupancy
  Ca  Ca0  1  0.69532672  0.69500654  0.30499346  1
  Ca  Ca1  1  0.30467328  0.99967982  0.00032018  1
  Ca  Ca2  1  -0.00000000  0.30499346  0.99967982  1
  Ca  Ca3  1  0.00000000  0.00032018  0.69500654  1
  Al  Al4  1  0.25203314  0.75203314  0.50000000  1
  Al  Al5  1  0.74796686  0.50000000  0.75203314  1
  Al  Al6  1  0.25203314  0.50000000  0.24796686  1
  Al  Al7  1  0.74796686  0.24796686  0.50000000  1
  Si  Si8  1  0.50000000  0.25000000  0.25000000  1
  Si  Si9  1  0.50000000  0.75000000  0.75000000  1
  O  O10  1  0.19529706  0.20268414  0.79731586  1
  O  O11  1  0.80470294  0.00738707  0.99261293  1
  O  O12  1  -0.00000000  0.79731586  0.00738707  1
  O  O13  1  -0.00000000  0.99261293  0.20268414  1
  O  O14  1  0.70629306  0.42913570  0.57086430  1
  O  O15  1  0.44536604  0.43106054  0.27589142  1
  O  O16  1  0.44536604  0.72410858  0.56893946  1
  O  O17  1  0.29370694  0.72284264  0.27715736  1
  O  O18  1  0.55463396  0.27874254  0.01430550  1
  O  O19  1  0.55463396  0.98569450  0.72125746  1
  O  O20  1  -0.00000000  0.57086430  0.72284264  1
  O  O21  1  0.29304804  0.56893946  0.98569450  1
  O  O22  1  0.70695196  0.27589142  0.27874254  1
  O  O23  1  0.00000000  0.27715736  0.42913570  1
  O  O24  1  0.70695196  0.72125746  0.72410858  1
  O  O25  1  0.29304804  0.01430550  0.43106054  1
