# generated using pymatgen
data_Te7RuI6
_symmetry_space_group_name_H-M   'P 1'
_cell_length_a   10.26664882
_cell_length_b   10.46550819
_cell_length_c   11.72747006
_cell_angle_alpha   102.29856466
_cell_angle_beta   103.58918208
_cell_angle_gamma   110.87012447
_symmetry_Int_Tables_number   1
_chemical_formula_structural   Te7RuI6
_chemical_formula_sum   'Te14 Ru2 I12'
_cell_volume   1081.63990683
_cell_formula_units_Z   2
loop_
 _symmetry_equiv_pos_site_id
 _symmetry_equiv_pos_as_xyz
  1  'x, y, z'
loop_
 _atom_site_type_symbol
 _atom_site_label
 _atom_site_symmetry_multiplicity
 _atom_site_fract_x
 _atom_site_fract_y
 _atom_site_fract_z
 _atom_site_occupancy
  Te  Te0  1  0.92544438  0.01483762  0.70813766  1
  Te  Te1  1  0.07455562  0.98516238  0.29186234  1
  Te  Te2  1  0.18232997  0.27272029  0.86946203  1
  Te  Te3  1  0.81767003  0.72727971  0.13053797  1
  Te  Te4  1  0.75337876  0.11934496  0.82680744  1
  Te  Te5  1  0.24662124  0.88065504  0.17319256  1
  Te  Te6  1  0.01980331  0.32883881  0.02446447  1
  Te  Te7  1  0.98019669  0.67116119  0.97553553  1
  Te  Te8  1  0.19775530  0.06821401  0.02031967  1
  Te  Te9  1  0.80224470  0.93178599  0.97968033  1
  Te  Te10  1  0.71627557  0.62144729  0.67232518  1
  Te  Te11  1  0.28372443  0.37855271  0.32767482  1
  Te  Te12  1  0.09861029  0.75088044  0.71117504  1
  Te  Te13  1  0.90138971  0.24911956  0.28882496  1
  Ru  Ru14  1  0.95332131  0.83898214  0.83925883  1
  Ru  Ru15  1  0.04667869  0.16101786  0.16074117  1
  I  I16  1  0.52363204  0.77090273  0.61524364  1
  I  I17  1  0.47636796  0.22909727  0.38475636  1
  I  I18  1  0.82096286  0.67124877  0.45644064  1
  I  I19  1  0.17903714  0.32875123  0.54355936  1
  I  I20  1  0.88473526  0.41987733  0.66774887  1
  I  I21  1  0.11526474  0.58012267  0.33225113  1
  I  I22  1  0.58516239  0.47554753  0.84702304  1
  I  I23  1  0.41483761  0.52445247  0.15297696  1
  I  I24  1  0.28867446  0.02121265  0.68540672  1
  I  I25  1  0.71132554  0.97878735  0.31459328  1
  I  I26  1  0.33077288  0.74463161  0.90814542  1
  I  I27  1  0.66922712  0.25536839  0.09185458  1
