# generated using pymatgen
data_Cs3Nb2I9
_symmetry_space_group_name_H-M   'P 1'
_cell_length_a   8.60415394
_cell_length_b   8.60415198
_cell_length_c   19.93706182
_cell_angle_alpha   90.00000000
_cell_angle_beta   90.00000000
_cell_angle_gamma   119.99992648
_symmetry_Int_Tables_number   1
_chemical_formula_structural   Cs3Nb2I9
_chemical_formula_sum   'Cs6 Nb4 I18'
_cell_volume   1278.22807947
_cell_formula_units_Z   2
loop_
 _symmetry_equiv_pos_site_id
 _symmetry_equiv_pos_as_xyz
  1  'x, y, z'
loop_
 _atom_site_type_symbol
 _atom_site_label
 _atom_site_symmetry_multiplicity
 _atom_site_fract_x
 _atom_site_fract_y
 _atom_site_fract_z
 _atom_site_occupancy
  Cs  Cs0  1  0.99998591  0.99998437  0.75000000  1
  Cs  Cs1  1  0.00001409  0.00001563  0.25000000  1
  Cs  Cs2  1  0.66668354  0.33332445  0.56876160  1
  Cs  Cs3  1  0.33331646  0.66667555  0.43123840  1
  Cs  Cs4  1  0.33331646  0.66667555  0.06876160  1
  Cs  Cs5  1  0.66668354  0.33332445  0.93123840  1
  Nb  Nb6  1  0.66667328  0.33332863  0.32062465  1
  Nb  Nb7  1  0.33332672  0.66667137  0.67937535  1
  Nb  Nb8  1  0.33332672  0.66667137  0.82062465  1
  Nb  Nb9  1  0.66667328  0.33332863  0.17937535  1
  I  I10  1  0.50168920  0.00339083  0.75000000  1
  I  I11  1  0.50169091  0.49831220  0.75000000  1
  I  I12  1  0.99660779  0.49831081  0.75000000  1
  I  I13  1  0.49831080  0.99660917  0.25000000  1
  I  I14  1  0.49830909  0.50168780  0.25000000  1
  I  I15  1  0.00339221  0.50168919  0.25000000  1
  I  I16  1  0.17687767  0.35376315  0.59497569  1
  I  I17  1  0.17687213  0.82312106  0.59497785  1
  I  I18  1  0.64623443  0.82312260  0.59497514  1
  I  I19  1  0.82312233  0.64623685  0.40502431  1
  I  I20  1  0.82312787  0.17687894  0.40502215  1
  I  I21  1  0.35376557  0.17687740  0.40502486  1
  I  I22  1  0.82312233  0.64623685  0.09497569  1
  I  I23  1  0.82312787  0.17687894  0.09497785  1
  I  I24  1  0.35376557  0.17687740  0.09497514  1
  I  I25  1  0.17687767  0.35376315  0.90502431  1
  I  I26  1  0.17687213  0.82312106  0.90502215  1
  I  I27  1  0.64623443  0.82312260  0.90502486  1
