# generated using pymatgen
data_ThTlF5
_symmetry_space_group_name_H-M   'P 1'
_cell_length_a   7.33667970
_cell_length_b   8.26039584
_cell_length_c   8.98071306
_cell_angle_alpha   117.37650073
_cell_angle_beta   90.00000000
_cell_angle_gamma   90.00000000
_symmetry_Int_Tables_number   1
_chemical_formula_structural   ThTlF5
_chemical_formula_sum   'Th4 Tl4 F20'
_cell_volume   483.31045385
_cell_formula_units_Z   4
loop_
 _symmetry_equiv_pos_site_id
 _symmetry_equiv_pos_as_xyz
  1  'x, y, z'
loop_
 _atom_site_type_symbol
 _atom_site_label
 _atom_site_symmetry_multiplicity
 _atom_site_fract_x
 _atom_site_fract_y
 _atom_site_fract_z
 _atom_site_occupancy
  Th  Th0  1  0.34419027  0.22139997  0.63983320  1
  Th  Th1  1  0.15580973  0.72139997  0.13983320  1
  Th  Th2  1  0.65580973  0.77860003  0.36016680  1
  Th  Th3  1  0.84419027  0.27860003  0.86016680  1
  Tl  Tl4  1  0.37395352  0.23337445  0.15452254  1
  Tl  Tl5  1  0.12604648  0.73337445  0.65452254  1
  Tl  Tl6  1  0.62604648  0.76662555  0.84547746  1
  Tl  Tl7  1  0.87395352  0.26662555  0.34547746  1
  F  F8  1  0.52202088  0.20226236  0.85755146  1
  F  F9  1  0.97797912  0.70226236  0.35755146  1
  F  F10  1  0.47797912  0.79773764  0.14244854  1
  F  F11  1  0.02202088  0.29773764  0.64244854  1
  F  F12  1  0.42406180  0.90868720  0.57117707  1
  F  F13  1  0.07593820  0.40868720  0.07117707  1
  F  F14  1  0.57593820  0.09131280  0.42882293  1
  F  F15  1  0.92406180  0.59131280  0.92882293  1
  F  F16  1  0.31712347  0.39425848  0.50820394  1
  F  F17  1  0.18287653  0.89425848  0.00820394  1
  F  F18  1  0.68287653  0.60574152  0.49179606  1
  F  F19  1  0.81712347  0.10574152  0.99179606  1
  F  F20  1  0.63926315  0.38554024  0.71666482  1
  F  F21  1  0.86073685  0.88554024  0.21666482  1
  F  F22  1  0.36073685  0.61445976  0.28333518  1
  F  F23  1  0.13926315  0.11445976  0.78333518  1
  F  F24  1  0.20397835  0.00853183  0.37689474  1
  F  F25  1  0.29602165  0.50853183  0.87689474  1
  F  F26  1  0.79602165  0.99146817  0.62310526  1
  F  F27  1  0.70397835  0.49146817  0.12310526  1
