# generated using pymatgen
data_SiCCl3
_symmetry_space_group_name_H-M   'P 1'
_cell_length_a   9.59651668
_cell_length_b   9.59651668
_cell_length_c   9.65350440
_cell_angle_alpha   95.98602945
_cell_angle_beta   95.98602945
_cell_angle_gamma   101.05467099
_symmetry_Int_Tables_number   1
_chemical_formula_structural   SiCCl3
_chemical_formula_sum   'Si6 C6 Cl18'
_cell_volume   860.70493556
_cell_formula_units_Z   6
loop_
 _symmetry_equiv_pos_site_id
 _symmetry_equiv_pos_as_xyz
  1  'x, y, z'
loop_
 _atom_site_type_symbol
 _atom_site_label
 _atom_site_symmetry_multiplicity
 _atom_site_fract_x
 _atom_site_fract_y
 _atom_site_fract_z
 _atom_site_occupancy
  Si  Si0  1  0.40709015  0.18170087  0.75665144  1
  Si  Si1  1  0.59290985  0.81829913  0.24334856  1
  Si  Si2  1  0.81829913  0.59290985  0.24334856  1
  Si  Si3  1  0.18170087  0.40709015  0.75665144  1
  Si  Si4  1  0.89488185  0.89488185  0.68623689  1
  Si  Si5  1  0.10511815  0.10511815  0.31376311  1
  C  C6  1  0.76768365  0.76768365  0.30379757  1
  C  C7  1  0.23231635  0.23231635  0.69620243  1
  C  C8  1  0.94032828  0.94032828  0.50759978  1
  C  C9  1  0.05967172  0.05967172  0.49240022  1
  C  C10  1  0.85610589  0.85610589  0.40163243  1
  C  C11  1  0.14389411  0.14389411  0.59836757  1
  Cl  Cl12  1  0.43850173  0.18611662  0.96913886  1
  Cl  Cl13  1  0.56149827  0.81388338  0.03086114  1
  Cl  Cl14  1  0.81388338  0.56149827  0.03086114  1
  Cl  Cl15  1  0.18611662  0.43850173  0.96913886  1
  Cl  Cl16  1  0.57311151  0.32072993  0.69772313  1
  Cl  Cl17  1  0.42688849  0.67927007  0.30227687  1
  Cl  Cl18  1  0.67927007  0.42688849  0.30227687  1
  Cl  Cl19  1  0.32072993  0.57311151  0.69772313  1
  Cl  Cl20  1  0.41302267  0.98127616  0.66727527  1
  Cl  Cl21  1  0.58697733  0.01872384  0.33272473  1
  Cl  Cl22  1  0.01872384  0.58697733  0.33272473  1
  Cl  Cl23  1  0.98127616  0.41302267  0.66727527  1
  Cl  Cl24  1  0.84227145  0.06509777  0.79845807  1
  Cl  Cl25  1  0.15772855  0.93490223  0.20154193  1
  Cl  Cl26  1  0.93490223  0.15772855  0.20154193  1
  Cl  Cl27  1  0.06509777  0.84227145  0.79845807  1
  Cl  Cl28  1  0.72572164  0.72572164  0.66779875  1
  Cl  Cl29  1  0.27427836  0.27427836  0.33220125  1
