# generated using pymatgen
data_TbMoBrO4
_symmetry_space_group_name_H-M   'P 1'
_cell_length_a   6.94481014
_cell_length_b   7.31622780
_cell_length_c   11.10053646
_cell_angle_alpha   105.62111753
_cell_angle_beta   107.28752338
_cell_angle_gamma   92.73718730
_symmetry_Int_Tables_number   1
_chemical_formula_structural   TbMoBrO4
_chemical_formula_sum   'Tb4 Mo4 Br4 O16'
_cell_volume   513.61400070
_cell_formula_units_Z   4
loop_
 _symmetry_equiv_pos_site_id
 _symmetry_equiv_pos_as_xyz
  1  'x, y, z'
loop_
 _atom_site_type_symbol
 _atom_site_label
 _atom_site_symmetry_multiplicity
 _atom_site_fract_x
 _atom_site_fract_y
 _atom_site_fract_z
 _atom_site_occupancy
  Tb  Tb0  1  0.64399043  0.12213624  0.73051776  1
  Tb  Tb1  1  0.35600957  0.87786376  0.26948224  1
  Tb  Tb2  1  0.39259710  0.65099624  0.76857254  1
  Tb  Tb3  1  0.60740290  0.34900376  0.23142746  1
  Mo  Mo4  1  0.73412798  0.81377865  0.13386845  1
  Mo  Mo5  1  0.26587202  0.18622135  0.86613155  1
  Mo  Mo6  1  0.77520567  0.59178621  0.62966068  1
  Mo  Mo7  1  0.22479433  0.40821379  0.37033932  1
  Br  Br8  1  0.25881320  0.98540929  0.51709934  1
  Br  Br9  1  0.74118680  0.01459071  0.48290066  1
  Br  Br10  1  0.19501585  0.71646666  0.98112719  1
  Br  Br11  1  0.80498415  0.28353334  0.01887281  1
  O  O12  1  0.67000015  0.72798036  0.95924238  1
  O  O13  1  0.32999985  0.27201964  0.04075762  1
  O  O14  1  0.00301114  0.86566783  0.20660210  1
  O  O15  1  0.99698886  0.13433217  0.79339790  1
  O  O16  1  0.62511246  0.65052152  0.20197194  1
  O  O17  1  0.37488754  0.34947848  0.79802806  1
  O  O18  1  0.39296236  0.97922256  0.81836344  1
  O  O19  1  0.60703764  0.02077744  0.18163656  1
  O  O20  1  0.04361513  0.64377303  0.67511674  1
  O  O21  1  0.95638487  0.35622697  0.32488326  1
  O  O22  1  0.70802687  0.41778789  0.70259048  1
  O  O23  1  0.29197313  0.58221211  0.29740952  1
  O  O24  1  0.67529470  0.50629855  0.45344877  1
  O  O25  1  0.32470530  0.49370145  0.54655123  1
  O  O26  1  0.65744837  0.79608596  0.70085593  1
  O  O27  1  0.34255163  0.20391404  0.29914407  1
