# generated using pymatgen
data_Eu(HoS2)2
_symmetry_space_group_name_H-M   'P 1'
_cell_length_a   3.95763192
_cell_length_b   11.89444343
_cell_length_c   14.21318116
_cell_angle_alpha   90.00000000
_cell_angle_beta   90.00000000
_cell_angle_gamma   90.00000000
_symmetry_Int_Tables_number   1
_chemical_formula_structural   Eu(HoS2)2
_chemical_formula_sum   'Eu4 Ho8 S16'
_cell_volume   669.06885932
_cell_formula_units_Z   4
loop_
 _symmetry_equiv_pos_site_id
 _symmetry_equiv_pos_as_xyz
  1  'x, y, z'
loop_
 _atom_site_type_symbol
 _atom_site_label
 _atom_site_symmetry_multiplicity
 _atom_site_fract_x
 _atom_site_fract_y
 _atom_site_fract_z
 _atom_site_occupancy
  Eu  Eu0  1  0.75000000  0.74185484  0.16244936  1
  Eu  Eu1  1  0.75000000  0.24185484  0.33755064  1
  Eu  Eu2  1  0.25000000  0.25814516  0.83755064  1
  Eu  Eu3  1  0.25000000  0.75814516  0.66244936  1
  Ho  Ho4  1  0.75000000  0.06719125  0.11027471  1
  Ho  Ho5  1  0.75000000  0.56719125  0.38972529  1
  Ho  Ho6  1  0.25000000  0.93280875  0.88972529  1
  Ho  Ho7  1  0.25000000  0.43280875  0.61027471  1
  Ho  Ho8  1  0.75000000  0.08147962  0.59985295  1
  Ho  Ho9  1  0.75000000  0.58147962  0.90014705  1
  Ho  Ho10  1  0.25000000  0.91852038  0.40014705  1
  Ho  Ho11  1  0.25000000  0.41852038  0.09985295  1
  S  S12  1  0.75000000  0.29295282  0.67673816  1
  S  S13  1  0.75000000  0.79295282  0.82326184  1
  S  S14  1  0.25000000  0.70704718  0.32326184  1
  S  S15  1  0.25000000  0.20704718  0.17673816  1
  S  S16  1  0.75000000  0.36809778  0.97088264  1
  S  S17  1  0.75000000  0.86809778  0.52911736  1
  S  S18  1  0.25000000  0.63190222  0.02911736  1
  S  S19  1  0.25000000  0.13190222  0.47088264  1
  S  S20  1  0.75000000  0.47693871  0.21584828  1
  S  S21  1  0.75000000  0.97693871  0.28415172  1
  S  S22  1  0.25000000  0.52306129  0.78415172  1
  S  S23  1  0.25000000  0.02306129  0.71584828  1
  S  S24  1  0.75000000  0.08844917  0.92056791  1
  S  S25  1  0.75000000  0.58844917  0.57943209  1
  S  S26  1  0.25000000  0.91155083  0.07943209  1
  S  S27  1  0.25000000  0.41155083  0.42056791  1
