# generated using pymatgen
data_Hf9Re4B
_symmetry_space_group_name_H-M   'P 1'
_cell_length_a   8.44320113
_cell_length_b   8.44320113
_cell_length_c   8.57799657
_cell_angle_alpha   90.00000000
_cell_angle_beta   90.00000000
_cell_angle_gamma   119.99864467
_symmetry_Int_Tables_number   1
_chemical_formula_structural   Hf9Re4B
_chemical_formula_sum   'Hf18 Re8 B2'
_cell_volume   529.58625086
_cell_formula_units_Z   2
loop_
 _symmetry_equiv_pos_site_id
 _symmetry_equiv_pos_as_xyz
  1  'x, y, z'
loop_
 _atom_site_type_symbol
 _atom_site_label
 _atom_site_symmetry_multiplicity
 _atom_site_fract_x
 _atom_site_fract_y
 _atom_site_fract_z
 _atom_site_occupancy
  Hf  Hf0  1  0.79887232  0.59772938  0.55444787  1
  Hf  Hf1  1  0.79886541  0.20113459  0.55444141  1
  Hf  Hf2  1  0.40227062  0.20112768  0.55444787  1
  Hf  Hf3  1  0.20112768  0.40227062  0.44555213  1
  Hf  Hf4  1  0.20113459  0.79886541  0.44555859  1
  Hf  Hf5  1  0.59772938  0.79887232  0.44555213  1
  Hf  Hf6  1  0.20112768  0.40227062  0.05444787  1
  Hf  Hf7  1  0.20113459  0.79886541  0.05444141  1
  Hf  Hf8  1  0.59772938  0.79887232  0.05444787  1
  Hf  Hf9  1  0.79887232  0.59772938  0.94555213  1
  Hf  Hf10  1  0.79886541  0.20113459  0.94555859  1
  Hf  Hf11  1  0.40227062  0.20112768  0.94555213  1
  Hf  Hf12  1  0.45997791  0.91995777  0.75000000  1
  Hf  Hf13  1  0.45997463  0.54002537  0.75000000  1
  Hf  Hf14  1  0.08004223  0.54002209  0.75000000  1
  Hf  Hf15  1  0.54002209  0.08004223  0.25000000  1
  Hf  Hf16  1  0.54002537  0.45997463  0.25000000  1
  Hf  Hf17  1  0.91995777  0.45997791  0.25000000  1
  Re  Re18  1  0.11041698  0.22083076  0.75000000  1
  Re  Re19  1  0.11041777  0.88958223  0.75000000  1
  Re  Re20  1  0.77916924  0.88958302  0.75000000  1
  Re  Re21  1  0.88958302  0.77916924  0.25000000  1
  Re  Re22  1  0.88958223  0.11041777  0.25000000  1
  Re  Re23  1  0.22083076  0.11041698  0.25000000  1
  Re  Re24  1  -0.00000000  -0.00000000  0.50000000  1
  Re  Re25  1  -0.00000000  -0.00000000  0.00000000  1
  B  B26  1  0.66668624  0.33331376  0.75000000  1
  B  B27  1  0.33331376  0.66668624  0.25000000  1
