# generated using pymatgen
data_AlSi3O8
_symmetry_space_group_name_H-M   'P 1'
_cell_length_a   7.46415525
_cell_length_b   7.63626338
_cell_length_c   7.97984869
_cell_angle_alpha   116.45453112
_cell_angle_beta   104.94859640
_cell_angle_gamma   102.07244219
_symmetry_Int_Tables_number   1
_chemical_formula_structural   AlSi3O8
_chemical_formula_sum   'Al2 Si6 O16'
_cell_volume   364.77571349
_cell_formula_units_Z   2
loop_
 _symmetry_equiv_pos_site_id
 _symmetry_equiv_pos_as_xyz
  1  'x, y, z'
loop_
 _atom_site_type_symbol
 _atom_site_label
 _atom_site_symmetry_multiplicity
 _atom_site_fract_x
 _atom_site_fract_y
 _atom_site_fract_z
 _atom_site_occupancy
  Al  Al0  1  0.21690923  0.84014777  0.19393188  1
  Al  Al1  1  0.78309077  0.15985223  0.80606812  1
  Si  Si2  1  0.34176461  0.57893790  0.81200866  1
  Si  Si3  1  0.34174490  0.80095483  0.58027146  1
  Si  Si4  1  0.65823539  0.42106210  0.18799134  1
  Si  Si5  1  0.65825510  0.19904517  0.41972854  1
  Si  Si6  1  0.22979173  0.19266682  0.84172771  1
  Si  Si7  1  0.77020827  0.80733318  0.15827229  1
  O  O8  1  0.41695213  0.08618940  0.33463625  1
  O  O9  1  0.41386326  0.32746490  0.06804284  1
  O  O10  1  0.58304787  0.91381060  0.66536375  1
  O  O11  1  0.58613674  0.67253510  0.93195716  1
  O  O12  1  0.24657891  0.72225555  0.34094714  1
  O  O13  1  0.24986054  0.32733879  0.72900106  1
  O  O14  1  0.75342109  0.27774445  0.65905286  1
  O  O15  1  0.75013946  0.67266121  0.27099894  1
  O  O16  1  0.98233936  0.85426536  0.14240799  1
  O  O17  1  0.01766064  0.14573464  0.85759201  1
  O  O18  1  0.24904268  0.70374646  0.96876068  1
  O  O19  1  0.25496207  0.97194177  0.70843184  1
  O  O20  1  0.75095732  0.29625354  0.03123932  1
  O  O21  1  0.74503793  0.02805823  0.29156816  1
  O  O22  1  0.28810102  0.60445382  0.61523737  1
  O  O23  1  0.71189898  0.39554618  0.38476263  1
