# generated using pymatgen
data_Mn4SiTeBr2O7
_symmetry_space_group_name_H-M   'P 1'
_cell_length_a   5.62130974
_cell_length_b   6.59199826
_cell_length_c   13.07214873
_cell_angle_alpha   90.00000000
_cell_angle_beta   93.49693776
_cell_angle_gamma   90.00000000
_symmetry_Int_Tables_number   1
_chemical_formula_structural   Mn4SiTeBr2O7
_chemical_formula_sum   'Mn8 Si2 Te2 Br4 O14'
_cell_volume   483.49523256
_cell_formula_units_Z   2
loop_
 _symmetry_equiv_pos_site_id
 _symmetry_equiv_pos_as_xyz
  1  'x, y, z'
loop_
 _atom_site_type_symbol
 _atom_site_label
 _atom_site_symmetry_multiplicity
 _atom_site_fract_x
 _atom_site_fract_y
 _atom_site_fract_z
 _atom_site_occupancy
  Mn  Mn0  1  0.95997407  0.25000000  0.17631208  1
  Mn  Mn1  1  0.04002593  0.75000000  0.82368792  1
  Mn  Mn2  1  0.64468294  0.00336056  0.36777969  1
  Mn  Mn3  1  0.35531706  0.50336056  0.63222031  1
  Mn  Mn4  1  0.35531706  0.99663944  0.63222031  1
  Mn  Mn5  1  0.64468294  0.49663944  0.36777969  1
  Mn  Mn6  1  0.14915541  0.75000000  0.33490007  1
  Mn  Mn7  1  0.85084459  0.25000000  0.66509993  1
  Si  Si8  1  0.15526824  0.25000000  0.43937317  1
  Si  Si9  1  0.84473176  0.75000000  0.56062683  1
  Te  Te10  1  0.70530582  0.75000000  0.15492931  1
  Te  Te11  1  0.29469418  0.25000000  0.84507069  1
  Br  Br12  1  0.42422630  0.25000000  0.17939369  1
  Br  Br13  1  0.57577370  0.75000000  0.82060631  1
  Br  Br14  1  0.84423829  0.25000000  0.98153955  1
  Br  Br15  1  0.15576171  0.75000000  0.01846045  1
  O  O16  1  0.29387452  0.03829996  0.41018656  1
  O  O17  1  0.70612548  0.53829996  0.58981344  1
  O  O18  1  0.70612548  0.96170004  0.58981344  1
  O  O19  1  0.29387452  0.46170004  0.41018656  1
  O  O20  1  0.49076612  0.75000000  0.26570336  1
  O  O21  1  0.50923388  0.25000000  0.73429664  1
  O  O22  1  0.15087477  0.25000000  0.56677241  1
  O  O23  1  0.84912523  0.75000000  0.43322759  1
  O  O24  1  0.89449290  0.95228297  0.22705045  1
  O  O25  1  0.10550710  0.45228297  0.77294955  1
  O  O26  1  0.10550710  0.04771703  0.77294955  1
  O  O27  1  0.89449290  0.54771703  0.22705045  1
  O  O28  1  0.88015166  0.25000000  0.38624288  1
  O  O29  1  0.11984834  0.75000000  0.61375712  1
