# generated using pymatgen
data_U6Al8Fe5Si9
_symmetry_space_group_name_H-M   'P 1'
_cell_length_a   4.10525721
_cell_length_b   11.10371859
_cell_length_c   11.10371859
_cell_angle_alpha   66.61685634
_cell_angle_beta   79.34705750
_cell_angle_gamma   79.34705750
_symmetry_Int_Tables_number   1
_chemical_formula_structural   U6Al8Fe5Si9
_chemical_formula_sum   'U6 Al8 Fe5 Si9'
_cell_volume   453.07058977
_cell_formula_units_Z   1
loop_
 _symmetry_equiv_pos_site_id
 _symmetry_equiv_pos_as_xyz
  1  'x, y, z'
loop_
 _atom_site_type_symbol
 _atom_site_label
 _atom_site_symmetry_multiplicity
 _atom_site_fract_x
 _atom_site_fract_y
 _atom_site_fract_z
 _atom_site_occupancy
  U  U0  1  0.87157009  0.12842991  0.12842991  1
  U  U1  1  0.12842991  0.87157009  0.87157009  1
  U  U2  1  0.87493370  0.81075230  0.43938031  1
  U  U3  1  0.12506630  0.56061969  0.18924770  1
  U  U4  1  0.87493370  0.43938031  0.81075230  1
  U  U5  1  0.12506630  0.18924770  0.56061969  1
  Al  Al6  1  0.38457006  0.61542994  0.61542994  1
  Al  Al7  1  0.61542994  0.38457006  0.38457006  1
  Al  Al8  1  0.50000000  0.66445796  0.33554204  1
  Al  Al9  1  0.50000000  0.33554204  0.66445796  1
  Al  Al10  1  0.23453395  0.26546605  0.26546605  1
  Al  Al11  1  0.76546605  0.73453395  0.73453395  1
  Al  Al12  1  0.00000000  0.85143945  0.14856055  1
  Al  Al13  1  -0.00000000  0.14856055  0.85143945  1
  Fe  Fe14  1  0.28552208  0.02984117  0.39911467  1
  Fe  Fe15  1  0.71447792  0.60088533  0.97015883  1
  Fe  Fe16  1  0.28552208  0.39911467  0.02984117  1
  Fe  Fe17  1  0.71447792  0.97015883  0.60088533  1
  Fe  Fe18  1  0.50000000  -0.00000000  -0.00000000  1
  Si  Si19  1  0.73799009  0.13173863  0.39228119  1
  Si  Si20  1  0.26200991  0.60771881  0.86826137  1
  Si  Si21  1  0.73799009  0.39228119  0.13173863  1
  Si  Si22  1  0.26200991  0.86826137  0.60771881  1
  Si  Si23  1  0.41136130  0.93393519  0.24334222  1
  Si  Si24  1  0.58863870  0.75665778  0.06606481  1
  Si  Si25  1  0.41136130  0.24334222  0.93393519  1
  Si  Si26  1  0.58863870  0.06606481  0.75665778  1
  Si  Si27  1  0.00000000  0.50000000  0.50000000  1
