# generated using pymatgen
data_U8NiSe17
_symmetry_space_group_name_H-M   'P 1'
_cell_length_a   8.19177697
_cell_length_b   8.19177697
_cell_length_c   10.79871219
_cell_angle_alpha   79.82026368
_cell_angle_beta   79.82026368
_cell_angle_gamma   64.40444838
_symmetry_Int_Tables_number   1
_chemical_formula_structural   U8NiSe17
_chemical_formula_sum   'U8 Ni1 Se17'
_cell_volume   639.12287373
_cell_formula_units_Z   1
loop_
 _symmetry_equiv_pos_site_id
 _symmetry_equiv_pos_as_xyz
  1  'x, y, z'
loop_
 _atom_site_type_symbol
 _atom_site_label
 _atom_site_symmetry_multiplicity
 _atom_site_fract_x
 _atom_site_fract_y
 _atom_site_fract_z
 _atom_site_occupancy
  U  U0  1  0.18041743  0.69625880  0.70248776  1
  U  U1  1  0.69625880  0.18041743  0.70248776  1
  U  U2  1  0.81958257  0.30374120  0.29751224  1
  U  U3  1  0.30374120  0.81958257  0.29751224  1
  U  U4  1  0.79955642  0.79955642  0.45530381  1
  U  U5  1  0.20044358  0.20044358  0.54469619  1
  U  U6  1  0.32016858  0.32016858  0.01321898  1
  U  U7  1  0.67983142  0.67983142  0.98678102  1
  Ni  Ni8  1  0.00000000  0.00000000  0.00000000  1
  Se  Se9  1  0.18123374  0.56501617  0.46403917  1
  Se  Se10  1  0.56501617  0.18123374  0.46403917  1
  Se  Se11  1  0.81876626  0.43498383  0.53596083  1
  Se  Se12  1  0.43498383  0.81876626  0.53596083  1
  Se  Se13  1  0.05230905  0.67705638  0.97415732  1
  Se  Se14  1  0.67705638  0.05230905  0.97415732  1
  Se  Se15  1  0.94769095  0.32294362  0.02584268  1
  Se  Se16  1  0.32294362  0.94769095  0.02584268  1
  Se  Se17  1  0.78511416  0.78511416  0.72242831  1
  Se  Se18  1  0.21488584  0.21488584  0.27757169  1
  Se  Se19  1  0.94747154  0.94747154  0.22243246  1
  Se  Se20  1  0.05252846  0.05252846  0.77756754  1
  Se  Se21  1  0.70126122  0.70126122  0.24382795  1
  Se  Se22  1  0.29873878  0.29873878  0.75617205  1
  Se  Se23  1  0.47944533  0.47944533  0.16963926  1
  Se  Se24  1  0.52055467  0.52055467  0.83036074  1
  Se  Se25  1  0.00000000  0.00000000  0.50000000  1
